158

Mg 25.66900 -0.42600 29.45500
C  27.43900 -0.18800 32.60100
C  22.75700 0.04200 31.18400
C  24.24900 -0.92100 26.56600
C  28.91100 -0.63300 27.99000
N  25.20200 0.06200 31.60400
C  26.06700 0.15700 32.68700
C  25.22700 0.46800 33.99500
C  23.75300 0.37400 33.55800
C  23.91300 0.09700 32.01600
C  22.82200 -0.51900 34.36300
C  25.60700 1.85500 34.60200
C  26.37200 1.83700 35.98100
H  25.83800 2.83400 36.94700
N  23.82900 -0.33400 28.93400
C  22.70100 -0.29500 29.77400
C  21.51700 -0.35800 28.93200
C  21.97400 -0.62800 27.63100
C  23.40500 -0.64100 27.68900
C  20.06800 -0.04400 29.43800
C  21.18100 -0.80500 26.31100
O  21.68700 -0.87200 25.18400
C  19.69800 -1.09400 26.41000
N  26.45700 -0.73500 27.58600
C  25.67700 -0.86500 26.57400
C  26.48500 -1.01300 25.25400
C  27.91700 -0.61400 25.68500
C  27.78800 -0.73000 27.16800
C  26.45700 -2.38200 24.51700
C  28.22600 0.81600 25.30900
C  27.28800 1.84200 25.95600
N  27.77200 -0.57400 30.16400
C  28.95600 -0.57600 29.42400
C  30.05400 -0.63200 30.34200
C  29.56000 -0.44600 31.66900
C  28.14100 -0.39700 31.46200
C  31.52100 -0.66500 29.93800
C  29.88400 -0.31800 33.00100
O  30.92600 -0.27400 33.61800
C  28.49500 -0.09800 33.62500
C  28.22800 -1.03700 34.72300
O  27.62000 -2.13600 34.65500
O  28.78700 -0.61900 35.95600
C  28.79900 -1.32000 37.19800
H  21.80100 0.22700 31.67700
H  23.90500 -1.09600 25.54400
H  29.86500 -0.73900 27.47000
H  25.51300 -0.32700 34.68300
H  23.39800 1.40200 33.62900
H  21.93800 0.06800 34.61400
H  23.30000 -0.85500 35.28300
H  22.47200 -1.35200 33.75300
H  24.76300 2.53800 34.70500
H  26.30700 2.32800 33.91300
H  27.40600 2.15900 35.86000
H  26.38300 0.80800 36.34200
H  19.54000 -0.99500 29.36200
H  19.65200 0.72300 28.78500
H  20.08500 0.30200 30.47200
H  19.51200 -1.90600 27.11300
H  19.24200 -1.40300 25.46900
H  19.12500 -0.21800 26.71300
H  26.13700 -0.21800 24.59500
H  28.67600 -1.32800 25.36500
H  26.80300 -3.22300 25.11700
H  27.30400 -2.41700 23.83100
H  25.52800 -2.57000 23.97900
H  28.19500 0.93200 24.22600
H  29.23900 1.07000 25.62000
H  27.66500 2.11900 26.94100
H  26.28900 1.41000 26.01500
H  27.28800 2.71500 25.30300
H  32.10500 -0.06400 30.63500
H  31.66400 -0.32900 28.91100
H  31.70300 -1.73100 30.07600
H  28.48000 0.90400 34.05200
H  29.50700 -2.11700 36.97000
H  27.81100 -1.77300 37.28100
H  29.08200 -0.57200 37.93900
Mg -4.82400 24.85700 26.56700
C  -3.12400 26.41700 29.20400
C  -6.36500 22.79600 28.97900
C  -6.79700 23.50200 24.13400
C  -3.15200 26.64000 24.31200
N  -4.77600 24.67600 28.79900
C  -4.11100 25.52000 29.66100
C  -4.35200 25.15000 31.18300
C  -5.22300 23.82400 31.01700
C  -5.50000 23.75700 29.51800
C  -4.49400 22.56700 31.55200
C  -5.08300 26.45200 31.78700
C  -5.98000 26.17000 33.00500
H  -5.47000 25.08100 33.98700
N  -6.29400 23.24200 26.53600
C  -6.72800 22.48700 27.60500
C  -7.71200 21.51400 27.07300
C  -7.96500 21.89200 25.75700
C  -6.98500 22.85300 25.43300
C  -8.37000 20.43100 27.96500
C  -9.08800 21.36200 24.80400
O  -9.17500 21.73900 23.62400
C  -10.06900 20.31000 25.25700
N  -4.89300 24.91700 24.43200
C  -5.89600 24.40100 23.63000
C  -5.75100 24.77300 22.13000
C  -4.67600 25.86500 22.28000
C  -4.21100 25.82300 23.81100
C  -5.45200 23.57500 21.19600
C  -5.03500 27.26600 21.69200
C  -5.26200 27.41700 20.15200
N  -3.39400 26.21600 26.68400
C  -2.75700 26.81000 25.66100
C  -1.67300 27.61800 26.14000
C  -1.78300 27.50900 27.52900
C  -2.89800 26.71900 27.82500
C  -0.75500 28.38000 25.34700
C  -1.26300 27.94800 28.76800
O  -0.27400 28.69500 28.81300
C  -2.17000 27.30400 29.96300
C  -1.28900 26.53600 30.89900
O  -0.55300 25.60400 30.56300
O  -1.33700 26.94300 32.14600
C  -0.36200 26.47100 33.13900
H  -6.87200 22.25300 29.77900
H  -7.35200 23.15000 23.26200
H  -2.54600 27.19900 23.59600
H  -3.42600 24.90700 31.70300
H  -6.17600 23.79100 31.54300
H  -3.45800 22.48600 31.22400
H  -4.98300 21.62300 31.31400
H  -4.47400 22.64300 32.63900
H  -5.77700 26.89700 31.07500
H  -4.40800 27.27900 32.00800
H  -7.01000 25.97500 32.70600
H  -5.94400 27.03800 33.66300
H  -8.36800 19.50700 27.38700
H  -9.32700 20.79200 28.34100
H  -7.70700 20.23900 28.80800
H  -10.83100 20.11800 24.50300
H  -10.69700 20.50600 26.12600
H  -9.57900 19.35900 25.46900
H  -6.68300 25.27000 21.86100
H  -3.85100 25.55500 21.63900
H  -4.90300 22.79800 21.72800
H  -4.86300 23.93700 20.35300
H  -6.37400 23.17000 20.77800
H  -4.23700 27.97200 21.92200
H  -5.96700 27.57200 22.16800
H  -6.29200 27.71100 19.95000
H  -5.10100 26.44600 19.68500
H  -4.56000 28.20000 19.86700
H  -1.22300 29.09500 24.67100
H  -0.09900 27.87500 24.63800
H  -0.24800 29.00700 26.08100
H  -2.73300 28.01900 30.56200
H  0.59300 26.26500 32.65500
H  -0.72200 25.59100 33.67200
H  -0.18100 27.40000 33.67900

