158

Mg 34.74800 2.97900 29.60200
C  32.72000 4.14000 32.23800
C  37.37200 2.69300 31.81700
C  36.80900 2.49500 27.02700
C  32.07400 3.73900 27.50800
N  35.02100 3.45200 31.73500
C  34.03400 3.74600 32.65700
C  34.53900 3.58300 34.12400
C  36.10800 3.43000 33.92900
C  36.19000 3.12200 32.40400
C  37.03600 4.61100 34.23200
C  33.77600 2.43400 34.79500
C  33.13200 2.77100 36.13400
H  33.86900 3.83600 37.15200
N  36.81300 2.60900 29.41400
C  37.71900 2.53600 30.43600
C  39.04000 2.22900 29.89100
C  38.94500 2.10500 28.49600
C  37.49000 2.34500 28.26800
C  40.30400 2.03100 30.81800
C  40.03400 1.94400 27.38400
O  39.79700 1.95000 26.21100
C  41.47600 1.84200 27.88900
N  34.47700 3.14600 27.50700
C  35.48400 2.87300 26.63500
C  35.06100 3.18100 25.16500
C  33.50200 3.53100 25.38900
C  33.27400 3.39300 26.89700
C  35.81000 4.36100 24.47100
C  32.57400 2.69200 24.48600
C  32.18600 1.18200 24.81100
N  32.76200 3.69400 29.75200
C  31.77600 3.89700 28.85300
C  30.62400 4.42000 29.40600
C  30.88200 4.54000 30.78900
C  32.21600 4.13300 30.92100
C  29.35100 4.70400 28.64400
C  30.34000 4.82000 32.11400
O  29.25800 5.21000 32.49900
C  31.53800 4.50100 33.10800
C  31.69800 5.80600 33.91100
O  32.05300 6.90900 33.47900
O  31.19900 5.52600 35.18200
C  31.27800 6.62600 36.12700
H  38.17900 2.70100 32.55300
H  37.52600 2.46400 26.20400
H  31.37100 4.09700 26.75400
H  34.37000 4.58600 34.51600
H  36.49700 2.49200 34.32600
H  37.58000 4.89900 33.33200
H  37.75200 4.15000 34.91300
H  36.51500 5.39300 34.78500
H  34.52500 1.71200 35.12100
H  33.06800 1.84300 34.21300
H  33.14600 1.79000 36.60900
H  32.15100 3.18100 35.89300
H  40.15200 2.15600 31.89000
H  41.12300 2.70600 30.57400
H  40.62500 1.01800 30.57200
H  41.64000 2.77000 28.43700
H  42.11500 1.75500 27.01000
H  41.60000 0.98600 28.55200
H  35.04400 2.20400 24.68300
H  33.36000 4.59500 25.19700
H  36.36400 4.91900 25.22600
H  35.11000 5.06200 24.01700
H  36.42400 3.90500 23.69400
H  33.15500 2.48900 23.58700
H  31.68800 3.25500 24.19100
H  31.09900 1.11500 24.77200
H  32.49000 0.96400 25.83500
H  32.68400 0.43100 24.19800
H  28.85200 3.79900 28.29900
H  29.47100 5.30300 27.74100
H  28.57000 5.24800 29.17500
H  31.44900 3.78800 33.92700
H  31.19700 6.29700 37.16300
H  30.45500 7.32600 35.98300
H  32.23700 7.14100 36.06600
Mg 1.61300 41.91100 26.13900
C  3.22200 42.10900 29.33200
C  -1.20800 40.91400 27.75400
C  0.55300 40.94100 23.27200
C  4.89400 42.35500 24.65900
N  1.06600 41.60500 28.33900
C  1.80800 41.98200 29.46400
C  0.96100 41.91000 30.71500
C  -0.48400 41.64300 30.12600
C  -0.21900 41.34200 28.62300
C  -1.41600 40.65500 30.92700
C  1.22900 43.14600 31.62000
C  0.16800 43.68000 32.64700
H  -0.31000 42.62200 33.70700
N  -0.13200 41.02500 25.59400
C  -1.19900 40.74500 26.37500
C  -2.27700 40.25600 25.48600
C  -1.85300 40.27700 24.13400
C  -0.40100 40.78000 24.27100
C  -3.57500 39.81200 26.04800
C  -2.55300 40.00800 22.86600
O  -1.93700 40.10000 21.78600
C  -4.02300 39.56800 22.92400
N  2.59600 41.65300 24.20700
C  1.79900 41.41400 23.23200
C  2.67900 41.23100 21.89000
C  3.94900 42.08500 22.25800
C  3.79100 42.06000 23.82700
C  2.98200 39.79000 21.56600
C  3.91900 43.46100 21.59500
C  2.65000 44.32100 21.94600
N  3.59600 42.24600 26.77400
C  4.81700 42.30400 26.09500
C  5.92700 42.39000 27.07000
C  5.33000 42.21300 28.34700
C  3.94400 42.18300 28.08500
C  7.38800 42.71600 26.78400
C  5.56200 42.15000 29.75000
O  6.66000 42.02900 30.35400
C  4.16400 42.19300 30.48500
C  4.07300 41.02600 31.45700
O  4.01300 39.84500 31.03600
O  4.07600 41.41700 32.73900
C  4.35200 40.35000 33.68800
H  -2.14700 40.70400 28.27000
H  0.29900 40.41800 22.34700
H  5.79900 42.73400 24.18100
H  1.19700 40.96800 31.21000
H  -0.96800 42.61800 30.17000
H  -0.96100 40.28900 31.84700
H  -1.65400 39.78800 30.31100
H  -2.33700 41.18000 31.18000
H  1.50100 44.01300 31.01800
H  2.07300 42.88300 32.25800
H  -0.74800 44.18000 32.33000
H  0.72800 44.35600 33.29300
H  -3.73000 38.77900 25.73700
H  -4.47300 40.31500 25.68900
H  -3.56000 39.81700 27.13800
H  -4.25800 39.48700 21.86200
H  -4.69300 40.32200 23.33400
H  -4.23800 38.64700 23.46500
H  2.08500 41.67600 21.09100
H  4.82700 41.56700 21.87400
H  3.96900 39.56400 21.16300
H  2.27100 39.53800 20.77900
H  2.71500 39.19600 22.44100
H  3.89000 43.25100 20.52600
H  4.80600 43.98600 21.94800
H  1.75700 43.71200 22.08300
H  2.44600 44.93200 21.06600
H  2.91800 44.94600 22.79800
H  7.61500 43.68300 27.23100
H  7.57700 42.74500 25.71000
H  8.12100 42.01200 27.17700
H  4.12300 43.13200 31.03700
H  5.37400 39.99000 33.80500
H  3.63400 39.57500 33.41800
H  4.08900 40.63600 34.70700

