158

Mg 26.63000 50.55400 26.93900
C  24.46100 51.56800 29.49200
C  28.95100 49.59000 29.34700
C  28.81400 49.74500 24.45900
C  24.38000 51.83300 24.61000
N  26.62800 50.57000 29.13000
C  25.63200 51.05900 29.97300
C  25.88500 50.74600 31.47200
C  27.37600 50.38300 31.46900
C  27.68500 50.07100 29.92400
C  28.40400 51.43000 32.03500
C  25.01700 49.57300 32.13700
C  25.49300 48.78700 33.48000
H  25.98300 49.67300 34.61000
N  28.62100 49.82100 26.94000
C  29.34900 49.43300 28.03600
C  30.57200 48.83100 27.50400
C  30.65000 48.97000 26.07900
C  29.32700 49.53900 25.77100
C  31.62100 48.14500 28.34000
C  31.73700 48.45400 25.15200
O  31.67700 48.64200 23.96500
C  32.82600 47.62300 25.61600
N  26.66100 50.83800 24.90700
C  27.53700 50.22600 24.12300
C  27.13800 50.13500 22.63200
C  25.80600 50.95600 22.60000
C  25.57700 51.26700 24.10700
C  28.17200 50.65200 21.66400
C  24.51800 50.19400 21.96700
C  24.74900 49.56800 20.57100
N  24.80900 51.52000 27.00300
C  24.08100 52.02900 25.98900
C  22.85400 52.66300 26.48500
C  22.93900 52.46500 27.88300
C  24.12500 51.79000 28.14400
C  21.84800 53.33300 25.73100
C  22.23700 52.67300 29.17300
O  21.18500 53.24700 29.48700
C  23.22600 52.06100 30.28700
C  23.57100 53.23000 31.19900
O  24.50300 54.05900 31.06600
O  22.73500 53.24500 32.29600
C  23.05300 54.32800 33.25100
H  29.73500 49.28500 30.04300
H  29.37900 49.18500 23.71200
H  23.64900 52.34800 23.98300
H  25.78900 51.64000 32.08800
H  27.49200 49.48700 32.07800
H  27.95300 52.40500 32.22200
H  29.22600 51.59100 31.33700
H  28.76800 51.12900 33.01800
H  25.05700 48.80600 31.36400
H  23.98300 49.88000 32.29500
H  26.25400 48.09200 33.12600
H  24.60600 48.21400 33.75100
H  31.42500 48.19800 29.41100
H  32.62700 48.56400 28.34800
H  31.53000 47.08600 28.10000
H  33.50900 48.28900 26.14300
H  33.39300 47.34700 24.72700
H  32.63400 46.75300 26.24400
H  26.86200 49.10700 22.39800
H  25.94100 51.94000 22.15000
H  27.68300 51.38100 21.01700
H  28.61300 49.82200 21.11300
H  28.94100 51.10200 22.29300
H  23.81200 51.02000 22.05100
H  24.08000 49.42900 22.60700
H  24.43800 48.52700 20.48700
H  25.79700 49.53400 20.27300
H  24.26000 50.16700 19.80200
H  22.23300 54.20000 25.19600
H  21.08800 53.74100 26.39700
H  21.27500 52.75000 25.01000
H  22.78100 51.23600 30.84400
H  23.49500 55.25000 32.87300
H  23.74900 53.90000 33.97200
H  22.16300 54.63000 33.80300
Mg 7.20100 54.06800 41.47300
C  6.76900 50.53200 41.54300
C  10.52600 53.23100 40.44600
C  7.71100 57.37100 40.91900
C  3.82100 54.45000 41.53600
N  8.45900 52.10900 40.99200
C  8.06800 50.81900 41.08300
C  9.23600 49.81600 40.96700
C  10.45500 50.73900 41.03900
C  9.75700 52.12000 40.80300
C  11.39100 50.71500 42.29400
C  9.29800 48.83200 39.79800
C  9.07800 49.48000 38.42900
H  7.72600 49.17100 37.74800
N  8.96200 55.16300 40.91000
C  10.18900 54.68000 40.46300
C  11.08900 55.82000 40.35500
C  10.27500 56.99400 40.45600
C  8.88100 56.56300 40.75600
C  12.55500 55.61600 40.07600
C  10.81300 58.41500 40.40100
O  11.97000 58.56600 40.04300
C  10.01100 59.58100 40.79700
N  5.93800 55.62600 41.32200
C  6.39600 56.94800 41.17600
C  5.15200 57.83800 41.14800
C  3.93100 56.96600 41.39200
C  4.56600 55.59600 41.39500
C  5.17600 59.14100 42.06500
C  2.89200 57.14400 40.23000
C  1.41800 56.74300 40.53200
N  5.60600 52.87100 41.64000
C  4.24000 53.07400 41.68600
C  3.49000 51.92200 41.93200
C  4.45600 50.95700 42.03400
C  5.70000 51.51500 41.73800
C  2.05300 51.80600 42.20400
C  4.73000 49.52500 42.28000
O  3.98100 48.66200 42.63500
C  6.19300 49.13000 41.78600
C  5.79700 48.35700 40.62800
O  5.24900 48.79700 39.61300
O  6.12400 46.98700 40.89200
C  5.89500 45.89500 39.86700
H  11.59800 53.05600 40.32900
H  7.79200 58.46000 40.88200
H  2.76700 54.59200 41.78700
H  9.28000 49.17200 41.84500
H  11.14000 50.54800 40.21300
H  11.23200 49.84300 42.93000
H  11.25500 51.61300 42.89600
H  12.44900 50.78200 42.04300
H  8.58500 48.02200 39.95000
H  10.22600 48.26100 39.83800
H  9.82700 49.17800 37.69700
H  9.26700 50.54900 38.52700
H  12.67200 55.10400 39.12100
H  12.88600 54.97200 40.89100
H  13.09700 56.56100 40.05600
H  10.70600 60.34300 41.15100
H  9.33000 59.34000 41.61300
H  9.47800 60.08300 39.99000
H  5.05200 58.23400 40.13700
H  3.59400 57.15700 42.41100
H  5.74000 59.88700 41.50600
H  5.80500 58.87600 42.91500
H  4.21300 59.33600 42.53700
H  3.26400 56.57200 39.38000
H  2.82700 58.21900 40.06100
H  1.31100 56.56200 41.60200
H  1.13500 55.82200 40.02200
H  0.80900 57.61300 40.28900
H  1.54600 51.26000 41.40800
H  1.63300 52.81200 42.17400
H  1.85400 51.36700 43.18100
H  6.71100 48.63100 42.60500
H  4.86100 45.55200 39.83600
H  6.64000 45.10700 39.97500
H  6.06300 46.32500 38.87900

