158

Mg 5.82700 54.44600 40.34400
C  4.65800 51.10700 40.24000
C  9.00300 53.40000 40.12700
C  6.60500 57.77100 40.17900
C  2.34300 55.38300 40.47600
N  6.77800 52.44600 40.04000
C  6.06700 51.19800 40.07000
C  7.10300 50.06400 39.97500
C  8.55700 50.79300 40.21700
C  8.12500 52.28500 40.26600
C  9.37900 50.36700 41.43000
C  7.09200 49.29700 38.58400
C  7.35700 50.09200 37.34300
H  6.38500 49.94800 36.14500
N  7.51300 55.45700 39.91900
C  8.78200 54.77600 39.96100
C  9.81700 55.82000 39.83400
C  9.22400 57.06700 39.91100
C  7.72200 56.80700 40.00100
C  11.31700 55.61000 39.80800
C  9.89200 58.40800 39.84200
O  11.06500 58.57000 39.85600
C  9.12300 59.63800 39.85200
N  4.56700 56.30900 39.98300
C  5.21100 57.52100 40.23700
C  4.14700 58.67000 40.32600
C  2.78200 57.90500 40.19400
C  3.23400 56.38300 40.19700
C  4.32500 59.64800 41.53200
C  1.89600 58.35000 39.01700
C  0.43200 58.90900 39.28900
N  3.91200 53.53800 40.47500
C  2.62200 54.03700 40.52900
C  1.63800 53.01600 40.76700
C  2.42800 51.82700 40.72200
C  3.76100 52.21300 40.45900
C  0.27700 53.33000 41.09200
C  2.37900 50.41000 40.80900
O  1.41500 49.61800 40.96000
C  3.80100 49.86100 40.48500
C  3.62100 49.09200 39.21800
O  3.37100 49.54700 38.12600
O  4.00800 47.78600 39.55300
C  3.91800 46.76000 38.55300
H  10.05900 53.18300 39.95300
H  6.78900 58.82800 40.38000
H  1.34700 55.72000 40.77100
H  6.99600 49.33600 40.77900
H  9.22400 50.64100 39.36900
H  9.39700 51.22300 42.10500
H  10.41400 50.18700 41.13900
H  9.06800 49.42800 41.88700
H  6.08800 48.88200 38.50000
H  7.72000 48.40600 38.59700
H  8.37400 49.82900 37.05200
H  7.29400 51.15200 37.58600
H  11.71100 55.71600 40.81900
H  11.92900 56.09400 39.04700
H  11.42900 54.54400 39.61000
H  9.72800 60.54300 39.81100
H  8.41500 59.78500 40.66700
H  8.45000 59.65000 38.99500
H  4.18900 59.30700 39.44300
H  2.13200 58.00800 41.06300
H  3.36900 59.89900 41.99200
H  4.67200 60.64200 41.25300
H  5.01600 59.16600 42.22500
H  1.81900 57.55300 38.27700
H  2.41400 59.14300 38.47900
H  0.37600 59.93700 38.93100
H  0.27600 58.80400 40.36200
H  -0.33300 58.31600 38.78600
H  -0.42900 52.50000 41.05900
H  -0.07300 54.03100 40.33400
H  0.12500 53.75100 42.08600
H  4.12600 49.24400 41.32300
H  3.85600 47.22700 37.57000
H  3.01600 46.15800 38.66600
H  4.77200 46.08200 38.54500
Mg -10.73100 16.75200 40.65000
C  -7.39300 16.09900 41.14800
C  -10.00800 19.98300 39.84700
C  -13.86700 17.06600 39.45900
C  -11.24900 13.19700 40.71600
N  -8.86600 17.84500 40.53600
C  -7.62600 17.42700 40.74100
C  -6.61400 18.55100 40.53100
C  -7.54300 19.85000 40.57100
C  -8.90300 19.21600 40.36700
C  -7.64300 20.64000 41.94800
C  -5.95500 18.41600 39.08700
C  -4.48500 17.94300 39.07000
H  -4.19300 16.69200 38.27300
N  -11.86300 18.28200 39.90200
C  -11.34700 19.52900 39.60900
C  -12.40900 20.31900 38.96500
C  -13.60800 19.58700 38.97800
C  -13.12300 18.26000 39.46400
C  -12.15100 21.59000 38.38700
C  -15.00400 20.00200 38.59900
O  -15.17700 21.16900 38.34300
C  -16.17300 19.09800 38.78000
N  -12.24900 15.28900 39.94500
C  -13.51300 15.71700 39.77300
C  -14.50600 14.59700 39.90300
C  -13.61700 13.30200 39.96800
C  -12.28700 13.94400 40.25500
C  -15.59200 14.79300 41.10200
C  -13.69100 12.33500 38.76300
C  -13.79800 10.85000 39.08200
N  -9.54100 14.92500 40.88600
C  -9.99000 13.65100 41.01900
C  -8.75800 12.85700 41.38600
C  -7.70600 13.74900 41.48200
C  -8.29300 14.99000 41.15400
C  -8.73500 11.45100 41.78800
C  -6.30000 13.93600 41.75300
O  -5.38800 13.09600 41.96700
C  -6.07600 15.47400 41.63100
C  -5.73800 15.98100 42.95400
O  -6.45400 16.10700 43.94200
O  -4.36100 16.20000 43.02800
C  -3.82100 16.54200 44.35700
H  -9.62400 20.97500 39.60000
H  -14.89100 17.10500 39.08300
H  -11.37800 12.12000 40.84900
H  -5.89900 18.49900 41.35200
H  -7.33000 20.61900 39.82900
H  -7.68300 21.69900 41.69400
H  -6.75300 20.38600 42.52400
H  -8.53400 20.40700 42.53000
H  -6.04300 19.43100 38.70200
H  -6.60200 17.75300 38.51300
H  -4.25100 17.76200 40.11900
H  -3.88100 18.74800 38.65200
H  -12.00500 21.48500 37.31200
H  -11.24100 22.04400 38.78000
H  -12.87200 22.39800 38.51400
H  -16.94200 19.86000 38.90900
H  -16.07300 18.45800 39.65700
H  -16.41600 18.52300 37.88700
H  -15.12600 14.48700 39.01200
H  -13.77000 12.72200 40.87800
H  -16.04700 15.72600 40.76900
H  -15.24000 15.07400 42.09500
H  -16.33100 14.02700 41.33600
H  -12.82300 12.44700 38.11400
H  -14.51300 12.60900 38.10100
H  -13.38400 10.56700 40.05000
H  -13.22900 10.26700 38.35800
H  -14.81500 10.50400 38.89700
H  -7.97300 11.22100 42.53200
H  -8.49500 10.88700 40.88600
H  -9.72600 11.12100 42.09900
H  -5.15700 15.65300 41.07200
H  -2.78200 16.84900 44.24100
H  -3.89200 15.77100 45.12400
H  -4.32400 17.42000 44.76400

