158

Mg 47.59300 16.39200 28.89600
C  45.42000 15.55200 31.60300
C  49.42500 18.32000 31.06800
C  49.93600 16.81300 26.39700
C  45.60500 14.50300 26.77000
N  47.32500 16.95300 30.96900
C  46.51700 16.35900 31.95900
C  46.95400 16.76600 33.32800
C  47.76700 18.04500 33.04200
C  48.24000 17.76300 31.57000
C  47.09800 19.41100 33.08200
C  47.70200 15.66100 34.06800
C  47.80000 15.83200 35.61900
H  49.11400 15.90200 36.28700
N  49.46000 17.41300 28.75500
C  50.02600 18.17600 29.78600
C  51.19900 18.81300 29.23400
C  51.43200 18.35300 27.95000
C  50.22800 17.58300 27.59600
C  52.14000 19.70600 30.01700
C  52.61600 18.53100 26.97600
O  52.53500 18.12600 25.81800
C  53.72300 19.46300 27.40000
N  47.69000 15.89900 26.77400
C  48.83100 15.96700 26.07300
C  48.76900 15.12400 24.77800
C  47.51700 14.30100 25.04700
C  46.85500 14.96800 26.26700
C  48.78200 16.08400 23.55700
C  47.76400 12.81400 25.32700
C  47.22200 11.81600 24.28200
N  45.78500 15.38800 29.01500
C  45.04300 14.71800 28.05800
C  43.90000 14.13900 28.69100
C  43.98900 14.38200 30.03500
C  45.10500 15.28400 30.23100
C  42.89900 13.28100 27.96900
C  43.47800 14.11700 31.38800
O  42.50700 13.47300 31.69600
C  44.28700 14.99000 32.40700
C  43.48600 16.01900 33.06300
O  42.82500 16.86400 32.45900
O  43.50700 15.83600 34.40500
C  42.54900 16.42200 35.35000
H  50.05800 18.98700 31.65700
H  50.66400 16.81700 25.58300
H  45.10900 13.75900 26.14300
H  46.04600 17.08800 33.83800
H  48.73000 18.07100 33.55400
H  46.01800 19.30800 32.97900
H  47.48100 20.05900 32.29300
H  47.39800 19.88400 34.01700
H  48.72600 15.56800 33.70700
H  47.07500 14.79300 33.86700
H  47.43100 14.84500 35.89700
H  47.15900 16.66300 35.91600
H  53.02800 19.17200 30.35300
H  51.63300 20.20800 30.84100
H  52.47400 20.47900 29.32500
H  53.35000 20.48700 27.40700
H  54.47900 19.39200 26.61800
H  54.16900 19.02000 28.29100
H  49.61400 14.46200 24.59000
H  46.93800 14.38100 24.12800
H  48.73500 17.10500 23.93600
H  47.86100 16.08800 22.97500
H  49.66600 15.87600 22.95400
H  47.09500 12.56000 26.14900
H  48.82300 12.64200 25.51700
H  46.42300 11.26200 24.77400
H  48.02100 11.12900 24.00300
H  46.90700 12.34100 23.38000
H  41.93100 13.73800 28.17400
H  43.00000 12.31800 28.47000
H  43.22000 13.23600 26.92800
H  44.71100 14.35200 33.18300
H  41.75300 16.95400 34.82700
H  43.09700 17.02400 36.07500
H  42.01800 15.63100 35.87900
Mg 47.08200 35.55800 28.45200
C  45.47300 33.70500 30.92400
C  47.30500 38.13100 30.73200
C  48.00600 37.59700 25.99500
C  46.32800 33.02100 26.15400
N  46.55400 35.83800 30.56400
C  45.97100 34.90300 31.41200
C  46.03800 35.42800 32.88500
C  46.12800 36.94800 32.71700
C  46.65000 36.99600 31.25700
C  44.84500 37.76700 33.01600
C  47.32100 34.80400 33.58200
C  46.99700 34.40700 35.03700
H  47.45500 35.47600 36.09300
N  47.80300 37.50800 28.45100
C  47.86800 38.37500 29.49600
C  48.50000 39.59900 28.92900
C  48.74200 39.39600 27.52600
C  48.18900 38.14000 27.27300
C  48.77400 40.73700 29.82100
C  49.45400 40.33300 26.50600
O  49.79600 40.04200 25.35600
C  49.79300 41.68300 26.89600
N  47.20500 35.38700 26.41700
C  47.55700 36.37300 25.57200
C  47.46300 35.82000 24.08600
C  47.00500 34.37800 24.18500
C  46.73800 34.25100 25.71400
C  46.69700 36.79800 23.08100
C  47.97100 33.36000 23.55600
C  47.35900 32.44600 22.54000
N  46.15500 33.68200 28.47200
C  46.01000 32.65800 27.51800
C  45.53000 31.44900 28.08800
C  45.24700 31.83700 29.40300
C  45.66500 33.19100 29.58000
C  45.20600 30.13600 27.42500
C  44.64200 31.37900 30.65600
O  44.16900 30.23900 30.92300
C  44.59700 32.66200 31.56800
C  45.03800 32.29500 32.98700
O  46.17900 31.82800 33.22300
O  43.92700 32.50200 33.81600
C  43.96800 31.90100 35.11800
H  47.39600 38.93500 31.46600
H  48.38100 38.23800 25.19300
H  46.23100 32.17400 25.47200
H  45.10800 35.15800 33.38500
H  46.79100 37.31400 33.50100
H  44.73400 38.51500 32.23100
H  44.97600 38.28100 33.96800
H  43.98300 37.10700 33.11700
H  48.00200 35.65200 33.50600
H  47.78400 33.96700 33.06000
H  47.56000 33.50300 35.26800
H  45.95000 34.14400 35.18900
H  49.86200 40.67900 29.85000
H  48.41500 40.59400 30.84000
H  48.56800 41.70000 29.35400
H  48.91600 42.14000 27.35500
H  50.11400 42.25700 26.02700
H  50.66200 41.73400 27.55100
H  48.47800 35.66200 23.72000
H  46.03700 34.26900 23.69700
H  46.08500 37.57300 23.54200
H  45.97400 36.23100 22.49400
H  47.40300 37.28900 22.41200
H  48.45600 32.75000 24.31800
H  48.75200 33.83500 22.96200
H  48.18000 32.25200 21.85000
H  46.45200 32.80300 22.05100
H  47.01900 31.53400 23.03000
H  44.33100 30.36400 26.81600
H  45.14500 29.35300 28.18000
H  46.04100 29.98600 26.74100
H  43.57200 33.00900 31.70400
H  43.68700 32.66500 35.84400
H  44.94500 31.46300 35.31900
H  43.18700 31.14100 35.10200

