158

Mg 24.39000 -7.78400 46.68300
C  27.06700 -5.63700 45.44800
C  22.50700 -6.45900 44.09500
C  22.13600 -10.12100 47.46800
C  26.86300 -9.34600 48.73600
N  24.78400 -6.36400 44.99500
C  25.82200 -5.53500 44.74200
C  25.66100 -4.56100 43.60700
C  24.11300 -4.75100 43.24500
C  23.77100 -5.90600 44.19900
C  23.26100 -3.43700 43.44900
C  26.56900 -4.87200 42.33200
C  27.46200 -3.72200 42.02500
H  27.43000 -3.06100 40.71500
N  22.52100 -8.05300 46.03400
C  21.95500 -7.48200 44.95700
C  20.61000 -8.01600 44.77800
C  20.39200 -9.06300 45.76800
C  21.76600 -9.16500 46.48300
C  19.57600 -7.39700 43.84800
C  19.13900 -9.85200 45.95600
O  18.20300 -9.68400 45.17000
C  18.89300 -10.93200 46.94600
N  24.48500 -9.51900 47.78500
C  23.42300 -10.28400 48.07000
C  23.74000 -11.48000 48.97600
C  25.24000 -11.28100 49.28900
C  25.57400 -9.99300 48.54900
C  22.84600 -11.64900 50.17900
C  26.10200 -12.43700 48.87300
C  27.22800 -12.85600 49.89300
N  26.49600 -7.47700 47.16500
C  27.31000 -8.17100 48.01900
C  28.68000 -7.51900 48.06400
C  28.54800 -6.48600 47.07900
C  27.28900 -6.65200 46.51000
C  29.76400 -7.93000 48.94900
C  29.24200 -5.33100 46.45300
O  30.30800 -4.81200 46.71000
C  28.29800 -4.79400 45.33600
C  28.07300 -3.43300 45.53600
O  27.31500 -3.02300 46.37800
O  28.83000 -2.68300 44.65100
C  28.74200 -1.25200 44.87600
H  21.86900 -6.03000 43.32000
H  21.38200 -10.87400 47.70800
H  27.64300 -9.87000 49.29000
H  25.94600 -3.55300 43.90700
H  23.93400 -5.04600 42.21100
H  22.59100 -3.16500 42.63400
H  24.00500 -2.64000 43.46300
H  22.67600 -3.41500 44.36800
H  25.97900 -5.11400 41.44700
H  27.14900 -5.76000 42.58500
H  28.46600 -4.09600 42.22600
H  27.32900 -2.85700 42.67400
H  18.55700 -7.35500 44.23100
H  19.71300 -7.96700 42.92900
H  19.83700 -6.35800 43.64600
H  19.44000 -11.83000 46.65700
H  17.86300 -11.26500 46.81300
H  19.09800 -10.44100 47.89700
H  23.48000 -12.39200 48.43900
H  25.22000 -11.07000 50.35800
H  22.35200 -12.60600 50.01000
H  22.14300 -10.81700 50.21600
H  23.40700 -11.68000 51.11300
H  26.53300 -12.31600 47.87900
H  25.49800 -13.33500 48.74300
H  26.97000 -13.87700 50.17500
H  27.20800 -12.27200 50.81300
H  28.19200 -12.95300 49.39400
H  30.47400 -7.14000 49.19300
H  30.27200 -8.70900 48.37900
H  29.40600 -8.32800 49.89800
H  28.76400 -4.96700 44.36600
H  27.67600 -1.02300 44.86600
H  29.21200 -0.67600 44.07900
H  29.10400 -1.00100 45.87300
Mg -12.65400 38.89800 42.87600
C  -10.87400 35.92100 41.87600
C  -10.32800 40.72300 41.05800
C  -14.49800 41.56900 43.51600
C  -15.33100 36.76200 43.77500
N  -10.67200 38.33800 41.66000
C  -10.19400 37.07500 41.42400
C  -8.95600 37.20800 40.54300
C  -8.73800 38.72700 40.39400
C  -9.97400 39.31500 41.09700
C  -7.40900 39.21500 41.04400
C  -9.07500 36.64000 39.12800
C  -7.75000 36.15500 38.56100
H  -7.00300 36.95700 37.49000
N  -12.42100 40.83900 42.46500
C  -11.40300 41.40000 41.74500
C  -11.60400 42.81600 41.58900
C  -12.77000 43.12500 42.32200
C  -13.30400 41.85600 42.79500
C  -10.60400 43.66300 40.83800
C  -13.27300 44.52700 42.53500
O  -12.73600 45.49500 41.97200
C  -14.43000 44.67000 43.47500
N  -14.65700 39.09500 43.54300
C  -15.12800 40.34000 43.79000
C  -16.57800 40.23100 44.24100
C  -16.99100 38.72400 44.15100
C  -15.53000 38.14200 43.86300
C  -16.82100 40.79500 45.71100
C  -17.95900 38.33900 43.01300
C  -19.38300 38.68500 43.31300
N  -13.02100 36.70600 42.97900
C  -14.15900 36.11400 43.35400
C  -13.87600 34.63900 43.28900
C  -12.61300 34.54200 42.69200
C  -12.14600 35.87200 42.46600
C  -14.67000 33.39100 43.74100
C  -11.61700 33.63300 42.19200
O  -11.61800 32.41400 42.05800
C  -10.42300 34.49600 41.64900
C  -9.14200 34.13500 42.36400
O  -9.00900 34.25200 43.57800
O  -8.21500 33.74300 41.50000
C  -6.89000 33.72300 42.11500
H  -9.69200 41.29000 40.37400
H  -15.04200 42.45500 43.84800
H  -16.23000 36.14900 43.86300
H  -8.07400 36.77600 41.01500
H  -8.65300 39.06800 39.36200
H  -6.94800 38.50600 41.73100
H  -7.64300 40.07900 41.66600
H  -6.61900 39.49600 40.34800
H  -9.08900 37.38300 38.33100
H  -9.86000 35.89100 39.02300
H  -7.87300 35.11600 38.25400
H  -6.99300 36.13500 39.34400
H  -10.71400 44.73000 41.03000
H  -10.65100 43.49300 39.76200
H  -9.59600 43.49800 41.22000
H  -14.19000 44.38100 44.49800
H  -15.35600 44.26000 43.07300
H  -14.42800 45.76000 43.44500
H  -17.08900 40.82000 43.48000
H  -17.26900 38.30000 45.11600
H  -17.61500 41.53900 45.64500
H  -15.91700 41.23100 46.13600
H  -17.26400 40.06000 46.38300
H  -17.86100 37.26200 42.87300
H  -17.64600 38.89800 42.13100
H  -19.93500 37.75500 43.44400
H  -19.82200 39.30200 42.52900
H  -19.53500 39.34500 44.16700
H  -15.12400 32.90400 42.87800
H  -15.46700 33.71000 44.41200
H  -13.95100 32.72700 44.22100
H  -10.28600 34.36700 40.57500
H  -6.78200 32.99900 42.92300
H  -6.75300 34.71500 42.54600
H  -6.18000 33.51200 41.31500

