158

Mg 1.55800 -3.08700 44.03900
C  4.70400 -1.89200 43.44800
C  0.24200 -0.36300 42.06200
C  -1.40300 -4.66700 43.88700
C  3.04200 -5.89700 45.61200
N  2.32900 -1.37300 42.78200
C  3.71200 -1.08300 42.80400
C  4.01600 0.29600 42.11700
C  2.56300 0.93800 41.99200
C  1.60700 -0.26500 42.37300
C  2.27800 2.31000 42.67700
C  4.78900 0.06200 40.74500
C  5.92000 1.09400 40.51300
H  5.61100 1.94800 39.26900
N  -0.28800 -2.72700 42.95000
C  -0.63000 -1.52200 42.33500
C  -2.00400 -1.54300 41.93500
C  -2.59000 -2.73000 42.51200
C  -1.41000 -3.42900 43.12900
C  -2.69500 -0.44600 41.14900
C  -4.03600 -3.13200 42.52800
O  -4.94000 -2.58500 41.90900
C  -4.45000 -4.34000 43.24200
N  1.03400 -5.07900 44.54500
C  -0.30600 -5.39200 44.54300
C  -0.61400 -6.66700 45.35100
C  0.80200 -7.20400 45.59500
C  1.70600 -5.98500 45.25600
C  -1.50400 -6.49100 46.55000
C  1.13300 -8.41200 44.72400
C  0.54300 -9.68200 45.33800
N  3.45600 -3.71500 44.63500
C  3.93900 -4.86000 45.24000
C  5.38800 -4.73800 45.50800
C  5.69700 -3.61200 44.82600
C  4.56300 -3.04700 44.23200
C  6.28100 -5.69900 46.41100
C  6.78100 -2.70100 44.55600
O  7.92600 -2.67900 45.04400
C  6.25600 -1.66100 43.49200
C  6.68800 -0.30200 44.04300
O  6.00500 0.29600 44.81800
O  7.87300 0.13400 43.44300
C  8.15800 1.54900 43.55600
H  -0.21400 0.49000 41.55500
H  -2.29300 -5.29300 43.98000
H  3.37000 -6.74900 46.21200
H  4.62300 0.83100 42.84700
H  2.28600 1.01200 40.94000
H  1.99700 3.10500 41.98700
H  3.19200 2.70000 43.12500
H  1.47400 2.27000 43.41100
H  4.01700 0.11900 39.97800
H  5.18800 -0.95000 40.68600
H  6.93600 0.70900 40.42200
H  5.96700 1.85000 41.29700
H  -2.01300 0.11200 40.50800
H  -3.31400 0.28300 41.67200
H  -3.45400 -0.86100 40.48700
H  -4.08800 -5.22100 42.71000
H  -5.52900 -4.27400 43.37900
H  -3.96100 -4.15400 44.19800
H  -1.04600 -7.32400 44.59500
H  0.95700 -7.42700 46.65100
H  -2.29800 -7.23800 46.52600
H  -2.05100 -5.54900 46.49700
H  -1.11600 -6.65900 47.55500
H  2.21600 -8.53400 44.70300
H  0.84900 -8.30400 43.67700
H  0.30400 -9.46400 46.37900
H  1.26300 -10.49300 45.44500
H  -0.37700 -10.03600 44.87400
H  6.85100 -5.13300 47.14700
H  7.05700 -6.19100 45.82400
H  5.70200 -6.43900 46.96300
H  6.73000 -1.79500 42.52000
H  7.32900 2.23400 43.37300
H  9.04200 1.75500 42.95400
H  8.45600 1.65000 44.60000
Mg 25.21300 0.97300 29.91700
C  27.04700 1.07800 32.81200
C  22.31900 1.34000 31.80200
C  23.36700 0.60000 27.16700
C  28.15400 0.48600 28.15000
N  24.69900 1.12300 32.05700
C  25.65500 1.31700 33.00700
C  24.93600 1.74700 34.32600
C  23.44000 1.80400 34.08400
C  23.43900 1.41800 32.57900
C  22.63500 0.67100 34.88300
C  25.48900 3.20700 34.72400
C  26.21900 3.30000 36.08400
H  25.64900 4.21100 37.20200
N  23.13000 0.90700 29.48200
C  22.16500 1.16700 30.38900
C  20.88600 1.19000 29.74600
C  21.17900 0.89200 28.33000
C  22.57400 0.73900 28.31200
C  19.53400 1.42200 30.46600
C  20.17400 0.74400 27.23900
O  20.39900 0.52500 26.05700
C  18.62700 0.80200 27.62200
N  25.67700 0.48500 27.99000
C  24.73700 0.60500 26.96400
C  25.46500 0.59900 25.60800
C  26.92100 0.78100 26.00200
C  26.94200 0.53800 27.48900
C  25.21800 -0.60300 24.71700
C  27.43800 2.20800 25.63700
C  26.64500 3.46100 26.21400
N  27.22400 0.78800 30.32400
C  28.28500 0.55300 29.54000
C  29.45400 0.35400 30.36000
C  29.05100 0.66100 31.66200
C  27.67800 0.85600 31.59900
C  30.86200 0.11700 29.86000
C  29.50000 0.96200 33.02700
O  30.61500 0.95300 33.54100
C  28.23100 1.30200 33.83600
C  28.18300 0.38200 34.98800
O  27.75000 -0.76200 35.03800
O  28.65700 1.06700 36.08400
C  28.53800 0.21000 37.29000
H  21.46600 1.72000 32.36800
H  22.79800 0.49700 26.24100
H  29.02300 0.52700 27.49000
H  25.20700 1.01100 35.08300
H  22.91100 2.74400 34.24000
H  21.92400 1.18600 35.53000
H  23.30400 0.11300 35.53800
H  22.08500 0.03500 34.19000
H  24.56900 3.78300 34.82000
H  26.10400 3.55200 33.89200
H  27.18900 3.70100 35.78900
H  26.47000 2.28900 36.40500
H  19.12100 2.38000 30.14900
H  19.60600 1.63600 31.53200
H  18.86800 0.58400 30.26100
H  18.27200 1.55900 28.32100
H  18.38600 -0.23100 27.87100
H  17.98900 1.07400 26.78100
H  25.12000 1.47300 25.05400
H  27.54500 0.05400 25.48400
H  26.15700 -0.91100 24.25600
H  24.60300 -0.32800 23.86000
H  24.89200 -1.50200 25.24100
H  27.33000 2.23300 24.55300
H  28.51000 2.19200 25.83300
H  25.81400 3.25400 26.88800
H  26.16100 3.99100 25.39200
H  27.26100 4.11400 26.83200
H  31.07200 0.12200 28.79000
H  31.03500 -0.85800 30.31600
H  31.53900 0.75100 30.43300
H  28.31600 2.31500 34.22900
H  28.66100 0.89800 38.12700
H  29.30700 -0.56300 37.28200
H  27.53400 -0.20500 37.38200

