158

Mg 1.61000 -0.95100 44.32000
C  4.99900 -0.46000 43.52600
C  0.85400 1.72800 42.45900
C  -1.48500 -2.13100 44.24600
C  2.64500 -3.89400 46.04900
N  2.75900 0.42500 43.07900
C  4.09400 0.36900 42.87200
C  4.58300 1.55400 41.99400
C  3.25700 2.35900 41.74200
C  2.22100 1.51300 42.58600
C  3.25300 3.94800 42.00900
C  5.35400 1.24400 40.69500
C  6.50700 2.29600 40.39400
H  6.38000 3.15600 39.16400
N  -0.09000 -0.21000 43.55300
C  -0.22400 0.95600 42.81500
C  -1.61200 1.25000 42.57500
C  -2.34200 0.16100 43.16600
C  -1.28700 -0.82100 43.69700
C  -2.04900 2.53500 41.97700
C  -3.82700 0.05800 43.30400
O  -4.55600 0.94000 42.87100
C  -4.44700 -0.96600 44.19500
N  0.72000 -2.82000 44.97100
C  -0.58400 -3.02600 44.78400
C  -0.92700 -4.47400 45.26100
C  0.21400 -4.73800 46.22200
C  1.28100 -3.81400 45.72800
C  -2.39400 -4.66900 45.96700
C  0.61700 -6.27300 46.42000
C  0.73200 -6.63100 47.94800
N  3.40400 -1.98400 44.79600
C  3.65600 -3.19100 45.46100
C  5.08400 -3.26300 45.62900
C  5.68500 -2.19000 44.96200
C  4.59600 -1.48600 44.43100
C  5.73800 -4.36200 46.41200
C  6.94200 -1.54800 44.53000
O  8.11200 -1.82700 44.76300
C  6.50500 -0.46400 43.53900
C  7.02600 0.72400 44.08800
O  6.60400 1.36700 45.03400
O  8.16400 1.13500 43.31000
C  8.52700 2.57600 43.70800
H  0.60700 2.60900 41.86300
H  -2.53800 -2.40700 44.33700
H  2.89100 -4.72400 46.71600
H  5.14200 2.26400 42.60300
H  2.89500 2.08800 40.75100
H  2.67600 4.55800 41.31400
H  4.27300 4.31600 42.12000
H  2.72800 4.05000 42.95800
H  4.80800 1.20300 39.75200
H  5.82200 0.27800 40.88000
H  7.39000 1.66400 40.29800
H  6.55700 3.09300 41.13600
H  -3.10100 2.62700 41.70800
H  -1.57300 2.83800 41.04400
H  -1.80200 3.25800 42.75300
H  -5.47100 -0.68400 44.43900
H  -3.87900 -0.99800 45.12500
H  -4.44100 -1.90200 43.63600
H  -0.90300 -5.12800 44.38900
H  -0.13900 -4.32100 47.16500
H  -3.20000 -4.35200 45.30400
H  -2.38400 -4.24500 46.97200
H  -2.69900 -5.70300 46.12600
H  1.58500 -6.61400 46.05300
H  -0.13500 -6.87500 45.91100
H  -0.16600 -7.13500 48.30500
H  0.99700 -5.71600 48.47700
H  1.61800 -7.26200 48.01000
H  6.76300 -4.65200 46.18400
H  5.16400 -5.26100 46.18800
H  5.63300 -4.11800 47.46900
H  6.97300 -0.52100 42.55500
H  9.09500 3.08800 42.93100
H  9.08300 2.46000 44.63800
H  7.71000 3.29200 43.80200
Mg 35.15700 49.12700 26.56300
C  35.84300 47.09700 29.45800
C  34.46800 51.65300 28.68500
C  34.69700 51.04500 23.81400
C  35.87500 46.33400 24.50800
N  35.08400 49.29800 28.84700
C  35.39800 48.35400 29.79100
C  35.43200 48.97500 31.12200
C  34.63100 50.29000 30.89200
C  34.77200 50.47300 29.38100
C  33.09200 50.23400 31.35200
C  36.91200 49.13300 31.68600
C  36.97900 48.56500 33.10300
H  36.99600 49.55200 34.21900
N  34.54600 51.05400 26.27900
C  34.24500 51.91900 27.22800
C  33.82200 53.21200 26.65100
C  33.95500 53.06200 25.24600
C  34.41200 51.65300 25.00200
C  33.44200 54.50600 27.50700
C  33.64600 54.07800 24.09900
O  33.68500 53.77600 22.91100
C  33.22500 55.60200 24.47000
N  35.28100 48.73200 24.50000
C  34.96200 49.69000 23.59700
C  35.08800 49.13600 22.13000
C  35.69500 47.77700 22.33200
C  35.54900 47.56700 23.86400
C  33.79200 49.21200 21.31500
C  37.03600 47.49300 21.67200
C  37.02100 46.57900 20.43500
N  35.60300 46.99400 26.89800
C  35.91100 46.08000 25.95000
C  36.30300 44.84200 26.68500
C  36.26700 45.20200 28.04200
C  35.94600 46.53500 28.11100
C  36.71200 43.49700 26.07800
C  36.60500 44.81000 29.38400
O  37.00100 43.69700 29.69300
C  36.29300 45.97000 30.39900
C  35.30200 45.50500 31.35600
O  34.21600 45.17100 31.11300
O  35.91200 45.26100 32.57600
C  35.07200 44.71900 33.66500
H  34.41000 52.55000 29.30400
H  34.58100 51.65100 22.91400
H  36.17900 45.55200 23.80900
H  34.82500 48.34400 31.77200
H  35.12900 51.14400 31.35100
H  32.83600 50.80400 32.24500
H  32.73300 49.20700 31.43000
H  32.44800 50.70200 30.60800
H  37.34400 50.13200 31.63200
H  37.62700 48.56300 31.09200
H  37.85400 47.92600 33.22200
H  36.19800 47.82400 33.27400
H  32.48200 54.73900 27.04700
H  34.11300 55.31700 27.22400
H  33.43900 54.46000 28.59600
H  34.10400 56.04000 24.94100
H  32.29400 55.66000 25.03400
H  32.98800 56.12000 23.54000
H  35.74300 49.83500 21.61100
H  34.97500 47.11900 21.84500
H  32.95500 49.46700 21.96400
H  33.53200 48.31800 20.74800
H  33.96700 50.01200 20.59600
H  37.65000 46.90700 22.35600
H  37.58100 48.43700 21.63900
H  37.48500 45.60800 20.61200
H  37.57300 47.17400 19.70800
H  36.04000 46.31900 20.03700
H  35.78400 42.94000 25.95000
H  37.43700 42.95200 26.68300
H  37.21800 43.57100 25.11500
H  37.16100 46.32700 30.95300
H  34.37600 45.48500 34.00500
H  35.70700 44.36500 34.47700
H  34.48200 43.89300 33.26700

