158

Mg 41.32700 7.93200 29.51300
C  43.11400 9.73500 32.05900
C  39.07800 6.99200 31.89800
C  39.76200 6.42900 27.15900
C  44.10000 8.58500 27.42100
N  41.16300 8.30800 31.77000
C  41.91200 9.16200 32.50200
C  41.35200 9.20900 33.94300
C  40.18900 8.12100 33.95600
C  40.14600 7.71500 32.51100
C  40.33400 6.87200 34.92500
C  40.88800 10.70000 34.37100
C  40.15100 10.80700 35.79500
H  40.50000 11.88800 36.82200
N  39.60000 6.88200 29.51100
C  38.84900 6.57500 30.58600
C  37.77800 5.74000 30.17800
C  37.81800 5.78200 28.76100
C  39.07700 6.41200 28.35900
C  36.77200 5.22800 31.18400
C  36.85100 5.11000 27.75900
O  37.01500 5.27400 26.53800
C  35.64200 4.28000 28.32300
N  41.91000 7.54400 27.58000
C  41.02800 6.82300 26.81500
C  41.65800 6.47600 25.38700
C  42.94900 7.37900 25.44000
C  42.99600 7.89400 26.87400
C  41.89400 4.92100 25.19400
C  42.94700 8.58600 24.44500
C  41.83900 9.56000 24.62200
N  43.27500 8.83200 29.67600
C  44.26000 9.05600 28.73700
C  45.42100 9.82400 29.37400
C  44.90400 10.19400 30.53700
C  43.65700 9.53500 30.74300
C  46.63800 10.38500 28.74200
C  45.25300 10.99900 31.65900
O  46.15700 11.75900 31.92500
C  44.09400 10.77100 32.68700
C  44.67500 10.27600 33.98900
O  45.16100 9.23400 34.11100
O  44.56500 11.22500 34.95000
C  45.25100 11.02700 36.23100
H  38.33300 6.87500 32.68800
H  39.24800 5.89100 26.35900
H  44.87800 8.91500 26.72900
H  42.22900 8.87100 34.49300
H  39.23400 8.62100 34.11300
H  41.37300 6.75800 35.23100
H  40.17200 5.97100 34.33300
H  39.58700 6.88600 35.71900
H  40.24000 11.04400 33.56500
H  41.74700 11.37100 34.40600
H  40.40000 9.87100 36.29500
H  39.07000 10.85000 35.66300
H  36.57100 4.17800 30.96900
H  35.89500 5.87200 31.12700
H  37.11200 5.26300 32.22000
H  35.05700 4.93600 28.96900
H  36.02500 3.46400 28.93400
H  34.97300 3.97500 27.51700
H  40.89100 6.77000 24.67100
H  43.90000 6.85000 25.38900
H  41.32700 4.39900 25.96500
H  42.91000 4.64900 25.48300
H  41.68500 4.45100 24.23300
H  42.94500 8.03200 23.50600
H  43.86800 9.16900 24.40900
H  41.16500 9.40200 25.46400
H  41.33500 9.55000 23.65600
H  42.20500 10.57500 24.77800
H  46.45500 11.30600 28.18800
H  46.95500 9.58600 28.07200
H  47.34800 10.56600 29.54900
H  43.62500 11.69700 33.02200
H  44.52400 10.66100 36.95500
H  45.77800 11.93500 36.52400
H  46.09300 10.33400 36.20700
Mg -1.98100 34.33200 26.32400
C  -3.16400 32.41900 29.06900
C  -0.70800 36.49200 28.56400
C  -1.47200 36.18000 23.62900
C  -3.42400 31.90100 24.24700
N  -2.04200 34.47500 28.61900
C  -2.45900 33.47500 29.48500
C  -2.15000 33.89500 30.97700
C  -1.31400 35.22100 30.72600
C  -1.42800 35.47000 29.18500
C  -1.81900 36.49500 31.50700
C  -1.39100 32.74900 31.78200
C  -2.17000 32.12900 32.99500
H  -1.42200 32.36600 34.40000
N  -1.20900 36.02000 26.11700
C  -0.69200 36.85400 27.15000
C  -0.07700 37.99500 26.58800
C  -0.25700 37.90100 25.15400
C  -1.05400 36.66900 24.90600
C  0.59300 39.09700 27.29800
C  0.28700 38.81000 24.06800
O  0.22000 38.57600 22.86600
C  1.12500 39.99200 24.42700
N  -2.40500 34.09400 24.28400
C  -2.07200 34.98100 23.28200
C  -2.58800 34.62500 21.92400
C  -3.06700 33.22200 22.14600
C  -2.91400 33.03000 23.67800
C  -3.53100 35.49000 21.10500
C  -2.27600 32.14400 21.33400
C  -0.81300 31.83500 21.68900
N  -3.07600 32.51500 26.52500
C  -3.65500 31.68600 25.61900
C  -4.43600 30.64800 26.26500
C  -4.20600 30.85700 27.60300
C  -3.38800 32.02500 27.73000
C  -5.24700 29.58500 25.59000
C  -4.62500 30.39800 28.85300
O  -5.43000 29.53000 29.16200
C  -4.00800 31.42600 29.85600
C  -5.02500 32.20200 30.51900
O  -5.47500 33.24900 30.23000
O  -5.30000 31.56100 31.66500
C  -5.98800 32.37600 32.69500
H  -0.22600 37.17300 29.26900
H  -1.43800 36.83600 22.75700
H  -3.93100 31.20500 23.57600
H  -3.12100 34.22900 31.34500
H  -0.28700 35.06700 31.05600
H  -1.03900 36.99800 32.07900
H  -2.55500 36.14300 32.23000
H  -2.45700 37.11200 30.87500
H  -0.41000 33.10000 32.10200
H  -1.07700 31.89500 31.18200
H  -2.24500 31.05200 32.84700
H  -3.16800 32.56700 32.97600
H  0.65600 38.99800 28.38100
H  0.08500 40.05200 27.15900
H  1.61800 39.14000 26.93100
H  2.10700 39.63100 24.73300
H  0.77500 40.66500 25.21000
H  1.27300 40.64300 23.56600
H  -1.67100 34.58700 21.33500
H  -4.12100 33.17800 21.87000
H  -4.26900 34.83200 20.64400
H  -3.03100 36.01700 20.29200
H  -4.00700 36.24000 21.73700
H  -2.27000 32.44800 20.28800
H  -2.86900 31.23000 21.33300
H  -0.35800 32.31800 22.55300
H  -0.25800 31.96200 20.75900
H  -0.88300 30.76400 21.87900
H  -5.43800 28.71400 26.21600
H  -4.72200 29.25600 24.69300
H  -6.26100 29.93800 25.40400
H  -3.37700 30.86600 30.54500
H  -6.89500 32.74700 32.21600
H  -5.39400 33.21700 33.05300
H  -6.25600 31.73000 33.53100

