158

Mg 17.47600 -1.36600 27.56500
C  16.35700 0.77900 30.00400
C  19.54000 -2.90200 30.03500
C  18.57300 -3.55500 25.16400
C  15.59800 0.31100 25.24400
N  17.93500 -0.98400 29.70600
C  17.27100 -0.23000 30.54300
C  17.52700 -0.45400 32.01200
C  18.63500 -1.59100 31.96000
C  18.76700 -1.85200 30.46400
C  19.93300 -1.29300 32.64100
C  16.25300 -0.77400 32.93900
C  16.02800 0.15600 34.21400
H  17.22100 0.55200 34.93400
N  18.92900 -2.89300 27.58200
C  19.63000 -3.39600 28.68500
C  20.45800 -4.47700 28.25500
C  20.21200 -4.69900 26.83500
C  19.21700 -3.65700 26.46200
C  21.53500 -5.03700 29.13300
C  20.86300 -5.57100 25.82500
O  20.71300 -5.41100 24.64300
C  21.84200 -6.65500 26.20400
N  17.25300 -1.53500 25.47100
C  17.77300 -2.50700 24.76200
C  17.01900 -2.53600 23.32500
C  15.90200 -1.45100 23.55000
C  16.28500 -0.81900 24.82300
C  18.02300 -2.36100 22.16300
C  14.42500 -1.94000 23.46700
C  13.60300 -1.12600 22.47300
N  16.30700 0.30300 27.56000
C  15.54200 0.88700 26.53800
C  14.73700 1.92300 27.07900
C  15.00900 1.93800 28.41500
C  15.98500 0.93800 28.66200
C  13.87200 2.83800 26.25000
C  14.75500 2.67000 29.64400
O  13.91300 3.59900 29.82000
C  15.51500 1.91600 30.70900
C  16.43800 2.84600 31.38600
O  17.54800 3.02700 30.98800
O  15.78200 3.48500 32.46300
C  16.60300 4.63100 32.93800
H  20.15700 -3.49200 30.71600
H  18.58700 -4.47400 24.57400
H  14.85400 0.72900 24.56200
H  17.99400 0.41100 32.48300
H  18.19900 -2.52100 32.32600
H  20.69700 -1.30500 31.86400
H  20.07500 -2.04100 33.42000
H  19.97300 -0.28100 33.04300
H  16.16300 -1.81200 33.25900
H  15.41100 -0.51100 32.29900
H  15.44200 -0.36200 34.97300
H  15.48400 1.07300 33.98800
H  20.86700 -5.68800 29.69800
H  22.05500 -4.42700 29.87100
H  22.33000 -5.48000 28.53300
H  21.97000 -7.38000 25.40000
H  21.31600 -7.16000 27.01500
H  22.77900 -6.32400 26.65000
H  16.59100 -3.52700 23.16800
H  16.05900 -0.67800 22.79800
H  18.34300 -3.34400 21.81700
H  18.92900 -1.78000 22.33500
H  17.33200 -1.96600 21.41800
H  14.01900 -1.93700 24.47800
H  14.32600 -2.97400 23.13700
H  14.14800 -0.22400 22.19600
H  12.71200 -0.78800 23.00200
H  13.20800 -1.56500 21.55600
H  12.83300 2.51000 26.28000
H  14.24400 2.83500 25.22500
H  13.81800 3.86200 26.62000
H  14.82500 1.50700 31.44700
H  15.92100 4.99400 33.70700
H  16.78900 5.42600 32.21600
H  17.48600 4.27500 33.46800
Mg 0.65900 43.19700 25.81200
C  2.28600 43.08900 29.11900
C  -2.06800 41.86000 27.29100
C  -0.53200 42.72100 22.76300
C  3.82700 43.71600 24.50600
N  0.22000 42.56600 27.95400
C  0.88100 42.82600 29.15600
C  -0.03800 42.76300 30.35300
C  -1.26200 42.08400 29.77700
C  -1.08900 42.14500 28.22400
C  -1.29200 40.58000 30.28000
C  -0.21400 44.18300 30.99100
C  0.45200 44.50600 32.43500
H  -0.45500 44.33600 33.69600
N  -1.09700 42.52200 25.17100
C  -2.13300 41.96600 25.86300
C  -3.27800 41.78200 24.99900
C  -2.77900 42.03500 23.65200
C  -1.42700 42.44100 23.84300
C  -4.69100 41.29300 25.38700
C  -3.60900 41.93000 22.38700
O  -3.26800 42.24300 21.27500
C  -4.97000 41.20800 22.40800
N  1.54200 43.16900 23.95300
C  0.84900 42.91000 22.81600
C  1.67700 42.98500 21.53100
C  2.92400 43.70600 22.13500
C  2.77000 43.54000 23.62800
C  1.97700 41.62600 20.86200
C  3.03200 45.23300 21.76300
C  3.42700 45.44200 20.27700
N  2.64000 43.43600 26.56800
C  3.86000 43.50700 25.89500
C  4.95800 43.55800 26.87400
C  4.35800 43.36500 28.03100
C  2.98600 43.25600 27.86800
C  6.41600 43.92500 26.69900
C  4.65100 43.00400 29.44700
O  5.72800 42.73800 29.90300
C  3.36000 43.04700 30.24200
C  3.37000 41.76500 31.01100
O  3.01800 40.66500 30.68800
O  3.96700 42.04800 32.22800
C  4.00700 41.07500 33.35800
H  -2.96900 41.57500 27.83900
H  -0.92600 42.55500 21.75800
H  4.82200 43.91100 24.10200
H  0.48400 42.18400 31.11600
H  -2.20400 42.50100 30.13200
H  -0.64000 40.22000 31.07600
H  -1.05700 39.94000 29.43000
H  -2.32600 40.40200 30.57500
H  -1.29800 44.28900 30.94100
H  0.29600 44.86100 30.30700
H  0.86900 45.51200 32.38000
H  1.28800 43.81000 32.51100
H  -5.51300 41.95900 25.12400
H  -4.72100 41.23400 26.47500
H  -4.85700 40.28600 25.00500
H  -4.83500 40.27700 22.95900
H  -5.38100 41.14700 21.40100
H  -5.61400 41.86000 22.99900
H  1.14700 43.65700 20.85600
H  3.72000 43.15800 21.63100
H  1.50900 40.80200 21.40100
H  3.04300 41.39800 20.85200
H  1.70900 41.60700 19.80500
H  3.85000 45.71900 22.29500
H  2.08800 45.77600 21.81100
H  3.45100 44.39700 19.96800
H  4.37100 45.97000 20.14200
H  2.62400 45.97200 19.76300
H  6.91000 43.76100 27.65600
H  6.52200 44.98800 26.47900
H  6.89600 43.34100 25.91400
H  3.44500 43.89700 30.91900
H  5.04000 40.72900 33.33900
H  3.28600 40.25800 33.33800
H  3.91000 41.59600 34.31000

