158

Mg 54.16300 24.52100 45.41300
C  51.76400 26.77500 44.58100
C  52.08800 22.01100 44.47100
C  56.85700 22.41200 45.23700
C  56.31900 27.21300 46.04600
N  52.22100 24.43300 44.47000
C  51.37500 25.47300 44.31100
C  49.99900 24.94500 43.74000
C  50.00600 23.52400 44.33100
C  51.55000 23.26500 44.43500
C  49.26300 23.22400 45.66800
C  50.04800 25.06400 42.19800
C  48.60900 25.33900 41.62500
H  48.41400 25.63700 40.06900
N  54.44800 22.41800 45.00900
C  53.40100 21.60600 44.61300
C  53.94700 20.29900 44.38700
C  55.35700 20.31600 44.71900
C  55.61400 21.74400 45.00600
C  53.14400 19.18700 43.91500
C  56.24500 19.14000 44.73500
O  55.82600 18.02400 44.43800
C  57.68600 19.21700 45.10800
N  56.27700 24.83000 45.42000
C  57.13400 23.78600 45.37500
C  58.59600 24.24700 45.37200
C  58.47000 25.79300 45.81300
C  56.94700 26.00100 45.78500
C  59.56200 23.39400 46.32600
C  59.22900 26.86900 44.92600
C  60.33900 27.74500 45.53900
N  54.07100 26.61100 45.44500
C  54.91600 27.55300 45.87000
C  54.30000 28.87700 45.93800
C  53.02500 28.64200 45.44500
C  52.97000 27.25700 45.07800
C  54.86600 30.24300 46.46100
C  51.72400 29.19200 45.25200
O  51.32000 30.32300 45.46000
C  50.91300 28.07500 44.44900
C  50.68200 28.53300 43.08800
O  51.50100 28.50100 42.16600
O  49.38300 28.88000 42.88500
C  48.87800 29.35100 41.61400
H  51.33500 21.26200 44.21800
H  57.66900 21.71300 45.02800
H  56.80700 28.15900 46.28800
H  49.22700 25.61300 44.12200
H  49.72600 22.80500 43.56100
H  48.34700 22.72800 45.34800
H  49.03900 24.20300 46.09200
H  49.84500 22.67200 46.40500
H  50.33100 24.13600 41.70200
H  50.68900 25.82400 41.75000
H  48.11100 26.15700 42.14600
H  47.91400 24.56000 41.93600
H  53.11300 19.16100 42.82500
H  52.10700 19.26700 44.24000
H  53.50100 18.26500 44.37300
H  58.26800 19.65500 44.29600
H  58.12000 18.26200 45.40200
H  57.76700 19.92600 45.93200
H  58.97000 24.28100 44.34900
H  58.86500 25.89400 46.82400
H  59.64200 24.01500 47.21800
H  60.47400 23.38300 45.72900
H  59.18400 22.39800 46.55700
H  58.41400 27.44500 44.48600
H  59.74200 26.40700 44.08300
H  60.67000 27.33300 46.49200
H  59.97800 28.76800 45.63800
H  61.20500 27.78000 44.87800
H  55.23500 30.85000 45.63500
H  55.58500 30.16300 47.27700
H  54.00800 30.80900 46.82600
H  49.96000 27.86700 44.93600
H  47.83800 29.02800 41.57200
H  49.49600 28.96000 40.80500
H  48.94700 30.43800 41.65700
Mg 29.22500 57.92700 41.02600
C  26.67800 55.78000 39.65400
C  31.52800 55.65800 39.92500
C  31.41500 60.13600 41.66100
C  26.64700 60.21200 41.96600
N  28.98900 55.99600 39.89100
C  27.95300 55.35100 39.38700
C  28.45400 54.13300 38.61700
C  29.86800 53.85300 39.22600
C  30.15500 55.25600 39.76000
C  29.96500 52.82600 40.33500
C  28.54200 54.38700 37.11400
C  27.59900 53.47300 36.25600
H  26.78000 54.13100 35.16400
N  31.22700 57.90800 40.75300
C  32.00900 56.89800 40.31200
C  33.38300 57.28400 40.36400
C  33.36000 58.59900 40.98500
C  31.98700 58.92300 41.22300
C  34.52400 56.39400 39.93300
C  34.63600 59.31700 41.48900
O  35.70300 58.91000 41.12000
C  34.55400 60.64200 42.24700
N  29.06400 60.05700 41.59800
C  30.11700 60.66900 41.92700
C  29.83300 62.08300 42.34100
C  28.39600 61.94400 42.85200
C  27.97900 60.70200 42.01800
C  30.85300 62.68900 43.38800
C  27.47900 63.19000 42.55000
C  26.71900 63.75300 43.70200
N  27.12900 58.00800 40.88100
C  26.22200 59.03000 41.39100
C  24.88100 58.60000 41.08200
C  25.03400 57.34400 40.49900
C  26.38800 57.02600 40.34300
C  23.56000 59.38900 41.31800
C  24.25300 56.30000 39.90600
O  23.02100 56.23100 39.80800
C  25.27200 55.24300 39.26100
C  25.07500 53.97000 39.91300
O  25.51100 53.62900 41.00400
O  24.23800 53.23200 39.16600
C  23.61100 52.12200 39.81700
H  32.22600 54.82500 39.81800
H  32.17500 60.91500 41.75100
H  25.89800 60.88900 42.38200
H  27.76600 53.29300 38.70900
H  30.58400 53.56700 38.45600
H  29.94200 53.34000 41.29600
H  30.92500 52.30900 40.33600
H  29.13400 52.12500 40.26400
H  29.49800 54.13100 36.65900
H  28.37900 55.43700 36.87000
H  26.87400 53.03400 36.94200
H  28.15800 52.60800 35.90000
H  35.28200 56.96100 39.39200
H  34.23900 55.52300 39.34200
H  34.95700 55.95500 40.83200
H  35.51900 60.94400 42.65300
H  33.87000 60.62400 43.09500
H  34.29300 61.28900 41.41000
H  29.84200 62.71000 41.45000
H  28.42400 61.68400 43.91000
H  30.34800 63.26700 44.16200
H  31.49400 63.37000 42.82700
H  31.49200 61.91500 43.81300
H  26.60700 62.99100 41.92600
H  28.07800 63.89400 41.97300
H  26.78300 63.12400 44.58900
H  25.65600 63.80700 43.46600
H  27.14500 64.68300 44.07800
H  23.62100 60.39900 40.91300
H  23.34600 59.40600 42.38700
H  22.71200 58.91800 40.82000
H  25.15400 55.09400 38.18800
H  23.82500 51.15500 39.36200
H  22.54500 52.33000 39.90600
H  23.87900 52.04000 40.87100

