158

Mg 47.81400 15.46900 28.16000
C  45.54300 15.31900 30.78200
C  49.79600 17.47100 30.17300
C  50.08300 15.67800 25.65600
C  45.47800 13.91200 26.18800
N  47.58100 16.35700 30.20600
C  46.73400 15.93900 31.12900
C  47.08400 16.47300 32.53200
C  48.35400 17.34300 32.22000
C  48.58600 17.09200 30.72800
C  48.43400 18.81600 32.68800
C  47.29100 15.35700 33.60200
C  46.52300 15.58000 34.94100
H  46.52500 16.99800 35.56900
N  49.71100 16.39200 27.96600
C  50.33100 17.17800 28.91400
C  51.69900 17.56600 28.40400
C  51.77100 16.99300 27.06900
C  50.50700 16.31400 26.83600
C  52.73300 18.34500 29.27500
C  52.98900 17.08500 26.07300
O  53.03400 16.58800 24.95800
C  54.18700 17.92300 26.49600
N  47.83200 14.87900 26.27900
C  48.79800 15.11900 25.36800
C  48.32000 14.72100 23.97200
C  47.10900 13.76200 24.15700
C  46.82000 14.12600 25.66400
C  48.10500 15.96000 23.11100
C  47.19500 12.26900 23.81600
C  46.92500 11.24200 24.96400
N  45.84900 14.73300 28.33800
C  45.04400 14.13200 27.48500
C  43.79800 13.66400 28.18600
C  43.98600 14.15400 29.48700
C  45.22300 14.78600 29.54200
C  42.64700 12.83000 27.64700
C  43.47600 14.11100 30.78900
O  42.43300 13.55300 31.20500
C  44.32600 15.02500 31.70200
C  43.68100 16.18600 32.33000
O  43.71700 17.33900 31.90400
O  42.91500 15.75900 33.39200
C  42.20600 16.81800 34.16600
H  50.46500 18.02700 30.83200
H  50.67400 15.68500 24.73800
H  44.71100 13.53500 25.50700
H  46.30200 17.18700 32.79000
H  49.22000 16.79100 32.58500
H  47.53700 19.05800 33.25800
H  48.26200 19.40100 31.78500
H  49.33700 19.12400 33.21500
H  48.33900 15.26700 33.88900
H  46.94000 14.38400 33.26000
H  46.80000 14.97200 35.80300
H  45.49500 15.40700 34.62200
H  53.17800 19.21100 28.78500
H  53.59200 17.71600 29.50900
H  52.35000 18.70200 30.23100
H  53.81800 18.90600 26.78700
H  54.89300 17.99500 25.66900
H  54.56000 17.51800 27.43700
H  49.20700 14.18000 23.64200
H  46.32300 14.15200 23.51000
H  48.24200 16.73700 23.86300
H  47.09500 16.10600 22.72700
H  48.86000 16.01400 22.32600
H  48.15200 12.06100 23.33900
H  46.46600 12.11500 23.02100
H  46.83900 11.74300 25.92800
H  47.72500 10.50700 25.05100
H  45.97300 10.80600 24.66400
H  42.60300 11.81700 28.04700
H  42.77200 12.78300 26.56500
H  41.65100 13.23900 27.81700
H  44.60000 14.26300 32.43100
H  41.70000 17.47900 33.46300
H  42.85500 17.45300 34.77000
H  41.38500 16.49100 34.80500
Mg -2.45700 34.30600 26.31800
C  -4.04000 32.45600 28.96200
C  -1.36100 36.58900 28.72000
C  -1.16500 36.25200 23.75100
C  -4.16700 32.35800 24.01000
N  -2.87500 34.56100 28.49900
C  -3.42200 33.67500 29.42100
C  -3.25100 34.14500 30.90500
C  -2.71700 35.62400 30.73900
C  -2.19400 35.58700 29.22400
C  -3.78100 36.73800 31.02300
C  -2.37900 33.16900 31.68900
C  -3.00600 32.54600 32.94200
H  -2.18900 32.46600 34.24300
N  -1.30000 36.03300 26.18400
C  -0.96000 36.77900 27.29300
C  0.01300 37.69000 26.88000
C  0.07400 37.71200 25.48800
C  -0.79500 36.64600 25.03900
C  0.75400 38.58600 27.92100
C  0.78300 38.60500 24.48400
O  0.76800 38.43100 23.27300
C  1.54800 39.82700 25.01200
N  -2.71000 34.35200 24.16400
C  -2.02000 35.15600 23.35600
C  -2.34100 34.86800 21.89700
C  -3.02300 33.48400 22.02200
C  -3.39400 33.41100 23.47600
C  -3.38600 35.95500 21.22700
C  -2.00100 32.41200 21.63300
C  -0.88500 31.88600 22.61100
N  -3.74900 32.71600 26.43000
C  -4.23500 31.97000 25.40100
C  -5.06400 30.87100 25.93900
C  -4.96600 31.03900 27.31100
C  -4.15200 32.11200 27.60500
C  -5.91800 29.84700 25.29600
C  -5.39600 30.44800 28.52800
O  -6.11100 29.47800 28.74800
C  -4.75600 31.32400 29.73700
C  -5.78900 31.73600 30.62400
O  -6.56600 32.65300 30.43400
O  -5.85000 30.88900 31.61800
C  -6.87800 31.26100 32.61400
H  -0.75500 37.02100 29.51900
H  -0.85400 36.85200 22.89300
H  -4.62600 31.56600 23.41400
H  -4.25000 34.11700 31.34000
H  -1.81300 35.82100 31.31400
H  -3.53700 36.99600 32.05400
H  -4.76000 36.26400 30.94400
H  -3.61600 37.62200 30.40900
H  -1.49200 33.68700 32.05600
H  -2.12600 32.34400 31.02300
H  -3.26800 31.50200 32.76800
H  -3.92600 33.09600 33.13900
H  1.82800 38.59800 27.73100
H  0.59500 38.25600 28.94700
H  0.43100 39.62300 27.82800
H  0.82300 40.46600 25.51600
H  2.01700 40.35400 24.18100
H  2.25300 39.53900 25.79100
H  -1.46000 34.92800 21.25800
H  -3.93500 33.35300 21.43900
H  -3.44900 36.87400 21.81000
H  -4.39500 35.58500 21.04600
H  -2.93900 36.09600 20.24200
H  -1.48000 32.90100 20.81000
H  -2.57200 31.55600 21.27300
H  0.06300 32.27000 22.23400
H  -0.80300 30.80400 22.50100
H  -1.09100 32.22000 23.62800
H  -5.89100 29.62700 24.22900
H  -6.96100 30.12800 25.44400
H  -5.65500 28.97900 25.90100
H  -4.03000 30.77800 30.33900
H  -6.35800 31.83200 33.38300
H  -7.12500 30.31500 33.09500
H  -7.81000 31.71800 32.28400

