158

Mg 41.50800 40.44300 27.27500
C  41.02300 43.09200 29.59300
C  42.06000 38.34700 29.91100
C  42.38100 38.22200 24.98800
C  41.17900 42.89200 24.67700
N  41.61200 40.73300 29.50400
C  41.25200 41.84500 30.18800
C  41.16700 41.50600 31.72900
C  41.71900 40.01800 31.81100
C  41.78900 39.66500 30.31500
C  43.01600 39.83800 32.66000
C  39.76400 41.68400 32.42900
C  39.67200 42.57900 33.65600
H  39.24200 41.96500 34.94100
N  42.03700 38.55000 27.46700
C  42.24600 37.83000 28.62400
C  42.57500 36.49500 28.22700
C  42.67800 36.42300 26.80700
C  42.32300 37.75200 26.31400
C  42.75200 35.37900 29.35100
C  43.02400 35.20800 25.92600
O  43.04400 35.12600 24.69200
C  43.28900 33.92200 26.65400
N  41.79200 40.61800 25.10600
C  42.10600 39.49800 24.41300
C  42.28000 39.76400 22.88300
C  41.86700 41.30600 22.79300
C  41.53200 41.63100 24.29100
C  43.78800 39.45900 22.44300
C  40.68700 41.48800 21.78100
C  39.37300 41.04100 22.35300
N  41.10500 42.55900 27.11100
C  41.00300 43.36000 26.03100
C  40.78600 44.74200 26.49900
C  40.71400 44.61600 27.86500
C  41.01900 43.30700 28.19100
C  40.61600 45.91600 25.55000
C  40.52300 45.42500 29.04000
O  40.24900 46.60000 29.20900
C  40.67100 44.38500 30.23500
C  41.63300 44.77700 31.32200
O  42.84700 44.79400 31.24200
O  40.92300 45.32300 32.31100
C  41.78900 45.96500 33.37600
H  42.17200 37.66900 30.75900
H  42.77500 37.51700 24.25300
H  40.95900 43.50100 23.79800
H  41.96800 42.14500 32.10300
H  40.87100 39.46000 32.20800
H  43.90200 39.77900 32.02900
H  42.86100 38.81700 33.00800
H  43.09100 40.55400 33.47800
H  39.37000 40.74100 32.80800
H  39.06700 42.04700 31.67300
H  38.80800 43.22600 33.50400
H  40.52100 43.20800 33.92300
H  42.05000 34.54600 29.31800
H  42.80800 35.83700 30.33800
H  43.71400 35.02300 28.98100
H  44.31300 33.96000 27.02500
H  43.23100 33.08400 25.96000
H  42.54100 33.76100 27.43000
H  41.52200 39.12900 22.42400
H  42.66200 41.95000 22.42000
H  44.40300 39.00800 23.22200
H  44.29000 40.37300 22.12600
H  43.79300 38.79400 21.57900
H  40.97400 41.01400 20.84300
H  40.53100 42.54300 21.55400
H  38.75500 41.93100 22.24000
H  39.47700 40.71100 23.38700
H  38.95100 40.19900 21.80400
H  39.66500 45.91900 25.01700
H  41.38600 45.98900 24.78100
H  40.64500 46.81600 26.16400
H  39.68900 44.12000 30.62700
H  42.05000 45.23700 34.14300
H  41.31300 46.73500 33.98300
H  42.78100 46.25700 33.03000
Mg 8.51100 48.98400 26.00800
C  6.23000 49.26200 28.68000
C  10.91100 50.34500 28.11000
C  10.64100 48.66800 23.55300
C  5.77400 48.42900 23.75800
N  8.50600 49.62700 28.12000
C  7.53400 49.58400 29.07500
C  8.11500 49.79400 30.50700
C  9.51800 50.38500 30.24100
C  9.62400 50.16500 28.69000
C  9.70800 51.81300 30.75100
C  8.09100 48.53700 31.34500
C  7.69500 48.68200 32.85300
H  7.83500 47.46200 33.77100
N  10.51000 49.47700 25.82200
C  11.32000 49.95000 26.83200
C  12.68200 49.93300 26.35600
C  12.66900 49.36600 24.99200
C  11.22200 49.17200 24.74800
C  13.83100 50.57500 27.07000
C  13.85900 49.15700 23.94700
O  13.63500 49.04900 22.73900
C  15.24900 49.22500 24.40300
N  8.22400 48.67300 23.91600
C  9.35700 48.50900 23.17600
C  8.98900 48.04400 21.74500
C  7.44700 47.93000 21.82600
C  7.08100 48.35300 23.24900
C  9.49200 48.89600 20.56500
C  6.88900 46.48200 21.47000
C  5.65300 46.36700 20.49500
N  6.40400 48.82500 26.14700
C  5.42000 48.68600 25.15000
C  4.10200 48.76500 25.77700
C  4.36500 48.98400 27.15200
C  5.80100 49.04000 27.37100
C  2.69300 48.52300 25.23800
C  3.75700 49.13300 28.41400
O  2.61400 49.13000 28.77800
C  4.89900 49.46800 29.43900
C  4.64200 48.74900 30.69100
O  4.87300 47.55500 30.86900
O  4.14700 49.62800 31.66500
C  3.78700 49.14200 33.00100
H  11.68400 50.66300 28.81200
H  11.33600 48.45900 22.73600
H  4.86200 48.26500 23.18000
H  7.53600 50.47900 31.12600
H  10.24800 49.74000 30.73000
H  8.85700 52.04000 31.39300
H  9.74500 52.59900 29.99600
H  10.72000 51.88400 31.15000
H  9.04200 48.01500 31.23800
H  7.50400 47.73100 30.90400
H  6.63000 48.90600 32.80600
H  8.21700 49.59500 33.14000
H  14.14900 51.30400 26.32500
H  14.68100 49.91700 27.24800
H  13.53500 51.01000 28.02500
H  15.94300 48.78500 23.68700
H  15.46500 48.63500 25.29400
H  15.56700 50.24600 24.61500
H  9.35400 47.03400 21.55600
H  6.90000 48.53300 21.10200
H  10.36400 49.49400 20.83200
H  8.79900 49.64400 20.18100
H  9.72100 48.44900 19.59800
H  6.71500 45.77000 22.27800
H  7.57500 45.78800 20.98400
H  6.10900 46.05600 19.55600
H  5.15600 47.32100 20.32300
H  5.02700 45.53100 20.81000
H  2.03400 49.39100 25.24500
H  2.06400 47.86600 25.83800
H  2.76000 48.19300 24.20100
H  4.86600 50.51300 29.74800
H  2.79800 49.57000 33.16600
H  4.39400 49.51200 33.82800
H  3.92000 48.07000 33.14700

