158

Mg 47.97900 24.85800 27.77500
C  49.24100 27.12900 30.31300
C  47.20000 22.75600 30.35300
C  47.40900 22.64000 25.49200
C  49.15600 27.22500 25.46300
N  48.23700 24.94400 30.14000
C  48.63600 25.96700 30.92300
C  48.42700 25.62700 32.37500
C  47.79600 24.16300 32.31000
C  47.81600 23.89600 30.85200
C  48.42400 23.07000 33.13100
C  47.39800 26.68100 32.88700
C  46.78000 26.30600 34.25700
H  46.82400 27.32700 35.39900
N  47.31200 22.96900 27.89500
C  46.95800 22.24900 29.03200
C  46.37000 20.97100 28.59500
C  46.57600 20.87300 27.21500
C  47.15700 22.16600 26.78100
C  45.93800 19.95500 29.59300
C  46.46000 19.56900 26.32100
O  46.60800 19.60500 25.12200
C  45.93300 18.32100 26.86000
N  48.43700 24.81400 25.82900
C  47.96900 23.79200 25.02600
C  48.10500 24.11300 23.58900
C  48.56900 25.60700 23.57800
C  48.72400 25.93000 25.05700
C  49.12600 23.13300 22.83900
C  47.67300 26.56100 22.70100
C  48.45400 27.72300 22.04700
N  48.97600 26.83500 27.84500
C  49.37200 27.64700 26.77800
C  50.19800 28.70800 27.24400
C  50.05800 28.62000 28.59900
C  49.34700 27.40300 28.98300
C  50.97300 29.74800 26.44700
C  50.37500 29.26900 29.86600
O  50.99700 30.29000 30.05900
C  49.73100 28.35900 31.01200
C  50.80100 28.01200 31.93500
O  51.82500 27.42500 31.64100
O  50.51700 28.51000 33.21600
C  51.38200 28.00000 34.31700
H  46.80100 22.05800 31.09100
H  47.15000 21.91900 24.71400
H  49.29800 28.06100 24.77400
H  49.29600 25.72500 33.02600
H  46.74400 24.22200 32.58800
H  49.03500 23.45800 33.94700
H  49.14100 22.50300 32.53800
H  47.62500 22.42900 33.50300
H  46.51500 26.76000 32.25400
H  47.77200 27.70400 32.92500
H  47.30000 25.40500 34.58300
H  45.72100 26.14600 34.05000
H  44.89000 19.83500 29.31800
H  45.97300 20.34000 30.61200
H  46.42200 18.98000 29.52700
H  45.68900 17.52600 26.15500
H  44.95300 18.57300 27.26500
H  46.64500 18.00700 27.62300
H  47.13300 24.12200 23.09600
H  49.61200 25.64600 23.26200
H  49.53800 22.37200 23.50200
H  49.88700 23.80100 22.43500
H  48.71300 22.57600 21.99800
H  46.91100 26.92300 23.39200
H  47.10300 26.08900 21.90100
H  48.13000 27.83400 21.01300
H  49.54400 27.71200 22.01600
H  48.03200 28.63900 22.46000
H  50.17300 30.26600 25.91700
H  51.70100 29.34800 25.74200
H  51.52100 30.36800 27.15600
H  49.03800 29.03100 31.51700
H  50.68000 28.05000 35.14900
H  52.27400 28.57400 34.56900
H  51.65200 26.95300 34.18600
Mg -12.28400 38.14600 41.49400
C  -9.89200 35.86500 41.03100
C  -10.32600 40.49500 39.84900
C  -14.99100 40.17900 41.09000
C  -14.52200 35.59700 42.57700
N  -10.35500 38.06100 40.48400
C  -9.60700 37.00100 40.33000
C  -8.36000 37.32400 39.54300
C  -8.47600 38.85500 39.26300
C  -9.82600 39.18300 39.85200
C  -7.36400 39.72300 39.87900
C  -8.09600 36.34200 38.42400
C  -6.75100 35.71800 38.39900
H  -5.86700 36.33400 37.19600
N  -12.53500 40.11800 40.75600
C  -11.59500 40.94900 40.29800
C  -12.11700 42.26100 40.19300
C  -13.46900 42.21400 40.43200
C  -13.71400 40.79000 40.85100
C  -11.33200 43.47700 39.66100
C  -14.47600 43.42100 40.35400
O  -14.16000 44.47400 39.74600
C  -15.83800 43.34100 40.97800
N  -14.55900 37.88300 41.64800
C  -15.40200 38.91500 41.54500
C  -16.90300 38.45000 41.57400
C  -16.74600 36.99600 42.06100
C  -15.17700 36.80000 42.16000
C  -18.00400 39.31600 42.28200
C  -17.31200 35.86900 41.11000
C  -18.04000 34.71600 41.86800
N  -12.31300 36.10800 41.73100
C  -13.16800 35.24500 42.39800
C  -12.48900 34.03800 42.74000
C  -11.17300 34.18300 42.21400
C  -11.14300 35.48800 41.54900
C  -13.04000 32.84200 43.44500
C  -9.95000 33.56100 41.96500
O  -9.54000 32.45800 42.38300
C  -9.05100 34.62800 41.18800
C  -7.75200 34.81500 41.85400
O  -6.82400 34.03200 41.85300
O  -7.72000 36.08100 42.45900
C  -6.42400 36.48300 43.06900
H  -9.70900 41.17600 39.26000
H  -15.85300 40.82200 40.89900
H  -15.19400 34.88000 43.05400
H  -7.55600 37.27600 40.27700
H  -8.45900 39.12300 38.20700
H  -7.62600 40.28300 40.77600
H  -6.87100 40.34300 39.13100
H  -6.53900 39.05000 40.11300
H  -8.44400 36.78900 37.49300
H  -8.87900 35.59000 38.52000
H  -6.81100 34.65300 38.17200
H  -6.17300 35.87500 39.31000
H  -11.37500 44.28400 40.39300
H  -11.61900 43.80700 38.66300
H  -10.27700 43.26800 39.48500
H  -15.91800 42.93500 41.98600
H  -16.48400 42.84600 40.25200
H  -16.16200 44.38100 41.00100
H  -17.13800 38.35400 40.51400
H  -17.23200 36.99400 43.03600
H  -17.49200 40.01600 42.94100
H  -18.61600 38.70100 42.94200
H  -18.60200 39.84500 41.53900
H  -16.48400 35.37200 40.60500
H  -18.02100 36.20900 40.35500
H  -19.04800 34.71700 41.45500
H  -18.13600 34.84400 42.94600
H  -17.60600 33.74900 41.61400
H  -13.80000 32.45600 42.76600
H  -13.57200 33.12000 44.35500
H  -12.27500 32.09000 43.63800
H  -8.76700 34.00500 40.33900
H  -6.42300 37.55300 42.86000
H  -5.52200 36.08300 42.60700
H  -6.37700 36.36100 44.15100

