158

Mg 50.19700 45.63700 42.24500
C  47.17900 46.44400 40.65800
C  49.92800 42.43700 40.75100
C  53.24700 45.15200 43.24800
C  50.48700 49.17300 43.18200
N  48.70800 44.58600 40.76000
C  47.50000 45.07600 40.41100
C  46.75900 44.02800 39.62600
C  47.67700 42.77200 39.62800
C  48.87600 43.30700 40.38000
C  46.95500 41.54200 40.29600
C  46.44500 44.58900 38.27600
C  45.10900 44.22500 37.73800
H  44.86900 43.21600 36.57600
N  51.40700 43.99600 42.11100
C  51.22300 42.78100 41.49000
C  52.45400 41.92900 41.65600
C  53.32500 42.63700 42.47300
C  52.66600 43.99700 42.63700
C  52.58700 40.52800 41.01300
C  54.59200 42.14200 43.06600
O  55.00000 41.04600 42.84400
C  55.37800 42.90100 44.10100
N  51.68800 46.98700 43.05600
C  52.85000 46.48500 43.38300
C  53.75200 47.58000 43.89400
C  52.88400 48.85000 43.90000
C  51.58000 48.31800 43.28500
C  54.39600 47.30100 45.22300
C  53.46700 50.14400 43.07900
C  52.87600 50.40900 41.64800
N  48.98300 47.37700 42.17000
C  49.24800 48.77700 42.52000
C  48.05700 49.59500 42.21400
C  47.22400 48.64600 41.58100
C  47.86800 47.35700 41.43400
C  47.67800 51.01600 42.54500
C  45.95400 48.61000 40.87700
O  45.12800 49.49800 40.54600
C  45.90200 47.19600 40.34400
C  44.74100 46.51900 41.06700
O  44.79700 45.77400 42.00400
O  43.66800 46.92900 40.38400
C  42.35700 46.47200 40.88200
H  49.93200 41.40000 40.41200
H  54.28100 44.95900 43.54000
H  50.56900 50.17100 43.61900
H  45.84100 43.85000 40.18700
H  47.92700 42.51700 38.59800
H  47.33600 40.63700 39.82300
H  45.87100 41.59200 40.19300
H  47.06500 41.64700 41.37600
H  47.23900 44.37100 37.56200
H  46.35900 45.67600 38.27300
H  44.50800 45.10700 37.51800
H  44.50600 43.76500 38.52100
H  51.87900 39.82300 41.45000
H  53.59900 40.16300 41.18600
H  52.34900 40.59000 39.95100
H  54.70100 43.20900 44.89700
H  56.07800 43.63900 43.70900
H  56.08600 42.22500 44.58100
H  54.64000 47.79300 43.29800
H  52.70400 49.24100 44.90100
H  55.41700 47.68200 45.22600
H  54.43500 46.27400 45.58700
H  53.87000 47.74600 46.06700
H  54.50900 49.88900 42.88100
H  53.55300 51.08000 43.63000
H  52.43500 51.39400 41.80700
H  52.13000 49.71200 41.26600
H  53.63700 50.53200 40.87800
H  46.63500 50.97300 42.86000
H  47.84700 51.57900 41.62800
H  48.24700 51.36100 43.40800
H  45.60700 47.32400 39.30200
H  41.86800 47.12400 41.60600
H  42.40400 45.47800 41.32700
H  41.77900 46.49000 39.95700
Mg -11.62800 16.93800 42.69100
C  -8.55100 15.34600 42.24100
C  -10.28000 19.75700 41.29300
C  -14.78800 17.86100 41.90200
C  -12.91700 13.73300 43.68100
N  -9.68700 17.43400 41.84300
C  -8.58400 16.66700 41.80600
C  -7.35700 17.43300 41.26300
C  -7.81800 18.90300 41.34800
C  -9.34400 18.69500 41.48600
C  -7.25300 19.80400 42.48500
C  -6.90300 16.85100 39.81300
C  -5.39100 16.98500 39.56900
H  -4.99500 17.43400 38.19300
N  -12.41400 18.65100 41.74000
C  -11.69200 19.72700 41.30200
C  -12.63400 20.69000 40.83600
C  -13.96200 20.03600 40.84700
C  -13.76000 18.73500 41.51100
C  -12.20300 21.95700 40.18000
C  -15.20100 20.75400 40.29200
O  -15.09100 21.89400 39.87200
C  -16.57400 20.02800 40.19900
N  -13.60200 15.94700 42.85400
C  -14.73400 16.57700 42.42200
C  -15.97900 15.72300 42.71900
C  -15.31700 14.37800 43.23200
C  -13.85200 14.71400 43.24500
C  -17.05400 16.39200 43.66300
C  -15.69000 13.08500 42.45600
C  -16.12300 11.95300 43.39900
N  -10.92900 14.99100 43.03400
C  -11.49600 13.83600 43.52300
C  -10.51400 12.71900 43.68700
C  -9.30300 13.31700 43.17200
C  -9.61200 14.67300 42.78200
C  -10.80900 11.28400 44.09600
C  -7.99000 12.97000 42.82000
O  -7.28900 11.96500 42.92600
C  -7.37400 14.34000 42.30900
C  -6.32300 14.78000 43.34100
O  -6.66600 15.42500 44.33600
O  -5.03600 14.37300 43.09600
C  -4.04600 14.66200 44.07700
H  -9.81500 20.70900 41.03000
H  -15.79400 18.21200 41.66600
H  -13.31300 12.74700 43.93100
H  -6.51100 17.25500 41.92700
H  -7.42300 19.48600 40.51600
H  -8.11000 20.00400 43.12900
H  -6.88300 20.79400 42.21900
H  -6.43700 19.30400 43.00600
H  -7.37100 17.37800 38.98100
H  -7.27500 15.82800 39.76800
H  -4.98200 16.01800 39.86300
H  -5.00800 17.72400 40.27300
H  -12.71300 22.76000 40.71200
H  -12.57200 21.87000 39.15800
H  -11.13700 22.18400 40.20900
H  -16.49500 19.16700 39.53500
H  -17.28600 20.72600 39.75800
H  -17.09700 19.91700 41.14900
H  -16.43300 15.54700 41.74300
H  -15.53900 14.30900 44.29700
H  -17.98900 16.56800 43.13300
H  -16.59900 17.34600 43.93100
H  -17.05200 15.82600 44.59500
H  -14.89600 12.69600 41.81900
H  -16.60800 13.23000 41.88800
H  -17.16800 12.09700 43.67400
H  -15.62000 11.91200 44.36500
H  -15.97600 11.00200 42.88900
H  -9.83500 10.80000 44.17500
H  -11.24800 10.73700 43.26100
H  -11.30700 11.22700 45.06300
H  -6.78900 14.16800 41.40600
H  -3.87800 15.72700 43.92300
H  -3.14700 14.05600 43.97200
H  -4.33300 14.48500 45.11400

