158

Mg 25.66700 0.20300 29.02900
C  27.75500 -0.34400 31.83400
C  23.11100 0.67900 31.16800
C  23.64100 0.33900 26.32000
C  28.43100 -0.62500 27.01000
N  25.49800 0.04000 31.26200
C  26.48500 0.01200 32.24100
C  25.97700 0.22800 33.71700
C  24.42300 0.29100 33.35900
C  24.30500 0.38300 31.78900
C  23.52900 -0.86100 33.88200
C  26.66600 1.36100 34.56800
C  27.15400 1.12000 36.01300
H  26.42600 1.95100 37.13300
N  23.66100 0.44500 28.85100
C  22.75400 0.68900 29.83100
C  21.48000 0.97800 29.29700
C  21.59100 0.75700 27.86800
C  23.01500 0.50400 27.63000
C  20.27000 1.32900 30.13800
C  20.54100 0.76600 26.79100
O  20.70300 0.33100 25.67900
C  19.16600 1.31900 27.06600
N  26.02300 0.11800 27.00600
C  25.06000 0.21700 26.05000
C  25.63100 0.02000 24.61600
C  27.10100 -0.27800 24.81500
C  27.19000 -0.30000 26.39000
C  24.86300 -1.00400 23.70400
C  28.13400 0.72900 24.16000
C  29.35800 0.03500 23.54400
N  27.65900 -0.42600 29.26600
C  28.66200 -0.74100 28.39100
C  29.82100 -1.07400 29.05600
C  29.53700 -0.91500 30.45600
C  28.17200 -0.49800 30.50400
C  31.19300 -1.38000 28.47600
C  30.13900 -1.03500 31.73400
O  31.28900 -1.37000 32.08000
C  28.98400 -0.54200 32.71300
C  28.85300 -1.49600 33.74700
O  28.17600 -2.49900 33.67200
O  29.50400 -1.06100 34.86000
C  29.40300 -1.93200 35.99700
H  22.28400 0.81500 31.86900
H  22.98100 0.47700 25.46100
H  29.21800 -1.00000 26.35300
H  26.14500 -0.71400 34.23700
H  24.07900 1.22400 33.80600
H  23.13900 -0.38200 34.78100
H  24.15600 -1.70800 34.15900
H  22.74800 -1.20500 33.20300
H  25.82500 2.04900 34.65200
H  27.43900 1.79000 33.93000
H  28.19900 1.43000 36.02300
H  27.04000 0.04700 36.16700
H  19.37800 0.81800 29.77800
H  20.18800 2.39900 29.94300
H  20.45200 1.10900 31.19000
H  18.65200 1.36500 26.10600
H  19.35300 2.28900 27.52700
H  18.63500 0.66300 27.75600
H  25.57900 0.97800 24.09800
H  27.25900 -1.31700 24.52700
H  25.39600 -1.87800 23.33000
H  24.30400 -0.47700 22.93000
H  24.18900 -1.50000 24.40300
H  28.41600 1.46500 24.91300
H  27.72600 1.28300 23.31400
H  29.54400 0.52100 22.58700
H  29.14400 -1.02100 23.38000
H  30.11800 0.14700 24.31700
H  32.05800 -1.08100 29.06800
H  31.26600 -0.77000 27.57600
H  31.22300 -2.40400 28.10100
H  29.32600 0.39700 33.14900
H  28.69700 -1.55800 36.73800
H  30.40200 -2.09000 36.40300
H  28.96900 -2.92300 35.86400
Mg 41.62100 41.31100 27.41900
C  40.95300 43.77400 29.75800
C  41.98700 39.00500 29.89500
C  42.52800 39.11400 25.02200
C  41.69500 43.93100 24.99800
N  41.40100 41.34700 29.57800
C  40.99000 42.47400 30.34500
C  40.83400 42.14700 31.77900
C  41.22900 40.64700 31.86500
C  41.51100 40.25900 30.37400
C  42.34300 40.23800 32.83300
C  39.47900 42.58900 32.51000
C  38.90900 41.81700 33.73500
H  38.18900 42.65700 34.80500
N  42.14300 39.34400 27.47100
C  42.18000 38.50400 28.57000
C  42.45300 37.12000 28.16100
C  42.63600 37.18400 26.75600
C  42.41800 38.56100 26.37300
C  42.57300 35.88300 29.06100
C  42.99400 36.03500 25.71900
O  43.26900 36.17500 24.51400
C  43.14600 34.62800 26.28200
N  42.13900 41.49900 25.42100
C  42.43800 40.44400 24.59000
C  42.60200 40.84000 23.13800
C  42.10800 42.31700 23.15600
C  41.99100 42.67100 24.63300
C  44.08600 40.65600 22.57300
C  40.83400 42.77900 22.38600
C  39.50200 42.12600 22.92000
N  41.33600 43.41900 27.35800
C  41.38000 44.33600 26.37600
C  41.10800 45.65700 26.79500
C  40.87500 45.53300 28.19000
C  41.09800 44.12600 28.45900
C  41.02800 46.91800 26.01900
C  40.53100 46.15900 29.35600
O  40.27400 47.34500 29.56100
C  40.57100 45.02400 30.46100
C  41.54700 45.42700 31.59300
O  42.72500 45.12700 31.57900
O  40.77000 45.98500 32.59600
C  41.45600 46.13300 33.86300
H  42.13900 38.23000 30.64900
H  42.84200 38.36500 24.29100
H  41.54000 44.68100 24.22000
H  41.67700 42.74900 32.11900
H  40.30200 40.17900 32.19400
H  42.15400 39.26900 33.29600
H  42.16500 41.03800 33.55100
H  43.36700 40.38300 32.48800
H  38.62300 42.61700 31.83600
H  39.73000 43.62100 32.75500
H  39.73600 41.39500 34.30600
H  38.27300 40.96900 33.48200
H  42.59000 36.35600 30.04300
H  43.50600 35.36200 28.84500
H  41.80400 35.12100 28.93700
H  42.20000 34.35900 26.75100
H  43.90100 34.66000 27.06800
H  43.48000 34.01800 25.44200
H  41.84400 40.19800 22.68900
H  42.91800 42.95600 22.80600
H  44.67600 40.11400 23.31200
H  44.53500 41.57600 22.19900
H  43.97600 39.93300 21.76400
H  40.98900 42.42800 21.36600
H  40.80500 43.86700 22.43400
H  39.64000 41.60600 23.86800
H  39.10100 41.44400 22.17000
H  38.73600 42.87100 23.13900
H  40.18900 46.88800 25.32300
H  41.93400 47.07600 25.43500
H  40.97600 47.70700 26.76900
H  39.54300 44.86600 30.78700
H  42.53000 46.31100 33.81600
H  41.26800 45.33000 34.57600
H  41.09900 47.07000 34.29200

