158

Mg 53.85500 23.77700 45.21700
C  51.16200 25.76700 43.94000
C  52.08100 21.02400 43.80600
C  56.66000 21.97700 45.74400
C  55.50500 26.73200 46.01300
N  51.81100 23.42400 44.12400
C  50.98700 24.43200 43.55900
C  49.91900 23.87700 42.51800
C  50.02000 22.35000 42.97700
C  51.35500 22.22000 43.67000
C  48.90300 21.85700 43.93300
C  50.42300 24.08000 41.01300
C  51.96300 24.34600 40.77100
H  52.91400 23.14000 40.79100
N  54.31400 21.71200 44.88100
C  53.43900 20.77500 44.32400
C  54.16700 19.50800 44.45400
C  55.45100 19.72000 45.07500
C  55.52300 21.17000 45.27000
C  53.56000 18.20000 43.91400
C  56.42700 18.70000 45.53600
O  56.22700 17.43800 45.43800
C  57.70100 19.01900 46.27400
N  55.83100 24.29800 45.70600
C  56.80200 23.36000 45.86700
C  58.13200 23.99600 46.02900
C  57.74900 25.51600 46.32400
C  56.24700 25.55500 46.01500
C  59.07900 23.37100 47.04200
C  58.63800 26.56200 45.67000
C  58.26800 27.05800 44.22400
N  53.38800 25.80800 45.15500
C  54.15700 26.90000 45.61800
C  53.36000 28.08200 45.60400
C  52.17900 27.73300 44.86500
C  52.25400 26.33600 44.64500
C  53.72400 29.43100 45.93000
C  50.92100 28.16400 44.35900
O  50.51100 29.29300 44.38900
C  50.26100 26.93900 43.70100
C  50.01300 27.32800 42.28000
O  50.86900 27.46100 41.44100
O  48.63100 27.39300 42.08300
C  48.13500 27.77200 40.75200
H  51.65400 20.12000 43.36700
H  57.65800 21.54600 45.84500
H  56.05200 27.65300 46.22600
H  48.97400 24.37700 42.72900
H  49.92700 21.70500 42.10300
H  48.23800 22.69300 44.14900
H  49.32500 21.46000 44.85700
H  48.25600 21.13800 43.43000
H  49.81000 24.87100 40.58000
H  50.15600 23.20000 40.42900
H  52.34000 25.24000 41.26800
H  52.08900 24.66900 39.73800
H  54.23300 17.89100 43.11400
H  52.54000 18.31400 43.54700
H  53.56400 17.43600 44.69200
H  58.08000 18.17800 46.85400
H  57.64500 19.83300 46.99700
H  58.55600 19.31500 45.66500
H  58.68800 24.01100 45.09200
H  57.82600 25.64800 47.40300
H  59.99500 23.11400 46.51100
H  58.75700 22.52100 47.64300
H  59.39500 24.20300 47.67200
H  59.67100 26.21300 45.67400
H  58.62200 27.48500 46.25100
H  59.10100 26.76500 43.58500
H  58.12100 28.13600 44.28900
H  57.31900 26.64600 43.88200
H  53.59200 30.03400 45.03100
H  54.75400 29.35400 46.27800
H  53.19200 29.90400 46.75500
H  49.31100 26.84600 44.22700
H  48.96600 27.82900 40.04900
H  47.55000 28.69100 40.80300
H  47.46200 26.98700 40.40600
Mg 48.46500 34.98300 26.87500
C  46.27600 33.53900 29.38900
C  48.74600 37.71400 28.91400
C  49.67700 36.47500 24.21000
C  47.46900 32.25300 24.83200
N  47.69300 35.45900 28.91000
C  46.97600 34.68000 29.74100
C  46.94300 35.31300 31.18400
C  47.36000 36.85100 30.88800
C  47.93500 36.69200 29.46300
C  46.09900 37.79800 30.83800
C  47.89200 34.41900 32.03900
C  49.29500 34.91900 32.53900
H  49.58400 35.20600 34.00900
N  49.24400 36.74700 26.69100
C  49.36100 37.76700 27.63000
C  50.32000 38.73900 27.09800
C  50.49300 38.46000 25.67900
C  49.77800 37.16000 25.51200
C  50.83900 39.91000 27.86200
C  51.25900 39.32400 24.68200
O  51.34300 38.99400 23.53700
C  51.99500 40.53900 25.10100
N  48.55200 34.38700 24.77700
C  49.18000 35.24500 23.85800
C  49.27300 34.57600 22.48600
C  48.82900 33.11900 22.74300
C  48.25200 33.21600 24.22900
C  48.53300 35.24200 21.33200
C  49.95100 32.00300 22.69100
C  50.14800 31.46400 21.21300
N  47.17200 33.28300 27.01300
C  46.81900 32.35100 26.08500
C  45.86400 31.38000 26.57200
C  45.57400 31.81800 27.88400
C  46.37400 32.96800 28.13800
C  45.26000 30.23500 25.85600
C  44.76800 31.59600 29.08200
O  43.88000 30.74700 29.26500
C  45.11200 32.80800 30.05700
C  45.45600 32.26800 31.48100
O  46.30400 31.48800 31.88000
O  44.64600 32.98800 32.35300
C  44.78900 32.57600 33.77100
H  48.98800 38.54300 29.58200
H  50.17700 36.96400 23.37000
H  47.18800 31.44000 24.16000
H  45.91100 35.26600 31.53000
H  48.15300 37.23300 31.53100
H  46.00900 38.41400 31.73300
H  45.22900 37.15700 30.69600
H  46.25600 38.53300 30.04900
H  48.03400 33.49500 31.48000
H  47.34900 34.21900 32.96300
H  49.70400 35.80700 32.05800
H  50.04000 34.22100 32.15500
H  51.91800 39.82500 27.99400
H  50.47400 39.92800 28.88900
H  50.70400 40.85500 27.33700
H  51.30100 41.37400 25.19700
H  52.67300 40.86300 24.31200
H  52.60200 40.23900 25.95600
H  50.32400 34.48800 22.21000
H  47.99700 32.74800 22.14500
H  47.85100 34.57100 20.80900
H  49.19700 35.60600 20.54800
H  47.88500 36.01800 21.73800
H  49.64000 31.20000 23.35900
H  50.90500 32.38800 23.05200
H  51.16000 31.73000 20.90700
H  49.42600 31.91600 20.53400
H  50.02500 30.38700 21.09300
H  44.90000 30.45000 24.85000
H  44.40500 29.98500 26.48400
H  46.02300 29.45600 25.86900
H  44.24900 33.46800 30.14300
H  45.37600 33.28000 34.36100
H  45.18500 31.58000 33.97000
H  43.81500 32.62600 34.25900

