158

Mg 47.63300 16.00000 28.80700
C  45.41600 15.69600 31.39900
C  49.75800 17.66900 31.02300
C  49.59700 16.92900 26.23800
C  45.27100 14.65500 26.66100
N  47.53400 16.65200 30.84900
C  46.59700 16.21900 31.82600
C  47.00200 16.66000 33.24300
C  48.22600 17.62900 33.02400
C  48.52100 17.30800 31.54600
C  48.00400 19.11000 33.24700
C  47.29000 15.48100 34.23100
C  46.89200 15.67400 35.65000
H  46.51500 17.11300 36.06500
N  49.48800 17.09900 28.65900
C  50.18100 17.69800 29.65500
C  51.50000 18.09300 29.21400
C  51.50500 17.83300 27.76000
C  50.18800 17.25500 27.45400
C  52.57700 18.77400 30.04900
C  52.58800 18.12500 26.81700
O  52.43900 17.75500 25.69400
C  53.80800 18.86600 27.07200
N  47.43300 15.73700 26.75800
C  48.40200 16.20900 25.87700
C  47.86500 16.14200 24.44900
C  46.64100 15.20000 24.56100
C  46.42300 15.19000 26.06600
C  47.63900 17.55600 23.82400
C  46.83500 13.79600 23.92000
C  45.93300 13.52100 22.71100
N  45.74800 15.35100 28.91100
C  44.90700 14.80000 28.01100
C  43.70900 14.37400 28.64100
C  43.79400 14.75500 29.95400
C  45.05200 15.38600 30.05100
C  42.59900 13.62900 27.94400
C  43.12700 14.70600 31.27500
O  42.13500 14.10700 31.65900
C  44.18400 15.38900 32.21800
C  43.53800 16.56000 32.77000
O  43.27300 17.58600 32.15600
O  43.00100 16.27400 33.96700
C  42.12700 17.28200 34.58400
H  50.39200 18.04900 31.82700
H  50.13300 17.26400 25.34800
H  44.57300 14.27300 25.91300
H  46.16300 17.24800 33.61500
H  49.11800 17.24100 33.51600
H  46.98200 19.26300 33.59300
H  48.04600 19.54700 32.24900
H  48.69300 19.54500 33.97100
H  48.37500 15.41600 34.15100
H  46.90700 14.57800 33.75600
H  47.63400 15.27500 36.34100
H  46.06300 14.98900 35.83000
H  52.22600 18.76100 31.08000
H  52.73400 19.79200 29.69100
H  53.48900 18.18700 29.93700
H  53.70400 19.56500 27.90200
H  54.13500 19.29000 26.12300
H  54.57300 18.11600 27.27400
H  48.69700 15.76700 23.85200
H  45.82300 15.76400 24.11400
H  47.90200 18.28400 24.59100
H  46.59300 17.65900 23.53500
H  48.23200 17.72600 22.92500
H  46.63100 13.09700 24.73100
H  47.88600 13.59000 23.71700
H  46.54000 13.12300 21.89800
H  45.43000 14.42000 22.35600
H  45.09500 12.85000 22.90000
H  42.78500 12.56700 27.78400
H  42.43300 14.19600 27.02800
H  41.64800 13.66500 28.47500
H  44.51900 14.83300 33.09300
H  41.50900 17.91600 33.94800
H  42.71500 17.95600 35.20700
H  41.41100 16.86400 35.29200
Mg 41.73900 41.11300 26.74600
C  40.91200 43.61200 29.09200
C  42.67800 39.05400 29.27700
C  42.78700 38.83400 24.33900
C  41.22500 43.43500 24.21700
N  41.89000 41.41700 28.90700
C  41.28100 42.44100 29.69100
C  41.34200 42.09900 31.18100
C  41.95100 40.66600 31.15200
C  42.25000 40.38700 29.71500
C  43.13700 40.45200 32.11300
C  39.84000 42.16000 31.79900
C  39.91200 41.65300 33.27200
H  39.21300 42.49800 34.34900
N  42.60100 39.20100 26.77500
C  42.87200 38.55400 27.94000
C  43.37200 37.25800 27.62100
C  43.53800 37.20800 26.15300
C  42.93600 38.44300 25.66700
C  43.78400 36.18600 28.63400
C  44.15200 36.14000 25.23800
O  44.27800 36.29800 24.03000
C  44.75800 34.95100 25.83100
N  41.93200 41.17100 24.68600
C  42.37000 40.08900 23.86600
C  42.44900 40.46700 22.31800
C  41.53700 41.79300 22.33400
C  41.56100 42.17700 23.85900
C  43.91100 40.55100 21.70100
C  40.24300 41.65300 21.57400
C  39.25000 40.63600 22.19500
N  41.12400 43.14200 26.59400
C  41.08700 43.97400 25.55500
C  40.73600 45.33600 25.96500
C  40.57100 45.20400 27.31800
C  40.89000 43.85900 27.72700
C  40.60400 46.60500 25.13700
C  40.22900 45.86300 28.60900
O  40.00200 47.09500 28.68000
C  40.22400 44.81000 29.69800
C  40.83400 45.46800 30.86600
O  41.92700 46.06100 30.87600
O  39.97000 45.58800 31.93900
C  40.23300 46.41800 33.11200
H  42.91700 38.35500 30.08200
H  43.17800 38.21100 23.53200
H  40.93400 44.19000 23.48300
H  41.97300 42.76200 31.77300
H  41.19900 39.97200 31.52800
H  43.30800 41.40300 32.61700
H  43.96300 40.05200 31.52500
H  42.71000 39.69500 32.77100
H  39.14200 41.53000 31.24900
H  39.48600 43.18900 31.74300
H  40.92800 41.35000 33.52400
H  39.32000 40.73800 33.24500
H  44.83900 36.12000 28.90000
H  43.41700 35.22300 28.28100
H  43.23700 36.46000 29.53700
H  45.35600 34.32400 25.17000
H  43.99900 34.30000 26.26300
H  45.44100 35.27900 26.61400
H  41.84200 39.69100 21.85200
H  42.04400 42.61100 21.82200
H  44.20200 41.57300 21.45900
H  43.93200 39.87000 20.85000
H  44.59200 40.25700 22.50000
H  40.46500 41.40900 20.53500
H  39.71300 42.60500 21.53100
H  38.97400 39.90000 21.43900
H  38.32500 41.10100 22.53700
H  39.73800 40.10400 23.01100
H  40.58300 46.27000 24.10000
H  41.46800 47.23200 25.35800
H  39.70000 47.16800 25.36700
H  39.15900 44.64900 29.86300
H  40.56800 45.90000 34.01100
H  39.23800 46.83500 33.26400
H  40.98800 47.18400 32.93500

