158

Mg 24.52000 -6.94800 47.79000
C  27.04200 -4.76500 46.81100
C  22.44000 -5.68100 45.27200
C  22.37000 -9.45300 48.26900
C  26.88600 -8.64100 49.80500
N  24.76000 -5.45400 46.15400
C  25.92400 -4.69600 45.95000
C  25.64900 -3.67600 44.84900
C  24.10400 -3.92000 44.53200
C  23.74300 -5.16800 45.30900
C  23.22700 -2.64100 44.61800
C  26.55300 -3.96900 43.59600
C  27.31000 -2.83000 43.03700
H  27.17000 -2.36600 41.52900
N  22.56000 -7.38900 47.04200
C  21.88600 -6.71300 46.06400
C  20.58100 -7.34300 45.88300
C  20.47400 -8.41500 46.80400
C  21.80000 -8.46600 47.46500
C  19.58000 -6.85800 44.88900
C  19.22600 -9.28800 47.06200
O  18.14200 -8.94600 46.50600
C  19.29400 -10.49900 47.87900
N  24.66900 -8.74200 48.92900
C  23.50800 -9.51800 49.03200
C  23.82900 -10.77500 49.90900
C  25.22900 -10.51700 50.42000
C  25.65600 -9.18800 49.68800
C  22.73900 -11.23600 50.95600
C  26.29300 -11.67600 50.32200
C  27.30400 -11.57600 51.43400
N  26.60100 -6.76300 48.27800
C  27.39400 -7.47600 49.17300
C  28.67100 -6.85000 49.35800
C  28.61700 -5.75300 48.41500
C  27.28700 -5.77900 47.80400
C  29.85200 -7.25800 50.29500
C  29.28400 -4.63300 47.84200
O  30.37800 -4.22500 48.11500
C  28.30900 -3.94100 46.79300
C  28.24800 -2.42600 47.18800
O  28.12800 -1.86400 48.31000
O  28.31400 -1.72300 46.02900
C  28.08200 -0.26400 46.19700
H  21.82600 -5.17300 44.52600
H  21.64900 -10.25800 48.42400
H  27.63100 -9.00500 50.51600
H  25.93300 -2.65800 45.11400
H  23.98100 -4.22900 43.49400
H  23.84300 -1.75200 44.75000
H  22.45700 -2.76100 45.38100
H  22.66600 -2.47700 43.69800
H  25.94100 -4.38800 42.79800
H  27.21100 -4.80600 43.83200
H  28.34100 -3.17400 43.11400
H  27.35700 -1.95700 43.68800
H  19.51200 -7.75900 44.27900
H  19.87700 -5.94800 44.36700
H  18.62300 -6.57300 45.32500
H  19.36600 -10.33600 48.95400
H  20.15700 -11.03200 47.48100
H  18.36600 -10.97700 47.56500
H  23.81600 -11.56600 49.15900
H  24.98700 -10.38800 51.47500
H  21.74000 -10.90000 50.67700
H  22.98100 -10.70100 51.87400
H  22.72900 -12.31500 51.11200
H  26.76100 -11.75500 49.34000
H  25.79800 -12.63100 50.49600
H  27.28600 -12.47000 52.05800
H  27.38400 -10.63700 51.98100
H  28.25200 -11.64100 50.90100
H  30.31500 -8.14400 49.85900
H  29.46400 -7.48200 51.28800
H  30.52700 -6.40300 50.29000
H  28.85200 -3.92500 45.84800
H  28.26500 0.18800 45.22200
H  28.65400 0.20200 46.99900
H  27.06100 -0.08800 46.53600
Mg -11.24800 16.31800 42.55000
C  -8.02000 16.96600 42.89300
C  -11.97100 19.44000 41.65000
C  -14.42000 15.37900 42.24000
C  -10.40400 12.81800 42.40300
N  -10.17200 17.96100 42.05400
C  -8.79600 18.00000 42.31000
C  -8.32500 19.41700 42.05300
C  -9.62700 20.25700 41.82500
C  -10.67500 19.17400 41.85800
C  -9.92700 21.38400 42.86100
C  -7.34800 19.57000 40.83600
C  -6.20200 20.56500 40.93600
H  -4.90600 20.00200 40.39100
N  -13.04400 17.29600 42.07200
C  -13.12900 18.59500 41.76700
C  -14.50400 18.98800 41.57700
C  -15.26300 17.79500 41.74700
C  -14.29100 16.75400 41.96400
C  -14.97700 20.42300 41.40800
C  -16.77800 17.73600 41.58000
O  -17.42700 18.76500 41.35400
C  -17.56300 16.49200 41.81800
N  -12.28000 14.32300 42.18200
C  -13.57300 14.28400 42.39800
C  -13.97900 12.85600 42.71100
C  -12.77700 12.12500 42.07600
C  -11.69400 13.11300 42.18900
C  -14.22200 12.43400 44.13300
C  -13.06300 11.56900 40.73000
C  -13.51800 10.07500 40.63600
N  -9.56200 15.11000 42.77600
C  -9.40200 13.68900 42.75100
C  -7.99500 13.42000 43.03700
C  -7.43600 14.70100 43.19200
C  -8.44600 15.68800 43.06600
C  -7.30100 12.04300 43.12000
C  -6.17500 15.50800 43.55600
O  -5.01700 15.10900 43.83600
C  -6.64000 16.98400 43.36800
C  -6.50200 17.71800 44.64200
O  -7.08800 17.36000 45.63300
O  -5.72800 18.84700 44.51700
C  -5.36900 19.36600 45.85500
H  -12.21300 20.49500 41.50800
H  -15.45400 15.07700 42.41700
H  -10.24900 11.74000 42.47600
H  -7.83100 19.77200 42.95700
H  -9.76800 20.76600 40.87100
H  -10.40200 20.98100 43.75500
H  -10.55300 22.15300 42.40900
H  -9.06700 21.93300 43.24500
H  -7.87500 19.90500 39.94200
H  -6.99700 18.57000 40.58200
H  -5.99200 20.73000 41.99200
H  -6.41900 21.52200 40.46100
H  -14.14600 21.12600 41.34600
H  -15.55900 20.58500 42.31500
H  -15.49200 20.58400 40.46100
H  -18.64100 16.65600 41.81100
H  -17.24300 16.17400 42.81000
H  -17.30500 15.73200 41.08100
H  -14.91300 12.68700 42.17600
H  -12.54000 11.25900 42.69400
H  -15.22700 12.03600 44.27000
H  -14.00900 13.21000 44.86700
H  -13.60100 11.59400 44.44600
H  -12.11800 11.57900 40.18700
H  -13.81900 12.23200 40.30900
H  -13.11800 9.65900 41.56000
H  -13.22300 9.50600 39.75500
H  -14.60600 10.12300 40.58000
H  -8.10500 11.30800 43.16500
H  -6.76100 11.97200 44.06400
H  -6.73000 11.79300 42.22500
H  -5.83800 17.41500 42.76800
H  -4.87600 18.64100 46.50200
H  -6.22600 19.84100 46.33300
H  -4.60800 20.12400 45.67000

