158

Mg 43.45900 5.73300 47.17300
C  41.59800 8.78500 46.60500
C  40.60700 4.02000 46.43400
C  45.36800 2.95400 46.84200
C  46.36200 7.69800 46.78300
N  41.38600 6.35400 46.68600
C  40.88000 7.59200 46.43400
C  39.36300 7.49300 46.14100
C  39.03600 5.96100 46.20500
C  40.39700 5.38700 46.46900
C  37.91800 5.49100 47.22000
C  38.85000 8.34000 44.86400
C  39.73300 8.14100 43.56800
H  39.04100 8.47000 42.28300
N  43.04700 3.72500 46.80300
C  41.76600 3.21800 46.52500
C  41.87400 1.75100 46.35800
C  43.24400 1.37600 46.61500
C  43.95300 2.65800 46.82300
C  40.66900 0.86600 46.20400
C  43.71300 -0.00000 46.50700
O  42.97900 -0.90600 46.25200
C  45.16900 -0.34000 46.71800
N  45.54500 5.40800 46.76700
C  46.09400 4.16600 46.73100
C  47.61600 4.17800 46.68500
C  47.97800 5.64400 46.94400
C  46.54600 6.31900 46.76200
C  48.29400 3.12800 47.67700
C  49.10400 6.34500 46.09400
C  50.34600 5.46800 45.70700
N  43.90000 7.80800 47.04200
C  45.12800 8.43600 46.91500
C  44.90500 9.88600 46.97500
C  43.51700 10.00400 46.91700
C  42.96900 8.74200 46.86400
C  46.00200 10.97300 46.84000
C  42.46600 11.02600 46.83400
O  42.47400 12.23100 46.86000
C  41.14300 10.19500 46.58200
C  40.26400 10.54100 47.71400
O  40.29500 9.96600 48.79300
O  39.43800 11.68100 47.43000
C  38.46900 11.93000 48.53100
H  39.77600 3.35600 46.18500
H  46.02800 2.08800 46.75700
H  47.25500 8.32200 46.70700
H  38.86800 7.99700 46.97100
H  38.70900 5.64400 45.21500
H  37.57800 6.36000 47.78300
H  38.31200 4.76000 47.92600
H  37.07900 5.03800 46.69100
H  38.84600 9.34700 45.28200
H  37.79800 8.15400 44.64600
H  40.04200 7.09900 43.49000
H  40.62800 8.76200 43.55700
H  40.87800 0.24300 45.33400
H  39.80400 1.44900 45.89000
H  40.47400 0.14700 47.00000
H  45.87200 0.06100 45.98700
H  45.31800 -1.41900 46.77000
H  45.38400 0.07300 47.70400
H  47.89400 3.84900 45.68400
H  48.14800 5.73100 48.01700
H  49.23800 3.49000 48.08400
H  48.48500 2.17000 47.19400
H  47.69000 2.92500 48.56100
H  49.40700 7.22900 46.65600
H  48.64800 6.61700 45.14200
H  50.45800 5.57700 44.62800
H  50.21900 4.39900 45.87700
H  51.23300 5.83100 46.22700
H  46.70100 10.71800 46.04300
H  46.56800 11.03100 47.77000
H  45.57300 11.93900 46.57500
H  40.59600 10.51300 45.69400
H  37.70700 11.15300 48.59400
H  37.84400 12.82300 48.50800
H  39.01000 11.98700 49.47500
Mg 27.23900 51.02400 26.73100
C  25.31100 51.97600 29.42200
C  29.60200 49.75800 28.93500
C  29.00800 50.14000 23.99500
C  25.13300 52.98400 24.46300
N  27.53600 51.17500 29.10500
C  26.51000 51.37100 29.94100
C  26.96600 50.95800 31.40000
C  28.52200 50.54800 31.16800
C  28.59400 50.53600 29.64700
C  29.56600 51.49600 31.74400
C  26.07400 49.88900 32.14600
C  24.92400 50.31500 33.12600
H  24.59500 49.50600 34.42100
N  29.05200 50.00000 26.49300
C  29.87300 49.48000 27.51500
C  30.91400 48.65300 26.91400
C  30.76700 48.74400 25.50400
C  29.54400 49.62800 25.24100
C  31.94700 47.91600 27.70700
C  31.53600 48.05000 24.40700
O  31.25400 48.20600 23.23300
C  32.65800 47.10100 24.78100
N  27.03800 51.39500 24.58100
C  27.94100 50.95200 23.69800
C  27.58700 51.26300 22.19300
C  26.36300 52.15700 22.31300
C  26.18400 52.25000 23.89700
C  28.72500 51.79700 21.18300
C  25.03400 51.57900 21.54400
C  24.02900 52.66800 21.00500
N  25.61900 52.30600 26.86600
C  24.86700 53.04800 25.89300
C  23.78400 53.77200 26.54500
C  23.96400 53.37000 27.90700
C  25.03000 52.42600 28.06100
C  22.83000 54.74600 25.89800
C  23.43500 53.57900 29.16100
O  22.45700 54.23300 29.50400
C  24.15900 52.61000 30.24800
C  24.76600 53.41700 31.36800
O  25.80000 54.13000 31.33200
O  23.91500 53.29900 32.48900
C  24.18500 54.35200 33.42100
H  30.26200 49.23200 29.62800
H  29.51700 49.85500 23.07200
H  24.53800 53.48900 23.69900
H  27.07100 51.80800 32.07400
H  28.76800 49.53200 31.47900
H  29.95300 51.12200 32.69200
H  29.04600 52.43300 31.94400
H  30.29600 51.79800 30.99400
H  26.70100 49.17000 32.67200
H  25.59000 49.35000 31.33100
H  23.97300 50.19800 32.60700
H  25.13000 51.34800 33.40500
H  32.11400 46.92700 27.28100
H  31.75600 47.74800 28.76700
H  32.87900 48.48000 27.75900
H  33.28500 47.56600 25.54200
H  33.12500 46.74400 23.86300
H  32.16000 46.19700 25.13300
H  27.19800 50.31800 21.81400
H  26.54100 53.10700 21.80900
H  29.64000 51.97300 21.74900
H  28.48500 52.75400 20.72100
H  28.73700 51.12000 20.32900
H  24.59200 50.89100 22.26500
H  25.34200 50.99400 20.67800
H  23.55300 52.34300 20.08000
H  24.37300 53.69700 20.90400
H  23.21300 52.59500 21.72400
H  23.45400 55.28700 25.18700
H  22.54900 55.50900 26.62500
H  21.97800 54.27100 25.41100
H  23.59400 51.76400 30.64100
H  24.22500 55.28100 32.85400
H  25.14300 54.21500 33.92300
H  23.38200 54.38700 34.15700

