158

Mg 0.90000 42.91000 26.30300
C  2.77300 43.29300 29.39000
C  -1.78900 41.98800 28.25700
C  -0.72800 42.43600 23.49900
C  3.75600 43.62400 24.53700
N  0.65000 42.59600 28.60400
C  1.48500 42.79400 29.67200
C  0.74400 42.86000 30.97400
C  -0.74200 42.24700 30.59300
C  -0.61100 42.27900 29.02800
C  -0.92300 40.78900 31.18500
C  0.72200 44.19900 31.72100
C  1.05000 44.20000 33.21400
H  0.64300 43.00600 34.05700
N  -1.01900 42.38700 25.92600
C  -2.02100 41.94000 26.86400
C  -3.08200 41.37200 26.17500
C  -2.84500 41.47600 24.75100
C  -1.46600 42.13100 24.63100
C  -4.27300 40.73800 26.90000
C  -3.81700 41.18300 23.58900
O  -3.45000 41.33400 22.42600
C  -5.20200 40.56700 23.73600
N  1.49000 43.00200 24.22600
C  0.59400 42.90500 23.24400
C  1.21500 43.11100 21.85500
C  2.60100 43.65900 22.20100
C  2.63200 43.52200 23.78900
C  1.20900 41.75300 21.03300
C  2.95000 45.06800 21.63400
C  3.92200 45.15100 20.39000
N  2.85900 43.33300 26.79700
C  3.93900 43.57300 25.96800
C  5.14200 43.84300 26.71300
C  4.71200 43.71600 28.07400
C  3.28600 43.44500 28.02300
C  6.50400 44.33400 26.15400
C  5.16700 43.76600 29.43300
O  6.31400 43.98600 29.90100
C  3.92800 43.41600 30.28200
C  4.18800 42.21600 31.04700
O  4.03100 41.04500 30.61700
O  4.65900 42.63900 32.32200
C  4.70500 41.59600 33.33500
H  -2.58600 41.58900 28.88900
H  -1.20500 42.22400 22.54000
H  4.65400 43.90700 23.98400
H  1.23300 42.16900 31.66200
H  -1.49800 42.92100 30.99600
H  -1.67100 40.95500 31.96000
H  0.05700 40.54200 31.59500
H  -1.27700 40.04700 30.47000
H  -0.23700 44.71100 31.64800
H  1.52700 44.82400 31.33400
H  0.40900 44.98800 33.60900
H  2.12400 44.36400 33.29500
H  -5.19200 40.72100 26.31500
H  -4.31600 40.92000 27.97400
H  -3.99000 39.68800 26.82400
H  -5.06500 39.61600 24.25200
H  -5.68800 40.29200 22.79900
H  -5.91500 41.10600 24.35900
H  0.57800 43.85300 21.37400
H  3.43000 43.05700 21.82900
H  0.44800 41.66000 20.25900
H  1.12400 40.85800 21.64900
H  2.22300 41.57400 20.67600
H  3.33200 45.67700 22.45400
H  2.01400 45.53900 21.33400
H  3.42200 45.55600 19.51000
H  4.52900 44.27800 20.14900
H  4.60500 45.99600 20.47000
H  6.33100 44.91200 25.24600
H  7.01400 43.44100 25.79200
H  7.08200 44.73000 26.98900
H  3.69100 44.26000 30.93000
H  5.72400 41.21800 33.25400
H  4.16200 40.68300 33.09200
H  4.46100 41.96900 34.33000
Mg -2.39100 34.22900 26.62500
C  -3.94300 32.78500 29.45800
C  -1.37200 36.80600 28.69300
C  -1.37500 35.82600 23.85100
C  -3.96400 31.80600 24.63900
N  -2.73800 34.76900 28.80700
C  -3.27100 33.94200 29.77700
C  -3.05900 34.48000 31.23700
C  -2.38200 35.90900 30.95600
C  -2.16600 35.85700 29.41300
C  -3.25500 37.05700 31.44700
C  -2.21900 33.56200 32.15600
C  -2.88400 32.98800 33.39500
H  -1.97300 32.55100 34.54300
N  -1.39500 36.03000 26.28700
C  -1.06300 36.90800 27.25900
C  -0.25200 37.92700 26.61900
C  -0.20100 37.65000 25.26900
C  -0.99100 36.42300 25.08100
C  0.38700 39.03000 27.40700
C  0.51700 38.34200 24.13200
O  0.57900 37.99300 22.96600
C  1.41400 39.49800 24.50600
N  -2.79600 33.94900 24.54700
C  -2.22600 34.71600 23.55800
C  -2.87600 34.49500 22.18700
C  -3.47800 33.02600 22.45100
C  -3.43400 32.87000 23.97900
C  -3.98600 35.48700 21.63600
C  -2.92700 31.86000 21.69900
C  -1.44200 31.58000 21.60100
N  -3.63500 32.55300 26.95600
C  -4.05900 31.66700 26.02700
C  -4.88800 30.70600 26.73800
C  -4.86700 31.09400 28.05800
C  -4.07800 32.26900 28.20700
C  -5.74200 29.56800 26.22000
C  -5.27700 30.71100 29.39300
O  -5.96000 29.71400 29.62000
C  -4.79100 31.84700 30.37800
C  -5.93500 32.39600 31.15000
O  -6.56600 33.43600 30.89500
O  -6.17300 31.55100 32.26000
C  -7.01000 32.00100 33.28600
H  -0.96600 37.57700 29.35100
H  -1.21100 36.49200 23.00200
H  -4.42400 31.00100 24.06200
H  -4.05100 34.63200 31.66300
H  -1.41800 35.98500 31.45900
H  -4.33200 36.90400 31.51300
H  -3.12200 37.91300 30.78600
H  -2.89200 37.46400 32.39100
H  -1.36600 34.17200 32.45300
H  -1.78300 32.78100 31.53300
H  -3.40300 32.08700 33.06800
H  -3.68000 33.65300 33.72900
H  1.44800 38.87300 27.21400
H  0.12500 39.02800 28.46500
H  0.10000 39.99700 26.99400
H  2.17700 39.40000 25.27800
H  0.69900 40.24900 24.84100
H  1.78500 40.02100 23.62400
H  -2.03900 34.45000 21.49000
H  -4.49700 33.04700 22.06600
H  -3.45400 35.90600 20.78100
H  -4.30600 36.37000 22.18900
H  -4.86300 34.96100 21.26000
H  -3.25500 31.95000 20.66300
H  -3.43500 30.94300 21.99500
H  -1.17700 31.71000 20.55200
H  -1.06600 30.59000 21.86000
H  -0.84800 32.31000 22.15100
H  -5.33000 29.27600 25.25400
H  -6.78900 29.76500 25.98600
H  -5.83200 28.73000 26.91100
H  -4.19000 31.36600 31.15000
H  -7.45200 31.07000 33.64100
H  -7.89300 32.53900 32.94100
H  -6.34600 32.44300 34.02800

