158

Mg 26.04300 -0.90000 29.28500
C  28.00200 -0.89100 32.25800
C  23.26300 -0.58500 31.29800
C  24.20700 -0.66100 26.58700
C  28.90400 -1.16400 27.45700
N  25.69800 -0.84500 31.53800
C  26.64300 -0.76800 32.52200
C  26.02000 -0.53500 33.90800
C  24.49300 -0.46100 33.59700
C  24.45500 -0.59000 32.06600
C  23.68000 -1.57700 34.21200
C  26.54300 0.77600 34.59600
C  25.94400 1.17000 35.92000
H  26.89500 1.30400 37.13800
N  24.02900 -0.65000 28.98800
C  23.03500 -0.68800 29.92500
C  21.76600 -0.66700 29.34800
C  21.99600 -0.47000 27.90600
C  23.46200 -0.64800 27.72300
C  20.52900 -0.56300 30.21000
C  20.98200 -0.32700 26.79500
O  21.30700 -0.09500 25.58300
C  19.48800 -0.29900 27.11600
N  26.45500 -1.17000 27.26100
C  25.54800 -0.84500 26.34400
C  26.18000 -0.71700 24.93000
C  27.67300 -0.73800 25.25800
C  27.68000 -1.09600 26.76400
C  25.71500 -1.92600 24.03000
C  28.46200 0.55800 24.90700
C  29.84100 0.37800 24.15500
N  28.05400 -1.11600 29.72000
C  29.10400 -1.28600 28.86200
C  30.36100 -1.30300 29.60000
C  30.00100 -1.20800 30.93500
C  28.56300 -1.07000 30.92800
C  31.71100 -1.38300 28.96500
C  30.51500 -1.19500 32.33700
O  31.65400 -1.52900 32.73400
C  29.24000 -0.89400 33.22900
C  29.08000 -1.84800 34.37500
O  28.62900 -2.95300 34.28100
O  29.52600 -1.25200 35.55700
C  29.41300 -2.12500 36.72700
H  22.40500 -0.47900 31.96600
H  23.79500 -0.68600 25.57600
H  29.80700 -1.15800 26.84400
H  26.41200 -1.29100 34.58800
H  24.09500 0.49300 33.94200
H  24.17800 -2.29800 34.86000
H  23.11800 -2.18100 33.50000
H  22.98400 -1.26300 34.99000
H  26.46500 1.62500 33.91600
H  27.58500 0.57300 34.84300
H  25.04200 0.59100 36.12000
H  25.45600 2.13600 35.78500
H  19.82500 -1.31600 29.85700
H  20.20800 0.46600 30.04500
H  20.47400 -0.72900 31.28600
H  18.96200 0.22900 26.32100
H  19.25100 0.26700 28.01700
H  19.18700 -1.33100 27.29700
H  25.82700 0.25500 24.58600
H  28.19100 -1.50600 24.68400
H  26.58600 -2.41600 23.59500
H  25.04500 -1.63900 23.21900
H  25.20100 -2.70200 24.59600
H  28.72400 1.12700 25.79900
H  27.87800 1.15700 24.20800
H  29.70700 0.33000 23.07400
H  30.18600 -0.63400 24.36900
H  30.65100 1.06800 24.38900
H  31.78200 -2.32700 28.42600
H  32.37700 -1.34600 29.82700
H  31.91800 -0.61600 28.21800
H  29.36100 0.12900 33.58400
H  30.12000 -1.78200 37.48200
H  29.61900 -3.17200 36.50500
H  28.38700 -1.92600 37.03600
Mg 46.39900 34.53100 27.93300
C  44.26700 32.66600 30.19100
C  46.37500 36.98900 30.40600
C  47.91500 36.52500 25.75000
C  45.94600 32.09200 25.53100
N  45.59100 34.74600 30.07700
C  44.75600 33.82900 30.72300
C  44.63300 34.33600 32.17800
C  45.01600 35.85500 32.22700
C  45.72400 35.89700 30.84400
C  43.80800 36.77000 32.31200
C  45.42400 33.37200 33.12600
C  46.30100 33.87000 34.29200
H  45.70600 34.81300 35.36200
N  47.17400 36.47400 28.15300
C  47.11500 37.30400 29.21600
C  47.88100 38.49300 28.88200
C  48.32700 38.38900 27.50000
C  47.79200 37.08600 27.06600
C  47.85600 39.68600 29.81800
C  49.15500 39.30800 26.62800
O  49.50100 39.10700 25.43200
C  49.68300 40.65000 27.24200
N  46.62900 34.40400 25.88200
C  47.41500 35.37800 25.20100
C  47.74100 34.86000 23.78200
C  47.22500 33.37900 23.80500
C  46.48600 33.28700 25.06700
C  46.94600 35.69600 22.73700
C  48.41800 32.41900 23.75600
C  48.36900 31.24700 22.77100
N  45.33400 32.75700 27.89300
C  45.26300 31.88900 26.78600
C  44.56200 30.69400 27.27100
C  44.05500 31.03100 28.55500
C  44.52500 32.26900 28.89100
C  44.45000 29.31900 26.58200
C  43.25000 30.52200 29.59800
O  42.61600 29.45400 29.64900
C  43.17000 31.62500 30.67700
C  43.32100 31.11100 32.04500
O  44.11200 30.27600 32.45700
O  42.31700 31.67800 32.87000
C  42.17600 31.14500 34.23700
H  46.37100 37.85500 31.07100
H  48.50900 37.03600 24.98900
H  45.82700 31.25700 24.83700
H  43.59100 34.20200 32.46600
H  45.72300 36.16800 32.99600
H  43.84200 37.17300 33.32400
H  42.87500 36.22300 32.17400
H  43.78400 37.64200 31.65900
H  46.12200 32.80400 32.51100
H  44.67400 32.72300 33.57800
H  47.08400 34.43700 33.78900
H  46.77000 32.96000 34.66800
H  47.55200 40.62600 29.35900
H  48.85400 39.94900 30.16900
H  47.19900 39.68900 30.68700
H  50.38300 41.13000 26.55800
H  50.15900 40.35200 28.17600
H  48.87900 41.36100 27.43400
H  48.80500 35.02700 23.61600
H  46.53000 33.15600 22.99600
H  47.50000 36.62200 22.58100
H  46.06800 36.00900 23.30200
H  46.77600 35.06500 21.86500
H  48.49600 31.93300 24.72800
H  49.34900 32.98600 23.76900
H  47.47500 31.29300 22.14900
H  48.48200 30.26400 23.22900
H  49.24900 31.45000 22.16100
H  43.81300 28.60400 27.10300
H  45.40000 28.80900 26.41700
H  43.95000 29.49500 25.62900
H  42.17300 32.03300 30.51200
H  42.71800 30.21800 34.42000
H  41.19800 31.04800 34.70900
H  42.66100 31.94200 34.80000

