158

Mg 54.43500 24.16200 44.45500
C  51.62000 26.31200 43.70700
C  52.27200 21.66600 43.25900
C  57.13600 22.40900 44.44800
C  56.00200 26.99700 45.68100
N  52.27200 24.02000 43.43400
C  51.29500 25.03000 43.36500
C  49.99000 24.53400 42.74000
C  50.07500 23.00000 43.15000
C  51.60600 22.87300 43.25000
C  49.41200 22.67500 44.52600
C  49.82500 24.76500 41.23100
C  51.11100 24.61600 40.26400
H  50.83700 25.02000 38.78800
N  54.65800 22.33300 44.01800
C  53.68300 21.45000 43.51200
C  54.35100 20.16400 43.42300
C  55.69800 20.29700 43.88000
C  55.87900 21.73700 44.09000
C  53.77600 18.84000 42.90500
C  56.74800 19.22400 44.01700
O  56.40400 18.04900 43.70000
C  58.09500 19.44500 44.55100
N  56.47500 24.78900 44.73700
C  57.37100 23.76400 44.84100
C  58.64400 24.33000 45.50300
C  58.14200 25.68100 46.23900
C  56.78400 25.78800 45.54800
C  59.55400 23.28800 46.34000
C  59.05700 26.96700 46.05900
C  59.28500 27.52300 44.60100
N  54.07000 26.26900 44.49300
C  54.74000 27.21400 45.11100
C  54.01500 28.44500 45.30500
C  52.74500 28.17600 44.61200
C  52.83300 26.77800 44.29900
C  54.46700 29.75300 45.82000
C  51.38600 28.69000 44.31000
O  50.81400 29.77900 44.52100
C  50.67300 27.50200 43.63700
C  50.23200 28.08300 42.25500
O  50.90600 28.15100 41.22700
O  48.86300 28.28100 42.38100
C  48.09400 28.31600 41.12600
H  51.63900 20.77700 43.25600
H  58.08200 21.88100 44.30900
H  56.36600 27.76900 46.36200
H  49.20600 25.06300 43.28200
H  49.63200 22.29100 42.45000
H  48.60400 21.96400 44.35700
H  48.96500 23.54000 45.01600
H  50.19200 22.21100 45.13100
H  49.46600 25.78800 41.11800
H  49.23500 23.98200 40.75400
H  51.59100 23.64400 40.37400
H  51.87200 25.30200 40.63700
H  54.50800 18.63800 42.12300
H  52.83700 18.93400 42.35800
H  53.72200 18.00900 43.60800
H  57.93900 19.96100 45.49700
H  58.70300 20.01400 43.84700
H  58.60300 18.52200 44.83200
H  59.29000 24.63700 44.68000
H  58.15400 25.48300 47.31000
H  59.33500 22.23600 46.15700
H  59.59000 23.49700 47.40900
H  60.58800 23.53000 46.09200
H  60.05700 26.72000 46.41700
H  58.68000 27.74300 46.72600
H  60.09100 26.98300 44.10400
H  59.39700 28.60400 44.67800
H  58.41100 27.30700 43.98600
H  55.35400 29.81400 46.45100
H  53.56400 30.12200 46.30700
H  54.65100 30.44400 44.99700
H  49.81300 27.27900 44.26900
H  47.37000 27.50100 41.13300
H  48.72700 28.30200 40.24000
H  47.43400 29.18300 41.09600
Mg 6.81800 53.99000 40.93100
C  6.21400 50.64000 40.41200
C  10.04200 53.59100 40.09600
C  7.19000 57.38000 40.94500
C  3.29400 54.39300 41.64000
N  7.89700 52.31800 40.14600
C  7.56000 51.04000 40.18900
C  8.72500 50.12700 39.95200
C  9.90500 51.02400 40.13400
C  9.24200 52.38100 40.21900
C  10.93700 50.74700 41.28200
C  8.73900 49.44600 38.46900
C  8.50100 50.41600 37.29600
H  7.35000 50.26800 36.39200
N  8.37800 55.26500 40.63100
C  9.69500 54.91400 40.26800
C  10.44700 56.11600 40.05000
C  9.61500 57.24500 40.35100
C  8.34600 56.62400 40.70800
C  11.89300 55.99000 39.63000
C  10.10900 58.68700 40.37000
O  11.20600 58.99800 39.92100
C  9.27500 59.83200 40.90600
N  5.33700 55.73000 41.06800
C  5.80300 56.99500 41.09700
C  4.69100 58.05400 41.32700
C  3.44700 57.05800 41.56900
C  4.04400 55.65100 41.51300
C  4.87100 59.13400 42.46700
C  2.14200 57.25800 40.72500
C  0.79400 57.56000 41.55900
N  5.06400 52.84000 41.03000
C  3.75600 53.10600 41.42700
C  3.02900 51.86100 41.44000
C  3.93200 50.88100 41.02800
C  5.12600 51.49200 40.87000
C  1.54000 51.70800 41.77400
C  4.11700 49.46400 40.76000
O  3.23900 48.56200 40.85500
C  5.62700 49.22500 40.33600
C  5.41200 48.58200 39.02400
O  4.70200 48.98800 38.17100
O  5.91400 47.31100 39.11300
C  5.62500 46.43200 38.01800
H  11.09700 53.33600 39.97800
H  7.31300 58.46100 41.03500
H  2.21800 54.44700 41.81400
H  8.83000 49.30400 40.65800
H  10.48500 51.08700 39.21400
H  11.91200 50.69900 40.79900
H  10.72200 49.82800 41.82800
H  10.86300 51.60200 41.95400
H  8.13200 48.54100 38.45700
H  9.75900 49.10200 38.29600
H  9.36600 50.36700 36.63500
H  8.45500 51.39300 37.77700
H  12.49500 55.43300 40.34800
H  12.39400 56.95800 39.65700
H  11.93800 55.55900 38.63000
H  9.93600 60.68700 41.04600
H  8.99300 59.49100 41.90200
H  8.40500 60.09500 40.30400
H  4.73200 58.66800 40.42700
H  3.21100 57.19100 42.62500
H  5.66200 58.83400 43.15300
H  4.01300 59.28400 43.12300
H  5.13900 60.03000 41.90500
H  1.90600 56.38800 40.11300
H  2.35700 58.11400 40.08600
H  0.63300 58.63000 41.42600
H  0.92800 57.34600 42.61900
H  -0.12300 57.11100 41.17700
H  1.41700 51.55600 42.84700
H  1.21700 50.80500 41.25700
H  1.09100 52.62500 41.39000
H  6.17200 48.52000 40.96400
H  5.71400 47.02400 37.10700
H  4.57300 46.16600 38.12900
H  6.38200 45.66200 37.86500

