158

Mg 47.92300 34.15400 26.89700
C  46.03700 32.50100 29.36200
C  48.21600 36.87200 29.02600
C  49.31800 35.77300 24.47400
C  47.25100 31.47500 24.76200
N  47.28100 34.64800 28.97100
C  46.52700 33.78000 29.80200
C  46.64700 34.30300 31.19200
C  46.76300 35.89300 30.96600
C  47.45600 35.84900 29.57900
C  45.40200 36.67200 31.03100
C  47.88500 33.70400 31.90400
C  47.75100 33.71800 33.47000
H  48.39700 34.88500 34.23900
N  48.71800 36.11600 26.77000
C  48.79800 37.07200 27.71000
C  49.51600 38.19900 27.25100
C  49.87100 37.90500 25.87000
C  49.20400 36.55100 25.64000
C  49.69700 39.35700 28.24700
C  50.65800 38.71000 24.81800
O  50.84200 38.24900 23.69700
C  51.23800 40.04400 25.12200
N  47.86700 33.82200 24.84700
C  48.70000 34.58100 24.13100
C  49.02300 33.98600 22.72900
C  48.50700 32.50300 22.80800
C  47.89400 32.56300 24.24800
C  48.35600 34.77000 21.51100
C  49.50700 31.39700 22.58300
C  50.24800 30.79500 23.89400
N  46.93700 32.22800 27.02900
C  46.69800 31.27600 26.07000
C  46.08100 30.11200 26.73100
C  45.71200 30.63900 27.94600
C  46.27400 31.91900 28.08700
C  45.92700 28.67800 26.14500
C  44.90800 30.33500 29.07400
O  44.18300 29.37900 29.35100
C  44.95800 31.66900 30.01600
C  45.23900 31.22200 31.40700
O  46.07100 30.39800 31.75500
O  44.29300 31.80400 32.32900
C  44.58900 31.49000 33.75300
H  48.11700 37.76400 29.64700
H  49.91400 36.19400 23.66100
H  47.30600 30.61000 24.09700
H  45.78600 33.94300 31.75400
H  47.37800 36.30700 31.76500
H  45.10300 37.18700 30.11800
H  45.59800 37.52500 31.68000
H  44.64100 36.00300 31.43300
H  48.78500 34.21000 31.55600
H  47.98200 32.63600 31.70800
H  48.00600 32.70800 33.79200
H  46.70100 33.89200 33.70300
H  50.44600 40.07400 27.91000
H  49.96800 38.93400 29.21400
H  48.68800 39.76800 28.22800
H  51.89000 40.21400 24.26500
H  51.85200 39.97000 26.01900
H  50.61300 40.92200 25.28300
H  50.08800 33.96600 22.49900
H  47.70500 32.35400 22.08400
H  47.97800 34.01100 20.82600
H  49.13400 35.22500 20.89900
H  47.55200 35.40800 21.87900
H  50.33500 31.73300 21.96000
H  49.09100 30.54800 22.04100
H  51.32600 30.90700 23.78100
H  49.96900 29.74300 23.94600
H  50.17700 31.53000 24.69600
H  44.86600 28.45300 26.03800
H  46.33000 27.99500 26.89300
H  46.45500 28.64400 25.19200
H  43.94000 32.03400 29.88300
H  44.46600 32.40100 34.33900
H  45.58900 31.12800 33.99400
H  43.86100 30.77800 34.14200
Mg 6.75300 53.70000 41.61300
C  6.25600 50.35200 41.25200
C  10.05000 53.38900 40.41300
C  6.93700 57.11400 41.42400
C  3.25700 54.05000 42.12600
N  7.88700 52.06700 40.78500
C  7.53000 50.72600 40.84400
C  8.66500 49.87800 40.25400
C  9.89100 50.87000 40.48300
C  9.23300 52.20900 40.47700
C  10.62600 50.72900 41.85300
C  8.42900 49.38900 38.77600
C  8.15000 50.52700 37.69800
H  6.94600 50.24500 36.78800
N  8.27300 55.06300 41.07200
C  9.56100 54.75800 40.62700
C  10.36100 56.00500 40.59500
C  9.48900 57.05800 41.04900
C  8.13500 56.43800 41.17200
C  11.86000 55.92900 40.47100
C  10.01000 58.53800 41.26500
O  11.19000 58.88300 41.03100
C  9.16400 59.58700 41.71400
N  5.26800 55.37500 41.84700
C  5.65300 56.69600 41.70000
C  4.45300 57.62500 41.92900
C  3.25600 56.59600 42.07700
C  3.93000 55.25200 41.97700
C  4.58400 58.64900 43.08600
C  2.22000 56.71300 40.85200
C  0.77800 56.40200 41.15400
N  5.06700 52.48600 41.80800
C  3.71300 52.75300 42.11600
C  2.97100 51.55200 42.19100
C  3.99700 50.54200 41.94200
C  5.16300 51.20100 41.62700
C  1.49100 51.25900 42.33800
C  4.21000 49.12700 41.86200
O  3.37900 48.24000 41.97700
C  5.66400 48.96800 41.36700
C  5.39700 48.18100 40.13100
O  4.94600 48.66600 39.11900
O  6.04100 47.04600 40.13900
C  5.92900 46.17000 39.03700
H  11.11700 53.36500 40.18600
H  7.04900 58.20000 41.38800
H  2.22300 54.25400 42.41300
H  8.84600 48.97400 40.83600
H  10.61200 50.72800 39.67800
H  11.68800 50.80100 41.62000
H  10.28300 49.74500 42.17300
H  10.30600 51.52400 42.52800
H  7.66200 48.61500 38.77100
H  9.36500 48.88000 38.54600
H  8.94600 50.59300 36.95600
H  8.01800 51.44200 38.27600
H  12.05700 55.27300 39.62300
H  12.33300 55.51700 41.36300
H  12.31200 56.90900 40.31200
H  8.48600 59.69900 40.86700
H  9.65300 60.51000 42.02500
H  8.57300 59.30000 42.58400
H  4.39700 58.16100 40.98200
H  2.78500 56.71000 43.05300
H  3.74200 58.65600 43.77800
H  4.62900 59.66300 42.68800
H  5.46400 58.41600 43.68600
H  2.59500 56.04600 40.07500
H  2.13800 57.73200 40.47500
H  0.22400 57.33800 41.22900
H  0.63800 55.93900 42.13100
H  0.32200 55.72200 40.43500
H  1.13200 50.65900 41.50100
H  1.04900 52.25500 42.32800
H  1.26900 50.76300 43.28200
H  6.09000 48.34800 42.15600
H  4.96100 45.70100 39.21300
H  6.71000 45.41300 39.10200
H  6.04500 46.57600 38.03300

