158

Mg 25.71800 0.17300 28.86300
C  27.81400 -0.02800 31.71800
C  22.97300 0.28500 30.82700
C  23.77000 0.48600 25.98400
C  28.42300 -0.61700 26.85700
N  25.48700 0.12400 30.99400
C  26.48000 0.27800 31.99800
C  25.80600 0.48100 33.33900
C  24.32000 0.50400 33.01500
C  24.23600 0.28500 31.51700
C  23.38000 -0.27800 33.89000
C  26.49400 1.73800 34.03300
C  25.74900 2.38400 35.24300
H  26.48000 2.79800 36.51800
N  23.65200 0.42400 28.47100
C  22.66900 0.31000 29.45900
C  21.41200 0.27600 28.76300
C  21.64600 0.36700 27.37300
C  23.10700 0.42700 27.21900
C  20.16300 0.09000 29.54900
C  20.67400 0.35700 26.19500
O  20.98200 0.50600 25.00200
C  19.19800 0.12300 26.44500
N  26.10300 0.13800 26.69800
C  25.16200 0.35500 25.73900
C  25.71200 0.23100 24.30200
C  27.28300 -0.06600 24.62500
C  27.27500 -0.22500 26.11400
C  25.02700 -0.95400 23.54900
C  28.35500 1.02000 24.29000
C  27.94000 2.53900 24.46500
N  27.77600 -0.23900 29.15300
C  28.71900 -0.58200 28.23000
C  29.96500 -0.85000 28.93300
C  29.65700 -0.61800 30.32700
C  28.33200 -0.25400 30.42500
C  31.24200 -1.29500 28.32400
C  30.17200 -0.58600 31.68100
O  31.21900 -0.89600 32.19700
C  29.01100 -0.10200 32.56900
C  28.91900 -1.13200 33.60900
O  28.52000 -2.30500 33.38400
O  29.20400 -0.62500 34.82100
C  28.99700 -1.34500 36.09600
H  22.11800 0.48800 31.47500
H  23.17400 0.60100 25.07600
H  29.30800 -0.87500 26.27200
H  26.04400 -0.38600 33.95600
H  24.04800 1.54300 33.19800
H  22.36000 0.06600 33.71800
H  23.62800 -0.10800 34.93800
H  23.46500 -1.34100 33.66200
H  26.76800 2.53500 33.34200
H  27.40000 1.31800 34.47100
H  25.04600 1.63100 35.59800
H  25.27600 3.28100 34.84300
H  20.31200 -0.23900 30.57800
H  19.61700 -0.67900 29.00200
H  19.56100 0.99500 29.62100
H  18.64300 0.78600 27.10900
H  19.12100 -0.78700 27.04000
H  18.61400 -0.05300 25.54200
H  25.68600 1.19500 23.79300
H  27.49100 -1.00400 24.11000
H  24.51700 -1.63000 24.23600
H  25.67300 -1.46500 22.83500
H  24.19100 -0.51300 23.00600
H  28.49100 0.91500 23.21400
H  29.33900 0.86900 24.73400
H  27.35900 2.86400 25.32800
H  27.51100 2.96500 23.55800
H  28.86900 3.10600 24.52800
H  31.31900 -2.37000 28.48500
H  32.10600 -0.75700 28.71400
H  31.28100 -1.13000 27.24800
H  29.28600 0.88700 32.93600
H  28.30300 -2.16600 35.91900
H  28.47600 -0.54300 36.62000
H  29.87500 -1.76300 36.58800
Mg 0.26500 43.39100 25.81200
C  2.31100 43.10200 28.84700
C  -2.36400 42.62100 27.81800
C  -1.47200 43.33200 23.12000
C  3.31700 43.88500 24.00500
N  0.05200 42.80100 28.13000
C  0.97800 42.87300 29.12000
C  0.27500 42.65600 30.42000
C  -1.16900 42.15400 30.02300
C  -1.17500 42.65900 28.58000
C  -1.50000 40.70300 30.22500
C  0.35300 43.99400 31.32200
C  0.68400 43.91900 32.84700
H  0.71500 42.50100 33.48200
N  -1.65200 42.99900 25.51100
C  -2.62800 42.64400 26.47500
C  -3.87900 42.52100 25.80900
C  -3.66200 42.83700 24.42700
C  -2.21500 43.03100 24.31500
C  -5.15900 42.30300 26.43700
C  -4.71000 42.91500 23.30700
O  -4.33100 42.97600 22.13200
C  -6.24800 42.70400 23.61900
N  0.84100 43.66900 23.87200
C  -0.11300 43.55700 22.91900
C  0.46000 43.75700 21.51700
C  2.01600 43.97600 21.77400
C  2.08000 43.90200 23.25700
C  0.26200 42.49000 20.53900
C  2.52600 45.33500 21.22700
C  2.01500 46.59500 21.87300
N  2.35600 43.41500 26.21400
C  3.42300 43.72700 25.36900
C  4.67200 43.73200 26.20200
C  4.26600 43.45200 27.50700
C  2.85400 43.35700 27.50400
C  6.04400 44.08800 25.64900
C  4.73800 43.50900 28.87700
O  5.85300 43.73000 29.27600
C  3.53600 43.12600 29.85400
C  3.67100 41.72500 30.33800
O  3.48500 40.69300 29.73200
O  4.01300 41.76500 31.68400
C  4.25300 40.44300 32.27200
H  -3.32500 42.45300 28.30800
H  -2.06700 43.29600 22.20400
H  4.28700 43.96300 23.51100
H  0.83300 41.89800 30.97000
H  -1.85100 42.79600 30.58000
H  -0.64000 40.11200 30.54000
H  -1.81700 40.12700 29.35500
H  -2.26000 40.52000 30.98500
H  -0.58000 44.53000 31.15000
H  1.15800 44.60200 30.91000
H  0.00700 44.56100 33.41100
H  1.59500 44.42800 33.16100
H  -5.21500 41.94200 27.46400
H  -5.56900 41.48600 25.84400
H  -5.86200 43.13600 26.41600
H  -6.63500 43.40300 24.36100
H  -6.34600 41.68400 23.98900
H  -6.72800 42.81400 22.64600
H  -0.00600 44.59600 21.00200
H  2.59100 43.12200 21.41700
H  -0.78900 42.54100 20.25500
H  0.41700 41.52800 21.02800
H  0.90500 42.57300 19.66300
H  2.36600 45.36800 20.14900
H  3.61200 45.42400 21.26900
H  1.87900 47.26800 21.02700
H  2.73800 47.00900 22.57600
H  1.06300 46.46200 22.38600
H  6.21300 43.66100 24.66000
H  6.80300 43.80900 26.38000
H  6.12100 45.16200 25.47400
H  3.53400 43.90700 30.61400
H  4.46400 39.65000 31.55500
H  3.36700 40.17900 32.85000
H  5.13300 40.57600 32.90200

