158

Mg 54.31900 24.45300 43.60800
C  51.66800 26.70900 43.50700
C  52.17300 21.92100 43.04900
C  56.96700 22.47300 43.08400
C  56.50400 27.17700 44.12500
N  52.20700 24.38200 43.02800
C  51.31800 25.37300 43.09600
C  49.96100 24.88500 42.80700
C  49.99700 23.39000 43.16200
C  51.56400 23.18300 43.04300
C  49.30200 22.99300 44.47400
C  49.67800 25.17300 41.27600
C  48.31700 24.98100 40.78800
H  48.18300 24.65200 39.34200
N  54.51500 22.48200 43.06000
C  53.54800 21.58700 42.90400
C  54.08200 20.27900 42.73700
C  55.46200 20.34900 42.77100
C  55.69800 21.79500 42.97800
C  53.29200 19.01000 42.48100
C  56.51400 19.19900 42.69300
O  56.22400 18.05200 42.57700
C  57.98700 19.49000 42.67900
N  56.44300 24.83700 43.52500
C  57.32600 23.84500 43.39000
C  58.78900 24.32100 43.47000
C  58.58600 25.81700 43.82900
C  57.08100 25.94600 43.73800
C  59.72000 23.64600 44.49100
C  59.43200 26.81900 42.94200
C  58.84200 27.19300 41.55200
N  54.16200 26.49400 43.92200
C  55.09000 27.44100 44.26800
C  54.45200 28.68700 44.59600
C  53.09400 28.43100 44.36400
C  52.98700 27.15000 43.82400
C  55.14900 29.95900 45.14600
C  51.79300 28.99700 44.27700
O  51.33900 30.09600 44.49300
C  50.86800 27.96100 43.70300
C  50.34400 28.40600 42.39700
O  51.02600 28.66500 41.40800
O  48.94300 28.46500 42.40200
C  48.31600 28.91300 41.14000
H  51.49300 21.08300 42.88600
H  57.85600 21.84200 43.14500
H  57.20600 28.01300 44.14500
H  49.30000 25.40900 43.49700
H  49.54000 22.85400 42.33000
H  48.39400 22.43400 44.24600
H  49.05200 23.89500 45.03300
H  49.97700 22.46400 45.14700
H  50.43300 24.59000 40.74800
H  49.90300 26.22700 41.11800
H  47.90100 25.97500 40.95300
H  47.89800 24.14900 41.35500
H  52.59700 18.98800 41.64100
H  52.66600 18.76700 43.33900
H  53.79300 18.06200 42.28800
H  58.50000 18.56800 42.40600
H  58.25400 19.90600 43.65100
H  58.13300 20.16600 41.83700
H  59.33900 24.24000 42.53200
H  58.93400 26.05200 44.83500
H  59.92700 24.27600 45.35700
H  60.70100 23.55700 44.02400
H  59.25300 22.70700 44.78700
H  60.37600 26.30900 42.75400
H  59.73900 27.65700 43.56800
H  58.39400 28.18200 41.45700
H  58.14100 26.42800 41.21900
H  59.74100 27.06400 40.95000
H  54.74800 30.29900 46.10000
H  54.98600 30.78000 44.44800
H  56.23000 29.82800 45.19800
H  50.03700 27.91300 44.40700
H  48.66000 28.26700 40.33200
H  48.68600 29.93000 41.01100
H  47.24200 28.83700 41.31100
Mg -12.41200 37.71400 42.00200
C  -10.46200 35.01300 40.98300
C  -10.09100 39.72200 40.52900
C  -14.88100 40.18700 41.82200
C  -14.89500 35.36600 43.06100
N  -10.44500 37.44500 40.97000
C  -9.95300 36.24100 40.57400
C  -8.65200 36.40000 39.79200
C  -8.39100 37.96100 39.95200
C  -9.68800 38.40200 40.57000
C  -7.10700 38.31600 40.74800
C  -8.65600 35.83100 38.39900
C  -7.49400 34.94900 37.96300
H  -6.45400 35.53000 36.97100
N  -12.50700 39.75300 41.36400
C  -11.36700 40.39600 40.78300
C  -11.73800 41.73400 40.46500
C  -13.08600 41.93500 40.76600
C  -13.60900 40.62900 41.36400
C  -10.85100 42.72900 39.72600
C  -13.97900 43.22800 40.57200
O  -13.49000 44.15100 39.91000
C  -15.38600 43.34300 41.12100
N  -14.59200 37.72200 42.23700
C  -15.32800 38.86000 42.24200
C  -16.81500 38.63300 42.68500
C  -16.72200 37.12600 43.23200
C  -15.30600 36.68000 42.81600
C  -17.43400 39.71800 43.63700
C  -17.76000 36.08500 42.65700
C  -18.64500 35.40400 43.72500
N  -12.56300 35.62000 42.30200
C  -13.56700 34.82300 42.77900
C  -13.15700 33.43300 42.71000
C  -11.92500 33.50700 42.08400
C  -11.66900 34.84800 41.72600
C  -13.92000 32.26500 43.36600
C  -10.80800 32.69900 41.62300
O  -10.59200 31.48900 41.62900
C  -9.89600 33.58600 40.63700
C  -8.55500 33.37100 41.09000
O  -7.62800 32.79800 40.49100
O  -8.27500 33.90500 42.33900
C  -6.91100 33.81100 42.93700
H  -9.36800 40.42500 40.10700
H  -15.68500 40.92600 41.81200
H  -15.61800 34.66700 43.48700
H  -7.87400 35.87600 40.34700
H  -8.26800 38.36600 38.94800
H  -6.64600 37.43500 41.19400
H  -7.31700 38.82600 41.68800
H  -6.32900 38.85000 40.20200
H  -8.61100 36.71900 37.76800
H  -9.58700 35.33400 38.12400
H  -7.96100 34.04700 37.56700
H  -6.92900 34.66500 38.85000
H  -11.05300 42.59300 38.66400
H  -9.81100 42.44000 39.87400
H  -10.94200 43.76100 40.06500
H  -15.99900 42.59600 40.61600
H  -15.95200 44.24900 40.90700
H  -15.26300 43.21600 42.19600
H  -17.43600 38.64000 41.78900
H  -16.81000 37.22500 44.31400
H  -18.28200 40.26100 43.21800
H  -16.62800 40.43100 43.81300
H  -17.68300 39.35700 44.63500
H  -17.25100 35.33500 42.05100
H  -18.44000 36.64200 42.01300
H  -18.73300 34.36300 43.41700
H  -19.58600 35.94300 43.61400
H  -18.24100 35.57400 44.72300
H  -13.61100 31.27600 43.02600
H  -14.94800 32.46400 43.06200
H  -13.82800 32.26900 44.45200
H  -9.94800 33.23000 39.60800
H  -6.25800 33.06900 42.47800
H  -7.16000 33.55200 43.96700
H  -6.42900 34.78800 42.92000

