158

Mg -11.98500 38.37700 41.66300
C  -9.89800 35.69800 40.54700
C  -9.70300 40.52400 39.93200
C  -14.10800 41.01900 42.18800
C  -14.28600 36.12900 42.88700
N  -10.07700 38.07900 40.40800
C  -9.40800 36.89800 40.09800
C  -8.08300 37.10200 39.44900
C  -7.93600 38.65900 39.50500
C  -9.30900 39.12800 39.89100
C  -6.81600 39.21500 40.40600
C  -7.98400 36.55500 37.98300
C  -6.79700 35.56400 37.74800
H  -5.68100 36.02100 36.78100
N  -11.92200 40.48400 41.13700
C  -10.93200 41.14000 40.44500
C  -11.20600 42.57300 40.44300
C  -12.39800 42.77500 41.17700
C  -12.89800 41.40900 41.51700
C  -10.19800 43.60800 40.01200
C  -12.93900 44.17900 41.53000
O  -12.51600 45.23900 41.03100
C  -14.12100 44.31500 42.38600
N  -13.92700 38.49400 42.30300
C  -14.60500 39.74500 42.46700
C  -16.07300 39.44900 42.89200
C  -16.15600 37.88400 43.07400
C  -14.76800 37.44400 42.61300
C  -16.59100 40.23900 44.11900
C  -17.21400 37.15600 42.16200
C  -18.63300 37.05900 42.66600
N  -12.10600 36.29500 41.82900
C  -13.05900 35.49800 42.47000
C  -12.58800 34.13400 42.51900
C  -11.42200 34.18400 41.66600
C  -11.10900 35.46900 41.36400
C  -13.23600 32.92500 43.10700
C  -10.42200 33.29600 41.04600
O  -10.32000 32.08900 40.97100
C  -9.42100 34.23000 40.29500
C  -8.00100 34.00600 40.87800
O  -7.48200 34.55500 41.84500
O  -7.29600 32.99400 40.18500
C  -5.93000 32.64800 40.50000
H  -8.90000 41.18500 39.60100
H  -14.79800 41.85700 42.30100
H  -14.99100 35.44100 43.35900
H  -7.46400 36.52500 40.13700
H  -7.72900 39.06300 38.51400
H  -7.06500 39.18200 41.46700
H  -6.51200 40.21600 40.10000
H  -5.97700 38.51800 40.38600
H  -7.81300 37.39300 37.30800
H  -8.86700 35.93300 37.83300
H  -7.11800 34.64700 37.25300
H  -6.37700 35.32700 38.72600
H  -9.23900 43.26000 40.39600
H  -10.32700 44.61600 40.40700
H  -10.12100 43.73200 38.93200
H  -15.10600 44.37000 41.92100
H  -14.05900 45.31000 42.82600
H  -14.06200 43.50500 43.11400
H  -16.64000 39.80600 42.03200
H  -16.35300 37.53300 44.08700
H  -17.13500 41.14000 43.83600
H  -15.76500 40.36400 44.81900
H  -17.27600 39.48600 44.51000
H  -16.87400 36.12300 42.09700
H  -17.26500 37.57100 41.15600
H  -18.99100 37.99200 43.10100
H  -18.94100 36.17700 43.22800
H  -19.34100 36.89600 41.85300
H  -12.68900 32.45000 43.92200
H  -13.43600 32.23400 42.28800
H  -14.17000 33.27800 43.54400
H  -9.29600 33.91200 39.26000
H  -5.27200 33.50100 40.33200
H  -5.67400 31.73000 39.97000
H  -5.81200 32.27600 41.51800
Mg -2.26200 34.62400 26.80500
C  -3.57900 32.81600 29.53100
C  -1.07100 36.90700 28.94600
C  -1.44500 36.42000 24.05000
C  -3.77800 32.29800 24.73000
N  -2.35400 34.80400 29.00400
C  -2.83000 33.92800 29.92700
C  -2.40000 34.27500 31.35600
C  -1.67900 35.63700 31.12400
C  -1.66800 35.82900 29.59900
C  -2.33400 36.83600 31.89900
C  -1.59300 33.15800 32.03000
C  -2.19600 32.46200 33.26900
H  -1.16200 32.33000 34.43800
N  -1.37900 36.39000 26.56400
C  -0.95500 37.21300 27.56000
C  -0.24200 38.35700 27.00800
C  -0.01800 38.03700 25.61100
C  -0.97700 36.88900 25.38400
C  0.34400 39.43800 27.73200
C  0.80600 38.63700 24.61000
O  0.83700 38.20500 23.43400
C  1.63500 39.88100 24.92800
N  -2.71700 34.48500 24.64400
C  -2.25500 35.37200 23.72300
C  -2.55400 35.04900 22.31600
C  -2.88500 33.48600 22.55000
C  -3.11800 33.35900 24.06800
C  -3.69600 35.90800 21.81700
C  -1.78900 32.49300 21.91600
C  -0.54800 32.17800 22.68500
N  -3.47200 32.94600 27.03300
C  -3.99000 32.11800 26.08200
C  -4.83200 31.04000 26.74600
C  -4.61900 31.27000 28.06300
C  -3.82300 32.39500 28.23300
C  -5.56200 30.03200 25.96900
C  -5.02900 30.77000 29.39500
O  -5.74400 29.87700 29.72600
C  -4.29800 31.77300 30.40200
C  -5.43400 32.37500 31.17200
O  -6.24800 33.14600 30.72300
O  -5.39100 31.83700 32.44700
C  -6.57700 32.01900 33.28300
H  -0.66800 37.68200 29.60100
H  -1.07700 36.98700 23.19300
H  -4.25800 31.61700 24.02300
H  -3.33400 34.30300 31.91600
H  -0.63100 35.72200 31.41300
H  -2.87500 37.40800 31.14500
H  -1.55000 37.41700 32.38400
H  -3.05000 36.58000 32.68000
H  -0.60600 33.53000 32.30700
H  -1.43400 32.40100 31.26100
H  -2.35500 31.40800 33.04100
H  -3.17600 32.82700 33.57700
H  1.43300 39.41000 27.78400
H  -0.04900 39.40200 28.74800
H  0.09800 40.39500 27.27300
H  2.22900 39.85200 25.84100
H  0.92600 40.70700 24.87100
H  2.26600 39.94400 24.04100
H  -1.64900 35.14500 21.71600
H  -3.82000 33.20700 22.06500
H  -4.61600 35.42400 21.49100
H  -3.30000 36.63100 21.10400
H  -4.19800 36.43100 22.63100
H  -1.34900 32.91800 21.01300
H  -2.26300 31.55800 21.61700
H  -0.67300 32.56000 23.69800
H  0.40300 32.55700 22.30900
H  -0.45200 31.09200 22.66900
H  -6.51400 30.49700 25.71600
H  -5.70000 29.26200 26.72800
H  -4.90100 29.77300 25.14300
H  -3.66400 31.37500 31.19500
H  -6.81800 31.05200 33.72300
H  -7.38200 32.30800 32.60700
H  -6.35500 32.80400 34.00700

