158

Mg 43.82800 3.45500 48.04900
C  41.52600 5.91700 47.13200
C  41.30000 1.15700 47.72600
C  46.04900 1.02700 48.22200
C  46.39200 5.86800 47.83000
N  41.72500 3.54000 47.25400
C  40.92300 4.68100 47.02400
C  39.44500 4.31200 46.77100
C  39.44100 2.80200 47.28100
C  40.93200 2.48400 47.59000
C  38.46700 2.63300 48.57300
C  39.06100 4.50000 45.22000
C  37.86400 5.38600 44.95100
H  38.00300 6.25500 43.77400
N  43.68700 1.33400 47.89100
C  42.56500 0.54700 47.92900
C  42.88400 -0.84700 48.04900
C  44.29200 -0.89300 48.31300
C  44.74200 0.47600 48.14400
C  41.83600 -1.92400 48.11100
C  45.04800 -2.16700 48.75400
O  44.49700 -3.24400 48.87300
C  46.49200 -2.16900 49.04500
N  45.93600 3.41100 47.59400
C  46.63600 2.26700 47.90100
C  48.18800 2.49000 47.82500
C  48.21500 4.04900 47.62100
C  46.78100 4.49700 47.58700
C  48.92700 2.03500 49.11200
C  49.00500 4.43300 46.35300
C  50.42900 3.86800 46.27200
N  43.99200 5.54400 47.74000
C  45.11100 6.32400 47.60300
C  44.65300 7.68900 47.43500
C  43.23900 7.57600 47.27700
C  42.91100 6.23700 47.40800
C  45.52400 8.87700 47.27400
C  42.00800 8.36900 47.15500
O  41.82800 9.57600 47.03500
C  40.86200 7.29900 47.14900
C  40.06000 7.47400 48.39500
O  40.27800 7.01100 49.51400
O  39.09700 8.41700 48.05700
C  38.07900 8.89200 49.03900
H  40.44200 0.48300 47.74800
H  46.79600 0.24400 48.37400
H  47.18200 6.61200 47.94900
H  38.85500 4.94200 47.43800
H  39.02600 2.25800 46.43200
H  37.87100 1.72100 48.52800
H  37.72300 3.42900 48.59400
H  39.03300 2.68100 49.50400
H  38.69100 3.55400 44.82700
H  39.84900 4.88500 44.57300
H  37.66300 6.02500 45.81100
H  37.01800 4.72300 44.77100
H  42.13100 -2.64400 47.34900
H  40.80100 -1.73300 47.82800
H  41.74800 -2.57600 48.98000
H  47.04000 -1.96900 48.12500
H  46.74900 -3.09200 49.56600
H  46.62000 -1.39600 49.80300
H  48.58800 2.01600 46.92900
H  48.68000 4.47000 48.51200
H  49.73000 2.71600 49.39200
H  49.28600 1.08600 48.71500
H  48.32300 1.82300 49.99500
H  49.02300 5.52200 46.40200
H  48.55100 4.00500 45.45900
H  50.53200 3.16300 45.44700
H  50.70400 3.33200 47.18000
H  51.11500 4.71000 46.18200
H  45.12200 9.70100 47.86200
H  45.59600 9.25900 46.25600
H  46.57100 8.81400 47.57100
H  40.27100 7.52800 46.26200
H  37.75800 9.87500 48.69600
H  38.35700 8.98300 50.09000
H  37.23800 8.20300 48.96300
Mg 46.99500 24.67200 28.31700
C  47.30700 27.02700 30.59800
C  46.57300 22.34400 30.75900
C  46.94300 22.38100 26.00900
C  47.72600 27.09800 25.79900
N  46.67100 24.71500 30.43700
C  46.85300 25.80100 31.17100
C  46.63100 25.53400 32.67200
C  46.80600 24.02800 32.69300
C  46.69000 23.65200 31.23300
C  48.11000 23.60000 33.43200
C  45.40300 26.20900 33.31600
C  45.26900 25.87000 34.83000
H  45.25200 26.95700 35.86000
N  46.65700 22.69400 28.35000
C  46.54000 21.91700 29.48400
C  46.32400 20.55200 29.08000
C  46.42700 20.49700 27.65200
C  46.69900 21.90100 27.27100
C  45.86900 19.39800 30.02000
C  46.40200 19.24200 26.69300
O  46.39000 19.42600 25.47100
C  46.35800 17.80000 27.13200
N  47.18800 24.80400 26.18200
C  47.19300 23.63300 25.48200
C  47.47000 23.97700 23.93600
C  47.22600 25.49300 23.86200
C  47.47100 25.83500 25.33000
C  48.84600 23.57700 23.44200
C  45.88400 26.13600 23.38800
C  44.63300 25.49100 23.94200
N  47.62400 26.64800 28.16400
C  47.92100 27.50200 27.12300
C  48.19300 28.84500 27.63200
C  47.87500 28.76000 28.98700
C  47.59200 27.35500 29.28600
C  48.54400 29.98800 26.72700
C  47.81800 29.47200 30.26000
O  48.11800 30.57900 30.65100
C  47.41100 28.36500 31.31600
C  48.55300 28.34400 32.28500
O  49.64900 27.85500 32.08500
O  48.11300 28.74400 33.53100
C  49.01000 28.50400 34.70900
H  46.55900 21.68600 31.63100
H  46.82200 21.69700 25.16600
H  47.81800 27.86200 25.02400
H  47.52000 26.05500 33.02700
H  46.02800 23.56300 33.29700
H  48.98400 23.38300 32.81800
H  47.82500 22.72800 34.02000
H  48.37600 24.35800 34.16900
H  44.48300 25.84300 32.86000
H  45.45600 27.29500 33.24100
H  46.12500 25.24200 35.07700
H  44.35900 25.29800 35.01600
H  46.54800 18.58300 29.76700
H  44.86000 19.20900 29.65300
H  45.95100 19.67900 31.07000
H  47.35600 17.56700 27.50400
H  46.07400 17.12000 26.32900
H  45.60600 17.62500 27.90200
H  46.79300 23.51300 23.22000
H  48.04900 25.90600 23.27800
H  49.24400 22.90300 24.20100
H  49.52400 24.39500 23.20000
H  48.85600 23.10400 22.46000
H  45.95600 26.06400 22.30300
H  45.89000 27.20500 23.59800
H  44.02400 26.32000 24.30400
H  44.80900 24.72800 24.70000
H  44.10000 24.94300 23.16600
H  48.36500 30.96100 27.18600
H  48.01000 29.90300 25.78000
H  49.58400 29.91100 26.41100
H  46.49800 28.68000 31.82000
H  49.58300 27.58200 34.61400
H  48.26800 28.43000 35.50300
H  49.53000 29.43800 34.92400

