158

Mg 25.97700 1.52000 28.75200
C  28.09000 1.33200 31.76800
C  23.30400 1.57800 30.89300
C  24.20400 2.06600 26.08400
C  28.84200 1.28400 26.97200
N  25.77200 1.55800 31.06700
C  26.71700 1.64700 32.08300
C  26.04000 1.73100 33.50300
C  24.49600 1.74700 33.12200
C  24.51100 1.60600 31.62000
C  23.60000 0.66900 33.81600
C  26.59100 3.00300 34.16100
C  27.38300 2.89500 35.53900
H  26.98700 3.80700 36.73100
N  24.05200 1.55400 28.51800
C  23.06100 1.57300 29.50300
C  21.86400 1.58100 28.89000
C  22.04700 1.74200 27.50700
C  23.50200 1.84300 27.30600
C  20.61200 1.45900 29.65200
C  21.02900 1.97800 26.44800
O  21.40900 2.29700 25.30500
C  19.59000 1.82100 26.79300
N  26.45000 1.54400 26.76500
C  25.54000 1.92800 25.81300
C  26.17600 1.83500 24.40900
C  27.72400 1.68900 24.78000
C  27.71100 1.42600 26.25900
C  25.54200 0.70600 23.51700
C  28.52600 2.98200 24.35800
C  30.01300 2.78700 24.02600
N  28.05800 1.18700 29.17000
C  29.05300 1.10600 28.30100
C  30.31000 0.74100 29.07200
C  29.95200 0.93000 30.42500
C  28.56700 1.16700 30.43100
C  31.65400 0.48900 28.43700
C  30.50000 0.88500 31.77600
O  31.56400 0.53100 32.22700
C  29.28500 1.23700 32.66600
C  29.13400 0.06100 33.59600
O  28.39000 -0.87800 33.36200
O  29.87300 0.23900 34.68800
C  29.68000 -0.72900 35.74000
H  22.41900 1.67300 31.52500
H  23.65500 2.46700 25.23000
H  29.76000 1.17800 26.39100
H  26.25700 0.87000 34.13500
H  24.11000 2.74500 33.32900
H  23.34100 -0.13400 33.12600
H  22.74800 1.27800 34.11600
H  24.17700 0.30700 34.66700
H  25.78000 3.69300 34.39900
H  27.17100 3.57100 33.43500
H  28.43800 3.11500 35.37500
H  27.19800 1.88800 35.91300
H  20.12600 2.43500 29.62500
H  20.61800 1.30700 30.73100
H  19.90100 0.76500 29.20400
H  18.96800 1.90000 25.90100
H  19.39400 2.58900 27.54100
H  19.59300 0.80600 27.18900
H  25.87600 2.78500 23.96600
H  28.04700 0.86500 24.14400
H  26.24300 -0.04700 23.15700
H  25.07800 1.17600 22.64900
H  24.85400 0.20100 24.19500
H  28.32000 3.81300 25.03300
H  28.09100 3.33500 23.42200
H  30.24000 2.94500 22.97100
H  30.26800 1.76600 24.30900
H  30.56200 3.51500 24.62300
H  31.92700 1.11500 27.58700
H  31.50300 -0.55500 28.16400
H  32.47200 0.49400 29.15700
H  29.33700 2.14200 33.27100
H  28.86600 -0.27500 36.30600
H  30.59400 -0.70800 36.33400
H  29.44400 -1.74800 35.43600
Mg 9.74000 47.87400 25.65400
C  7.30200 48.34600 28.29900
C  12.13400 48.88200 27.94500
C  11.86100 47.79800 23.09400
C  7.03600 47.17800 23.47400
N  9.68700 48.43600 27.95000
C  8.66300 48.37800 28.76900
C  9.19900 48.50100 30.26000
C  10.56400 49.18000 29.95600
C  10.85500 48.72700 28.55300
C  10.62700 50.74100 29.99000
C  9.30100 47.15700 30.96300
C  8.69300 47.07300 32.31200
H  9.44000 46.22700 33.42900
N  11.71300 48.41200 25.49800
C  12.53500 48.70600 26.57300
C  13.96700 48.82100 26.06200
C  13.85300 48.50900 24.69100
C  12.41700 48.20200 24.43000
C  15.18800 49.23300 26.96000
C  14.97500 48.21800 23.72000
O  14.89200 48.10400 22.51500
C  16.37900 48.00800 24.30700
N  9.49000 47.63500 23.52600
C  10.56000 47.58000 22.67100
C  10.14500 47.17900 21.27600
C  8.64100 46.79700 21.42600
C  8.32400 47.23200 22.88000
C  10.39500 48.24900 20.21700
C  8.22000 45.41000 21.15800
C  8.56800 44.24600 22.20200
N  7.59200 47.67600 25.79300
C  6.65300 47.39600 24.81500
C  5.37700 47.46500 25.44000
C  5.57400 47.86100 26.77600
C  6.97900 47.98000 26.97200
C  4.06500 47.07900 24.83400
C  4.87200 48.19700 28.04000
O  3.70100 48.07400 28.27400
C  6.00300 48.52200 29.07600
C  5.74400 47.70800 30.30900
O  5.57100 46.49300 30.28100
O  5.50500 48.51500 31.38600
C  4.72300 47.94200 32.39800
H  12.96600 49.15100 28.60000
H  12.53600 47.76800 22.23600
H  6.13600 46.84800 22.95000
H  8.49300 49.22500 30.66700
H  11.29800 48.82600 30.67900
H  11.37700 51.07100 30.70800
H  9.69200 51.18400 30.33200
H  10.80800 51.19200 29.01400
H  10.30500 46.73500 30.92400
H  8.67500 46.50100 30.36000
H  7.69900 46.65500 32.15700
H  8.39100 48.02700 32.74400
H  14.91800 49.62300 27.94100
H  15.47200 50.18100 26.50300
H  15.98900 48.49800 27.04000
H  16.51500 47.22300 25.05000
H  16.73800 48.94600 24.73200
H  17.13200 47.86300 23.53200
H  10.72700 46.29300 21.02000
H  8.00300 47.52200 20.92100
H  10.99700 49.07200 20.60100
H  9.49900 48.71000 19.80100
H  11.04000 47.82600 19.44600
H  8.67600 45.07100 20.22800
H  7.15200 45.42200 20.93800
H  9.38100 43.60100 21.86900
H  7.63200 43.70200 22.32900
H  8.71800 44.60200 23.22100
H  3.36100 47.83600 25.18000
H  3.91500 46.02800 25.08000
H  4.13400 47.27600 23.76400
H  6.11900 49.55600 29.40100
H  5.41000 47.45000 33.08600
H  3.94800 47.29000 31.99400
H  4.23800 48.76500 32.92200

