158

Mg -1.81400 17.17400 26.21400
C  -1.93500 14.82000 28.65900
C  -1.96500 19.80000 28.45700
C  -1.79700 19.39800 23.66100
C  -2.10900 14.57800 23.85500
N  -2.06000 17.27500 28.27500
C  -1.98900 16.16200 29.10300
C  -1.98100 16.68800 30.61500
C  -2.18600 18.25200 30.47800
C  -2.03300 18.49400 28.97400
C  -3.45900 18.74200 31.14600
C  -0.76500 16.24700 31.61500
C  -0.43100 17.15300 32.75800
H  -0.28800 16.62800 34.19000
N  -1.88600 19.33600 26.08900
C  -1.96900 20.21900 27.09400
C  -2.06200 21.52200 26.59500
C  -2.03100 21.45100 25.11700
C  -1.86600 20.02300 24.88900
C  -2.29500 22.70700 27.59300
C  -2.18600 22.47400 24.05100
O  -2.28400 22.25100 22.88100
C  -2.25600 23.84100 24.52200
N  -2.08100 17.07000 24.05000
C  -1.89100 18.12900 23.23200
C  -1.83600 17.76300 21.71800
C  -1.79000 16.16100 21.87900
C  -2.00700 15.88600 23.34600
C  -3.04100 18.24800 20.96400
C  -0.49100 15.54500 21.34000
C  -0.56400 14.77000 20.05700
N  -1.97500 15.16000 26.25600
C  -2.07300 14.21600 25.22700
C  -2.18100 12.87500 25.78200
C  -2.03300 13.05400 27.17700
C  -1.88500 14.42300 27.37100
C  -2.53600 11.74300 24.94900
C  -2.10400 12.32600 28.38700
O  -2.00000 11.13700 28.66500
C  -2.10700 13.54800 29.50700
C  -0.99500 13.32000 30.46000
O  0.19900 13.47200 30.17000
O  -1.51900 12.73600 31.60000
C  -0.55100 12.24000 32.54000
H  -1.98500 20.56200 29.23900
H  -1.62500 20.00700 22.77200
H  -2.06400 13.77600 23.11600
H  -2.90600 16.30300 31.04400
H  -1.38400 18.80800 30.96300
H  -4.19600 17.98500 31.41400
H  -3.92400 19.37400 30.39000
H  -3.19400 19.33700 32.02000
H  0.20200 16.13100 31.12400
H  -1.17700 15.35200 32.08100
H  -1.31900 17.77400 32.88200
H  0.44900 17.77900 32.60900
H  -2.74900 22.48400 28.55800
H  -2.83800 23.59000 27.25800
H  -1.33000 23.13900 27.85800
H  -3.13600 23.98500 25.14900
H  -2.43500 24.36700 23.58400
H  -1.34200 24.11800 25.04800
H  -0.98800 18.22500 21.21200
H  -2.55400 15.65900 21.28500
H  -3.80200 18.68900 21.60700
H  -3.51100 17.37600 20.50900
H  -2.83500 18.98700 20.18900
H  0.10100 14.99300 22.07100
H  0.26400 16.32200 21.22000
H  -0.08600 15.48000 19.38200
H  -1.59600 14.55900 19.77900
H  0.02000 13.86100 20.19900
H  -1.75200 11.04100 24.66600
H  -3.07400 12.02700 24.04500
H  -3.16900 11.16800 25.62400
H  -3.07800 13.60500 30.00000
H  -0.28600 11.23000 32.22800
H  -1.03400 12.35600 33.51000
H  0.36000 12.83400 32.61600
Mg 46.88500 16.29000 29.25200
C  44.69900 15.77400 31.97600
C  49.01700 17.90800 31.39000
C  48.75200 17.04100 26.63700
C  44.42800 15.07000 27.22400
N  46.73900 16.86700 31.39100
C  45.87200 16.44900 32.33900
C  46.31600 16.73400 33.73800
C  47.53100 17.68900 33.47200
C  47.76200 17.55600 31.95900
C  47.47500 19.12100 34.03700
C  46.55300 15.43500 34.60000
C  46.23700 15.50300 36.15000
H  45.93200 16.82500 36.87200
N  48.67200 17.22000 29.08200
C  49.47200 17.71400 30.05400
C  50.79100 18.03700 29.54400
C  50.80600 17.79600 28.21800
C  49.36400 17.35400 27.88000
C  51.92000 18.64500 30.52800
C  51.89700 17.94900 27.14600
O  51.81300 17.68700 25.97000
C  53.23000 18.21200 27.65500
N  46.53300 16.17100 27.26000
C  47.44900 16.57000 26.37900
C  46.95300 16.50100 24.91400
C  45.61200 15.77800 25.02700
C  45.52500 15.58400 26.59100
C  46.83400 17.75400 24.02800
C  45.29900 14.57300 24.05300
C  45.63600 13.04500 24.52800
N  44.91700 15.48200 29.54700
C  44.05700 15.00200 28.59400
C  42.91600 14.48600 29.22500
C  43.16800 14.73400 30.59800
C  44.30300 15.38400 30.72200
C  41.72800 13.88100 28.57400
C  42.60300 14.53300 31.96300
O  41.60900 14.02800 32.39800
C  43.48000 15.36400 32.84900
C  42.76400 16.49800 33.38700
O  42.81400 17.68900 32.94100
O  42.10900 16.12300 34.50900
C  41.67100 17.21700 35.32700
H  49.74100 18.33300 32.08800
H  49.36800 17.19300 25.74900
H  43.68000 14.66200 26.54100
H  45.59400 17.44500 34.14000
H  48.46600 17.29000 33.86600
H  46.42800 19.42400 34.04600
H  48.05700 19.73000 33.34500
H  47.94600 19.21200 35.01600
H  47.62800 15.26600 34.54300
H  46.02600 14.61300 34.11500
H  46.96400 14.91800 36.71400
H  45.34000 14.88900 36.22900
H  51.64200 18.56800 31.58000
H  52.18100 19.64000 30.16700
H  52.79600 18.01000 30.40300
H  53.94800 18.36900 26.85100
H  53.60300 17.43800 28.32600
H  53.25800 19.09900 28.28800
H  47.51700 15.71600 24.41000
H  44.75000 16.40700 24.80700
H  47.37500 18.57400 24.50100
H  45.79800 18.07900 23.93200
H  47.24400 17.71400 23.01900
H  46.04000 14.72100 23.26800
H  44.25200 14.67500 23.76600
H  44.73900 12.44000 24.40100
H  45.94100 12.79300 25.54400
H  46.45600 12.63000 23.94100
H  41.43800 12.84200 28.73000
H  41.79700 14.08600 27.50500
H  40.86100 14.38900 28.99700
H  43.74200 14.65200 33.63100
H  40.70300 17.54900 34.95200
H  42.42800 17.98900 35.46500
H  41.44400 16.83200 36.32100

