158

Mg 2.59600 -1.13700 43.52000
C  6.00800 -0.47700 42.89400
C  1.77800 1.88200 41.89000
C  -0.55000 -2.21900 43.13000
C  3.52100 -4.16800 44.96200
N  3.77200 0.41100 42.34000
C  5.15600 0.49400 42.29800
C  5.60500 1.75400 41.55800
C  4.24300 2.63000 41.47000
C  3.21300 1.60700 41.96200
C  4.27300 4.02400 42.21400
C  6.24500 1.35000 40.14900
C  7.33800 2.25000 39.59900
H  7.03300 2.77500 38.16200
N  0.83500 -0.34500 42.59400
C  0.72100 0.99700 42.08700
C  -0.63700 1.14700 41.69400
C  -1.33200 -0.14500 41.86100
C  -0.34300 -0.99200 42.56300
C  -1.06100 2.38800 41.07200
C  -2.69600 -0.53500 41.34100
O  -3.38100 0.31800 40.89800
C  -3.24600 -1.92100 41.34900
N  1.65200 -3.10200 43.82700
C  0.31700 -3.11500 43.87100
C  -0.20900 -4.22600 44.76300
C  1.16700 -4.74900 45.48100
C  2.17800 -4.00000 44.68000
C  -1.33100 -3.87400 45.72500
C  1.46300 -6.28300 45.46800
C  2.30200 -6.78400 46.69000
N  4.35200 -2.10400 44.07200
C  4.56200 -3.36200 44.56000
C  5.98400 -3.67100 44.66200
C  6.56100 -2.51200 44.07900
C  5.53000 -1.58900 43.68900
C  6.73700 -4.85500 45.25800
C  7.86100 -1.93600 43.66700
O  8.96800 -2.35000 43.71500
C  7.51300 -0.52200 42.97500
C  7.96600 0.63700 43.80600
O  7.31800 1.28800 44.64800
O  9.23500 0.96300 43.31200
C  9.84800 1.96100 44.21500
H  1.53500 2.89900 41.57400
H  -1.60200 -2.50500 43.19900
H  3.82800 -5.09400 45.45200
H  6.35800 2.31900 42.10800
H  3.98300 2.70000 40.41400
H  3.94600 4.70000 41.42400
H  5.26100 4.22700 42.62900
H  3.58200 3.93800 43.05200
H  5.44700 1.36700 39.40700
H  6.66900 0.34600 40.17600
H  8.23700 1.63800 39.52400
H  7.52000 3.08400 40.27700
H  -0.86400 2.39600 40.00000
H  -0.57600 3.27200 41.48700
H  -2.12800 2.52200 41.25000
H  -3.99000 -1.97900 40.55400
H  -3.58800 -2.20700 42.34400
H  -2.42600 -2.59400 41.09900
H  -0.65600 -4.92800 44.05900
H  1.22700 -4.38900 46.50800
H  -1.26400 -4.33500 46.71000
H  -2.27800 -4.14100 45.25600
H  -1.28900 -2.81600 45.98500
H  2.03800 -6.53100 44.57600
H  0.60900 -6.94300 45.31500
H  1.61200 -7.49200 47.14900
H  2.39900 -6.05200 47.49200
H  3.24500 -7.28500 46.47000
H  6.66400 -5.79300 44.70800
H  6.40200 -5.06800 46.27300
H  7.80300 -4.64900 45.35100
H  7.98600 -0.43300 41.99700
H  10.12300 1.59200 45.20400
H  9.12400 2.76100 44.36900
H  10.82300 2.23100 43.80900
Mg 1.35900 7.12400 25.84000
C  2.23100 9.05100 28.61200
C  1.77400 4.29400 27.85900
C  0.69000 5.30000 23.20200
C  2.18300 9.88000 23.80600
N  1.97300 6.74200 28.02400
C  2.04100 7.73600 29.00900
C  2.09500 7.07100 30.38200
C  2.19700 5.54500 30.10200
C  2.01600 5.53700 28.54300
C  3.46200 4.79000 30.56800
C  0.84300 7.42200 31.33600
C  1.24400 7.77400 32.77700
H  2.48100 7.13000 33.43600
N  1.13500 5.09900 25.59200
C  1.41800 4.13300 26.50600
C  1.23400 2.81400 25.90200
C  0.82200 3.01200 24.51300
C  0.88200 4.51500 24.36800
C  1.34400 1.55700 26.74200
C  0.60300 2.01000 23.46500
O  0.46100 2.31600 22.30100
C  0.39300 0.60800 23.81600
N  1.48500 7.51800 23.78300
C  1.01700 6.63000 22.89200
C  0.98300 7.18800 21.43100
C  1.79200 8.50800 21.60200
C  1.84200 8.70200 23.14700
C  1.41500 6.30600 20.26700
C  1.32000 9.78000 20.82500
C  -0.05000 10.41000 21.18800
N  1.94200 9.06000 26.13400
C  2.23600 10.07000 25.20400
C  2.59800 11.28700 25.88800
C  2.58500 10.93400 27.21400
C  2.22300 9.57100 27.28300
C  2.79800 12.67300 25.25500
C  2.76600 11.41000 28.62500
O  3.00600 12.52100 29.09600
C  2.42900 10.25500 29.54400
C  3.55700 10.12000 30.53100
O  4.61800 9.56400 30.26200
O  3.31400 10.68500 31.73500
C  4.38500 10.75700 32.68600
H  1.79400 3.35900 28.42100
H  0.39200 4.65500 22.37300
H  2.47100 10.74500 23.20700
H  2.96500 7.49300 30.88700
H  1.37500 4.94400 30.49100
H  4.25200 4.66300 29.82700
H  3.17000 3.80800 30.94100
H  3.94000 5.34900 31.37300
H  0.29100 6.49600 31.50200
H  0.18800 8.16100 30.87600
H  0.38300 7.74300 33.44500
H  1.55300 8.81400 32.67100
H  0.40500 1.02700 26.90000
H  1.97900 1.69700 27.61700
H  1.88700 0.91300 26.05000
H  -0.29400 0.49800 24.65500
H  1.35800 0.19600 24.11300
H  -0.03400 0.13800 22.93000
H  -0.07700 7.34700 21.23400
H  2.83600 8.30500 21.36000
H  1.83400 5.46400 20.81800
H  2.09800 6.81400 19.58500
H  0.48300 6.06500 19.75500
H  1.47600 9.64600 19.75500
H  1.92900 10.68300 20.86400
H  -0.42400 10.68400 20.20100
H  0.04400 11.23200 21.89700
H  -0.70700 9.66800 21.64100
H  2.34200 12.72000 24.26600
H  3.87000 12.85500 25.16800
H  2.38700 13.37900 25.97600
H  1.48500 10.50300 30.02900
H  3.95100 10.96300 33.66500
H  5.10900 11.49900 32.35200
H  4.98200 9.84800 32.74300

