158

Mg 34.35500 2.84000 30.08700
C  31.99600 3.89800 32.51600
C  36.88700 3.09500 32.53300
C  36.73900 2.55100 27.55900
C  31.87800 2.92800 27.65700
N  34.34900 3.43400 32.22600
C  33.28300 3.71300 33.08800
C  33.72100 3.69900 34.57500
C  35.25700 3.85900 34.42200
C  35.51500 3.42800 32.97000
C  35.93000 5.24200 34.74700
C  33.06600 2.48000 35.38900
C  32.63800 2.56600 36.88600
H  33.22900 3.67000 37.78200
N  36.41900 2.72500 30.06500
C  37.21200 2.70200 31.20500
C  38.59200 2.38400 30.77400
C  38.61200 2.30200 29.34000
C  37.19700 2.56900 28.91200
C  39.79500 2.24800 31.66700
C  39.72800 1.95300 28.38800
O  39.54300 1.73200 27.17700
C  41.11300 1.60600 28.90900
N  34.28500 2.56700 27.99200
C  35.41200 2.56300 27.15600
C  34.99100 2.54600 25.65200
C  33.39900 2.45100 25.72500
C  33.14300 2.68100 27.23500
C  35.48900 3.78800 24.83000
C  32.78700 1.16800 25.11900
C  32.15700 0.09500 26.06500
N  32.35700 3.32800 30.00700
C  31.45500 3.30500 28.93000
C  30.12600 3.67600 29.45600
C  30.30700 3.88200 30.81100
C  31.64200 3.61500 31.14400
C  28.87200 3.70300 28.64800
C  29.61900 4.22900 32.10600
O  28.45500 4.46500 32.39200
C  30.76000 4.27600 33.26400
C  30.89100 5.62500 33.80700
O  31.23100 6.61200 33.17200
O  30.66100 5.61600 35.18400
C  30.86200 6.89800 35.93300
H  37.73000 3.16700 33.22200
H  37.45400 2.56400 26.73400
H  31.09600 2.80600 26.90500
H  33.29800 4.64300 34.91500
H  35.76500 3.16300 35.08900
H  36.62000 5.17900 35.58800
H  35.13300 5.96100 34.94000
H  36.51700 5.63900 33.91800
H  33.73300 1.64500 35.17200
H  32.16000 2.21700 34.84300
H  32.94900 1.62900 37.34800
H  31.55800 2.64900 37.00800
H  40.74300 2.66600 31.33000
H  39.96800 1.20100 31.91600
H  39.68500 2.83900 32.57700
H  41.68900 2.49400 29.17000
H  41.63400 1.17100 28.05700
H  41.01000 0.81100 29.64700
H  35.51400 1.78900 25.06800
H  32.85900 3.20400 25.15100
H  34.70700 4.47900 24.51600
H  36.11100 3.45400 23.99900
H  36.19500 4.32000 25.46800
H  33.63600 0.64600 24.67700
H  32.11100 1.47100 24.31900
H  32.34300 0.24700 27.12800
H  32.47100 -0.89100 25.72100
H  31.08900 0.25000 25.91700
H  29.04400 3.41400 27.61200
H  28.39700 4.67300 28.79000
H  28.20300 3.06000 29.22000
H  30.51500 3.55000 34.03900
H  30.27600 7.76000 35.61500
H  31.92100 7.15400 35.95800
H  30.52700 6.56000 36.91400
Mg 47.19400 25.92000 27.62200
C  48.50500 27.84200 30.09300
C  46.50400 23.50000 29.87000
C  46.12100 23.97700 25.09500
C  48.31000 28.24700 25.17600
N  47.46400 25.70800 29.71800
C  47.96500 26.64100 30.56400
C  47.75200 26.24600 32.05000
C  47.11300 24.90900 31.98100
C  46.98800 24.65700 30.42500
C  47.85200 23.80200 32.66600
C  46.91300 27.30500 32.85600
C  47.32800 27.41200 34.41400
H  46.16000 27.62700 35.39200
N  46.26900 24.05100 27.53700
C  46.18700 23.17700 28.53900
C  45.59700 21.92700 28.09400
C  45.34900 22.11600 26.70700
C  45.93900 23.44600 26.35900
C  45.33200 20.72600 28.98400
C  44.63100 21.19000 25.71000
O  44.70700 21.25800 24.49800
C  43.91600 20.01800 26.17300
N  47.33400 26.07500 25.41800
C  46.70300 25.11100 24.56500
C  46.70400 25.54700 23.16200
C  47.24800 27.04900 23.25500
C  47.66000 27.17200 24.67100
C  47.52800 24.59800 22.30700
C  46.31600 28.20500 22.81700
C  46.90200 29.11800 21.69400
N  48.32100 27.59600 27.59100
C  48.60000 28.43700 26.50600
C  49.34700 29.54000 27.06700
C  49.27200 29.43500 28.47700
C  48.66600 28.22100 28.72500
C  49.91700 30.58700 26.22200
C  49.69300 30.02200 29.76800
O  50.19700 31.11700 30.04600
C  49.16400 28.91400 30.86300
C  50.23800 28.52300 31.78700
O  51.07800 27.64500 31.59000
O  49.99400 29.10300 33.05900
C  50.82700 28.54700 34.16400
H  46.26800 22.77100 30.64900
H  45.55700 23.35700 24.39500
H  48.59700 29.02700 24.46700
H  48.72600 26.25400 32.54000
H  46.12100 24.87100 32.43100
H  48.64000 24.31700 33.21400
H  48.18600 23.04000 31.96100
H  47.20600 23.23500 33.33700
H  45.83200 27.17400 32.81800
H  46.92100 28.32500 32.47200
H  47.74600 28.41400 34.32000
H  48.04800 26.70200 34.82100
H  44.28300 20.43000 28.98800
H  45.67900 20.84100 30.01000
H  45.89700 19.87900 28.59200
H  44.64700 19.23600 26.37800
H  43.27000 19.50400 25.46100
H  43.21700 20.32900 26.94900
H  45.66200 25.46900 22.85100
H  48.16500 27.02300 22.66600
H  47.79600 23.69300 22.85100
H  48.40000 25.00100 21.79100
H  46.81500 24.26900 21.55100
H  46.13700 28.80000 23.71300
H  45.34800 27.87200 22.44400
H  46.07700 29.18800 20.98500
H  47.67000 28.57100 21.14700
H  47.04800 30.17400 21.92100
H  49.28300 30.79800 25.36000
H  50.86600 30.17300 25.88200
H  50.17400 31.33700 26.97000
H  48.39400 29.36200 31.49100
H  50.24300 28.16000 34.99900
H  51.33300 29.42300 34.57000
H  51.58800 27.81300 33.89900

