158

Mg 1.58100 -1.47400 45.78200
C  4.93400 -0.97500 45.17100
C  0.71300 0.94200 43.49300
C  -1.81400 -2.42700 45.71900
C  2.40200 -4.39200 47.48500
N  2.62900 -0.17800 44.60900
C  4.04700 -0.10900 44.48700
C  4.46500 1.06900 43.58000
C  3.05900 1.79800 43.30600
C  2.06300 0.77100 43.84700
C  2.87700 3.23300 43.86600
C  5.20800 0.62300 42.27100
C  6.44000 1.44600 42.04100
H  6.54800 2.08200 40.63700
N  -0.33300 -0.82000 44.69700
C  -0.37600 0.17700 43.83400
C  -1.74600 0.37800 43.36500
C  -2.50800 -0.56500 44.07700
C  -1.60000 -1.32100 44.90100
C  -2.14000 1.28000 42.36300
C  -4.06200 -0.76200 44.00500
O  -4.69200 -0.10600 43.16400
C  -4.88500 -1.74800 44.87200
N  0.44900 -3.16900 46.44300
C  -0.88600 -3.26300 46.44300
C  -1.38800 -4.48300 47.13000
C  -0.04400 -5.11900 47.63300
C  1.05800 -4.20600 47.15800
C  -2.58900 -4.35800 48.19000
C  0.18100 -6.65800 47.28500
C  -0.10400 -7.65100 48.39800
N  3.26700 -2.41100 46.40300
C  3.43300 -3.55400 47.09400
C  4.85800 -3.86800 47.22900
C  5.46300 -2.89100 46.46600
C  4.45300 -1.98400 46.04800
C  5.55400 -4.96300 48.10000
C  6.71800 -2.36000 45.91600
O  7.83900 -2.77500 46.14700
C  6.44700 -1.05900 45.19500
C  7.09100 0.11600 45.90500
O  7.40300 0.13000 47.06900
O  7.43100 1.07100 45.05600
C  8.18700 2.23700 45.53400
H  0.56100 1.75100 42.77500
H  -2.84400 -2.73500 45.91300
H  2.77000 -5.20800 48.11000
H  5.07500 1.77200 44.14700
H  2.91900 1.89300 42.22900
H  3.82000 3.61800 44.25500
H  2.23500 3.28100 44.74600
H  2.50300 3.90100 43.09000
H  4.70100 0.61500 41.30700
H  5.52800 -0.41400 42.37600
H  7.24700 0.71800 42.13000
H  6.61200 2.22900 42.77900
H  -2.46100 2.16500 42.91200
H  -2.92600 0.77800 41.79900
H  -1.27900 1.57200 41.76100
H  -4.86600 -1.54900 45.94400
H  -4.51500 -2.77200 44.82300
H  -5.89000 -1.61700 44.47100
H  -1.71900 -5.16000 46.34200
H  -0.04300 -4.99800 48.71600
H  -2.26200 -4.73000 49.16100
H  -3.42500 -4.92200 47.77600
H  -2.89100 -3.31600 48.29800
H  1.21100 -6.76500 46.94200
H  -0.57000 -6.96400 46.55700
H  -1.14600 -7.95200 48.29300
H  0.14300 -7.13900 49.32700
H  0.53500 -8.53000 48.30900
H  5.62100 -4.50900 49.08800
H  6.55100 -5.13500 47.69300
H  5.00800 -5.89700 48.23100
H  6.82600 -1.08900 44.17300
H  8.74300 2.65000 44.69300
H  8.83900 2.06900 46.39100
H  7.50300 3.00800 45.88800
Mg 36.23100 49.22600 26.31300
C  36.45000 47.19000 29.06900
C  34.71300 51.63800 28.16400
C  35.40900 50.91700 23.46200
C  37.18100 46.57300 24.28400
N  35.58500 49.31400 28.33000
C  35.96100 48.43300 29.29100
C  35.45800 48.92300 30.71200
C  34.87100 50.29000 30.37900
C  34.99800 50.44100 28.86400
C  33.39800 50.55200 30.89600
C  36.56100 48.90400 31.79800
C  36.25500 48.47700 33.30400
H  34.98400 48.93200 34.03600
N  35.42900 51.13900 25.89800
C  34.82100 51.94800 26.85600
C  34.56200 53.19100 26.12800
C  34.82200 52.98600 24.73200
C  35.25200 51.64800 24.63900
C  33.96500 54.42800 26.80100
C  34.86900 53.88500 23.49400
O  35.28200 53.63400 22.34300
C  34.37800 55.30000 23.71000
N  36.37400 48.77100 24.21100
C  35.87600 49.61700 23.23000
C  36.15300 49.03900 21.79400
C  36.82000 47.67000 22.13600
C  36.87900 47.69300 23.66300
C  35.00400 48.91500 20.81300
C  38.15100 47.39600 21.46100
C  39.38700 48.02100 22.14500
N  36.74000 47.23100 26.56200
C  37.07300 46.24500 25.64800
C  37.37100 45.00800 26.31200
C  37.13100 45.31800 27.72900
C  36.69700 46.64000 27.72600
C  37.82500 43.70400 25.70200
C  37.20200 44.83400 29.00700
O  37.35000 43.67500 29.43000
C  36.72100 45.95300 29.98700
C  35.43600 45.42600 30.55000
O  34.35600 45.31300 29.96600
O  35.56200 45.20100 31.91300
C  34.47300 44.46100 32.47700
H  34.19400 52.35500 28.80400
H  35.12400 51.37900 22.51500
H  37.53700 45.76700 23.63900
H  34.72200 48.13000 30.84700
H  35.61500 50.91900 30.86700
H  33.20700 49.79600 31.65700
H  32.67000 50.37100 30.10600
H  33.31200 51.60000 31.18500
H  37.05200 49.85700 31.99700
H  37.34000 48.21800 31.46500
H  37.17200 48.73700 33.83200
H  36.21300 47.39000 33.24400
H  33.09100 54.89800 26.35000
H  34.77500 55.15000 26.69700
H  33.72600 54.11000 27.81600
H  35.08500 55.92000 24.26000
H  33.39100 55.30000 24.17300
H  34.29500 55.75300 22.72100
H  36.85200 49.70600 21.29000
H  36.13100 46.87900 21.84200
H  34.03900 49.15800 21.25800
H  34.86900 47.90600 20.42500
H  35.26400 49.42800 19.88700
H  38.16600 47.70900 20.41700
H  38.25100 46.31100 21.48100
H  39.78100 48.63800 21.33700
H  40.10400 47.21200 22.28200
H  39.11800 48.57400 23.04500
H  38.90500 43.57500 25.77500
H  37.49000 43.65400 24.66600
H  37.25900 42.97100 26.27600
H  37.54300 46.04100 30.69700
H  34.75400 43.84700 33.33200
H  34.08100 43.66300 31.84600
H  33.74600 45.17400 32.86700

