158

Mg 16.66400 -1.42500 27.70400
C  15.81900 0.39700 30.56600
C  18.87200 -3.25800 29.58800
C  17.76400 -2.94900 24.85300
C  14.75300 0.67900 25.72800
N  17.34100 -1.34400 29.79900
C  16.92400 -0.42500 30.76300
C  17.52300 -0.67600 32.12500
C  18.60300 -1.77500 31.66400
C  18.24100 -2.24600 30.31700
C  20.00900 -1.19300 31.75000
C  16.50500 -1.28000 33.14100
C  16.23400 -0.54200 34.49500
H  17.54400 0.00500 35.09700
N  18.04500 -2.98000 27.30900
C  18.74000 -3.62100 28.25200
C  19.39600 -4.76900 27.56600
C  19.20800 -4.61200 26.13200
C  18.30400 -3.47800 26.04400
C  20.19600 -5.83800 28.27300
C  19.75000 -5.36800 24.94400
O  19.53200 -5.10000 23.78100
C  20.52000 -6.62600 25.10400
N  16.51000 -0.99900 25.66200
C  16.93900 -1.82300 24.67500
C  16.51900 -1.26400 23.28900
C  15.49600 -0.14900 23.58100
C  15.52700 -0.18200 25.11800
C  17.72100 -0.77000 22.47800
C  14.09200 -0.32300 22.90400
C  14.07800 -0.35300 21.38200
N  15.42600 0.21300 28.05900
C  14.70900 0.93500 27.08900
C  13.89600 1.84600 27.80900
C  14.33500 1.70300 29.20200
C  15.21100 0.64300 29.28900
C  12.76600 2.81400 27.31700
C  14.13400 2.19500 30.53500
O  13.28300 3.01300 30.94200
C  15.08100 1.37800 31.43600
C  15.92900 2.48600 31.95700
O  16.81400 3.03800 31.35000
O  15.27200 2.88400 33.11200
C  15.70500 4.13800 33.62800
H  19.53400 -3.88800 30.18600
H  17.89400 -3.37900 23.85800
H  13.99800 1.17500 25.11500
H  17.93100 0.26200 32.50200
H  18.52500 -2.69100 32.24900
H  20.07500 -0.32500 32.40600
H  20.45200 -0.95600 30.78200
H  20.74300 -1.82100 32.25400
H  16.78300 -2.32000 33.31600
H  15.53000 -1.19900 32.66100
H  15.83800 -1.29100 35.18100
H  15.42700 0.18000 34.37500
H  19.98400 -6.86700 27.98200
H  20.00000 -5.87300 29.34400
H  21.25400 -5.66200 28.08100
H  20.89300 -7.02300 24.15900
H  19.77100 -7.29700 25.52300
H  21.30700 -6.51400 25.85000
H  16.01000 -2.11000 22.82800
H  15.86900 0.82000 23.24900
H  17.75800 0.31100 22.34200
H  17.75000 -1.32300 21.53900
H  18.65600 -1.11300 22.92000
H  13.44300 0.50500 23.18800
H  13.66500 -1.29300 23.15900
H  13.12700 -0.07100 20.93200
H  14.28800 -1.36700 21.04000
H  14.89000 0.26700 21.00200
H  12.72200 3.74100 27.88900
H  11.75800 2.40600 27.38200
H  12.89600 3.15700 26.29100
H  14.61600 0.91200 32.30500
H  15.01800 4.98000 33.54000
H  16.71400 4.37800 33.29200
H  15.77500 3.90500 34.69100
Mg 49.20200 47.45100 43.43000
C  45.85100 47.38000 42.81400
C  49.47400 44.35900 41.80400
C  52.59500 47.70000 43.55000
C  48.94200 50.75400 44.47600
N  47.80700 46.04400 42.29500
C  46.49000 46.23900 42.26300
C  45.79400 45.06900 41.55700
C  46.96400 43.99400 41.47600
C  48.15400 44.80000 41.88100
C  46.77200 42.73000 42.24700
C  45.15600 45.45100 40.13900
C  43.64800 45.34000 39.86900
H  43.17000 45.21300 38.40800
N  50.83800 46.12600 42.79000
C  50.71500 44.91600 42.15900
C  52.04700 44.33100 41.98200
C  52.95900 45.28700 42.45900
C  52.17500 46.47300 42.99000
C  52.21200 42.98100 41.30700
C  54.46400 45.14200 42.45400
O  54.95800 44.26200 41.75700
C  55.48300 46.09100 43.15700
N  50.56700 48.98100 43.90900
C  51.88700 48.83700 43.86300
C  52.61100 49.99400 44.55400
C  51.46000 51.07400 44.64100
C  50.21800 50.20200 44.33700
C  53.14900 49.48000 45.87500
C  51.65700 52.35800 43.74200
C  51.88400 53.73500 44.38600
N  47.68600 48.84000 43.77500
C  47.69100 50.11800 44.20600
C  46.27500 50.55600 44.29800
C  45.52500 49.51800 43.82600
C  46.43600 48.51700 43.43200
C  45.90500 51.94900 44.76000
C  44.18100 48.99600 43.63100
O  43.08300 49.45300 43.89900
C  44.31000 47.69000 42.78500
C  43.52300 46.57500 43.31800
O  43.79600 45.91700 44.31000
O  42.32400 46.50800 42.66100
C  41.52600 45.31300 42.87700
H  49.67900 43.38700 41.34900
H  53.68300 47.78900 43.57900
H  48.82000 51.74100 44.92800
H  45.04600 44.60500 42.20100
H  47.03900 43.68000 40.43500
H  47.36400 42.77200 43.16200
H  47.27500 41.91500 41.72700
H  45.78400 42.52300 42.65900
H  45.68000 44.94100 39.33000
H  45.35600 46.51000 39.97500
H  43.25300 46.30500 40.18700
H  43.15600 44.68200 40.58500
H  52.26000 43.17800 40.23600
H  51.41600 42.30400 41.61700
H  53.16700 42.49600 41.50800
H  55.52900 47.07600 42.69100
H  56.49300 45.68500 43.21500
H  55.03200 46.16300 44.14600
H  53.34700 50.41200 43.86700
H  51.44600 51.30000 45.70700
H  52.54800 49.55900 46.78100
H  54.06600 50.05600 46.00000
H  53.32600 48.41600 45.72300
H  50.69700 52.52600 43.25500
H  52.39300 52.13200 42.97100
H  51.07100 54.43100 44.18000
H  52.86100 54.14100 44.12500
H  51.90200 53.39400 45.42100
H  46.00200 52.03300 45.84300
H  44.85400 52.08800 44.50700
H  46.51200 52.71700 44.28200
H  43.93500 47.94700 41.79400
H  42.18500 44.47000 43.09000
H  40.97100 45.00200 41.99200
H  40.83200 45.43400 43.70900

