158

Mg 2.07900 -1.85400 44.06900
C  5.52300 -1.04500 43.72800
C  1.37100 1.11100 42.34000
C  -1.18700 -2.97900 43.56500
C  2.88800 -4.99800 45.24600
N  3.31600 -0.29500 42.95000
C  4.70100 -0.10000 42.99700
C  5.16100 1.16200 42.29500
C  3.78700 1.91900 42.21300
C  2.71600 0.84700 42.49300
C  3.61500 3.10900 43.16900
C  5.78900 0.79800 40.88800
C  7.12400 1.50000 40.60000
H  7.18300 2.48700 39.41600
N  0.33200 -1.04200 43.11700
C  0.22200 0.24500 42.57000
C  -1.18200 0.47000 42.21400
C  -1.90400 -0.65300 42.71100
C  -0.91300 -1.62900 43.09200
C  -1.56600 1.71600 41.54300
C  -3.35400 -0.69700 42.75200
O  -4.06600 0.14000 42.26500
C  -4.10600 -1.75300 43.58800
N  0.96800 -3.81400 44.32100
C  -0.35700 -3.90300 44.15100
C  -0.81100 -5.27100 44.66900
C  0.48400 -5.96500 45.14700
C  1.55300 -4.86800 44.88900
C  -1.95900 -5.20000 45.70500
C  0.79200 -7.33100 44.52200
C  1.20600 -8.55100 45.38100
N  3.77700 -2.84900 44.54100
C  3.93000 -4.05200 45.11700
C  5.34300 -4.19100 45.40600
C  5.99200 -3.06700 44.89200
C  5.00700 -2.23200 44.38500
C  5.95300 -5.40300 46.05300
C  7.31600 -2.39400 44.64700
O  8.41300 -2.74400 44.96000
C  7.02700 -0.98700 44.00700
C  7.35500 0.00700 45.08300
O  7.02900 -0.06700 46.28600
O  7.89400 1.13000 44.52800
C  8.03000 2.26800 45.42100
H  1.14600 1.96600 41.69900
H  -2.19100 -3.39700 43.46500
H  3.05900 -5.91600 45.81200
H  5.77100 1.63700 43.06300
H  3.52100 2.30900 41.23000
H  2.65400 3.07100 43.68200
H  3.70100 3.98400 42.52500
H  4.37900 3.00600 43.93900
H  5.00500 1.12700 40.20700
H  5.84100 -0.28300 40.75400
H  7.73200 0.61800 40.40000
H  7.59000 1.94400 41.48000
H  -2.48600 1.50400 40.99800
H  -0.99500 2.02800 40.66900
H  -1.81600 2.57700 42.16400
H  -5.00000 -1.21800 43.90700
H  -3.55300 -1.87700 44.51900
H  -4.35600 -2.61000 42.96200
H  -1.24000 -5.85400 43.85400
H  0.50200 -6.06900 46.23200
H  -2.02300 -4.14400 45.97000
H  -1.81700 -5.87100 46.55100
H  -2.88700 -5.42000 45.17600
H  1.53800 -7.19300 43.73800
H  -0.11700 -7.59700 43.98300
H  0.55100 -9.39800 45.17700
H  1.17500 -8.31000 46.44400
H  2.20000 -8.93100 45.14600
H  5.61900 -6.26400 45.47400
H  5.60200 -5.44200 47.08400
H  7.02300 -5.19200 46.05900
H  7.62700 -0.80200 43.11600
H  7.40100 2.31900 46.31000
H  7.70300 3.11400 44.81600
H  9.06800 2.40200 45.72600
Mg 9.03900 48.86400 25.96400
C  6.97900 48.98000 28.71300
C  11.69200 49.83900 27.81200
C  10.90000 48.67600 23.16900
C  6.11600 48.15800 23.97700
N  9.24300 49.33000 27.98600
C  8.31000 49.32400 28.96400
C  8.95500 49.60600 30.34700
C  10.25600 50.35900 29.95300
C  10.44600 49.86500 28.47100
C  10.00600 51.95900 29.94800
C  9.33600 48.27500 31.14200
C  9.63800 48.48300 32.70200
H  9.20500 47.30800 33.58900
N  10.96600 49.18500 25.54900
C  11.96100 49.50300 26.46200
C  13.30300 49.38100 25.81500
C  13.02200 49.14200 24.43700
C  11.57000 49.02100 24.35100
C  14.54100 49.56800 26.52700
C  14.00200 49.16300 23.20000
O  13.61100 49.30200 22.07200
C  15.47900 49.18200 23.41100
N  8.55600 48.60300 23.84800
C  9.54400 48.54700 22.94700
C  9.06200 48.03000 21.57600
C  7.53300 47.84800 21.79100
C  7.36900 48.16900 23.29700
C  9.33200 49.05100 20.48300
C  7.00000 46.43300 21.41300
C  5.81800 46.44900 20.48200
N  6.98000 48.70300 26.20700
C  5.93000 48.34400 25.35100
C  4.69900 48.31400 26.09700
C  5.04900 48.51400 27.45500
C  6.44400 48.73200 27.42000
C  3.34000 48.02900 25.47400
C  4.53700 48.67600 28.77700
O  3.40900 48.59400 29.26300
C  5.82500 48.89700 29.62800
C  5.94600 47.80500 30.54700
O  6.11900 46.70800 30.21200
O  5.64200 48.29000 31.81400
C  5.52600 47.29200 32.86400
H  12.45400 50.18200 28.51500
H  11.59300 48.47900 22.34900
H  5.22600 47.90800 23.39500
H  8.31500 50.23200 30.96800
H  11.16300 50.04400 30.46900
H  9.99000 52.24700 28.89700
H  10.88300 52.54400 30.22300
H  9.10600 52.11100 30.54300
H  10.21600 47.90000 30.62000
H  8.54100 47.54300 30.99700
H  9.28300 49.47400 32.98300
H  10.72500 48.41600 32.73800
H  14.28000 49.62800 27.58400
H  15.02800 50.53400 26.39600
H  15.24300 48.75300 26.35400
H  15.82400 48.18500 23.68600
H  15.71100 49.92800 24.17000
H  15.89000 49.58500 22.48500
H  9.52500 47.05300 21.43300
H  6.82900 48.58500 21.40400
H  9.72600 50.02200 20.78300
H  8.48700 49.14300 19.80000
H  10.09400 48.58700 19.85800
H  6.65900 45.96500 22.33600
H  7.80800 45.95900 20.85600
H  5.47700 47.45100 20.22000
H  4.95100 45.95000 20.91400
H  6.08100 46.00300 19.52300
H  3.23900 46.96100 25.28000
H  3.15100 48.62800 24.58400
H  2.57000 48.18700 26.22900
H  5.77200 49.88000 30.09600
H  6.27700 46.50900 32.76700
H  4.55900 46.80500 32.74100
H  5.67600 47.60200 33.89900

