158

Mg 23.95400 -5.55400 45.19000
C  25.92000 -3.04000 43.61700
C  21.27300 -4.24900 43.38500
C  22.42600 -8.50300 45.72100
C  27.00000 -6.68200 46.58600
N  23.70500 -3.96600 43.53600
C  24.60600 -2.97200 43.18200
C  24.01700 -2.03800 42.18900
C  22.48400 -2.14000 42.49700
C  22.49000 -3.55900 43.16800
C  21.84200 -1.08700 43.44200
C  24.46500 -2.45400 40.72300
C  25.21300 -1.43900 39.75500
H  24.86500 -1.44100 38.25800
N  22.12700 -6.25300 44.73200
C  21.09100 -5.51900 44.01200
C  19.89800 -6.38100 43.91900
C  20.15300 -7.61900 44.60900
C  21.65100 -7.52300 45.02600
C  18.68900 -5.96600 43.21100
C  19.25200 -8.76200 44.89100
O  18.07300 -8.68900 44.52200
C  19.72000 -10.05700 45.45600
N  24.63400 -7.28700 46.15800
C  23.81400 -8.40900 46.17500
C  24.49700 -9.48600 47.05800
C  25.86200 -8.79100 47.50200
C  25.90700 -7.57900 46.64300
C  23.65100 -9.96700 48.23500
C  27.10700 -9.79600 47.47400
C  27.73300 -10.07600 48.87100
N  25.96900 -4.92700 45.29300
C  27.04200 -5.46400 45.84500
C  28.21700 -4.57400 45.76400
C  27.82500 -3.64900 44.85000
C  26.42900 -3.92300 44.59300
C  29.45700 -4.61400 46.53100
C  28.33200 -2.50500 44.07500
O  29.44800 -2.02100 44.01900
C  27.08900 -2.09100 43.13100
C  26.76500 -0.59500 43.33900
O  26.06200 -0.15000 44.22600
O  27.30900 0.07000 42.23400
C  27.11700 1.54500 42.08200
H  20.36900 -3.72800 43.06000
H  22.05400 -9.50800 45.93200
H  27.83300 -6.99000 47.22100
H  24.32000 -1.01100 42.39000
H  21.87600 -2.21500 41.59500
H  22.63100 -0.37300 43.67900
H  21.44600 -1.53400 44.35300
H  21.03000 -0.64800 42.86100
H  23.64100 -2.88200 40.15100
H  25.01600 -3.37800 40.90000
H  26.27600 -1.63400 39.89500
H  25.13600 -0.43900 40.18100
H  17.97000 -5.52700 43.90300
H  18.15100 -6.83600 42.83400
H  18.83200 -5.35800 42.31900
H  18.89200 -10.74500 45.62200
H  20.00800 -9.91500 46.49700
H  20.33000 -10.64000 44.76400
H  24.74700 -10.21000 46.28300
H  25.71200 -8.46800 48.53300
H  22.87000 -9.20900 48.29600
H  24.01100 -10.05200 49.26000
H  23.06300 -10.85000 47.98800
H  27.83100 -9.37600 46.77600
H  26.80900 -10.75100 47.03900
H  28.75900 -9.73100 48.73800
H  27.56200 -11.13600 49.06200
H  27.30800 -9.46400 49.66600
H  29.79700 -5.64800 46.59400
H  29.34800 -4.33900 47.58000
H  30.12700 -3.93200 46.00700
H  27.30900 -2.32200 42.08900
H  26.10300 1.78200 42.40200
H  27.05200 1.76500 41.01600
H  27.72300 2.16500 42.74300
Mg 43.05300 42.24400 26.24800
C  41.81700 44.60000 28.62200
C  43.52300 40.06600 28.66700
C  44.34200 40.31200 23.87400
C  42.50300 44.77200 23.75600
N  42.69700 42.39200 28.33200
C  42.19900 43.41900 29.18500
C  42.25700 43.02400 30.65700
C  42.91700 41.55400 30.68700
C  43.08900 41.31500 29.15700
C  44.19500 41.34000 31.49900
C  40.83700 43.05800 31.30500
C  40.63100 44.00200 32.47700
H  41.44600 43.87800 33.77700
N  43.75700 40.43700 26.29100
C  43.85700 39.62700 27.36600
C  44.40900 38.33600 27.01800
C  44.64300 38.42300 25.60400
C  44.26500 39.82200 25.18600
C  44.52300 37.19900 27.98200
C  45.14600 37.39000 24.62400
O  45.48900 37.62900 23.51200
C  45.52100 36.04000 25.25800
N  43.60700 42.56700 24.13400
C  44.00700 41.54200 23.42800
C  44.01000 41.92100 21.87300
C  43.42400 43.29400 21.80400
C  43.14800 43.64400 23.30800
C  45.35000 41.82900 21.13600
C  42.14100 43.32400 20.89100
C  40.93000 42.51000 21.38500
N  42.34000 44.24400 26.15000
C  42.19400 45.09700 25.03800
C  41.64100 46.39800 25.56100
C  41.47800 46.17700 26.92900
C  41.95000 44.90100 27.26900
C  41.43200 47.69000 24.76700
C  40.95800 46.82200 28.14200
O  40.33600 47.85900 28.33400
C  41.11300 45.73500 29.29600
C  41.90900 46.39600 30.35300
O  43.09900 46.28800 30.48200
O  41.01500 47.16200 31.04900
C  41.62400 47.72900 32.27900
H  43.70700 39.38800 29.50400
H  44.50800 39.66100 23.01400
H  42.31200 45.50600 22.97000
H  42.99400 43.71600 31.06300
H  42.22000 40.80000 31.05200
H  44.95800 40.81600 30.92300
H  43.93500 40.68800 32.33300
H  44.71200 42.25400 31.79000
H  40.54300 42.05400 31.60800
H  40.11100 43.34200 30.54300
H  39.56900 43.92100 32.70500
H  40.50900 45.01100 32.08300
H  44.22500 37.50700 28.98400
H  45.51000 36.73900 28.04000
H  43.79400 36.43600 27.71100
H  44.58200 35.64100 25.64200
H  46.26000 36.16400 26.05100
H  45.93000 35.36100 24.51100
H  43.26800 41.18900 21.55200
H  44.12700 44.05100 21.45500
H  45.58200 40.79900 20.86500
H  46.20200 42.24600 21.67300
H  45.27700 42.28800 20.15000
H  42.40700 43.09800 19.85800
H  41.85800 44.37500 20.83000
H  41.20800 42.11200 22.36100
H  40.69300 41.69700 20.69800
H  40.12800 43.22700 21.55600
H  41.99800 47.80600 23.84300
H  41.46700 48.51900 25.47300
H  40.37200 47.77400 24.52600
H  40.11500 45.52900 29.68300
H  42.60300 48.18800 32.13700
H  41.90600 46.93700 32.97300
H  40.92600 48.41800 32.75300

