158

Mg -1.39800 17.26600 26.21900
C  -1.94300 15.11200 28.91800
C  -1.86000 20.01800 28.20600
C  -1.61600 19.20100 23.52700
C  -1.79200 14.33600 24.08100
N  -1.80800 17.47700 28.28300
C  -1.90700 16.46800 29.30400
C  -2.03900 17.10200 30.66300
C  -2.00700 18.58900 30.35500
C  -1.89600 18.74900 28.87200
C  -3.18300 19.33400 31.06100
C  -0.98600 16.53700 31.74100
C  -0.63500 17.43900 32.89100
H  -0.32100 16.77800 34.23900
N  -1.56600 19.31300 25.94200
C  -1.76700 20.27000 26.88100
C  -1.80400 21.54100 26.25600
C  -1.67700 21.36900 24.83300
C  -1.61600 19.89600 24.70000
C  -1.92600 22.85200 27.03200
C  -1.76700 22.41500 23.71300
O  -1.72600 22.11100 22.53300
C  -1.92900 23.90600 24.03300
N  -1.47400 16.80100 24.11500
C  -1.55600 17.84300 23.24600
C  -1.79200 17.27300 21.80400
C  -1.60200 15.73000 21.89400
C  -1.57100 15.58600 23.44300
C  -3.12200 17.78600 21.13900
C  -0.35000 15.15800 21.29500
C  1.07400 15.90300 21.62000
N  -1.76300 15.16200 26.36600
C  -1.82000 14.10800 25.47800
C  -1.87600 12.87300 26.16000
C  -1.97300 13.22700 27.49800
C  -1.90400 14.59800 27.59300
C  -1.92200 11.52200 25.47300
C  -2.08100 12.73000 28.83900
O  -2.17000 11.51600 29.16400
C  -2.16400 13.92100 29.81100
C  -1.08300 13.65900 30.82700
O  0.05800 14.01700 30.68800
O  -1.62700 12.91900 31.87700
C  -0.72200 12.50400 32.94700
H  -1.85700 20.86700 28.89400
H  -1.49900 19.67600 22.55100
H  -1.96800 13.48000 23.42700
H  -2.96100 16.69900 31.08200
H  -1.02500 18.92700 30.68600
H  -3.37500 18.80600 31.99500
H  -4.10200 19.44200 30.48400
H  -2.88400 20.31200 31.43700
H  -0.09200 16.10400 31.29200
H  -1.45900 15.72800 32.29900
H  -1.39900 18.20000 33.05100
H  0.24700 17.98100 32.54900
H  -0.92500 23.25700 27.18400
H  -2.35700 22.75300 28.02800
H  -2.51100 23.60100 26.49900
H  -2.97300 24.10700 24.27200
H  -1.94100 24.40900 23.06600
H  -1.26800 24.27800 24.81600
H  -0.97600 17.71300 21.23100
H  -2.42500 15.11700 21.52600
H  -3.65800 18.47500 21.79100
H  -3.90400 17.02900 21.08100
H  -2.95400 18.15900 20.12900
H  -0.50900 15.13400 20.21700
H  -0.32700 14.10000 21.55500
H  1.28200 16.54000 20.76000
H  1.81900 15.11100 21.69900
H  1.07700 16.54600 22.50000
H  -1.35100 10.85800 26.12200
H  -1.58900 11.43900 24.43900
H  -2.95700 11.18000 25.50600
H  -3.19100 13.88800 30.17300
H  -1.30800 12.48700 33.86600
H  0.15600 13.14600 33.02800
H  -0.43200 11.46900 32.76900
Mg -10.61300 16.87600 41.09300
C  -7.97600 14.55400 40.97700
C  -8.77700 18.95500 39.09600
C  -13.33000 18.62200 40.50000
C  -12.60400 14.23000 42.40600
N  -8.62000 16.76600 40.29200
C  -7.69400 15.78700 40.39500
C  -6.44900 16.16400 39.50100
C  -6.64000 17.63000 39.28600
C  -8.09200 17.85300 39.61900
C  -5.71700 18.52100 40.18400
C  -6.34900 15.42700 38.16600
C  -5.34600 14.22800 38.11800
H  -4.19500 14.09400 37.00300
N  -10.93500 18.62400 40.07100
C  -10.05200 19.35500 39.36800
C  -10.70500 20.54000 38.88800
C  -12.07900 20.47300 39.33500
C  -12.14800 19.20800 40.05000
C  -9.99100 21.67900 38.22000
C  -13.18600 21.63900 39.03600
O  -12.86100 22.62800 38.36700
C  -14.62600 21.46800 39.47900
N  -12.67300 16.52100 41.47300
C  -13.61000 17.43100 41.17600
C  -15.11600 16.93800 41.61900
C  -14.77100 15.56900 42.37500
C  -13.30200 15.39400 41.99400
C  -15.89700 17.93400 42.59900
C  -15.67700 14.40100 41.99200
C  -16.80100 13.92900 43.01500
N  -10.38900 14.87400 41.85300
C  -11.23100 13.91900 42.31400
C  -10.56600 12.76300 42.64600
C  -9.27400 12.98800 42.20100
C  -9.23600 14.30300 41.63300
C  -11.03900 11.52300 43.24000
C  -7.90500 12.41000 42.11000
O  -7.42900 11.30300 42.44800
C  -7.04300 13.35900 41.32600
C  -5.84000 13.74300 42.16500
O  -5.89300 13.91400 43.37800
O  -4.66000 13.94300 41.39700
C  -3.61400 14.71900 42.13000
H  -8.08700 19.63100 38.58600
H  -14.27600 19.08300 40.20800
H  -13.20300 13.48100 42.92800
H  -5.63900 15.84100 40.15600
H  -6.40500 17.87700 38.25100
H  -6.36300 19.02200 40.90400
H  -5.13600 19.18800 39.54600
H  -5.03200 17.93400 40.79600
H  -6.14000 16.05800 37.30200
H  -7.33200 15.02900 37.91900
H  -5.91200 13.29800 38.06400
H  -4.84700 14.17200 39.08500
H  -9.60400 21.36700 37.25100
H  -9.15600 21.97000 38.85700
H  -10.61100 22.57500 38.18300
H  -15.10200 22.44700 39.53000
H  -14.59500 21.13900 40.51700
H  -15.20800 20.85500 38.79100
H  -15.72100 16.85800 40.71600
H  -14.75900 15.65600 43.46100
H  -16.41700 17.32400 43.33800
H  -16.69300 18.35600 41.98500
H  -15.28200 18.76500 42.94400
H  -15.07900 13.53100 41.72000
H  -16.28500 14.64600 41.12200
H  -16.91400 14.59900 43.86700
H  -16.59900 12.89700 43.30000
H  -17.75800 13.89500 42.49300
H  -10.18000 10.97600 43.63000
H  -11.51000 10.91400 42.46800
H  -11.75700 11.88000 43.97800
H  -6.79800 12.70600 40.48900
H  -3.32000 14.21200 43.04900
H  -3.99000 15.74100 42.09200
H  -2.80600 14.66600 41.40000

