158

Mg 25.65000 -0.49800 29.40000
C  27.36800 -0.97200 32.36700
C  22.86800 0.19800 31.16800
C  23.85200 -0.52800 26.39100
C  28.44000 -1.60300 27.67600
N  25.17300 -0.53400 31.58500
C  26.06500 -0.60100 32.60500
C  25.43900 -0.32700 33.98700
C  24.02400 0.15600 33.57400
C  23.99500 -0.04500 32.01300
C  22.80800 -0.59100 34.19200
C  26.13200 0.78600 34.87200
C  26.96400 0.35200 36.08500
H  26.88500 1.20900 37.31800
N  23.62500 -0.26200 28.86700
C  22.63700 -0.01200 29.77900
C  21.36000 0.18900 29.10000
C  21.64000 0.08900 27.70500
C  23.08100 -0.28400 27.57800
C  19.97000 0.28800 29.86400
C  20.76700 0.17000 26.46700
O  21.19600 0.07200 25.32300
C  19.29800 0.51400 26.59300
N  25.96600 -1.23200 27.32400
C  25.15700 -1.01900 26.25600
C  25.90100 -1.17300 24.83600
C  27.42800 -1.15200 25.34700
C  27.31700 -1.26200 26.90000
C  25.47000 -2.55900 24.21300
C  28.29900 0.13100 25.07500
C  29.63100 -0.12800 24.29100
N  27.52600 -1.19800 29.90100
C  28.59800 -1.54800 29.07400
C  29.75300 -1.76200 29.84900
C  29.33900 -1.67100 31.17500
C  27.99300 -1.21800 31.11200
C  31.19800 -2.09800 29.43100
C  29.75700 -1.83700 32.55000
O  30.78900 -1.99700 33.13100
C  28.47300 -1.49700 33.40500
C  28.10600 -2.53200 34.44500
O  27.21400 -3.33800 34.26000
O  28.85700 -2.37300 35.58200
C  28.63500 -3.35500 36.67400
H  21.97100 0.64600 31.60000
H  23.36500 -0.33500 25.43200
H  29.36400 -1.71900 27.10600
H  25.27000 -1.28900 34.47100
H  23.84900 1.21800 33.74400
H  22.60100 -1.46600 33.57600
H  21.90700 0.01800 34.26700
H  22.98400 -1.00200 35.18600
H  25.37600 1.46400 35.26900
H  26.84900 1.38400 34.30900
H  27.99200 0.25800 35.73400
H  26.73400 -0.65400 36.43500
H  19.28200 0.99500 29.40100
H  20.17200 0.37100 30.93200
H  19.35000 -0.60200 29.76400
H  18.93900 0.47100 25.56400
H  19.13000 1.36500 27.25200
H  18.86700 -0.32000 27.14700
H  25.77500 -0.29600 24.20100
H  27.92200 -2.05100 24.97800
H  24.93200 -3.12200 24.97700
H  26.32400 -3.15100 23.88600
H  24.78700 -2.21500 23.43600
H  28.58100 0.57400 26.03000
H  27.66700 0.84800 24.55000
H  29.46800 -0.79100 23.44200
H  30.39400 -0.50200 24.97300
H  29.86400 0.90600 24.03800
H  31.30100 -3.12900 29.09300
H  31.81600 -1.92100 30.31100
H  31.47700 -1.48700 28.57300
H  28.85000 -0.61400 33.92200
H  28.90500 -4.27900 36.16400
H  27.63500 -3.38500 37.10800
H  29.27600 -3.16700 37.53600
Mg 52.88300 24.18100 45.45700
C  50.08800 26.33500 44.76600
C  51.14000 21.78200 43.88700
C  55.65600 22.53600 45.53400
C  54.52000 27.11200 46.58200
N  50.89300 24.22100 44.19700
C  49.97800 25.12900 44.04300
C  48.74400 24.51200 43.26800
C  48.89900 23.01100 43.52300
C  50.40700 22.98500 43.94800
C  48.12000 22.35000 44.60500
C  48.75400 24.93700 41.76200
C  47.30100 25.04200 41.16500
H  46.89700 23.87300 40.23400
N  53.34800 22.41000 44.76500
C  52.51500 21.50500 44.21200
C  53.22700 20.25900 44.09400
C  54.55900 20.51300 44.55400
C  54.58200 21.93700 44.98900
C  52.65900 19.04700 43.37100
C  55.72600 19.48200 44.52500
O  55.51600 18.33300 44.06500
C  57.15500 19.80900 44.87400
N  54.85200 24.79800 45.86400
C  55.78500 23.87600 45.98000
C  56.95300 24.39200 46.85400
C  56.73000 25.94900 46.73600
C  55.27400 25.94300 46.38500
C  57.04300 23.81700 48.31400
C  57.54300 26.63800 45.62300
C  58.49800 27.79300 45.98200
N  52.39200 26.28200 45.87400
C  53.16100 27.32700 46.37100
C  52.29400 28.50300 46.56500
C  51.09200 28.13300 45.94900
C  51.21700 26.76600 45.51600
C  52.74400 29.89900 47.13300
C  49.73500 28.57300 45.68200
O  49.20600 29.57900 46.08100
C  49.13700 27.58300 44.72300
C  49.04800 28.25800 43.44400
O  49.93600 28.49100 42.67800
O  47.66300 28.35100 43.25400
C  47.27100 28.84400 41.91900
H  50.55100 20.99100 43.41700
H  56.50300 21.90800 45.81800
H  55.14400 27.96000 46.87400
H  47.73400 24.77900 43.57800
H  48.70600 22.48100 42.59000
H  47.42500 23.05900 45.05600
H  48.81100 21.92100 45.33000
H  47.59700 21.47900 44.21000
H  49.28800 24.24800 41.10700
H  49.24600 25.90800 41.81100
H  47.38200 25.89200 40.48800
H  46.52000 25.17200 41.91400
H  52.96000 18.90200 42.33300
H  51.58900 19.25700 43.34500
H  52.77600 18.07000 43.84000
H  57.84200 19.07100 44.46100
H  57.06500 19.82500 45.96000
H  57.43000 20.75600 44.40900
H  57.88000 24.12000 46.34900
H  56.95400 26.31000 47.73900
H  56.43000 22.92100 48.42000
H  56.76800 24.61500 49.00400
H  58.10200 23.60900 48.46400
H  56.90300 27.06900 44.85300
H  58.00900 25.82600 45.06400
H  58.41900 27.92800 47.06000
H  58.31000 28.77100 45.53900
H  59.53700 27.50200 45.82800
H  52.06700 30.26000 47.90800
H  52.75400 30.59100 46.29000
H  53.75000 29.83100 47.54700
H  48.10600 27.28200 44.91100
H  47.07400 29.91400 41.99000
H  46.33600 28.35200 41.65000
H  48.00800 28.50200 41.19200

