158

Mg 17.44600 -0.81700 28.09100
C  16.44600 1.29000 30.83900
C  19.09800 -2.76600 30.10700
C  18.91100 -2.15400 25.24500
C  15.64700 1.48300 25.96700
N  17.85000 -0.63500 30.20600
C  17.29700 0.24300 31.19200
C  17.79600 -0.13900 32.55700
C  18.79400 -1.38600 32.26600
C  18.53800 -1.63700 30.77300
C  20.32000 -1.10200 32.49000
C  16.56700 -0.62700 33.51900
C  16.65700 -0.15800 35.01100
H  17.92600 0.52300 35.58700
N  18.70500 -2.34000 27.75000
C  19.20800 -3.08900 28.71300
C  19.96100 -4.20600 28.19400
C  19.87500 -4.03700 26.76400
C  19.12900 -2.80500 26.50300
C  20.60800 -5.29200 29.00000
C  20.38200 -4.92900 25.63700
O  20.13700 -4.72300 24.48400
C  21.08700 -6.22600 25.82300
N  17.21300 -0.52800 25.93500
C  18.05800 -1.05300 25.02600
C  17.81400 -0.42800 23.60000
C  16.75200 0.59100 23.88300
C  16.45200 0.47600 25.40100
C  19.19300 0.10600 22.90500
C  15.45100 0.47500 23.03900
C  15.18100 1.47200 21.89100
N  16.21600 1.00700 28.27400
C  15.53000 1.78500 27.33700
C  14.86600 2.89400 27.97600
C  15.14800 2.68500 29.42100
C  16.01900 1.58100 29.50900
C  14.16900 4.03300 27.45700
C  14.94400 3.21800 30.74000
O  14.32600 4.19400 31.22800
C  15.75100 2.32000 31.71600
C  16.72800 3.14000 32.48800
O  17.72100 3.61500 32.03700
O  16.17000 3.41600 33.75100
C  16.73900 4.44900 34.61100
H  19.60500 -3.40500 30.83200
H  19.49000 -2.48900 24.38200
H  15.13200 2.09700 25.22600
H  18.36300 0.66300 33.02900
H  18.57900 -2.25400 32.89000
H  20.92900 -1.13000 31.58700
H  20.72500 -1.69700 33.31000
H  20.47800 -0.08900 32.85900
H  16.66000 -1.71100 33.57000
H  15.62100 -0.30800 33.08100
H  16.41000 -1.00500 35.65100
H  15.84700 0.56000 35.14600
H  20.20500 -6.22400 28.60300
H  20.33300 -5.31400 30.05500
H  21.66600 -5.30600 28.74000
H  21.47800 -6.61600 24.88300
H  20.41300 -6.95700 26.27000
H  21.90700 -6.13800 26.53600
H  17.48300 -1.26100 22.97900
H  17.22800 1.55500 23.70300
H  20.08400 -0.03800 23.51700
H  19.04900 1.17900 22.77800
H  19.30600 -0.37600 21.93400
H  14.61100 0.62500 23.71800
H  15.35400 -0.55500 22.69600
H  16.11400 2.03000 21.81900
H  14.36700 2.18200 22.04200
H  15.17200 0.99700 20.91000
H  14.74500 4.48900 26.65200
H  14.08800 4.90500 28.10600
H  13.18300 3.71900 27.11600
H  15.17900 1.75800 32.45500
H  16.12900 4.45400 35.51500
H  16.85900 5.39100 34.07600
H  17.74900 4.14000 34.87700
Mg 35.40100 2.44100 30.31900
C  32.74000 3.17400 32.46800
C  37.62800 2.53600 32.90900
C  37.95500 1.97500 28.10300
C  33.19200 2.70600 27.64800
N  35.19900 2.75600 32.39500
C  33.96800 2.98700 33.10500
C  34.24900 3.10700 34.63700
C  35.77400 3.19300 34.68400
C  36.26600 2.74100 33.24200
C  36.37000 4.55800 35.20800
C  33.70300 1.92500 35.50200
C  33.16400 2.19000 36.91800
H  33.91600 3.23100 37.82500
N  37.49100 2.10300 30.53000
C  38.17900 2.20300 31.70500
C  39.52500 1.73400 31.42100
C  39.65400 1.40200 30.09200
C  38.37400 1.85800 29.48800
C  40.64100 1.58100 32.42900
C  40.74200 0.76000 29.29600
O  40.63400 0.61200 28.05700
C  41.97800 0.23100 29.86100
N  35.59200 2.59200 28.16400
C  36.72400 2.32600 27.54300
C  36.55300 2.28200 26.00500
C  34.96300 2.42600 25.87000
C  34.54400 2.61000 27.30700
C  37.40500 3.44000 25.34200
C  34.22900 1.19000 25.31600
C  32.92800 1.32200 24.44300
N  33.37800 2.78400 30.06400
C  32.58300 2.82600 28.85500
C  31.20300 3.05000 29.24200
C  31.21400 3.35400 30.62500
C  32.56500 3.12100 31.09500
C  30.16200 3.23600 28.28200
C  30.43600 3.78000 31.77400
O  29.27900 4.20700 31.89700
C  31.42700 3.62100 32.98500
C  31.63700 4.94300 33.64200
O  32.00400 6.03100 33.14200
O  31.48900 4.78000 34.95000
C  31.61300 5.94900 35.91100
H  38.21100 2.58800 33.83100
H  38.73900 1.74000 27.38000
H  32.51000 2.78300 26.79800
H  33.83600 4.01500 35.07700
H  36.28600 2.37500 35.19100
H  35.75000 5.15800 35.87400
H  36.50300 5.20200 34.33800
H  37.33400 4.34500 35.67000
H  34.48100 1.16200 35.51800
H  32.83100 1.54900 34.96600
H  33.35300 1.21700 37.37200
H  32.08400 2.33200 36.92300
H  41.55600 1.81200 31.88300
H  40.63300 0.53800 32.74500
H  40.68100 2.23600 33.30000
H  42.50500 -0.40400 29.14900
H  41.70700 -0.29500 30.77700
H  42.60800 1.09100 30.08600
H  36.90500 1.38700 25.49200
H  34.70100 3.24300 25.19700
H  36.82100 3.92400 24.55900
H  38.32400 3.09200 24.86900
H  37.67200 4.19600 26.08100
H  33.89800 0.61000 26.17700
H  34.91200 0.57400 24.73100
H  32.68500 2.33000 24.10700
H  32.05800 0.95000 24.98500
H  33.16300 0.72600 23.56200
H  30.44500 3.53500 27.27300
H  29.41200 3.93700 28.64900
H  29.69200 2.26300 28.14300
H  30.89200 3.03000 33.72800
H  30.93100 5.90500 36.76000
H  31.36500 6.88600 35.41200
H  32.64100 5.99700 36.27000

