158

Mg 1.03000 -2.01600 43.52100
C  4.39500 -1.29100 42.38900
C  0.00200 0.69000 41.39900
C  -2.14000 -2.99700 43.87500
C  2.27800 -5.18200 44.48000
N  2.15600 -0.57000 41.86200
C  3.51200 -0.36000 41.83000
C  3.78400 0.95700 41.08200
C  2.31500 1.65000 40.97500
C  1.43500 0.50600 41.37000
C  2.23300 3.02400 41.65300
C  4.40600 0.52700 39.71700
C  5.83000 1.09400 39.39300
H  6.04900 1.96100 38.16300
N  -0.79100 -1.14300 42.92800
C  -0.92800 -0.05600 42.19500
C  -2.36600 0.40600 42.29300
C  -3.06700 -0.71000 42.88900
C  -2.01300 -1.66500 43.27500
C  -2.86100 1.80400 41.86900
C  -4.49900 -0.72900 43.04500
O  -5.17300 0.25700 42.72700
C  -5.18800 -1.84800 43.70800
N  0.17200 -3.85900 44.14200
C  -1.19500 -4.02200 44.17400
C  -1.62100 -5.41100 44.65600
C  -0.16100 -6.01300 44.90900
C  0.87000 -4.97700 44.52100
C  -2.50000 -5.55100 45.88600
C  0.16100 -7.48500 44.39700
C  0.41600 -8.56700 45.52200
N  2.93200 -3.01600 43.58800
C  3.27000 -4.30500 44.04600
C  4.67500 -4.50400 43.90600
C  5.17000 -3.26900 43.43000
C  4.06500 -2.45600 43.11700
C  5.51800 -5.74400 44.21200
C  6.37200 -2.61400 43.06400
O  7.57200 -2.97300 43.04500
C  5.89800 -1.24700 42.38300
C  6.36200 -0.13200 43.29600
O  5.82200 0.18200 44.35100
O  7.48200 0.47600 42.76000
C  8.13900 1.43700 43.70200
H  -0.37900 1.62600 40.98400
H  -3.16100 -3.32500 44.08500
H  2.65900 -6.17100 44.74400
H  4.48000 1.59200 41.63000
H  2.10800 1.69700 39.90600
H  1.42800 3.12400 42.38100
H  1.92500 3.71800 40.87100
H  3.15900 3.30900 42.15300
H  3.69000 0.77000 38.93300
H  4.69700 -0.51600 39.58900
H  6.58000 0.30500 39.33200
H  6.08000 1.61300 40.31900
H  -3.87300 2.11200 42.13200
H  -2.74300 1.99200 40.80200
H  -2.18700 2.40400 42.48200
H  -6.22500 -1.60300 43.94100
H  -4.70100 -2.10700 44.64700
H  -5.14800 -2.75700 43.10700
H  -2.16000 -5.75500 43.77400
H  0.10400 -6.07400 45.96500
H  -3.44500 -5.94600 45.51400
H  -2.69100 -4.61900 46.41800
H  -1.99700 -6.24100 46.56300
H  1.00400 -7.51200 43.70700
H  -0.70200 -7.81900 43.82200
H  1.36500 -9.08500 45.38000
H  -0.37200 -9.32000 45.55500
H  0.44900 -8.00800 46.45700
H  6.15900 -5.74300 45.09200
H  6.10400 -5.92600 43.31100
H  4.91100 -6.64800 44.26600
H  6.34400 -1.16700 41.39100
H  7.49500 2.30900 43.82100
H  8.96300 1.92100 43.17900
H  8.55100 0.93100 44.57600
Mg 40.58400 8.67700 29.81400
C  42.19300 10.28400 32.48600
C  38.29100 7.34600 32.13200
C  39.15800 6.88600 27.47000
C  43.30100 9.46300 27.81000
N  40.29800 8.76600 32.08100
C  41.10000 9.54300 32.95100
C  40.50000 9.53600 34.40300
C  39.36200 8.47400 34.27900
C  39.35000 8.10500 32.74900
C  39.56900 7.24300 35.23200
C  39.97200 10.87200 34.88900
C  39.15800 10.82800 36.19500
H  39.59400 11.70000 37.31000
N  38.82800 7.40700 29.77400
C  38.03400 7.01000 30.82000
C  36.96200 6.20000 30.34200
C  37.18600 6.13800 28.93800
C  38.39900 6.82700 28.63800
C  35.89400 5.65800 31.24500
C  36.36000 5.44800 27.84800
O  36.55300 5.58200 26.66500
C  35.18100 4.62700 28.34700
N  41.11300 8.29800 27.85700
C  40.34600 7.51300 27.04300
C  41.02600 7.37700 25.62500
C  42.34200 8.27000 25.78800
C  42.27700 8.72700 27.24700
C  41.36200 5.89100 25.28100
C  42.42900 9.44700 24.77100
C  42.00900 10.93500 25.25300
N  42.32400 9.73200 29.98200
C  43.32900 9.97400 29.10900
C  44.29500 10.94100 29.67100
C  43.92500 11.03100 31.00000
C  42.73900 10.26200 31.11800
C  45.48100 11.52500 29.10700
C  44.24600 11.55800 32.33800
O  45.33200 11.97900 32.72000
C  43.09000 11.13500 33.31400
C  43.74300 10.30300 34.37200
O  44.25400 9.20100 34.23600
O  43.53400 10.94600 35.56000
C  43.74800 10.21400 36.80700
H  37.55900 6.93000 32.82700
H  38.73300 6.25600 26.68600
H  44.18500 9.62400 27.18900
H  41.19500 9.13200 35.13900
H  38.37200 8.90700 34.42100
H  40.40600 7.40500 35.91100
H  39.80600 6.43600 34.53800
H  38.68600 7.00100 35.82400
H  39.24800 11.22600 34.15600
H  40.79600 11.58200 34.95600
H  38.94200 9.83400 36.58700
H  38.15900 11.25400 36.11300
H  35.08900 6.38500 31.35200
H  36.35400 5.49600 32.22000
H  35.38800 4.72000 31.01900
H  35.62900 3.89700 29.02100
H  34.86100 4.23300 27.38200
H  34.34100 5.23300 28.68600
H  40.35300 7.74300 24.85000
H  43.14100 7.62900 25.41400
H  40.64700 5.51100 24.55100
H  41.25100 5.31100 26.19700
H  42.38400 5.68600 24.96300
H  41.83500 9.25800 23.87700
H  43.47200 9.55300 24.47300
H  41.16100 11.26100 24.65000
H  42.78200 11.69100 25.11600
H  41.62800 10.83800 26.27000
H  45.40700 11.52600 28.01900
H  46.34500 10.93000 29.40500
H  45.65000 12.52600 29.50200
H  42.57500 12.00100 33.72900
H  43.44900 9.17900 36.64100
H  43.00400 10.45700 37.56500
H  44.72200 10.29800 37.29000

