158

Mg 9.92400 46.89000 25.71100
C  7.18400 47.16200 28.13900
C  12.03100 48.12400 27.89400
C  12.14600 46.92700 23.17900
C  7.36700 46.42600 23.30700
N  9.64900 47.42500 27.86500
C  8.49000 47.41800 28.67200
C  8.89000 47.88800 30.10000
C  10.42600 48.29600 30.01000
C  10.71700 48.00500 28.51300
C  10.79900 49.77200 30.40500
C  8.60300 46.84900 31.33400
C  9.28400 46.88300 32.69500
H  8.38500 46.57600 33.88600
N  11.77300 47.32400 25.62700
C  12.52900 47.78600 26.64500
C  13.85300 47.83700 26.32600
C  13.97100 47.41800 24.95100
C  12.58300 47.26000 24.42700
C  15.00800 48.27200 27.20500
C  15.21000 47.13800 24.03800
O  15.07600 46.78600 22.87700
C  16.58500 47.15900 24.56400
N  9.75500 46.65500 23.52200
C  10.82200 46.69300 22.73900
C  10.48800 46.31800 21.24500
C  8.92100 46.22000 21.38800
C  8.65700 46.41200 22.84200
C  11.12400 47.26900 20.13900
C  8.38000 44.78200 20.83400
C  7.01800 44.91100 20.00000
N  7.71100 46.83100 25.72800
C  6.91800 46.58600 24.60900
C  5.54800 46.53900 25.08300
C  5.58800 46.78300 26.51400
C  6.92700 46.87000 26.79600
C  4.36700 46.44700 24.17700
C  4.77000 46.91700 27.72700
O  3.57300 46.75200 27.92100
C  5.78000 47.30300 28.75800
C  5.64600 46.34600 29.87300
O  5.88300 45.15300 29.80600
O  5.19500 47.00600 30.98900
C  4.72200 46.15800 32.07000
H  12.65200 48.47500 28.72100
H  12.90300 46.92500 22.39200
H  6.58400 46.46000 22.54700
H  8.30200 48.78900 30.27800
H  11.01200 47.56300 30.56500
H  9.90700 50.35900 30.62900
H  11.16900 50.33600 29.54800
H  11.41500 49.87300 31.29800
H  8.83000 45.85500 30.94800
H  7.52300 46.96100 31.43200
H  9.85900 47.78800 32.89400
H  9.95600 46.02600 32.73100
H  14.60500 48.77800 28.08100
H  15.53500 49.05500 26.65900
H  15.61400 47.49200 27.66800
H  16.55100 48.00200 25.25400
H  17.26300 47.41900 23.75100
H  16.87100 46.17700 24.94200
H  11.04700 45.38300 21.22100
H  8.53800 47.05500 20.80100
H  10.33000 47.94500 19.82300
H  11.38100 46.57400 19.33900
H  11.99100 47.81700 20.50900
H  8.23300 44.09200 21.66600
H  9.05400 44.31200 20.11800
H  6.94600 44.27100 19.12000
H  6.83900 45.92800 19.65200
H  6.25300 44.67900 20.74200
H  4.68600 45.89500 23.29300
H  3.88000 47.38100 23.89700
H  3.65700 45.86400 24.76400
H  5.67500 48.26600 29.25800
H  4.13800 46.78100 32.74800
H  5.43500 45.59100 32.66700
H  4.02700 45.48700 31.56500
Mg -11.22500 39.17300 41.69800
C  -9.41100 36.50700 40.83600
C  -8.96500 41.30600 40.01600
C  -13.40100 41.93900 41.88000
C  -13.72500 37.20000 42.98700
N  -9.42900 38.90500 40.48300
C  -8.82900 37.71600 40.28200
C  -7.53700 37.79000 39.46200
C  -7.41600 39.36900 39.26800
C  -8.64200 39.94100 40.05900
C  -6.06900 40.05500 39.48400
C  -7.47700 36.90400 38.15100
C  -6.21500 35.91800 38.02800
H  -5.04500 36.41800 37.23800
N  -11.12600 41.29500 41.22600
C  -10.04300 41.89700 40.62200
C  -10.28600 43.34100 40.61700
C  -11.54600 43.53500 41.27000
C  -12.10700 42.22500 41.47600
C  -9.37100 44.34900 40.05000
C  -12.20900 44.86300 41.50100
O  -11.66300 45.88300 40.96300
C  -13.43400 45.11400 42.46100
N  -13.43300 39.50600 42.14300
C  -13.97300 40.69900 42.23300
C  -15.49400 40.52000 42.67500
C  -15.50900 39.01300 43.10200
C  -14.15000 38.52300 42.70000
C  -15.97200 41.58300 43.68200
C  -16.69900 38.13000 42.53000
C  -17.99000 37.97800 43.32300
N  -11.51900 37.25600 41.80300
C  -12.49600 36.58400 42.54100
C  -12.18900 35.19000 42.66600
C  -10.95200 35.09500 41.98200
C  -10.61000 36.40000 41.50700
C  -12.98400 34.13800 43.32500
C  -9.91800 34.21600 41.71500
O  -9.77900 33.03000 42.04100
C  -8.82200 35.06700 40.86300
C  -7.50200 34.86200 41.61400
O  -6.75400 33.88000 41.48300
O  -7.18500 36.01100 42.23800
C  -5.87000 36.13500 42.89300
H  -8.15500 41.90700 39.59700
H  -14.08200 42.78200 41.74900
H  -14.34500 36.60000 43.65600
H  -6.77000 37.49400 40.17700
H  -7.71800 39.44200 38.22400
H  -5.49800 39.43200 38.79600
H  -5.65500 39.98600 40.49000
H  -6.22900 41.08900 39.17700
H  -7.32200 37.61900 37.34300
H  -8.31800 36.23000 37.99200
H  -6.52600 35.02600 37.48300
H  -5.96900 35.71400 39.07000
H  -8.39000 43.87600 40.00000
H  -9.33300 45.19400 40.73700
H  -9.63600 44.71200 39.05700
H  -13.48900 46.18100 42.67700
H  -13.15900 44.52600 43.33600
H  -14.34600 44.77600 41.96900
H  -16.04800 40.68000 41.75100
H  -15.49500 38.94700 44.19000
H  -15.09300 42.12500 44.03100
H  -16.53200 41.12700 44.49900
H  -16.66900 42.27300 43.20600
H  -16.44100 37.10600 42.25800
H  -16.95800 38.51200 41.54200
H  -18.82700 38.46700 42.82500
H  -17.72200 38.43600 44.27600
H  -18.22400 36.93700 43.54600
H  -12.44500 33.25000 42.99500
H  -14.01500 34.12800 42.96900
H  -12.97100 34.14400 44.41500
H  -8.67700 34.69300 39.85000
H  -5.67600 37.19200 43.07400
H  -5.13900 35.87200 42.12800
H  -5.88100 35.44800 43.73900

