158

Mg 1.86300 -1.75400 44.83900
C  5.15800 -0.80600 43.96900
C  0.78300 1.07400 43.07300
C  -1.38000 -2.91900 44.80800
C  3.06700 -4.77500 45.89300
N  2.85300 -0.23100 43.52300
C  4.24400 0.04600 43.47400
C  4.54000 1.40300 42.82200
C  3.09400 2.06900 42.86800
C  2.12700 0.90700 43.23400
C  2.86200 3.28200 43.76500
C  5.22600 1.31600 41.39900
C  6.32300 2.30900 41.05700
H  7.58200 1.81300 40.33500
N  -0.13400 -0.91700 44.30700
C  -0.27200 0.20400 43.45800
C  -1.67000 0.35900 43.24300
C  -2.39800 -0.70300 43.91900
C  -1.30400 -1.58900 44.37100
C  -2.23900 1.57400 42.41500
C  -3.90200 -0.92200 43.96700
O  -4.64600 -0.15900 43.35800
C  -4.45200 -2.07600 44.66300
N  0.93300 -3.55600 45.21800
C  -0.41900 -3.81800 45.23300
C  -0.64900 -5.23100 45.81200
C  0.80900 -5.75800 46.14900
C  1.66200 -4.58300 45.75000
C  -1.57100 -5.39500 46.99500
C  1.24200 -7.03200 45.32300
C  1.73900 -8.23000 46.05000
N  3.77400 -2.63800 45.06200
C  4.09100 -3.83200 45.54000
C  5.52400 -4.01500 45.50800
C  5.97600 -2.82200 44.89900
C  4.83400 -2.01600 44.59300
C  6.29200 -5.08800 46.21300
C  7.23700 -2.08500 44.59400
O  8.42200 -2.36800 44.72200
C  6.73300 -0.78100 43.89400
C  7.35600 0.38400 44.51200
O  7.00800 0.93800 45.58100
O  8.33600 0.88900 43.69900
C  8.94200 2.16500 44.14800
H  0.33700 1.95900 42.61400
H  -2.40600 -3.29100 44.86500
H  3.43300 -5.72900 46.27900
H  5.26500 1.88900 43.47600
H  2.80400 2.46500 41.89500
H  2.66400 4.24600 43.29700
H  3.79500 3.39000 44.31700
H  2.10800 3.19800 44.54800
H  4.49100 1.54800 40.62800
H  5.44700 0.26700 41.20600
H  6.59900 2.88400 41.94200
H  5.95100 3.11700 40.42700
H  -2.25400 1.48700 41.32800
H  -1.67100 2.46400 42.68100
H  -3.28200 1.80600 42.63200
H  -4.26700 -3.02200 44.15400
H  -5.49800 -1.94400 44.93600
H  -4.03600 -1.96200 45.66400
H  -1.02700 -5.88300 45.02400
H  0.96100 -5.82400 47.22600
H  -2.28500 -6.18500 46.76300
H  -2.15800 -4.48500 47.12200
H  -1.09600 -5.66600 47.93700
H  1.96800 -6.79600 44.54500
H  0.46000 -7.48500 44.71400
H  1.47100 -8.26300 47.10600
H  2.82500 -8.30500 46.00500
H  1.26400 -9.14800 45.70300
H  6.18500 -4.86800 47.27600
H  7.35200 -5.04400 45.96500
H  5.85100 -6.07300 46.06300
H  7.12100 -0.81100 42.87500
H  8.11900 2.80100 44.47400
H  9.50600 2.56000 43.30200
H  9.64100 1.97300 44.96100
Mg 16.51600 51.90700 26.43900
C  18.59700 50.53800 29.10800
C  14.32000 52.98200 28.92100
C  14.40300 52.92000 24.08200
C  18.62600 50.48300 24.19700
N  16.38500 51.58600 28.75700
C  17.43700 51.22700 29.58600
C  17.10300 51.59200 31.07300
C  15.63800 52.09700 30.98600
C  15.43600 52.29000 29.48700
C  14.64700 51.17300 31.56700
C  18.13700 52.63000 31.59700
C  18.59000 52.43700 33.08900
H  17.75100 51.63700 34.12600
N  14.62700 52.92200 26.47800
C  13.91400 53.25100 27.57100
C  12.66700 53.99900 27.09300
C  12.78300 54.09100 25.66700
C  13.94000 53.28500 25.34400
C  11.63300 54.48600 28.05300
C  11.87300 54.73300 24.63300
O  12.08700 54.73700 23.38000
C  10.72900 55.54100 25.10800
N  16.51800 51.81100 24.41200
C  15.48100 52.24300 23.61800
C  15.71500 51.86300 22.09300
C  17.07400 51.10700 22.18400
C  17.50900 51.17800 23.70100
C  14.52000 51.10100 21.44200
C  18.12700 51.68800 21.11000
C  19.02600 52.88100 21.52300
N  18.22600 50.69900 26.55000
C  18.99000 50.22400 25.51500
C  20.15600 49.62000 26.08400
C  20.08000 49.65300 27.49200
C  18.85800 50.31900 27.72600
C  21.35200 48.96600 25.39400
C  20.65800 49.25200 28.77200
O  21.62600 48.56700 28.99200
C  19.71300 49.80400 29.90600
C  19.24500 48.74500 30.82900
O  18.51000 47.84300 30.47400
O  19.78500 48.92000 32.04500
C  19.45900 47.93400 33.05000
H  13.64800 53.33000 29.70800
H  13.65800 53.09300 23.30200
H  19.32900 50.11500 23.44700
H  17.14700 50.74100 31.75300
H  15.50800 52.97100 31.62300
H  14.24100 51.68600 32.43900
H  15.12200 50.24700 31.89300
H  13.81200 50.91300 30.91700
H  17.76800 53.64200 31.43500
H  18.95600 52.59800 30.87800
H  18.95300 53.37700 33.50400
H  19.53400 51.90400 32.97500
H  10.61600 54.31500 27.70200
H  11.82400 55.55100 28.18100
H  11.71000 54.06300 29.05500
H  10.08100 54.68800 25.31300
H  10.36900 56.16000 24.28600
H  11.08800 56.12300 25.95700
H  15.88200 52.80400 21.56900
H  16.86800 50.08300 21.87200
H  14.90400 50.33600 20.76800
H  13.81400 51.70100 20.86700
H  13.90200 50.56900 22.16500
H  17.46000 52.02200 20.31600
H  18.79000 50.86400 20.84900
H  20.05300 52.70200 21.20300
H  18.98400 53.02300 22.60300
H  18.71000 53.73900 20.93000
H  21.13300 47.97100 25.00600
H  22.18700 49.00600 26.09400
H  21.58600 49.53700 24.49600
H  20.30900 50.51400 30.47900
H  19.97000 46.99400 32.84200
H  18.38200 47.80100 33.15500
H  19.88800 48.35300 33.96000

