158

Mg 8.86100 3.81000 28.48000
C  10.30900 2.10700 31.24600
C  7.37600 5.88000 30.44800
C  7.55900 5.18600 25.63000
C  9.92300 0.88300 26.48300
N  8.92000 3.96000 30.64200
C  9.57800 3.26200 31.57800
C  9.22500 3.84700 32.96400
C  8.30700 5.09000 32.59700
C  8.22500 4.97600 31.10000
C  6.93700 5.09000 33.34900
C  10.47900 4.16500 33.84800
C  10.37800 5.42000 34.89700
H  10.94500 5.21100 36.26300
N  7.67900 5.38500 28.08200
C  7.05900 6.09900 29.10700
C  6.42500 7.18800 28.47600
C  6.41100 6.99200 27.06100
C  7.27900 5.83300 26.86600
C  5.81700 8.38200 29.27800
C  5.66500 7.76100 25.96900
O  5.75600 7.51900 24.75100
C  4.77200 8.87500 26.29200
N  8.77700 3.07900 26.35300
C  8.22200 3.86000 25.40300
C  8.05500 3.05700 24.10700
C  9.00000 1.78800 24.37600
C  9.26400 1.92500 25.86300
C  6.65200 2.61300 23.61700
C  10.30100 1.67600 23.44700
C  10.61200 0.37200 22.66800
N  9.98200 2.00200 28.72200
C  10.36500 0.95900 27.85900
C  11.16800 0.00400 28.52800
C  11.31000 0.45300 29.81700
C  10.53900 1.66100 29.92300
C  11.83600 -1.21500 27.90300
C  11.86100 0.20200 31.16000
O  12.66500 -0.61500 31.61400
C  11.14000 1.20800 32.11900
C  10.27700 0.32400 32.96500
O  9.38100 -0.37400 32.53200
O  10.53900 0.40000 34.27900
C  9.61500 -0.22700 35.21400
H  6.93300 6.62800 31.10900
H  7.23200 5.67200 24.70800
H  10.07900 -0.01700 25.88500
H  8.62200 3.04700 33.39300
H  8.81700 6.03700 32.77100
H  6.02900 4.94300 32.76400
H  6.73700 6.03300 33.85700
H  6.87700 4.40100 34.19100
H  11.38200 4.36900 33.27100
H  10.76000 3.25900 34.38500
H  9.32400 5.69400 34.93000
H  10.97900 6.23200 34.48800
H  4.75400 8.18900 29.42400
H  5.95500 9.34600 28.78800
H  6.03400 8.47700 30.34200
H  4.33500 8.86700 27.29000
H  3.98800 8.75800 25.54300
H  5.33600 9.79200 26.12300
H  8.54200 3.62700 23.31600
H  8.43000 0.86800 24.24900
H  6.00700 3.32600 24.13100
H  6.38000 1.64600 24.04000
H  6.81400 2.85100 22.56600
H  11.20200 1.88000 24.02600
H  10.40000 2.46000 22.69500
H  9.91800 -0.36400 23.07400
H  11.61400 0.06100 22.96400
H  10.51300 0.58000 21.60300
H  11.23900 -1.59200 27.07200
H  11.89500 -1.94700 28.70900
H  12.84700 -0.90100 27.64400
H  11.80900 1.84500 32.69700
H  9.55400 0.29500 36.16900
H  9.91700 -1.22200 35.54000
H  8.56900 -0.22700 34.91000
Mg 41.86700 7.92200 29.48300
C  43.74600 9.46400 31.86600
C  39.61800 6.76100 31.83600
C  40.42800 6.12500 27.05600
C  44.46300 8.87000 27.12100
N  41.63700 8.27500 31.51500
C  42.50800 8.90300 32.29700
C  42.08300 8.91000 33.79300
C  40.95800 7.87800 33.82300
C  40.64800 7.61000 32.31400
C  40.98900 6.62400 34.76200
C  41.71400 10.39600 34.33100
C  41.00600 10.37800 35.67400
H  41.24400 11.46200 36.78300
N  40.14600 6.80000 29.35900
C  39.39400 6.44600 30.48500
C  38.30400 5.65900 30.01200
C  38.43200 5.51600 28.60900
C  39.73800 6.06800 28.27600
C  37.20900 5.06200 30.95600
C  37.50500 4.85100 27.54300
O  37.83700 4.76100 26.40400
C  36.16700 4.43100 27.91600
N  42.46000 7.50200 27.42400
C  41.55900 6.83000 26.60300
C  41.91000 6.89100 25.13200
C  43.04200 7.95100 25.14200
C  43.36500 8.16600 26.65400
C  42.20900 5.56900 24.31500
C  42.74700 9.23100 24.38000
C  41.78400 10.24500 25.05400
N  43.69400 8.90600 29.45700
C  44.63100 9.13800 28.45900
C  45.76800 9.84900 29.00600
C  45.45500 10.01800 30.35400
C  44.23300 9.38900 30.56700
C  46.88900 10.45000 28.23600
C  45.94700 10.59000 31.60700
O  47.03100 11.11900 31.94200
C  44.75100 10.29800 32.67100
C  45.34900 9.69700 33.85900
O  45.98100 8.63300 33.87500
O  44.99500 10.46200 34.87100
C  45.61600 10.24000 36.13800
H  38.86300 6.43800 32.55500
H  40.03800 5.43300 26.30700
H  45.04000 9.37500 26.34300
H  42.84000 8.43100 34.41400
H  40.02800 8.33500 34.16000
H  40.85800 5.69500 34.20700
H  40.05800 6.68000 35.32600
H  41.84200 6.48300 35.42600
H  41.10200 10.75300 33.50200
H  42.60500 11.00500 34.48300
H  41.07500 9.40300 36.15600
H  39.93100 10.46600 35.51800
H  36.19400 5.38200 30.72200
H  37.38600 5.47200 31.95000
H  37.35100 3.98400 31.03900
H  35.67700 4.01400 27.03600
H  35.52600 5.27300 28.17800
H  36.24300 3.83300 28.82300
H  40.99600 7.27700 24.68100
H  43.84300 7.40200 24.64800
H  43.08500 5.57500 23.66700
H  41.32400 5.45900 23.68900
H  42.34500 4.79000 25.06500
H  42.27200 8.95300 23.44000
H  43.61100 9.84500 24.12500
H  41.05300 10.57200 24.31400
H  42.38300 11.11600 25.32100
H  41.11900 9.76200 25.77000
H  47.37100 9.58800 27.77500
H  47.52100 10.86700 29.02000
H  46.43700 11.12700 27.51100
H  44.17500 11.13800 33.05700
H  44.92400 9.62200 36.70900
H  45.96900 11.19000 36.54000
H  46.53800 9.67100 36.01600

