158

Mg 47.50800 16.49200 28.87800
C  45.62300 16.03600 31.66700
C  49.62500 18.43000 30.74300
C  49.47000 16.95200 26.12700
C  44.96300 15.23900 26.92600
N  47.55100 17.22100 30.91600
C  46.68400 16.89700 31.87800
C  47.27700 17.25800 33.25900
C  48.34000 18.30600 32.90300
C  48.43700 18.05800 31.41000
C  47.92600 19.75300 33.23500
C  47.93900 15.99100 33.95100
C  48.06400 16.00800 35.54600
H  47.83600 17.32000 36.33500
N  49.35100 17.41300 28.52100
C  50.09500 18.00500 29.48600
C  51.32000 18.48700 28.87800
C  51.38800 17.93900 27.59100
C  50.05600 17.39100 27.33800
C  52.32600 19.34400 29.69300
C  52.52500 17.80300 26.65000
O  52.48700 17.16500 25.58900
C  53.89300 18.30500 27.07600
N  47.19300 16.36600 26.72600
C  48.21100 16.38100 25.84000
C  47.64700 16.03100 24.34800
C  46.26100 15.35200 24.68800
C  46.06900 15.70000 26.18200
C  47.62500 17.22500 23.35300
C  46.10900 13.82900 24.45900
C  45.05700 13.40000 23.43500
N  45.67400 15.72200 29.15100
C  44.77500 15.19700 28.30500
C  43.68200 14.61200 29.01300
C  43.95600 14.88400 30.37200
C  45.22800 15.53300 30.39700
C  42.60900 13.90700 28.33900
C  43.52000 14.67300 31.73200
O  42.45600 14.18700 32.17100
C  44.64800 15.40000 32.63700
C  43.99800 16.35600 33.54300
O  43.26900 17.23700 33.13500
O  44.18600 16.08300 34.84500
C  43.75300 17.14000 35.80700
H  50.21500 19.08200 31.39100
H  50.12100 16.91500 25.25100
H  44.21200 14.71500 26.33100
H  46.42900 17.71300 33.77000
H  49.27900 18.02900 33.38300
H  48.69500 20.09600 33.92700
H  46.98800 19.77500 33.79100
H  47.95300 20.36600 32.33400
H  48.87900 15.68300 33.49300
H  47.25200 15.16200 33.77700
H  49.08600 15.65100 35.66800
H  47.38100 15.24600 35.92200
H  52.63600 20.14300 29.01900
H  53.19400 18.75600 29.99100
H  51.97900 19.82500 30.60800
H  53.95600 19.39300 27.07900
H  54.66400 17.93000 26.40200
H  54.21200 18.13200 28.10400
H  48.34000 15.30400 23.92200
H  45.56100 15.96200 24.11700
H  48.32800 17.05000 22.53900
H  47.86700 18.14400 23.88700
H  46.64000 17.40200 22.92100
H  45.96700 13.29800 25.40000
H  47.05900 13.40400 24.13700
H  45.11100 14.17200 22.66700
H  44.04000 13.26800 23.80300
H  45.31600 12.41100 23.05800
H  42.00200 13.42100 29.10300
H  43.04600 13.13900 27.70100
H  41.96000 14.56600 27.76100
H  44.98700 14.54600 33.22200
H  42.66900 17.23300 35.75400
H  44.09700 18.10100 35.42600
H  44.22500 16.89500 36.75900
Mg 49.23400 46.06400 43.94100
C  45.59900 46.34100 43.29000
C  49.18600 43.04700 42.46300
C  52.58500 46.16300 44.10300
C  49.10100 49.54600 44.59400
N  47.57500 44.89200 42.68900
C  46.20800 45.11900 42.75600
C  45.41500 43.96100 42.14000
C  46.54300 42.86400 42.14100
C  47.87500 43.61300 42.43900
C  46.27000 41.52600 42.96200
C  44.83600 44.44100 40.75600
C  43.59300 43.61500 40.33500
H  43.44800 42.69600 39.08800
N  50.67600 44.75900 43.38400
C  50.41100 43.58800 42.83300
C  51.65400 42.84300 42.72500
C  52.70000 43.62600 43.32900
C  52.00100 44.90500 43.68900
C  51.77100 41.43600 42.25600
C  54.15700 43.21400 43.48800
O  54.48800 42.23300 42.83500
C  55.17900 44.02100 44.24200
N  50.67400 47.64800 44.19000
C  51.97900 47.36600 44.33900
C  52.68100 48.55900 45.07200
C  51.64700 49.65700 44.94500
C  50.37900 48.88400 44.57200
C  53.17100 48.30300 46.50400
C  52.01900 50.79700 43.85700
C  52.01700 52.17100 44.38900
N  47.69400 47.62400 44.00400
C  47.80500 48.97600 44.37300
C  46.45400 49.58700 44.33000
C  45.57400 48.57100 44.00700
C  46.40900 47.40300 43.76100
C  46.11300 51.01600 44.53600
C  44.14200 48.21500 43.75400
O  43.08300 48.85900 43.75000
C  44.20300 46.77200 43.21200
C  43.27700 45.85600 43.97700
O  43.43300 45.38300 45.08500
O  42.21500 45.68000 43.18800
C  41.19900 44.78300 43.77500
H  49.26600 41.97400 42.27300
H  53.65600 46.30300 44.26400
H  48.98400 50.56500 44.97000
H  44.61700 43.67200 42.82400
H  46.80800 42.51000 41.14500
H  47.15600 41.53100 43.59700
H  46.32200 40.72000 42.23000
H  45.32300 41.49100 43.50000
H  45.70400 44.30600 40.11000
H  44.53400 45.47600 40.92100
H  42.75000 44.29000 40.19200
H  43.22900 43.04500 41.19000
H  52.65000 41.10900 41.70000
H  50.98800 41.34000 41.50500
H  51.61800 40.59700 42.93400
H  54.85500 44.39000 45.21500
H  55.42400 44.85900 43.59000
H  56.04100 43.37200 44.39800
H  53.54100 48.82500 44.45800
H  51.60100 50.10100 45.93900
H  53.13900 47.24600 46.76700
H  52.52000 48.77700 47.23900
H  54.23200 48.54900 46.53800
H  51.26300 50.77800 43.07200
H  53.00800 50.58000 43.45600
H  51.52300 52.80200 43.64900
H  53.02800 52.55400 44.52200
H  51.59100 52.30400 45.38300
H  46.36700 51.30300 45.55700
H  45.08800 51.34300 44.35600
H  46.75600 51.57500 43.85700
H  43.71700 46.90100 42.24500
H  40.40400 44.67100 43.03800
H  40.81400 45.27000 44.67100
H  41.62300 43.83400 44.10600

