158

Mg 7.54200 3.04500 26.96600
C  8.68300 1.53800 29.83400
C  5.44000 4.86800 28.92900
C  6.58900 4.67100 24.21300
C  9.03900 0.53500 25.09300
N  7.12800 3.23200 29.19000
C  7.81100 2.59100 30.12700
C  7.45100 3.01900 31.48600
C  6.19000 3.95200 31.18400
C  6.22900 4.04700 29.65100
C  4.86400 3.36600 31.81100
C  8.53400 3.69800 32.24500
C  8.40400 3.78300 33.74400
H  9.65500 3.93500 34.68500
N  6.19100 4.52700 26.62200
C  5.45200 5.25600 27.55900
C  4.73400 6.26000 26.92100
C  5.05700 6.24600 25.52500
C  6.05500 5.16600 25.39600
C  3.95400 7.28900 27.65100
C  4.57600 7.15300 24.34300
O  4.92200 7.05500 23.17300
C  3.68600 8.28200 24.64700
N  7.73400 2.56300 24.92900
C  7.39700 3.48700 24.00900
C  7.60200 2.89600 22.58300
C  8.27600 1.46000 22.83500
C  8.38000 1.44800 24.35900
C  6.25000 3.05200 21.74100
C  9.51000 1.16400 21.92300
C  9.27100 -0.17100 21.17300
N  8.56100 1.38300 27.33900
C  9.15500 0.48900 26.49600
C  10.03600 -0.38800 27.26800
C  9.75800 -0.07100 28.61500
C  8.92000 0.97500 28.57600
C  10.92500 -1.41800 26.75500
C  10.17800 -0.35700 29.95400
O  10.89500 -1.24000 30.38600
C  9.59200 0.71900 30.79100
C  8.84700 0.10900 31.98500
O  7.78000 -0.47000 31.92500
O  9.66100 0.12300 33.09100
C  9.10700 -0.49500 34.37200
H  4.72100 5.41500 29.54300
H  6.28300 5.09900 23.25600
H  9.54700 -0.22400 24.49300
H  7.07600 2.24700 32.15800
H  6.27800 4.95900 31.59300
H  4.01900 3.48400 31.13200
H  4.79700 3.95200 32.72800
H  4.81100 2.28600 31.94400
H  8.56100 4.75000 31.96000
H  9.56000 3.50200 31.93600
H  7.99600 2.81000 34.01700
H  7.68600 4.56600 33.98700
H  3.51400 7.04400 28.61800
H  3.08800 7.44300 27.00700
H  4.34800 8.30500 27.66100
H  3.44700 8.76700 23.70000
H  4.17900 8.95500 25.34800
H  2.69500 7.93600 24.94100
H  8.27000 3.50200 21.97100
H  7.48200 0.78100 22.52500
H  5.34500 3.26100 22.31200
H  6.13400 2.02800 21.38700
H  6.43700 3.79400 20.96500
H  10.47500 1.05500 22.41800
H  9.52100 1.86900 21.09100
H  9.22000 -0.04000 20.09200
H  8.40800 -0.74000 21.52000
H  10.12900 -0.83300 21.29600
H  11.34500 -1.14400 25.78800
H  10.48900 -2.40800 26.61500
H  11.80700 -1.30400 27.38500
H  10.37800 1.28200 31.29400
H  8.43400 0.13400 34.95500
H  9.90700 -0.76500 35.06100
H  8.65800 -1.43400 34.04800
Mg 29.50600 58.50100 39.12700
C  26.86200 56.43500 38.33600
C  31.67600 56.00100 38.24400
C  32.11300 60.80900 39.14700
C  27.22200 61.10900 39.70600
N  29.24700 56.54000 38.12800
C  28.08300 55.90700 38.00200
C  28.30300 54.48300 37.46300
C  29.82600 54.29600 37.78700
C  30.29600 55.68900 38.09500
C  30.22200 53.18400 38.89800
C  27.93300 54.12900 36.00300
C  28.54400 55.08400 34.93900
H  27.69900 55.66700 33.87000
N  31.54300 58.44100 38.75400
C  32.29700 57.26900 38.51000
C  33.73200 57.55300 38.41200
C  33.85700 58.97800 38.63300
C  32.44600 59.47700 38.88500
C  34.74900 56.39900 38.21000
C  35.18300 59.66500 38.67000
O  36.25900 59.06500 38.43700
C  35.25700 61.19700 39.00400
N  29.61500 60.68800 39.31000
C  30.81500 61.39500 39.34300
C  30.54300 62.89600 39.50600
C  29.00000 62.97200 39.73000
C  28.57000 61.52700 39.55500
C  31.42400 63.59600 40.63600
C  28.25900 64.14300 38.93400
C  26.96100 64.65300 39.52700
N  27.50000 58.66900 39.31600
C  26.68200 59.79300 39.52300
C  25.33600 59.47700 39.36500
C  25.39100 58.14900 38.97500
C  26.68500 57.68200 38.93500
C  24.15300 60.32700 39.70200
C  24.57000 57.04600 38.53100
O  23.33300 56.99000 38.40500
C  25.47900 55.83800 38.03800
C  25.16900 54.60900 38.87400
O  25.82100 54.29400 39.85000
O  24.13200 53.93400 38.36000
C  23.60600 52.86000 39.23100
H  32.31300 55.13400 38.05500
H  32.86000 61.58500 38.96900
H  26.57000 61.94000 39.98300
H  27.73900 53.77400 38.06900
H  30.31200 54.09800 36.83100
H  29.36100 52.81000 39.45200
H  30.99900 53.65300 39.50100
H  30.55900 52.21700 38.52500
H  26.85200 54.23300 35.91300
H  28.19600 53.10800 35.72600
H  29.31800 54.43500 34.53000
H  29.07900 55.94300 35.34400
H  34.25500 55.47000 37.92400
H  35.30400 56.15500 39.11600
H  35.51100 56.68500 37.48500
H  36.30300 61.49800 39.06000
H  34.71500 61.44600 39.91700
H  34.77000 61.57800 38.10600
H  30.86100 63.40900 38.59900
H  28.89700 63.21800 40.78700
H  30.84400 64.09000 41.41600
H  32.09400 64.39600 40.32100
H  32.07900 62.95600 41.22600
H  27.80500 63.83600 37.99100
H  29.03700 64.77200 38.50100
H  27.15800 65.72400 39.57200
H  26.67600 64.24000 40.49500
H  26.06700 64.57900 38.90800
H  24.31400 60.87900 40.62800
H  23.27400 59.69600 39.83700
H  24.01200 61.07500 38.92100
H  25.30700 55.66700 36.97600
H  24.45800 52.28100 39.58800
H  23.01700 52.17100 38.62600
H  23.01600 53.17600 40.09100

