158

Mg 35.73000 2.15300 30.13600
C  33.18800 3.51000 32.19200
C  37.84800 2.00500 32.81700
C  38.26700 1.49300 28.04100
C  33.55500 2.62100 27.37600
N  35.59000 2.85400 32.27500
C  34.44000 3.28800 32.95500
C  34.70400 3.28500 34.38900
C  36.30500 3.19400 34.52900
C  36.62200 2.60400 33.13900
C  37.02400 4.56700 34.75100
C  33.98100 2.13600 35.08600
C  33.39900 2.38300 36.54900
H  33.99600 3.59000 37.39500
N  37.69700 1.59900 30.43100
C  38.34600 1.53800 31.63100
C  39.62500 1.02400 31.41200
C  39.89300 0.97100 30.01500
C  38.62400 1.39000 29.43800
C  40.55700 0.70600 32.52300
C  41.14700 0.56400 29.22300
O  41.25500 0.77700 27.98800
C  42.22600 -0.13700 29.96700
N  35.94100 2.19100 28.01300
C  37.07100 1.85200 27.40600
C  36.79800 1.68800 25.85600
C  35.31000 2.08400 25.70900
C  34.87300 2.24100 27.16600
C  37.77800 2.48000 24.96000
C  34.37600 1.06600 24.83000
C  33.67000 -0.08600 25.47300
N  33.76000 2.95800 29.78500
C  33.02500 2.97000 28.59200
C  31.65300 3.35100 28.90700
C  31.64200 3.57600 30.35300
C  32.91700 3.32800 30.80300
C  30.54600 3.44200 27.95600
C  30.82200 3.96700 31.52100
O  29.60800 4.26000 31.62500
C  31.82800 3.81700 32.78100
C  31.86200 5.10000 33.48100
O  32.07700 6.17400 32.99700
O  31.64700 4.92700 34.83100
C  31.71200 6.08300 35.68000
H  38.47000 1.79800 33.69100
H  39.09300 1.27500 27.36100
H  32.83900 2.42000 26.57600
H  34.36300 4.26800 34.71500
H  36.71800 2.49300 35.25400
H  37.67600 4.68100 33.88500
H  37.68700 4.49700 35.61300
H  36.32200 5.38000 34.93700
H  34.58700 1.26300 35.33000
H  33.13300 1.81100 34.48500
H  33.57100 1.47800 37.13300
H  32.33700 2.57700 36.40000
H  41.33200 1.47100 32.48800
H  41.00700 -0.28600 32.48800
H  39.99900 0.64100 33.45800
H  42.91100 -0.37100 29.15200
H  41.91200 -1.03300 30.50200
H  42.57700 0.69400 30.58000
H  36.87100 0.63300 25.59300
H  35.18400 3.08500 25.29900
H  38.36700 3.16900 25.56600
H  37.25200 3.12200 24.25300
H  38.42700 1.87800 24.32500
H  35.06400 0.56200 24.15000
H  33.62200 1.64400 24.29700
H  33.81100 -0.92900 24.79600
H  32.58300 -0.08500 25.55300
H  34.19600 -0.30500 26.40300
H  30.79200 3.40700 26.89500
H  29.95200 4.34400 28.10800
H  29.74200 2.74100 28.17900
H  31.44200 2.94800 33.31300
H  30.90200 6.75100 35.39000
H  32.68500 6.53700 35.49000
H  31.61400 5.79500 36.72700
Mg 41.42100 8.65200 29.73900
C  43.06700 9.49400 32.73500
C  39.22100 6.70100 31.70400
C  39.88200 7.57200 26.89700
C  43.96000 9.93700 27.89300
N  41.30600 8.09400 31.93300
C  41.92400 8.70800 32.97700
C  41.36600 8.35800 34.35600
C  40.26400 7.20000 34.00000
C  40.25700 7.31300 32.42200
C  40.65100 5.74900 34.45800
C  40.90800 9.63100 35.10300
C  41.22100 9.77300 36.58100
H  41.48500 11.10800 37.20400
N  39.73900 7.40000 29.35500
C  38.96600 6.73400 30.32500
C  37.80500 6.15900 29.68800
C  37.91200 6.46300 28.28000
C  39.22800 7.13600 28.09800
C  36.70200 5.32500 30.38000
C  37.01100 6.17600 27.19000
O  37.30700 6.38500 26.06100
C  35.62800 5.61300 27.50900
N  41.83300 8.77700 27.77400
C  41.05800 8.33200 26.80000
C  41.68600 8.59900 25.49300
C  42.86500 9.51000 25.74800
C  42.85900 9.45400 27.25200
C  42.08700 7.26300 24.79800
C  42.60500 10.94800 25.31900
C  41.32400 11.67600 25.65600
N  43.15300 9.53800 30.15100
C  44.17400 9.96400 29.29000
C  45.23200 10.50700 30.01400
C  44.80900 10.45200 31.34500
C  43.63600 9.76800 31.38700
C  46.54700 11.01700 29.52000
C  45.07800 10.88400 32.75600
O  46.06400 11.45200 33.23300
C  43.87200 10.29900 33.60200
C  44.52300 9.61300 34.78000
O  45.01900 8.51700 34.73300
O  44.58500 10.41500 35.94900
C  45.50000 10.02800 37.04500
H  38.48000 6.12000 32.25700
H  39.42100 7.28000 25.95100
H  44.67500 10.53000 27.31900
H  42.19400 7.93600 34.92500
H  39.25300 7.37100 34.36800
H  41.64100 5.63900 34.90000
H  40.73300 4.94700 33.72400
H  39.89900 5.26500 35.08200
H  39.81900 9.60700 35.06700
H  41.17800 10.55900 34.59900
H  42.13000 9.20800 36.78600
H  40.30000 9.41700 37.04200
H  36.68900 5.23900 31.46600
H  36.54100 4.30100 30.04400
H  35.71500 5.76100 30.22500
H  35.14500 6.23600 28.26100
H  35.77200 4.60400 27.89500
H  35.07100 5.60100 26.57200
H  41.01600 9.15700 24.84000
H  43.80800 9.25000 25.26800
H  41.89200 6.38800 25.41800
H  43.14700 7.31700 24.55000
H  41.48500 7.18200 23.89300
H  42.62900 11.02400 24.23200
H  43.36100 11.63800 25.69300
H  40.72600 11.19800 26.43200
H  40.70500 11.81500 24.76900
H  41.73500 12.62900 25.98900
H  46.82000 11.97400 29.96500
H  46.58300 11.14300 28.43800
H  47.30900 10.26300 29.71800
H  43.29500 11.15700 33.94800
H  45.99300 9.07800 36.83900
H  44.92300 9.89600 37.96000
H  46.31100 10.74500 37.17000

