158

Mg 40.63600 10.04700 30.18900
C  42.76100 11.23400 32.74800
C  38.64700 8.70300 32.54900
C  38.89000 8.67000 27.71900
C  43.07900 11.04600 27.85300
N  40.78800 10.03200 32.48400
C  41.64800 10.54500 33.34700
C  41.23500 10.18900 34.79600
C  40.01800 9.14700 34.58900
C  39.73500 9.31300 33.12000
C  40.26400 7.65500 34.80100
C  40.91100 11.45000 35.64100
C  40.26600 11.23600 37.10100
H  40.79100 12.11100 38.20300
N  38.90000 8.98200 30.15400
C  38.22200 8.49400 31.22700
C  37.12500 7.62500 30.75900
C  37.16300 7.64100 29.30400
C  38.38000 8.44400 29.00400
C  36.34400 6.85300 31.70400
C  36.16200 7.02200 28.37300
O  36.40900 6.79600 27.17500
C  34.88900 6.50100 28.87700
N  40.91800 9.82600 28.16400
C  40.00900 9.29600 27.34800
C  40.35500 9.47700 25.92400
C  41.67600 10.21500 25.92400
C  41.90100 10.39400 27.40100
C  40.24000 8.14500 25.08000
C  41.55300 11.53800 25.19700
C  41.02200 12.80800 25.93800
N  42.49200 11.08300 30.20600
C  43.39700 11.36600 29.17500
C  44.59200 11.98500 29.83200
C  44.32200 12.07100 31.22300
C  43.11200 11.38100 31.38400
C  45.79300 12.40200 29.17700
C  44.87200 12.47800 32.48500
O  45.94600 12.98400 32.78600
C  43.80100 12.04500 33.54100
C  44.50900 11.29600 34.57300
O  44.92000 10.16100 34.49900
O  44.44100 12.02600 35.76700
C  44.65500 11.25500 37.02800
H  37.95400 8.21900 33.24000
H  38.23600 8.37900 26.89400
H  43.88000 11.31700 27.16300
H  42.15000 9.74900 35.19100
H  39.13600 9.47200 35.14100
H  41.30900 7.68500 35.10900
H  40.17000 7.06700 33.88700
H  39.50100 7.18500 35.42100
H  40.30200 12.20700 35.14800
H  41.90400 11.85200 35.84000
H  40.40300 10.17300 37.30100
H  39.17900 11.30100 37.05100
H  36.56000 5.80000 31.52300
H  35.27800 7.06900 31.63600
H  36.43800 7.09900 32.76200
H  35.12900 5.59700 29.43700
H  34.24800 6.29100 28.02100
H  34.43200 7.18400 29.59300
H  39.60500 10.15000 25.50900
H  42.44300 9.59500 25.46100
H  41.18100 7.96800 24.55800
H  39.59700 8.48800 24.26900
H  39.89800 7.22900 25.56100
H  40.84200 11.36700 24.38900
H  42.45900 11.80700 24.65400
H  41.91400 13.42600 26.04000
H  40.53800 12.45200 26.84700
H  40.22600 13.28300 25.36400
H  46.46700 12.71400 29.97500
H  45.53400 13.17700 28.45600
H  46.34900 11.62700 28.64900
H  43.34200 12.95000 33.94000
H  44.36000 10.20600 37.06900
H  44.19400 11.69900 37.91000
H  45.72900 11.30400 37.21200
Mg 1.39900 41.92900 25.19400
C  2.58400 41.64700 28.42800
C  -1.73000 40.52800 26.35200
C  0.37900 41.64100 22.09400
C  4.61300 43.02300 24.15700
N  0.57600 41.21300 27.21700
C  1.22400 41.31200 28.35500
C  0.34300 41.06200 29.58100
C  -1.11100 40.63900 28.90700
C  -0.79300 40.75000 27.38300
C  -1.63400 39.19100 29.21200
C  0.25500 42.28700 30.60800
C  -1.11500 42.66700 31.28700
H  -1.73200 41.51000 32.10700
N  -0.40100 41.19900 24.36800
C  -1.57400 40.70000 24.95700
C  -2.57600 40.52000 23.88800
C  -1.96300 40.78300 22.67300
C  -0.60700 41.24900 22.98100
C  -3.92900 40.09000 24.24100
C  -2.43400 40.36600 21.26700
O  -1.67800 40.54500 20.30000
C  -3.77100 39.74700 21.00800
N  2.43000 42.10400 23.34600
C  1.74700 42.01200 22.19300
C  2.64000 42.27400 20.99300
C  3.89300 42.96100 21.67400
C  3.64300 42.69400 23.20600
C  2.77800 41.04200 20.14300
C  4.21100 44.40400 21.25300
C  3.05000 45.42100 21.41600
N  3.28900 42.31100 26.07200
C  4.45400 42.84200 25.53400
C  5.46200 42.88800 26.60200
C  4.81700 42.40000 27.75100
C  3.45800 42.10300 27.35400
C  6.80800 43.55600 26.50300
C  4.95900 42.15400 29.07700
O  5.87600 42.28200 29.78700
C  3.55100 41.60200 29.60100
C  3.81900 40.23500 30.19400
O  4.59700 39.41400 29.75500
O  3.12900 40.09400 31.34200
C  2.98300 38.80400 31.93900
H  -2.71400 40.20100 26.69800
H  0.21700 41.64900 21.01400
H  5.58000 43.37700 23.79200
H  0.63200 40.20500 30.19000
H  -1.88600 41.37600 29.11600
H  -0.84400 38.63700 29.72000
H  -1.83200 38.64600 28.28900
H  -2.49800 39.34700 29.85800
H  0.65800 43.16500 30.10300
H  0.99700 42.06500 31.37500
H  -1.93800 42.94000 30.62600
H  -0.95500 43.43300 32.04600
H  -4.37000 40.89400 24.83000
H  -3.90400 39.27600 24.96500
H  -4.57000 39.97700 23.36600
H  -4.06300 38.95700 21.70100
H  -3.75500 39.34100 19.99700
H  -4.39300 40.63800 20.93000
H  2.24600 43.05600 20.34400
H  4.77000 42.34700 21.46900
H  2.31600 40.21700 20.68500
H  3.82600 40.87100 19.89400
H  2.22900 41.05200 19.20200
H  4.55400 44.27100 20.22700
H  5.11400 44.76300 21.74700
H  2.59200 45.36900 22.40300
H  2.35200 45.51800 20.58400
H  3.46500 46.42500 21.32500
H  6.93800 44.35700 27.23000
H  6.91200 43.92300 25.48200
H  7.54500 42.77500 26.68500
H  3.14500 42.26100 30.36800
H  1.90400 38.65300 31.97100
H  3.45300 38.94300 32.91300
H  3.59000 38.04000 31.45200

