158

Mg 54.25000 24.50900 44.93100
C  51.62300 26.78700 44.23300
C  52.05100 21.93600 44.23800
C  56.93400 22.42800 44.85400
C  56.24300 27.05500 45.88400
N  52.03600 24.40900 44.33600
C  51.22000 25.47000 44.02400
C  49.85900 24.92500 43.52500
C  49.91600 23.42300 43.98300
C  51.39900 23.20000 44.20300
C  48.90600 23.14200 45.13700
C  49.50900 25.17100 42.03900
C  50.70400 25.25800 41.07700
H  51.54500 23.91800 40.95200
N  54.47700 22.43000 44.48400
C  53.41700 21.56100 44.30600
C  53.99100 20.23300 44.12500
C  55.38900 20.35900 44.19100
C  55.71300 21.77700 44.49300
C  53.05200 19.12800 43.79900
C  56.45000 19.18100 44.00400
O  56.07200 18.04200 43.86900
C  58.00500 19.43300 43.93700
N  56.42400 24.85200 45.08400
C  57.21200 23.77500 45.19500
C  58.68000 24.29900 45.55500
C  58.42400 25.79500 45.90000
C  56.92400 25.91700 45.62900
C  59.45800 23.53300 46.66300
C  59.28200 26.81800 45.13700
C  60.17600 27.83500 45.85100
N  54.03800 26.59300 44.92600
C  54.93300 27.46000 45.47700
C  54.25700 28.75200 45.56000
C  52.93200 28.56200 45.11900
C  52.85600 27.18600 44.77300
C  54.81000 30.01400 46.21000
C  51.63800 29.18100 44.79400
O  51.21500 30.34800 45.01200
C  50.78900 28.00600 44.17400
C  50.55800 28.48600 42.79800
O  51.41000 28.87000 42.03400
O  49.25900 28.42300 42.42500
C  48.96000 28.57700 40.98900
H  51.34600 21.10200 44.19300
H  57.74000 21.71600 45.04100
H  56.82100 27.85900 46.34500
H  49.15800 25.59100 44.02900
H  49.44600 22.81200 43.21200
H  48.83400 24.14000 45.56900
H  49.24000 22.40600 45.86800
H  47.96200 22.84800 44.67900
H  48.92700 26.09200 42.06900
H  48.77600 24.44600 41.68400
H  51.25900 26.19000 41.18900
H  50.26800 25.42000 40.09100
H  52.71300 19.41400 42.80300
H  52.15500 19.09000 44.41700
H  53.55800 18.16300 43.75400
H  58.11100 20.18900 43.15800
H  58.49400 18.51700 43.60600
H  58.46000 19.70800 44.88900
H  59.24400 24.26600 44.62200
H  58.54100 25.91900 46.97600
H  60.32000 23.05700 46.19500
H  58.85400 22.71700 47.06000
H  59.72500 24.04800 47.58600
H  58.55100 27.44700 44.62800
H  59.97200 26.46100 44.37300
H  60.21200 28.75200 45.26400
H  61.20700 27.53600 46.04100
H  59.84000 28.05200 46.86500
H  55.85000 29.80200 46.45700
H  54.11500 30.21000 47.02700
H  54.84200 30.88400 45.55500
H  49.84500 27.87000 44.70300
H  48.24000 27.76700 40.87700
H  49.79200 28.53700 40.28500
H  48.42900 29.52900 40.97100
Mg 46.89900 25.54900 29.08800
C  48.02200 27.70200 31.61500
C  45.82700 23.44200 31.61000
C  46.27600 23.13400 26.66000
C  48.53300 27.38300 26.63100
N  46.89300 25.62100 31.39100
C  47.39400 26.63800 32.15700
C  47.06100 26.37300 33.62600
C  46.55700 24.90300 33.64700
C  46.38000 24.61300 32.12400
C  47.47900 23.79800 34.23600
C  46.02300 27.50200 34.18700
C  46.50100 28.13800 35.51600
H  45.29500 28.19200 36.54800
N  46.08000 23.66400 29.12700
C  45.64700 23.03200 30.27200
C  45.06100 21.74500 29.88600
C  45.06600 21.73300 28.43900
C  45.86000 22.86300 27.98300
C  44.39300 20.84100 30.90600
C  44.51600 20.73000 27.53400
O  44.70000 20.80400 26.32000
C  43.57500 19.64000 28.00300
N  47.41700 25.25500 26.91400
C  46.99500 24.22600 26.16800
C  47.56500 24.26300 24.77900
C  47.89900 25.84200 24.67300
C  47.96200 26.21600 26.14300
C  48.83500 23.37700 24.63200
C  46.80000 26.75000 23.92200
C  47.42400 27.32300 22.63100
N  48.08000 27.25300 29.01500
C  48.61400 27.92400 27.98400
C  49.24400 29.08400 28.51700
C  49.02200 29.06700 29.88200
C  48.25200 27.96300 30.15800
C  49.99900 30.06700 27.72000
C  49.25600 29.73800 31.16400
O  49.98700 30.70700 31.35800
C  48.60500 28.96400 32.33900
C  49.62200 28.63500 33.39700
O  50.54200 27.91200 33.26400
O  49.28400 29.25000 34.55300
C  50.02800 29.05000 35.75000
H  45.60800 22.84100 32.49500
H  46.07800 22.46900 25.81700
H  49.03900 28.02500 25.90700
H  47.93600 26.41200 34.27500
H  45.55900 24.82100 34.07800
H  48.26400 24.26600 34.82900
H  47.90800 23.18100 33.44700
H  46.87700 23.26400 34.97200
H  45.03400 27.04600 34.22700
H  45.97000 28.35900 33.51500
H  46.77500 29.15500 35.23500
H  47.31900 27.55500 35.93800
H  43.45900 20.37300 30.59400
H  44.10200 21.36800 31.81500
H  44.95800 19.92500 31.07400
H  42.66600 20.19300 28.24000
H  43.92900 18.98700 28.80000
H  43.31600 18.99200 27.16600
H  46.81300 23.96300 24.04900
H  48.90300 25.96300 24.26700
H  48.60500 22.37000 24.28400
H  49.34800 23.39700 25.59300
H  49.50100 23.86500 23.92000
H  46.40400 27.52700 24.57600
H  45.98200 26.05000 23.74800
H  46.81800 27.07500 21.76000
H  48.44800 27.03600 22.39200
H  47.44100 28.41100 22.69000
H  49.63900 30.04900 26.69100
H  51.05100 29.79700 27.62800
H  49.89300 31.11800 27.99000
H  47.85700 29.68500 32.66900
H  49.57000 29.57700 36.58800
H  51.02200 29.48800 35.65500
H  50.23100 27.98400 35.85200

