158

Mg 23.82600 -5.92600 45.39900
C  26.37500 -3.92600 43.98500
C  21.61600 -4.46000 43.39400
C  21.84300 -8.46500 46.20900
C  26.57400 -7.76100 47.15200
N  24.04600 -4.40700 44.00000
C  25.09700 -3.67700 43.49600
C  24.76700 -2.68000 42.52000
C  23.21400 -2.62400 42.59800
C  22.88500 -3.90700 43.38300
C  22.65500 -1.37100 43.21800
C  25.41800 -3.12000 41.19100
C  26.19500 -2.00700 40.43100
H  25.87500 -1.79500 38.97400
N  21.94900 -6.42000 44.90200
C  21.19400 -5.61000 44.02900
C  19.88400 -6.30300 43.92200
C  19.87900 -7.39100 44.83400
C  21.28300 -7.45400 45.38100
C  18.79200 -5.89000 42.99800
C  18.65700 -8.39400 45.01300
O  17.59300 -8.35700 44.39700
C  18.67300 -9.54200 46.06300
N  24.18200 -7.81700 46.49800
C  23.13000 -8.65700 46.75200
C  23.62600 -9.99900 47.39000
C  24.99900 -9.52200 48.11800
C  25.30200 -8.23700 47.20400
C  22.78000 -10.65000 48.49700
C  26.09400 -10.51600 48.20300
C  26.97900 -10.67600 49.51000
N  26.04000 -5.77000 45.67300
C  26.90600 -6.55700 46.39400
C  28.23200 -5.90400 46.19400
C  28.08900 -4.97300 45.24400
C  26.70700 -4.92000 44.93900
C  29.45900 -6.35500 46.89200
C  28.78900 -4.04900 44.44000
O  30.00400 -3.80500 44.48500
C  27.75500 -3.26000 43.61400
C  27.87700 -1.78300 43.93300
O  27.39500 -1.24900 44.88700
O  28.63200 -1.10500 42.97300
C  28.80600 0.34000 43.22800
H  20.85500 -3.92100 42.82700
H  21.19900 -9.30900 46.46500
H  27.43700 -8.28100 47.57300
H  25.12100 -1.71700 42.88800
H  22.90500 -2.80100 41.56800
H  23.32100 -0.69000 43.74900
H  22.01400 -1.69600 44.03700
H  22.06000 -0.83000 42.48200
H  24.66000 -3.44700 40.47900
H  26.10000 -3.96300 41.30300
H  27.23200 -2.34300 40.42900
H  26.39800 -1.10100 41.00200
H  19.20400 -5.12400 42.34100
H  17.85700 -5.55300 43.44500
H  18.60900 -6.68700 42.27700
H  19.37400 -10.28200 45.67700
H  17.67000 -9.96700 46.11300
H  19.03000 -9.11500 47.00000
H  23.79800 -10.70700 46.58000
H  24.86900 -9.20600 49.15300
H  22.17000 -11.39800 47.99000
H  22.07700 -9.98600 49.00000
H  23.38600 -11.07900 49.29500
H  26.81500 -10.40200 47.39400
H  25.63500 -11.48300 48.00000
H  27.06000 -9.78100 50.12700
H  27.92800 -11.13900 49.23700
H  26.59500 -11.47700 50.14200
H  29.44500 -7.40700 47.17600
H  29.54800 -5.83800 47.84800
H  30.33300 -6.24000 46.25100
H  28.01600 -3.48700 42.58100
H  29.09400 0.91900 42.35200
H  29.54100 0.46000 44.02400
H  27.89600 0.75100 43.66500
Mg -5.35400 24.61600 26.08000
C  -4.09100 26.05600 29.04900
C  -7.16600 22.45500 28.19000
C  -5.99800 22.76600 23.43500
C  -3.37200 26.77900 24.27100
N  -5.52600 24.33500 28.31700
C  -5.03300 25.10300 29.32900
C  -5.40100 24.66400 30.67100
C  -6.29900 23.35400 30.40300
C  -6.35100 23.38200 28.83700
C  -5.79500 21.96700 30.96500
C  -6.19300 25.81900 31.43300
C  -5.78200 25.99400 32.89200
H  -5.36200 24.76600 33.74400
N  -6.45200 22.86200 25.80400
C  -7.18700 22.19400 26.80000
C  -7.98100 21.15100 26.14400
C  -7.73000 21.27100 24.74500
C  -6.59700 22.28900 24.61600
C  -8.98500 20.29600 26.85700
C  -8.34200 20.49200 23.54700
O  -7.97900 20.67400 22.38300
C  -9.55400 19.53600 23.70700
N  -4.79600 24.88400 24.19200
C  -5.17700 23.88800 23.27600
C  -4.61800 24.25300 21.85700
C  -4.00200 25.62100 22.13800
C  -4.06700 25.79500 23.62200
C  -3.79400 23.12400 21.05000
C  -4.56600 26.79200 21.24600
C  -3.47200 27.35700 20.38500
N  -4.04300 26.26200 26.55400
C  -3.27000 26.96900 25.65700
C  -2.43200 27.94300 26.40900
C  -2.67500 27.59600 27.78400
C  -3.71600 26.56500 27.80900
C  -1.46400 28.98200 25.91700
C  -2.33600 27.84400 29.16400
O  -1.65700 28.71600 29.67600
C  -3.27400 26.81800 30.05700
C  -2.26000 26.00200 30.85500
O  -1.78900 24.97300 30.38000
O  -1.99500 26.56200 32.06400
C  -1.21000 25.83700 33.09800
H  -7.73200 21.82600 28.88000
H  -6.20800 22.18000 22.53800
H  -2.65600 27.31000 23.64000
H  -4.45500 24.46200 31.17300
H  -7.28900 23.47500 30.84300
H  -6.73700 21.53100 31.29900
H  -5.04300 21.90500 31.75200
H  -5.36200 21.24400 30.27400
H  -7.20600 25.41800 31.44100
H  -6.22900 26.79500 30.94900
H  -6.64500 26.44700 33.38000
H  -4.91700 26.65500 32.93900
H  -8.82900 19.26500 26.53700
H  -10.01500 20.65200 26.84700
H  -8.67700 20.22000 27.90000
H  -10.28800 20.12600 24.25500
H  -9.18700 18.70200 24.30500
H  -9.73700 19.11900 22.71700
H  -5.49800 24.56100 21.29300
H  -2.93300 25.43200 22.03100
H  -3.69000 22.30300 21.75900
H  -2.79000 23.38200 20.71400
H  -4.47500 22.91800 20.22400
H  -4.99000 27.57900 21.87000
H  -5.44300 26.58900 20.63000
H  -3.74700 27.34100 19.33000
H  -2.50600 26.88500 20.56000
H  -3.33400 28.39700 20.67800
H  -1.90300 29.97900 25.87800
H  -1.02400 28.62200 24.98700
H  -0.63700 29.07700 26.62100
H  -3.73100 27.51900 30.75400
H  -1.78600 25.86900 34.02300
H  -0.21000 26.23500 33.27100
H  -1.12500 24.75400 33.00400

