158

Mg 39.76200 8.76300 29.20900
C  41.66100 10.01200 31.89900
C  37.76200 7.17100 31.36400
C  38.03800 7.48600 26.53800
C  42.23100 9.87900 27.05100
N  39.65300 8.58600 31.40500
C  40.53500 9.28900 32.28100
C  39.97700 9.09700 33.73800
C  38.67500 8.19800 33.52900
C  38.72000 7.89300 32.07000
C  38.53500 6.94800 34.42300
C  39.75400 10.43400 34.44500
C  38.82700 10.59300 35.62600
H  39.27100 11.37300 36.91800
N  38.06000 7.57000 28.98200
C  37.40100 6.96200 30.02300
C  36.23600 6.24600 29.48400
C  36.23500 6.42100 28.10500
C  37.48000 7.22100 27.83000
C  35.26300 5.53700 30.50700
C  35.19900 5.77400 27.18900
O  35.40900 5.76900 26.01600
C  34.05100 5.01000 27.58900
N  40.18600 8.55100 27.14600
C  39.25700 8.13500 26.23700
C  39.78000 8.37800 24.77000
C  40.81400 9.40300 24.97400
C  41.10900 9.33000 26.47400
C  40.40300 7.13700 24.09200
C  40.38800 10.87000 24.59000
C  38.91500 11.26100 24.66600
N  41.67800 9.63400 29.35100
C  42.54700 9.96300 28.43300
C  43.74500 10.47800 29.06600
C  43.49400 10.58200 30.42200
C  42.15300 10.03500 30.56400
C  44.87800 11.05600 28.22000
C  43.88100 11.07100 31.66800
O  44.84000 11.71800 31.97300
C  42.75300 10.70700 32.72900
C  43.40100 9.95500 33.80800
O  43.72700 8.77900 33.65700
O  43.62100 10.83500 34.81700
C  44.38200 10.29300 35.93700
H  37.03100 6.64100 31.97900
H  37.53500 7.16300 25.62400
H  42.94100 10.46100 26.46000
H  40.61900 8.50500 34.39000
H  37.83000 8.86400 33.70400
H  37.52200 6.85400 34.81200
H  39.25100 7.05600 35.23900
H  38.83600 6.12400 33.77600
H  39.20200 10.96000 33.66600
H  40.76300 10.84200 34.50800
H  38.64300 9.63200 36.10500
H  37.89100 11.03200 35.28100
H  34.64600 4.77600 30.03000
H  34.65000 6.32900 30.93700
H  35.91800 5.12800 31.27700
H  33.54200 5.65400 28.30600
H  34.48900 4.07000 27.92500
H  33.37100 4.92400 26.74200
H  38.88900 8.69600 24.22900
H  41.67400 9.24400 24.32300
H  39.89900 7.02900 23.13100
H  40.15500 6.28600 24.72600
H  41.49200 7.19200 24.10800
H  40.58700 10.91100 23.51900
H  40.90700 11.72500 25.02400
H  38.50600 11.36000 23.66000
H  38.91400 12.23500 25.15500
H  38.26800 10.57300 25.21000
H  45.82600 10.98100 28.75300
H  44.72000 12.10200 27.95600
H  45.03500 10.45700 27.32300
H  42.46800 11.69300 33.09700
H  43.71700 9.73100 36.59300
H  44.85900 11.14500 36.42200
H  45.14000 9.55000 35.68900
Mg -8.36600 39.70800 42.20800
C  -7.40100 36.44100 41.15600
C  -5.90300 40.95400 40.36900
C  -9.87000 42.67300 42.42900
C  -11.42100 38.20700 43.61400
N  -6.94000 38.80900 40.88300
C  -6.61600 37.46500 40.67500
C  -5.29000 37.26500 39.92800
C  -4.79300 38.76100 39.71700
C  -5.93900 39.56200 40.31400
C  -3.30300 39.03900 40.15000
C  -5.49100 36.48300 38.62900
C  -4.51600 35.33400 38.45900
H  -3.66400 35.39000 37.20900
N  -7.73800 41.60400 41.80700
C  -6.72800 41.88600 41.06800
C  -6.58500 43.31700 41.01800
C  -7.65400 43.82600 41.73800
C  -8.48200 42.70700 42.09100
C  -5.35600 43.97000 40.36900
C  -7.93900 45.38400 42.07300
O  -7.14800 46.25400 41.75700
C  -9.02600 45.80300 42.98100
N  -10.30300 40.29900 43.00400
C  -10.64500 41.61600 42.90800
C  -12.15600 41.76600 43.19100
C  -12.56300 40.39500 43.82800
C  -11.28600 39.54400 43.54400
C  -12.47600 43.00400 43.99600
C  -13.98200 39.64100 43.45900
C  -15.23400 40.62800 43.55600
N  -9.26700 37.70400 42.39700
C  -10.46500 37.30400 43.01000
C  -10.51300 35.91600 42.83100
C  -9.33700 35.52100 42.23400
C  -8.63800 36.62900 41.89600
C  -11.58100 34.98800 43.37000
C  -8.52400 34.36800 41.65100
O  -8.77600 33.15100 41.61100
C  -7.23700 34.93700 41.09000
C  -6.05200 34.54600 41.97400
O  -5.64700 34.99300 43.03300
O  -5.30300 33.63700 41.20100
C  -3.96800 33.29400 41.70500
H  -5.09100 41.38600 39.78100
H  -10.45000 43.59300 42.33700
H  -12.40900 37.82300 43.87800
H  -4.61100 36.66000 40.52900
H  -4.75200 38.90800 38.63800
H  -2.56200 38.98100 39.35200
H  -3.00000 38.22900 40.81300
H  -3.25700 39.99600 40.66800
H  -5.23900 37.09200 37.76100
H  -6.49200 36.06200 38.52600
H  -5.01700 34.36600 38.47400
H  -3.79500 35.29100 39.27500
H  -5.05100 44.89200 40.86200
H  -5.60800 44.34400 39.37600
H  -4.58900 43.20000 40.44500
H  -8.86500 46.60000 43.70700
H  -9.21500 45.04300 43.73900
H  -9.91700 46.08000 42.41800
H  -12.72900 41.88200 42.27100
H  -12.72200 40.55700 44.89400
H  -12.97000 43.61200 43.23800
H  -11.60100 43.52300 44.38800
H  -13.28200 42.74900 44.68300
H  -14.12200 38.80800 44.14700
H  -13.91300 39.27100 42.43600
H  -15.38500 41.06700 42.57000
H  -15.05200 41.51700 44.16000
H  -16.12600 40.08900 43.87400
H  -12.54100 35.09700 42.86500
H  -11.69600 35.10200 44.44800
H  -11.19400 33.96900 43.39300
H  -7.03300 34.51200 40.10700
H  -3.42600 34.23900 41.67200
H  -3.48600 32.60200 41.01400
H  -4.01900 32.84100 42.69500

