158

Mg 9.35600 3.52900 28.31200
C  10.68600 1.93100 31.14800
C  7.82100 5.71400 30.30000
C  7.92900 4.68500 25.53200
C  10.82200 0.91700 26.35700
N  9.34900 3.74500 30.51800
C  9.91900 2.99700 31.43700
C  9.80800 3.72300 32.82900
C  8.76200 4.87100 32.54000
C  8.62900 4.79100 31.00900
C  7.44600 4.85600 33.38700
C  11.18200 4.14600 33.31300
C  11.65700 3.52400 34.63100
H  12.22300 4.30500 35.74600
N  7.98300 4.95500 28.01900
C  7.42000 5.71900 28.97700
C  6.42800 6.60200 28.39400
C  6.50100 6.43600 26.98600
C  7.48400 5.31000 26.79600
C  5.61500 7.57700 29.24400
C  5.80000 7.05900 25.77100
O  5.97800 6.73100 24.62900
C  4.95200 8.31700 26.03900
N  9.43000 2.88900 26.21300
C  8.80300 3.62800 25.27200
C  9.15200 3.08500 23.88400
C  10.06900 1.88300 24.15700
C  10.15000 1.90000 25.66100
C  7.91200 2.71800 23.13100
C  11.47800 1.67200 23.41500
C  11.57900 0.49800 22.51100
N  10.47900 1.80800 28.61900
C  10.94000 0.87500 27.77600
C  11.70900 -0.13100 28.47400
C  11.62400 0.23000 29.84300
C  10.90900 1.47300 29.86500
C  12.49400 -1.26300 27.89400
C  12.10500 -0.00800 31.21800
O  12.88900 -0.85000 31.62800
C  11.45100 1.13300 32.07500
C  10.63400 0.46200 33.15500
O  9.47300 0.00600 33.02300
O  11.42500 0.34800 34.29800
C  10.86500 -0.13000 35.55900
H  7.45700 6.43100 31.03800
H  7.48100 5.09900 24.62700
H  11.26400 0.09100 25.79400
H  9.49400 2.97500 33.55800
H  9.17400 5.88000 32.51800
H  6.77400 4.03400 33.14100
H  6.88200 5.77300 33.21800
H  7.51100 4.76700 34.47200
H  11.12700 5.23000 33.41500
H  11.94800 3.84200 32.59900
H  12.43700 2.79800 34.40200
H  10.89600 2.95700 35.16600
H  5.59000 7.26700 30.28900
H  4.61700 7.62200 28.80900
H  6.06200 8.54800 29.02700
H  4.22900 8.27700 26.85400
H  4.39300 8.55700 25.13500
H  5.60500 9.16900 26.22800
H  9.79400 3.80000 23.36900
H  9.66300 0.89900 23.92100
H  6.97300 3.02000 23.59400
H  7.84000 1.65500 22.89800
H  7.93000 3.36800 22.25600
H  12.33500 1.56500 24.08100
H  11.71000 2.52900 22.78200
H  12.13900 -0.23100 23.09600
H  12.23500 0.63900 21.65200
H  10.66100 0.01500 22.17600
H  11.94000 -1.77400 27.10600
H  12.51300 -1.99900 28.69800
H  13.51800 -1.12100 27.54900
H  12.23300 1.65500 32.62600
H  10.79500 0.76600 36.17600
H  11.59700 -0.88700 35.83900
H  9.89000 -0.61600 35.53100
Mg 30.38700 57.62500 40.45100
C  27.60800 55.64000 39.59300
C  32.39800 55.16600 38.98000
C  33.01100 59.78600 40.67800
C  28.25500 60.32900 40.90400
N  29.99600 55.72000 39.09500
C  28.81900 54.99600 39.11500
C  28.91800 53.56100 38.79300
C  30.51200 53.42300 38.77000
C  30.98800 54.84800 38.97100
C  31.05200 52.52600 39.88600
C  28.16300 53.00100 37.53700
C  28.72600 53.05400 36.13200
H  27.80400 53.71100 35.03900
N  32.39600 57.48000 39.94000
C  32.99200 56.38700 39.30900
C  34.41700 56.64700 39.16500
C  34.65000 58.01300 39.64900
C  33.32500 58.53600 40.13200
C  35.51700 55.65300 38.67900
C  35.95600 58.63600 39.66800
O  36.96000 58.03200 39.31900
C  36.16000 60.08500 40.03000
N  30.56200 59.63900 40.77100
C  31.75000 60.26200 40.98800
C  31.64400 61.68400 41.57700
C  30.08600 61.87300 41.57400
C  29.62400 60.55200 40.94100
C  32.43500 61.84100 42.93000
C  29.48600 63.17300 40.97600
C  29.66100 64.48900 41.76200
N  28.33100 57.87400 40.41400
C  27.62200 59.07800 40.72800
C  26.28300 58.78000 40.55400
C  26.15300 57.46200 40.15200
C  27.50200 56.92800 40.07800
C  25.14700 59.66100 40.87200
C  25.26900 56.48200 39.74200
O  24.06200 56.43200 39.55000
C  26.18300 55.19200 39.43500
C  25.74500 54.03800 40.24500
O  26.34200 53.62500 41.22200
O  24.54900 53.46000 39.77200
C  23.73000 52.78900 40.85200
H  33.03800 54.29900 38.80600
H  33.84000 60.48700 40.79500
H  27.57000 61.17800 40.93200
H  28.68800 53.03700 39.72100
H  30.88400 53.13100 37.78800
H  31.59200 53.06700 40.66300
H  31.80600 51.91000 39.39500
H  30.29100 51.86800 40.30600
H  27.16800 53.44100 37.46900
H  28.00200 51.93300 37.68800
H  28.89200 52.05700 35.72300
H  29.69600 53.54500 36.05700
H  35.92800 56.00900 37.73400
H  35.15700 54.63700 38.51700
H  36.29400 55.39500 39.39900
H  35.81600 60.41300 41.01100
H  35.64400 60.60800 39.22500
H  37.20800 60.38200 40.01600
H  31.99600 62.31200 40.75900
H  29.66200 61.79100 42.57500
H  32.87100 60.94100 43.36600
H  31.70500 62.17600 43.66700
H  33.17200 62.64200 42.87300
H  28.43400 62.99000 40.75900
H  29.84800 63.27000 39.95300
H  28.72500 64.74700 42.25700
H  29.87100 65.23600 40.99700
H  30.53900 64.46100 42.40700
H  24.89200 60.12800 39.92000
H  25.38800 60.51500 41.50500
H  24.32900 59.09300 41.31500
H  25.95900 54.87600 38.41700
H  23.38400 53.61100 41.47900
H  24.36400 52.03300 41.31500
H  22.91900 52.24300 40.36900

