158

Mg 52.81000 23.57200 44.73400
C  50.22500 25.84000 43.78600
C  50.94700 21.12500 43.68900
C  55.60500 21.62600 44.79200
C  54.80600 26.37800 45.52500
N  50.79000 23.61300 43.79500
C  49.95700 24.57900 43.37600
C  48.75000 23.95800 42.66300
C  48.84800 22.43800 43.09200
C  50.26600 22.35500 43.54000
C  47.94500 22.09000 44.36500
C  48.59600 24.14900 41.12000
C  49.97700 24.26200 40.40500
H  49.89800 24.48200 38.88300
N  53.15400 21.63500 44.42800
C  52.22700 20.75400 43.99300
C  52.81600 19.45700 43.90300
C  54.16300 19.52900 44.33200
C  54.35700 21.01700 44.49100
C  52.00400 18.26200 43.54700
C  55.11100 18.36300 44.62800
O  54.87800 17.27600 44.12000
C  56.43700 18.50500 45.32000
N  55.03400 24.00400 44.81000
C  55.90100 23.03300 44.95200
C  57.29100 23.61200 45.36200
C  56.92500 24.99200 45.88300
C  55.52700 25.17500 45.36600
C  58.05200 22.75400 46.36000
C  57.95900 26.04300 45.44400
C  58.46600 27.08000 46.51800
N  52.62400 25.68600 44.68000
C  53.42300 26.66700 45.21400
C  52.62300 27.91700 45.41500
C  51.37800 27.62300 44.86000
C  51.39400 26.24700 44.44800
C  53.05400 29.14900 46.09800
C  50.03600 28.15600 44.56000
O  49.67300 29.30600 44.66500
C  49.25500 27.03000 43.81400
C  48.89000 27.48000 42.53400
O  49.65400 27.41900 41.59400
O  47.55300 27.94900 42.48200
C  47.20100 28.32800 41.20500
H  50.30000 20.31500 43.34600
H  56.41800 20.91500 44.95700
H  55.27100 27.16100 46.12700
H  47.88700 24.47600 43.08100
H  48.58500 21.85700 42.20800
H  48.53700 21.63500 45.15900
H  47.19300 21.37000 44.04300
H  47.50100 23.01300 44.73700
H  47.89900 24.98300 41.04000
H  48.00800 23.29500 40.78400
H  50.69000 23.46700 40.62400
H  50.41300 25.19400 40.76400
H  52.32800 18.03700 42.53100
H  50.95200 18.44200 43.77100
H  52.31900 17.37900 44.10300
H  56.38500 19.22200 46.14000
H  57.31600 18.85600 44.77900
H  56.72200 17.50000 45.63200
H  57.90900 23.78200 44.48000
H  56.75000 25.02300 46.95900
H  58.75500 23.27800 47.00800
H  58.71300 22.03000 45.88300
H  57.31400 22.24500 46.98000
H  57.62300 26.45700 44.49300
H  58.78100 25.37400 45.18900
H  59.43300 26.74800 46.89500
H  57.67600 27.03600 47.26700
H  58.65800 28.08100 46.13000
H  54.04400 29.44400 45.74900
H  53.05500 28.98800 47.17600
H  52.32800 29.92400 45.85600
H  48.28400 26.88400 44.28700
H  47.32700 29.41100 41.23200
H  46.19100 27.91900 41.20500
H  47.81000 27.86000 40.43200
Mg 0.28700 43.96800 26.47100
C  2.63600 43.60200 29.13700
C  -1.94800 42.34500 28.41200
C  -1.73200 43.81800 23.75000
C  2.99300 45.12500 24.41800
N  0.42300 43.09400 28.52300
C  1.30000 43.28300 29.48800
C  0.69900 43.08600 30.91400
C  -0.69700 42.47000 30.61600
C  -0.81100 42.67200 29.11000
C  -0.99400 41.05500 31.11900
C  0.62500 44.37700 31.77700
C  1.00100 44.23000 33.33900
H  0.68100 42.94900 34.08900
N  -1.55700 43.00300 26.09000
C  -2.31000 42.35100 27.01600
C  -3.52400 41.90900 26.41200
C  -3.58500 42.45000 25.06600
C  -2.23100 43.16200 24.89000
C  -4.56500 41.00900 27.19600
C  -4.62200 42.29000 24.02300
O  -4.51700 42.78900 22.90800
C  -5.75800 41.37600 24.25000
N  0.56500 44.39900 24.36600
C  -0.47900 44.43900 23.52000
C  -0.16400 45.32800 22.34500
C  1.30000 45.81400 22.60800
C  1.68000 45.10000 23.86500
C  -0.27100 44.70300 20.93500
C  1.28300 47.33800 22.96800
C  2.06500 48.32700 22.08600
N  2.37000 44.43300 26.66000
C  3.35200 44.75400 25.73200
C  4.67200 44.63200 26.35400
C  4.38000 44.24300 27.66600
C  3.00700 44.12700 27.84200
C  6.02500 44.86000 25.74900
C  4.99800 43.92300 28.98000
O  6.19400 43.86300 29.24900
C  3.79800 43.70100 29.94500
C  4.03500 42.45500 30.72100
O  4.33500 41.33100 30.29300
O  3.90300 42.78200 32.03900
C  4.35800 41.69000 32.97700
H  -2.78800 42.05200 29.04600
H  -2.45200 43.91000 22.93400
H  3.78500 45.68800 23.91900
H  1.26200 42.30200 31.42000
H  -1.45000 43.04600 31.15400
H  -1.12700 40.36100 30.29000
H  -1.85600 40.98200 31.78300
H  -0.23500 40.73100 31.83000
H  -0.40000 44.71900 31.92100
H  1.24200 45.17500 31.36400
H  0.39900 45.02200 33.78400
H  2.08300 44.30600 33.45100
H  -4.48000 39.97400 26.86300
H  -5.55100 41.35400 26.88700
H  -4.34000 41.08800 28.25900
H  -6.50700 41.85400 24.88100
H  -5.40600 40.42700 24.65600
H  -6.17700 41.13400 23.27300
H  -0.96600 46.06400 22.29300
H  1.95600 45.57500 21.77000
H  0.62200 44.94500 20.35800
H  -1.23800 44.96700 20.50800
H  -0.26000 43.61300 20.97500
H  1.46400 47.40900 24.04100
H  0.29600 47.75600 22.76600
H  1.42300 49.00900 21.52900
H  2.66300 47.70400 21.42000
H  2.81700 48.85600 22.67100
H  6.56000 43.94300 25.99700
H  6.44300 45.77600 26.16500
H  5.93100 44.99900 24.67200
H  3.65800 44.51000 30.66200
H  3.63800 40.87500 32.89800
H  4.25100 42.20900 33.93000
H  5.39400 41.44900 32.74000

