158

Mg 39.67900 8.39500 29.22300
C  41.77000 9.59700 31.82200
C  37.29300 7.76200 31.53600
C  37.99600 6.74100 26.82500
C  42.41600 8.81400 27.05200
N  39.59600 8.59700 31.46900
C  40.48000 9.29000 32.20600
C  39.88900 9.38800 33.63600
C  38.58500 8.57200 33.59600
C  38.42400 8.26500 32.09000
C  38.49400 7.35700 34.58700
C  39.73000 10.82500 34.31200
C  39.13900 10.81300 35.71300
H  40.02600 11.23400 36.90700
N  37.88500 7.44300 29.17900
C  37.00000 7.34600 30.22300
C  35.79200 6.72200 29.70900
C  36.08500 6.27900 28.38400
C  37.38400 6.78900 28.03800
C  34.61600 6.48400 30.65100
C  35.29100 5.47200 27.37500
O  35.57900 5.11400 26.23300
C  33.86800 5.04900 27.80300
N  40.13500 7.87700 27.27600
C  39.29800 7.20300 26.42400
C  39.82300 7.09500 25.01500
C  41.06700 7.94900 25.09100
C  41.27000 8.19400 26.55000
C  40.05300 5.69400 24.38800
C  41.10200 9.29100 24.28200
C  40.32000 10.48200 24.94300
N  41.70700 9.08300 29.30700
C  42.63300 9.22500 28.38600
C  43.84600 9.85800 28.96000
C  43.48000 9.99800 30.28500
C  42.24900 9.41300 30.53200
C  45.01000 10.23800 28.14600
C  43.83700 10.68200 31.52500
O  44.78300 11.46000 31.71700
C  42.87500 10.23000 32.64800
C  43.50300 9.24700 33.56300
O  43.38600 8.02900 33.46400
O  44.26200 9.91400 34.48200
C  44.52800 9.14000 35.72600
H  36.38100 7.69600 32.13200
H  37.45300 6.35300 25.96100
H  43.15600 8.93000 26.25700
H  40.62900 8.84400 34.22300
H  37.69800 9.15600 33.84300
H  37.83300 7.63200 35.40900
H  39.42300 7.09400 35.09400
H  38.02600 6.52700 34.05800
H  39.00400 11.24800 33.61800
H  40.63200 11.43600 34.29100
H  38.80100 9.80300 35.94100
H  38.33600 11.54900 35.66500
H  33.72400 7.00600 30.30500
H  34.82900 6.60000 31.71400
H  34.34100 5.43400 30.54700
H  34.03300 4.26700 28.54300
H  33.36200 4.78600 26.87400
H  33.31600 5.87100 28.26000
H  39.11300 7.58800 24.35100
H  41.90700 7.33800 24.76100
H  41.04400 5.63700 23.93800
H  39.34800 5.48300 23.58400
H  39.95300 4.89000 25.11600
H  40.64900 9.15000 23.30100
H  42.13500 9.61500 24.15300
H  39.62600 10.24500 25.75000
H  39.63700 10.94200 24.22900
H  41.05500 11.25300 25.17500
H  44.74500 10.18000 27.09000
H  45.83900 9.57500 28.39700
H  45.37600 11.24200 28.35800
H  42.70500 11.16500 33.18200
H  43.57600 8.89600 36.19600
H  45.07600 9.85800 36.33600
H  45.17700 8.27200 35.60700
Mg -5.26800 25.21700 25.96100
C  -3.67600 26.53300 28.85200
C  -6.90300 23.02700 28.06200
C  -6.42300 23.68600 23.20200
C  -3.09200 27.12200 23.98300
N  -5.23600 24.78000 28.17300
C  -4.79000 25.71800 29.11200
C  -5.46900 25.53300 30.47800
C  -6.03900 24.04400 30.23300
C  -6.10200 23.91200 28.72400
C  -5.23600 22.92500 30.97400
C  -6.34300 26.74800 31.02100
C  -5.85500 27.33200 32.37600
H  -5.60000 26.29600 33.52300
N  -6.63100 23.64500 25.66000
C  -7.21300 22.86400 26.67200
C  -8.17900 21.96000 26.00000
C  -7.96400 22.08000 24.65400
C  -7.01700 23.14600 24.46800
C  -9.01900 20.96300 26.74100
C  -8.76700 21.40400 23.50400
O  -8.73300 21.80600 22.35400
C  -9.78200 20.36000 23.78300
N  -4.76900 25.34800 23.92900
C  -5.46200 24.67800 23.01200
C  -5.04600 25.12500 21.67800
C  -4.35000 26.49700 21.91000
C  -4.07600 26.29200 23.37000
C  -4.29200 24.04600 20.88700
C  -5.18100 27.70200 21.57800
C  -4.77200 28.45300 20.31800
N  -3.65000 26.55000 26.27900
C  -2.90100 27.31300 25.42500
C  -1.98300 28.12100 26.14900
C  -2.24100 27.88300 27.50900
C  -3.24000 26.87000 27.53800
C  -0.93500 28.99700 25.53500
C  -1.91300 28.23300 28.90500
O  -1.03300 28.96700 29.27100
C  -2.91400 27.41200 29.82800
C  -1.98200 26.55100 30.65300
O  -1.09600 25.73100 30.27500
O  -2.08000 27.02600 31.94700
C  -1.11200 26.48200 32.89300
H  -7.31600 22.27200 28.73400
H  -6.75400 23.18900 22.28800
H  -2.55700 27.73800 23.25700
H  -4.61600 25.39500 31.14300
H  -7.01200 23.87600 30.69500
H  -4.58500 23.34600 31.74000
H  -4.50800 22.48700 30.29100
H  -5.84500 22.17400 31.47800
H  -7.38900 26.51800 31.22300
H  -6.13900 27.53700 30.29700
H  -6.44900 28.15100 32.78200
H  -4.81000 27.60100 32.22300
H  -8.90700 21.08700 27.81800
H  -8.67400 19.94500 26.55800
H  -10.08700 21.12900 26.60100
H  -9.98900 19.79800 22.87300
H  -10.71400 20.79500 24.14500
H  -9.38200 19.55100 24.39400
H  -5.93500 25.35100 21.08900
H  -3.42600 26.51000 21.33100
H  -5.00500 23.49900 20.27000
H  -3.92700 23.24500 21.53000
H  -3.43900 24.30200 20.25900
H  -5.05400 28.42900 22.38000
H  -6.24200 27.47100 21.48800
H  -3.91700 29.09300 20.53700
H  -5.59200 29.01600 19.87200
H  -4.35800 27.92800 19.45800
H  -0.19000 29.34900 26.24900
H  -1.59100 29.80100 25.20200
H  -0.50500 28.54400 24.64100
H  -3.52500 28.08400 30.43200
H  -0.97700 27.19200 33.70900
H  -0.15900 26.24500 32.41900
H  -1.57600 25.57500 33.28000

