158

Mg 24.18200 -6.87400 46.62800
C  25.85800 -4.20100 45.33700
C  21.50000 -5.98800 44.32600
C  22.68100 -9.85000 47.14900
C  26.85800 -7.84800 48.34700
N  23.75300 -5.27500 44.98800
C  24.63800 -4.25400 44.70600
C  24.03700 -3.35600 43.62400
C  22.51700 -3.80600 43.52600
C  22.58100 -5.08900 44.31900
C  21.45000 -2.73600 43.91800
C  24.86800 -3.48800 42.31100
C  25.14300 -2.20500 41.47900
H  24.65100 -2.17600 40.02200
N  22.25100 -7.82100 45.99300
C  21.32200 -7.30400 45.00200
C  20.16800 -8.15600 45.05000
C  20.46300 -9.21300 45.96600
C  21.81100 -8.99800 46.42000
C  18.93500 -7.91900 44.18200
C  19.49100 -10.33200 46.37200
O  18.40400 -10.45200 45.77300
C  19.84000 -11.32800 47.49600
N  24.66600 -8.59800 47.62200
C  23.83900 -9.62000 47.77300
C  24.42500 -10.63900 48.79000
C  25.82700 -10.05000 49.12600
C  25.77300 -8.72600 48.36000
C  23.53900 -11.01800 49.96200
C  27.13700 -10.92800 48.85700
C  28.03000 -11.16700 50.14500
N  25.99100 -6.26200 46.76300
C  27.05900 -6.70400 47.55300
C  28.10700 -5.71100 47.56800
C  27.68000 -4.74600 46.68500
C  26.37200 -5.11800 46.24000
C  29.31400 -5.76700 48.49200
C  28.02100 -3.43600 46.18500
O  28.90100 -2.62700 46.41800
C  26.85300 -3.06100 45.23500
C  26.35600 -1.79300 45.68400
O  26.87400 -0.71900 45.26900
O  25.17100 -1.90900 46.37300
C  24.73400 -0.68500 47.11300
H  20.61900 -5.77800 43.71500
H  22.28300 -10.84000 47.38200
H  27.68500 -8.09600 49.01500
H  24.01900 -2.29200 43.85700
H  22.27800 -4.07300 42.49700
H  20.88500 -3.11200 44.77000
H  20.73100 -2.58600 43.11300
H  21.84500 -1.80300 44.32100
H  24.37600 -4.18500 41.63300
H  25.80100 -3.99800 42.55200
H  26.22400 -2.27500 41.36400
H  24.99100 -1.29500 42.06100
H  18.83700 -8.78700 43.52900
H  19.02400 -7.11600 43.45100
H  17.98800 -7.82100 44.71300
H  20.40600 -12.07000 46.93200
H  18.94200 -11.79100 47.90600
H  20.40900 -10.78700 48.25300
H  24.55000 -11.59100 48.27600
H  25.75500 -9.81700 50.18900
H  22.73900 -10.28000 50.03200
H  23.99200 -11.05200 50.95200
H  23.13100 -12.00600 49.74900
H  27.82300 -10.52400 48.11300
H  26.70300 -11.86400 48.50500
H  28.00400 -12.23700 50.35300
H  27.66300 -10.66200 51.03800
H  29.05500 -10.82500 50.00100
H  29.35200 -4.83400 49.05500
H  30.21000 -5.87400 47.88100
H  29.12200 -6.56000 49.21400
H  27.18100 -3.02500 44.19600
H  24.07500 -0.07600 46.49400
H  25.59700 -0.06600 47.36000
H  24.28800 -1.00400 48.05500
Mg 35.39500 0.94400 29.43700
C  33.07400 1.64300 31.99100
C  37.76100 0.53900 31.68800
C  37.67200 0.44300 26.68000
C  32.91800 1.64600 26.97500
N  35.42200 1.37600 31.68000
C  34.35700 1.33100 32.48600
C  34.80300 1.23800 33.99400
C  36.32600 1.15700 33.82000
C  36.50700 0.96000 32.36000
C  37.14700 2.32400 34.43200
C  34.13200 0.10200 34.72900
C  33.74100 0.55000 36.18000
H  34.61200 1.56900 36.99700
N  37.37200 0.50900 29.22100
C  38.17300 0.48500 30.34100
C  39.53000 0.14400 29.94600
C  39.57300 0.17700 28.51500
C  38.13600 0.39000 28.02500
C  40.75700 0.07900 30.95200
C  40.71300 -0.09600 27.61500
O  40.59400 -0.09300 26.40200
C  42.12100 -0.43400 28.05500
N  35.21000 0.94100 27.13800
C  36.29100 0.66400 26.25700
C  35.97900 0.71500 24.77000
C  34.37800 0.88400 24.89200
C  34.12600 1.18400 26.43700
C  36.65300 1.90500 24.04600
C  33.61200 -0.40400 24.47200
C  33.81400 -1.68500 25.28800
N  33.43300 1.52200 29.38600
C  32.56400 1.72200 28.35500
C  31.32400 2.15800 28.89400
C  31.40600 2.10200 30.30300
C  32.78600 1.71700 30.56200
C  30.15100 2.68300 28.10500
C  30.75900 2.36600 31.59800
O  29.62000 2.81200 31.85000
C  31.91800 2.13400 32.77100
C  32.21100 3.50700 33.34800
O  32.87600 4.36300 32.77200
O  31.69100 3.62300 34.65500
C  31.90000 4.84700 35.37000
H  38.54800 0.25100 32.38800
H  38.40500 0.29600 25.88400
H  32.18600 1.81900 26.18300
H  34.55800 2.18900 34.46700
H  36.73100 0.21400 34.18900
H  37.46500 2.22000 35.47000
H  36.56600 3.23700 34.56400
H  38.08400 2.43300 33.88700
H  34.71200 -0.81300 34.84700
H  33.21100 -0.21000 34.23700
H  33.68800 -0.37300 36.75900
H  32.70300 0.88100 36.17800
H  41.31700 -0.84600 30.82100
H  40.57700 0.07200 32.02700
H  41.33800 0.98800 30.80100
H  42.49900 0.19800 28.85800
H  42.69900 -0.36300 27.13300
H  42.24000 -1.48400 28.32200
H  36.31900 -0.23600 24.35900
H  33.94900 1.77300 24.42900
H  37.13200 1.41800 23.19700
H  37.51200 2.34700 24.55100
H  35.90100 2.66300 23.82600
H  33.85400 -0.58700 23.42500
H  32.54500 -0.18600 24.52900
H  34.24900 -1.48600 26.26800
H  34.46400 -2.35200 24.72200
H  32.92400 -2.31300 25.31600
H  29.79000 1.86300 27.48500
H  30.44000 3.47400 27.41400
H  29.52400 3.27300 28.77300
H  31.50500 1.47100 33.53200
H  30.92400 5.30200 35.53900
H  32.55600 5.54000 34.84400
H  32.39200 4.66200 36.32500

