158

Mg 26.78400 50.92600 26.43300
C  25.19500 52.22200 29.35000
C  29.31300 49.75900 28.48500
C  28.18200 49.54700 23.76100
C  24.84800 52.98000 24.51200
N  27.16900 51.05100 28.71500
C  26.33600 51.50700 29.71900
C  26.86300 51.22100 31.13200
C  28.26400 50.52300 30.81400
C  28.24800 50.42400 29.21600
C  29.50500 51.34900 31.32900
C  25.84200 50.49800 32.02900
C  26.27400 49.76400 33.36400
H  25.73400 50.48500 34.70200
N  28.46500 49.74000 26.19200
C  29.46500 49.40400 27.13000
C  30.45500 48.64800 26.49300
C  30.06200 48.48300 25.16900
C  28.93400 49.32000 24.98700
C  31.56600 47.89300 27.12800
C  30.54300 47.61100 24.11700
O  30.16800 47.61100 22.94200
C  31.34000 46.46100 24.45600
N  26.57000 51.36400 24.38900
C  27.11400 50.46100 23.53000
C  26.53500 50.69900 22.11200
C  25.58300 51.93300 22.36800
C  25.60500 52.08000 23.82800
C  27.54600 50.89700 20.92700
C  24.15900 51.60000 21.89100
C  23.73600 52.42900 20.66800
N  25.33200 52.22700 26.75400
C  24.58400 52.99100 25.85700
C  23.64100 53.79400 26.57400
C  23.84400 53.47600 27.86500
C  24.83100 52.50300 27.96500
C  22.66800 54.74700 25.88400
C  23.28000 53.77400 29.10500
O  22.32100 54.47100 29.35900
C  24.17300 52.91100 30.17500
C  24.70000 53.75300 31.33700
O  25.78100 54.17200 31.39900
O  23.83700 53.85300 32.33600
C  24.07000 54.84400 33.45900
H  30.05900 49.29700 29.13600
H  28.35100 48.93100 22.87600
H  24.16400 53.47700 23.82100
H  27.11600 52.24200 31.41900
H  28.23600 49.52900 31.26000
H  30.06600 51.54100 30.41500
H  30.04400 50.60300 31.91300
H  29.23100 52.27400 31.83700
H  25.27500 49.92200 31.29800
H  25.16800 51.29000 32.35800
H  27.36000 49.79300 33.46300
H  25.90600 48.73800 33.37100
H  31.66200 48.32800 28.12300
H  32.49800 48.08100 26.59500
H  31.25800 46.84900 27.18900
H  30.88100 45.83800 25.22400
H  32.24400 46.90100 24.87800
H  31.72100 45.81900 23.66100
H  25.98700 49.80900 21.80200
H  25.86400 52.88700 21.92000
H  28.53400 51.18100 21.29000
H  27.12200 51.76100 20.41500
H  27.56700 50.03900 20.25500
H  23.39000 51.82300 22.63000
H  24.09900 50.54300 21.63000
H  24.61200 52.94700 20.27900
H  22.95100 53.18000 20.75300
H  23.47800 51.77000 19.83900
H  23.22100 55.54700 25.39200
H  22.06900 55.25500 26.64000
H  22.05700 54.30000 25.10000
H  23.57800 52.10700 30.60800
H  24.44900 55.76900 33.02500
H  24.61900 54.41600 34.29800
H  23.05200 55.00700 33.81500
Mg 10.17000 48.90600 25.97100
C  7.54000 49.33000 28.44900
C  12.28100 50.42200 28.09700
C  12.25500 49.05000 23.46100
C  7.63000 47.82600 23.84500
N  9.90300 49.79100 28.03000
C  8.83000 49.72500 28.94000
C  9.26900 50.19800 30.33400
C  10.66500 50.93200 29.96900
C  10.93400 50.38500 28.59500
C  10.70800 52.48600 30.08100
C  9.60500 48.99100 31.30300
C  9.80100 49.29200 32.80300
H  9.08100 48.49100 33.88900
N  12.00000 49.50200 25.83900
C  12.79200 50.00800 26.84300
C  14.16900 50.08700 26.35100
C  14.15900 49.68300 25.03400
C  12.75500 49.34800 24.69800
C  15.32900 50.54300 27.23400
C  15.31200 49.46900 24.09700
O  15.18200 49.00800 22.91100
C  16.60600 49.88300 24.54700
N  9.97500 48.41300 23.88200
C  10.96200 48.65500 23.02700
C  10.51600 48.34400 21.50700
C  9.10400 47.72600 21.77400
C  8.86000 47.98500 23.27000
C  10.60100 49.62200 20.54100
C  9.01200 46.25400 21.31800
C  9.53100 45.19500 22.30700
N  8.13600 48.52600 26.09500
C  7.24200 48.00500 25.19500
C  5.92000 47.79200 25.70400
C  5.99900 48.31300 26.97400
C  7.35000 48.75400 27.18700
C  4.58700 47.49300 24.92900
C  5.28200 48.53700 28.18400
O  4.12300 48.23900 28.55000
C  6.29300 49.24100 29.19800
C  6.36900 48.22000 30.27000
O  7.04300 47.20100 30.21300
O  5.33700 48.40000 31.18200
C  5.22500 47.55500 32.30400
H  13.01800 50.70900 28.85000
H  12.88100 49.34700 22.61700
H  6.87000 47.38200 23.19900
H  8.56300 50.82600 30.87700
H  11.55600 50.65000 30.52900
H  11.57200 52.78700 30.67400
H  9.76400 52.69600 30.58400
H  10.76100 52.91800 29.08200
H  10.51800 48.54400 30.91100
H  8.84300 48.21300 31.26200
H  9.69300 50.37500 32.86200
H  10.87200 49.11200 32.89500
H  15.88700 51.41000 26.88200
H  16.05600 49.80400 27.57000
H  14.86400 50.98000 28.11800
H  16.71700 50.89200 24.94400
H  17.32000 49.81400 23.72700
H  17.02400 49.17700 25.26400
H  11.20100 47.57100 21.16000
H  8.48700 48.38800 21.16600
H  9.64100 49.63000 20.02600
H  11.53200 49.59600 19.97500
H  10.62900 50.53900 21.13100
H  9.67200 46.01900 20.48300
H  7.98500 46.05300 21.01400
H  10.35600 45.59800 22.89200
H  9.94700 44.34900 21.76000
H  8.75700 44.73900 22.92500
H  3.71600 47.46200 25.58500
H  4.66200 46.54600 24.39600
H  4.44500 48.38300 24.31700
H  5.95500 50.13100 29.72800
H  4.49500 46.79000 32.03900
H  4.87200 48.14600 33.14900
H  6.13300 47.03600 32.60800

