158

Mg 17.21500 -2.56300 28.41400
C  16.57200 -0.53200 31.32400
C  19.12700 -4.57300 30.46400
C  18.09100 -4.34100 25.72200
C  15.76400 -0.11400 26.46900
N  17.67000 -2.58500 30.61200
C  17.22700 -1.69500 31.65100
C  17.73300 -2.09100 33.04300
C  18.80400 -3.21200 32.67300
C  18.51300 -3.50000 31.20800
C  20.31600 -2.87500 32.88300
C  16.52400 -2.53300 33.98200
C  16.25800 -1.61400 35.22800
H  17.35000 -0.83300 35.83600
N  18.37600 -4.32900 28.15000
C  19.04700 -4.92400 29.11000
C  19.71100 -6.05200 28.54400
C  19.64500 -5.95600 27.13900
C  18.67800 -4.86600 26.89100
C  20.35300 -7.05900 29.43700
C  20.36600 -6.75100 26.09400
O  20.19900 -6.58700 24.89000
C  21.31100 -7.86100 26.45500
N  16.87900 -2.36600 26.45100
C  17.30400 -3.21900 25.47900
C  16.90700 -2.71000 24.09600
C  16.11900 -1.40800 24.40000
C  16.22100 -1.26600 25.88500
C  18.10400 -2.54000 23.15400
C  14.69200 -1.39700 23.86400
C  13.75100 -2.41600 24.52600
N  16.32400 -0.68200 28.82300
C  15.78900 0.15500 27.89800
C  15.18100 1.32000 28.49000
C  15.48300 1.12500 29.87100
C  16.16600 -0.12200 30.01100
C  14.48200 2.44200 27.76500
C  15.27400 1.65600 31.23600
O  14.72600 2.65500 31.70900
C  16.10700 0.65000 32.19900
C  17.31500 1.53000 32.56700
O  18.40500 1.60300 32.03400
O  16.93900 2.27100 33.68300
C  17.96200 3.27300 34.15800
H  19.83800 -5.12500 31.08200
H  18.38000 -4.81800 24.78300
H  15.09700 0.51300 25.87300
H  18.31100 -1.28100 33.48900
H  18.62600 -4.14200 33.21400
H  20.69400 -3.63800 33.56400
H  20.43300 -1.87400 33.30000
H  20.84100 -2.89000 31.92800
H  16.70400 -3.57100 34.26300
H  15.66800 -2.52800 33.30600
H  15.88300 -2.31300 35.97600
H  15.54000 -0.81100 35.06100
H  20.11300 -7.14300 30.49700
H  21.41600 -6.82000 29.44400
H  20.18600 -8.10700 29.18800
H  21.98300 -7.48900 27.22800
H  21.87100 -8.04800 25.53900
H  20.65900 -8.69200 26.72600
H  16.22400 -3.43700 23.65500
H  16.55000 -0.44200 24.13800
H  18.13200 -1.46300 22.98900
H  18.03400 -3.04100 22.18900
H  19.02700 -2.85500 23.64100
H  14.75100 -1.66200 22.80800
H  14.06400 -0.50600 23.88100
H  12.97500 -1.91200 25.10200
H  14.35200 -3.04500 25.18400
H  13.27600 -3.02100 23.75400
H  13.66800 2.06000 27.14900
H  15.20900 2.96600 27.14500
H  14.02600 3.12900 28.47800
H  15.43900 0.37600 33.01500
H  17.95200 4.25100 33.67600
H  18.96700 2.90500 33.95200
H  17.99400 3.26700 35.24800
Mg -1.61900 34.77000 26.33400
C  -3.02000 33.00200 29.04400
C  -0.55700 37.17500 28.56100
C  -0.97200 36.75700 23.76100
C  -2.92400 32.33700 24.10500
N  -1.76900 35.04000 28.56500
C  -2.29200 34.15100 29.48900
C  -2.04900 34.64700 30.86000
C  -1.28800 36.00200 30.71900
C  -1.10500 36.08000 29.15900
C  -2.14200 37.28600 31.32400
C  -1.30000 33.52000 31.60200
C  -2.19900 32.96600 32.78500
H  -1.56100 32.82400 34.18800
N  -0.74000 36.59400 26.17100
C  -0.35300 37.41300 27.20200
C  0.24300 38.63500 26.66300
C  0.17600 38.49000 25.25200
C  -0.56400 37.29500 24.96100
C  0.85100 39.65800 27.58700
C  0.79300 39.41500 24.15300
O  0.66100 39.14000 23.00800
C  1.63300 40.53500 24.39500
N  -2.04300 34.58600 24.21600
C  -1.50600 35.52200 23.38400
C  -1.32900 34.96400 21.88800
C  -1.93600 33.56900 22.00600
C  -2.37100 33.48900 23.52700
C  -1.95100 35.88000 20.84400
C  -1.02600 32.32200 21.78100
C  0.04600 31.88500 22.87000
N  -2.77900 33.09300 26.54400
C  -3.11500 32.13800 25.52500
C  -3.81400 31.01300 26.10900
C  -3.84600 31.31700 27.51900
C  -3.18400 32.58600 27.71900
C  -4.43600 29.85000 25.38200
C  -4.32400 30.91500 28.80500
O  -5.13700 30.03700 29.10000
C  -3.73400 31.89800 29.84300
C  -4.78600 32.43900 30.74300
O  -5.46500 33.45800 30.61900
O  -4.97500 31.49400 31.81400
C  -6.05000 31.85000 32.77400
H  -0.25300 37.97300 29.24200
H  -0.53700 37.32600 22.93700
H  -3.19900 31.52600 23.42900
H  -3.07100 34.84700 31.18300
H  -0.31400 36.07800 31.20100
H  -2.83200 37.77300 30.63500
H  -1.39400 38.02000 31.62400
H  -2.58000 36.82400 32.20900
H  -0.31800 33.82500 31.96300
H  -1.06800 32.72000 30.89900
H  -2.53200 31.95700 32.54000
H  -3.12700 33.50900 32.96500
H  1.80200 39.39300 28.05000
H  0.17500 39.80900 28.42900
H  0.68400 40.62600 27.11400
H  2.65600 40.21700 24.59200
H  1.30400 41.19300 25.20000
H  1.64700 41.23400 23.55900
H  -0.28000 34.86100 21.61100
H  -2.80100 33.45800 21.35200
H  -1.94500 36.92200 21.16400
H  -2.97200 35.53600 20.67700
H  -1.47500 35.80300 19.86700
H  -0.40700 32.31300 20.88400
H  -1.63000 31.42700 21.63400
H  -0.31900 30.96400 23.32400
H  0.12200 32.70500 23.58300
H  1.02500 31.67200 22.44100
H  -4.53000 28.98900 26.04500
H  -3.89000 29.54600 24.49000
H  -5.43100 30.15000 25.05200
H  -3.09700 31.19900 30.38600
H  -6.91200 32.36400 32.34900
H  -5.65500 32.42100 33.61400
H  -6.51300 30.91500 33.09000

