158

Mg -11.73500 37.74800 42.74100
C  -9.54000 35.17300 41.88700
C  -9.46300 39.95600 41.16000
C  -13.89500 40.02100 43.24100
C  -14.08000 35.24400 43.82500
N  -9.74300 37.56700 41.55500
C  -9.05100 36.40100 41.42000
C  -7.83600 36.64300 40.55800
C  -7.65100 38.15800 40.65800
C  -9.03900 38.62100 41.19600
C  -6.49800 38.78700 41.56000
C  -7.98500 35.99200 39.12100
C  -7.15000 36.59000 37.99800
H  -6.50600 35.59400 37.00200
N  -11.73100 39.71000 42.23000
C  -10.67800 40.42400 41.69200
C  -11.10900 41.83500 41.71900
C  -12.41000 41.90800 42.30600
C  -12.67900 40.48600 42.65100
C  -10.20000 42.95700 41.21000
C  -13.16500 43.12700 42.55700
O  -12.68100 44.20400 42.18600
C  -14.60300 43.24600 43.01700
N  -13.87800 37.63000 43.21400
C  -14.44000 38.79400 43.54900
C  -15.75200 38.59700 44.35300
C  -15.65700 37.04400 44.68400
C  -14.51600 36.60000 43.81600
C  -16.03600 39.43500 45.61300
C  -16.99600 36.21400 44.54100
C  -17.39900 35.42200 45.82400
N  -11.92500 35.67900 42.83400
C  -12.86800 34.80000 43.37000
C  -12.36100 33.43200 43.31800
C  -11.01000 33.53000 42.83500
C  -10.77900 34.92700 42.48600
C  -13.15900 32.17200 43.60400
C  -9.86000 32.78600 42.52600
O  -9.54200 31.61200 42.78200
C  -8.82800 33.80800 41.89100
C  -7.52700 33.85100 42.68400
O  -7.27500 34.63800 43.58300
O  -6.66900 32.90800 42.20500
C  -5.33200 32.86400 42.82000
H  -8.80300 40.68600 40.68700
H  -14.56300 40.81300 43.58900
H  -14.75700 34.49700 44.24500
H  -7.01200 36.09300 41.01400
H  -7.54300 38.56600 39.65300
H  -6.90600 39.26000 42.45300
H  -5.97300 39.57600 41.02300
H  -5.87200 37.95700 41.88800
H  -9.05900 35.97100 38.93600
H  -7.74800 34.92800 39.13200
H  -6.32500 37.04600 38.54500
H  -7.70300 37.39500 37.51400
H  -9.15800 42.63900 41.23300
H  -10.27000 43.94500 41.66600
H  -10.37000 43.17500 40.15500
H  -15.18300 42.47200 42.51400
H  -14.99100 44.17500 42.59800
H  -14.65900 43.10500 44.09600
H  -16.61000 38.80400 43.71300
H  -15.30300 36.91400 45.70700
H  -16.81400 40.16200 45.38100
H  -15.13900 40.00700 45.85200
H  -16.47600 38.89300 46.45000
H  -16.72100 35.56800 43.70700
H  -17.85300 36.81500 44.23500
H  -16.61100 35.60200 46.55400
H  -17.47900 34.34500 45.67300
H  -18.38800 35.78700 46.10100
H  -12.73600 31.42800 42.93000
H  -14.20900 32.32100 43.35100
H  -13.05400 31.89500 44.65300
H  -8.49000 33.48200 40.90700
H  -4.62100 32.41400 42.12800
H  -5.28100 32.24300 43.71500
H  -4.94600 33.84700 43.08900
Mg -5.73900 24.91100 25.37500
C  -4.07300 26.13200 28.17600
C  -7.28900 22.57400 27.40900
C  -7.14300 23.43800 22.62700
C  -3.67900 26.90800 23.32200
N  -5.42800 24.31700 27.57600
C  -4.94100 25.09700 28.49600
C  -5.64300 24.80500 29.85600
C  -6.33500 23.44700 29.59300
C  -6.33600 23.45100 28.03600
C  -5.58900 22.17600 30.10300
C  -6.49100 25.95300 30.34500
C  -6.31000 26.36400 31.83500
H  -5.70400 25.40700 32.88400
N  -7.08300 23.21500 25.10200
C  -7.65300 22.50400 26.06200
C  -8.63100 21.61000 25.46700
C  -8.64400 21.86000 24.02200
C  -7.61400 22.89500 23.82500
C  -9.42000 20.64100 26.28900
C  -9.60100 21.32800 22.97600
O  -9.60500 21.72800 21.79400
C  -10.70800 20.33100 23.41700
N  -5.47600 25.15200 23.31200
C  -6.15600 24.39700 22.40800
C  -5.81200 24.83500 20.94600
C  -4.76000 26.02300 21.08800
C  -4.66000 26.08600 22.67200
C  -5.32700 23.65100 19.96800
C  -5.11100 27.37000 20.50600
C  -4.39300 27.78000 19.21700
N  -4.12700 26.18800 25.62300
C  -3.53200 27.01800 24.74500
C  -2.66800 27.93600 25.43900
C  -2.93000 27.70800 26.78200
C  -3.73700 26.58300 26.84600
C  -1.80400 28.95900 24.80800
C  -2.57000 28.07700 28.09900
O  -1.78100 29.00700 28.46700
C  -3.34200 27.13900 29.14100
C  -2.27900 26.60800 30.15000
O  -1.17700 26.15700 29.93400
O  -2.79600 26.95200 31.34600
C  -1.94000 26.90700 32.46100
H  -7.88300 21.90800 28.03700
H  -7.57400 22.94500 21.75300
H  -3.11600 27.59300 22.68400
H  -4.91400 24.60700 30.64200
H  -7.35900 23.43700 29.96500
H  -6.19400 21.32600 30.41800
H  -4.91300 22.41500 30.92500
H  -4.85800 21.79700 29.39000
H  -7.56700 25.78300 30.30500
H  -6.28000 26.77000 29.65500
H  -7.28400 26.69900 32.19200
H  -5.71400 27.27600 31.81100
H  -9.07200 20.41100 27.29600
H  -9.50600 19.64100 25.86300
H  -10.48500 20.83600 26.41600
H  -11.28400 20.82000 24.20200
H  -10.25100 19.43800 23.84200
H  -11.25900 20.01800 22.52900
H  -6.70600 25.23500 20.46800
H  -3.82400 25.57900 20.74800
H  -5.72600 23.88800 18.98300
H  -5.52800 22.62900 20.29200
H  -4.23900 23.63900 20.04100
H  -5.07300 28.14800 21.26800
H  -6.12100 27.33500 20.09900
H  -3.34200 27.49200 19.19700
H  -4.49700 28.86200 19.12800
H  -4.96400 27.31000 18.41700
H  -2.47800 29.59300 24.23300
H  -1.06700 28.51900 24.13600
H  -1.35400 29.55500 25.60300
H  -4.06100 27.89800 29.44700
H  -1.68900 25.91300 32.83200
H  -2.33000 27.42800 33.33500
H  -0.91500 27.26900 32.37600

