158

Mg 34.91000 2.12300 29.34200
C  32.48600 3.38900 31.70700
C  37.25300 2.20200 31.61500
C  37.01600 1.56800 26.77400
C  32.37800 2.68400 26.89500
N  34.82400 2.69200 31.39200
C  33.82600 3.11500 32.20300
C  34.26900 3.18000 33.70100
C  35.85900 2.95600 33.63700
C  35.99500 2.53000 32.14700
C  36.75000 4.10200 33.98700
C  33.45500 2.24300 34.66400
C  32.79800 2.71400 35.95900
H  33.45300 3.95400 36.65800
N  36.78800 1.75000 29.24900
C  37.63500 1.85100 30.32400
C  38.95200 1.45600 29.83000
C  38.85800 1.26500 28.48100
C  37.49600 1.53400 28.05200
C  40.21300 1.34700 30.72900
C  39.96800 0.86200 27.48700
O  39.72600 0.41500 26.39800
C  41.34300 0.61100 28.01900
N  34.74100 2.27300 27.11600
C  35.73000 1.81200 26.30300
C  35.25000 1.82600 24.84800
C  33.69600 1.87300 24.98100
C  33.56500 2.25800 26.41400
C  35.87600 3.04800 23.99700
C  33.09800 0.44400 24.78700
C  31.80300 0.36200 23.91500
N  32.81600 2.83200 29.27500
C  31.94900 3.04100 28.18100
C  30.65200 3.60500 28.68200
C  30.87500 3.75400 30.04800
C  32.15100 3.27100 30.35900
C  29.45100 4.07900 27.85800
C  30.35000 4.25400 31.33200
O  29.25600 4.79200 31.50400
C  31.29700 4.04200 32.45800
C  31.58800 5.38300 33.03100
O  32.29400 6.21800 32.47800
O  30.82900 5.46500 34.13200
C  31.03900 6.68800 34.87000
H  38.12400 2.26500 32.27100
H  37.73500 1.38700 25.97200
H  31.52800 2.69600 26.21000
H  33.95100 4.19300 33.94800
H  36.16800 2.03800 34.13600
H  36.10600 4.83700 34.47200
H  37.18400 4.61700 33.13000
H  37.54200 3.92500 34.71400
H  34.15600 1.43500 34.87100
H  32.57700 1.86200 34.14200
H  32.70900 1.88300 36.65900
H  31.76800 3.03400 35.79900
H  40.47700 0.29200 30.79400
H  39.96200 1.83600 31.67100
H  40.99800 1.96500 30.29200
H  41.82400 1.52700 28.36300
H  41.86900 0.17000 27.17200
H  41.40400 -0.05200 28.88300
H  35.42300 0.84900 24.39600
H  33.22700 2.61800 24.33800
H  36.34400 2.78800 23.04800
H  36.58300 3.62800 24.58900
H  35.09200 3.77800 23.79700
H  32.90500 0.14000 25.81600
H  33.87300 -0.19100 24.35700
H  31.52800 1.33600 23.51100
H  30.98100 0.03700 24.55300
H  31.95900 -0.24700 23.02400
H  28.62900 3.38300 28.02600
H  29.71800 4.12400 26.80200
H  29.17700 5.10800 28.09200
H  30.84000 3.36600 33.18000
H  30.50700 7.43000 34.27500
H  32.10300 6.86700 35.02600
H  30.47000 6.66800 35.79900
Mg 46.65500 25.53300 29.04100
C  48.02300 27.77400 31.53700
C  46.03500 23.43300 31.76600
C  46.03600 23.14400 26.85700
C  47.92900 27.68900 26.74700
N  46.92800 25.67200 31.43800
C  47.39500 26.69500 32.16200
C  47.14300 26.48700 33.67400
C  46.79400 24.96100 33.73400
C  46.52100 24.71000 32.21800
C  47.74300 24.08400 34.50300
C  46.10400 27.35400 34.28500
C  46.43800 27.99200 35.62000
H  45.44300 28.00900 36.82400
N  45.94000 23.62200 29.28900
C  45.80400 22.93900 30.44600
C  45.30100 21.58600 30.13000
C  45.29100 21.53100 28.73400
C  45.77300 22.80400 28.19500
C  44.70100 20.69000 31.10500
C  45.05500 20.34500 27.84600
O  45.12800 20.36500 26.64800
C  44.64000 19.05200 28.42100
N  46.91700 25.43300 27.02800
C  46.55200 24.36000 26.26600
C  46.79900 24.71800 24.81700
C  47.17100 26.16900 24.80100
C  47.40800 26.41500 26.29500
C  47.79700 23.74400 24.06600
C  46.10500 27.17000 24.21700
C  46.51000 27.83600 22.87500
N  47.70100 27.41400 29.05600
C  48.12700 28.18100 28.05000
C  48.70600 29.41900 28.52700
C  48.66700 29.28500 29.91900
C  48.14600 28.04000 30.15000
C  49.33500 30.54200 27.72100
C  48.96200 29.89700 31.10900
O  49.46400 30.99500 31.42400
C  48.58200 28.98400 32.23200
C  49.72200 28.47900 33.08100
O  50.47300 27.58300 32.88100
O  49.63400 29.17500 34.26300
C  50.45500 28.72800 35.40500
H  45.96800 22.70400 32.57600
H  45.62600 22.58000 26.01600
H  48.16000 28.35600 25.91400
H  48.12100 26.66800 34.12000
H  45.84700 24.87400 34.26600
H  47.30800 23.58300 35.36700
H  48.60300 24.59300 34.93800
H  48.15700 23.29300 33.87800
H  45.15400 26.83200 34.40300
H  45.82100 28.11000 33.55200
H  46.42200 29.02000 35.25600
H  47.46800 27.81200 35.92800
H  45.55800 20.08300 31.39500
H  43.82500 20.14600 30.75100
H  44.55300 21.15900 32.07800
H  43.56400 19.09800 28.59100
H  45.25900 18.77600 29.27400
H  44.87800 18.29000 27.67900
H  45.81200 24.58400 24.37400
H  48.14300 26.32800 24.33500
H  48.66400 24.30900 23.72300
H  47.28000 23.46700 23.14800
H  48.11100 22.88500 24.65900
H  46.00500 27.97700 24.94300
H  45.12200 26.71900 24.08600
H  47.55900 27.65300 22.64200
H  46.32300 28.90900 22.91100
H  45.88000 27.37200 22.11600
H  50.23900 30.12700 27.27600
H  49.62000 31.45200 28.24900
H  48.64400 30.71700 26.89600
H  47.89400 29.60000 32.81100
H  51.47900 29.10100 35.38900
H  50.56400 27.64300 35.43300
H  50.14600 29.16300 36.35500

