158

Mg 42.96800 42.80400 26.19900
C  41.88600 45.01400 28.68300
C  44.11500 40.65200 28.74600
C  44.31900 40.92100 23.84800
C  42.34300 45.33400 23.83600
N  42.98900 42.85200 28.44300
C  42.43100 43.80900 29.27900
C  42.41900 43.34100 30.79000
C  43.46200 42.18100 30.78900
C  43.63600 41.90400 29.24000
C  44.81000 42.36800 31.57900
C  40.97500 43.07400 31.27700
C  40.42300 43.69500 32.56200
H  41.38500 43.92800 33.69100
N  43.86100 40.97700 26.31400
C  44.31300 40.29100 27.40500
C  44.99500 39.11800 26.93500
C  44.91800 39.10700 25.56200
C  44.33000 40.35900 25.20300
C  45.64100 38.08800 27.88200
C  45.39500 38.02600 24.58400
O  44.94100 37.96100 23.48600
C  46.37400 37.01300 24.94700
N  43.38000 43.20100 24.13100
C  43.84800 42.18200 23.37500
C  43.72900 42.49200 21.93700
C  43.04700 43.89400 21.85100
C  42.84600 44.17000 23.33700
C  45.08200 42.28200 21.17200
C  41.74000 43.99300 20.96300
C  40.54100 43.20700 21.52900
N  42.23500 44.72500 26.21300
C  42.03100 45.61500 25.15900
C  41.56200 46.89600 25.68900
C  41.38100 46.67600 27.06500
C  41.88900 45.34200 27.36500
C  41.39700 48.13600 24.86500
C  40.94900 47.22900 28.31900
O  40.44200 48.30300 28.58400
C  41.20500 46.14100 29.43400
C  42.14200 46.75300 30.44700
O  43.19500 47.35400 30.20700
O  41.55800 46.71600 31.66400
C  42.00000 47.94300 32.43200
H  44.35300 39.99900 29.58800
H  44.65700 40.15600 23.14600
H  41.88500 46.01500 23.11500
H  42.84200 44.08000 31.47000
H  42.84600 41.32200 31.05400
H  45.60900 42.29700 30.84100
H  44.88900 41.69300 32.43100
H  44.76900 43.33300 32.08400
H  40.93100 41.98700 31.35300
H  40.25400 43.27300 30.48400
H  39.73000 42.92700 32.90700
H  39.84600 44.59700 32.35900
H  45.55900 38.49600 28.89000
H  46.66900 37.77200 27.70800
H  45.11700 37.13300 27.85200
H  47.17200 37.60700 25.39300
H  46.66200 36.61300 23.97500
H  46.00400 36.24000 25.61900
H  43.06200 41.76900 21.46800
H  43.73900 44.61400 21.41600
H  46.05700 42.39700 21.64500
H  45.27200 43.04500 20.41700
H  45.07200 41.30300 20.69400
H  41.97200 43.88700 19.90300
H  41.38900 45.00500 21.16600
H  39.79600 43.96800 21.76200
H  40.92700 42.69200 22.40900
H  40.11600 42.48600 20.83100
H  42.40300 48.52900 24.71300
H  40.77800 48.77700 25.49200
H  40.84100 47.85500 23.97100
H  40.25100 45.93200 29.91600
H  41.53800 47.91800 33.41900
H  41.71900 48.90700 32.01000
H  43.08800 47.99300 32.46600
Mg -1.62900 33.49300 26.85600
C  -3.10200 31.92600 29.59500
C  -0.32300 35.88300 29.21500
C  -0.50300 35.32000 24.25600
C  -3.22700 31.26600 24.74800
N  -1.59800 33.76300 29.18500
C  -2.33000 32.97000 30.01600
C  -2.19600 33.43700 31.44300
C  -1.45200 34.82800 31.21400
C  -1.05000 34.82900 29.75800
C  -2.14600 36.09900 31.74500
C  -1.36400 32.42900 32.36500
C  -2.03300 32.03800 33.65200
H  -1.09900 31.93300 34.91300
N  -0.55900 35.24400 26.74300
C  -0.12900 36.05900 27.79500
C  0.56600 37.17500 27.26700
C  0.51100 37.10000 25.85400
C  -0.19200 35.84100 25.53400
C  1.34100 38.21400 28.19200
C  1.03900 38.05500 24.80200
O  0.93800 37.93900 23.52900
C  1.62900 39.45100 25.21400
N  -2.00200 33.46400 24.75100
C  -1.25600 34.21300 23.89800
C  -1.37500 33.58100 22.43600
C  -2.40200 32.51400 22.67600
C  -2.52200 32.33100 24.14500
C  -1.79300 34.56700 21.29600
C  -2.14800 31.17300 21.93500
C  -0.95400 30.40900 22.48400
N  -2.93600 31.93500 27.08200
C  -3.47500 31.07500 26.11400
C  -4.24000 30.08900 26.76100
C  -4.15200 30.40700 28.11200
C  -3.32000 31.51600 28.21400
C  -4.97200 29.02400 25.99200
C  -4.58500 29.99000 29.44600
O  -5.31000 29.07900 29.86400
C  -4.01200 30.98800 30.46800
C  -5.04600 31.69400 31.28100
O  -5.60700 32.73700 30.87300
O  -5.26600 31.12500 32.46800
C  -6.36500 31.68400 33.30200
H  0.09500 36.44800 30.05200
H  -0.07800 35.83900 23.39500
H  -3.68300 30.44900 24.18400
H  -3.16200 33.64000 31.90600
H  -0.48000 34.81700 31.70700
H  -1.36100 36.72500 32.16900
H  -2.71300 35.82000 32.63400
H  -2.73000 36.60400 30.97600
H  -0.46100 32.94300 32.69300
H  -1.20600 31.50700 31.80600
H  -2.41200 31.01800 33.59400
H  -2.93600 32.64300 33.73400
H  2.37700 38.36300 27.88700
H  1.28400 37.88200 29.22900
H  0.82300 39.17300 28.20500
H  2.65600 39.33400 25.56300
H  1.08700 39.86700 26.06400
H  1.49700 40.08100 24.33500
H  -0.46800 33.04200 22.16200
H  -3.40600 32.79600 22.35800
H  -0.94800 34.53600 20.60900
H  -1.99700 35.54100 21.74000
H  -2.62700 34.28500 20.65300
H  -1.94100 31.45100 20.90200
H  -3.07300 30.59900 21.98700
H  -0.07600 30.47600 21.84100
H  -1.24400 29.35900 22.47000
H  -0.60900 30.62000 23.49600
H  -4.62300 28.69100 25.01500
H  -5.98800 29.41000 25.91100
H  -5.00300 28.24500 26.75400
H  -3.30400 30.44200 31.09100
H  -6.03200 32.61600 33.75900
H  -6.75300 30.90000 33.95100
H  -7.15100 31.91200 32.58300

