158

Mg 23.49900 -7.38800 46.57200
C  26.10900 -5.21800 45.53100
C  21.45100 -5.78900 44.43700
C  21.41200 -10.04800 46.78000
C  26.00000 -9.22200 48.35800
N  23.89400 -5.78900 45.04300
C  24.89700 -4.89400 44.96900
C  24.59800 -3.81300 43.91700
C  23.05200 -3.87100 43.84800
C  22.73700 -5.25000 44.44400
C  22.36100 -2.70100 44.74700
C  25.35500 -4.14200 42.50000
C  26.11100 -2.96600 41.94400
H  25.78100 -2.64100 40.52200
N  21.62700 -7.85400 45.82600
C  20.90900 -6.93200 45.06800
C  19.58600 -7.59200 44.94500
C  19.70900 -8.95600 45.36000
C  20.92800 -9.02500 45.97700
C  18.40400 -6.93200 44.37800
C  18.70900 -9.93900 45.08300
O  17.70000 -9.78000 44.39100
C  18.87000 -11.40500 45.52100
N  23.69700 -9.34200 47.40300
C  22.67200 -10.19200 47.42900
C  23.05000 -11.57400 48.11300
C  24.45200 -11.29400 48.70100
C  24.71400 -9.81800 48.15100
C  22.10100 -12.11400 49.20600
C  25.54100 -12.29100 48.34500
C  25.74000 -13.39400 49.42800
N  25.56600 -7.20300 47.04500
C  26.40900 -8.00500 47.80000
C  27.77900 -7.42300 47.81600
C  27.69300 -6.36400 46.86500
C  26.34500 -6.31200 46.44100
C  28.99000 -8.06100 48.45800
C  28.39200 -5.26100 46.32200
O  29.54900 -4.87300 46.51400
C  27.40800 -4.52900 45.33300
C  27.37400 -3.08800 45.74200
O  26.78700 -2.74300 46.78200
O  27.97500 -2.21600 44.82700
C  28.01600 -0.78800 45.33800
H  20.69400 -5.20000 43.91500
H  20.82500 -10.93300 47.03600
H  26.72800 -9.68700 49.02500
H  24.94400 -2.85200 44.29700
H  22.56800 -3.76100 42.87800
H  21.86800 -3.19300 45.58500
H  21.63500 -2.15400 44.14600
H  23.08900 -2.09000 45.28100
H  24.52200 -4.28600 41.81200
H  25.97100 -5.03300 42.62100
H  27.17500 -3.20100 41.98900
H  26.02100 -2.14800 42.65800
H  18.82100 -5.93800 44.21700
H  17.58000 -6.88500 45.08900
H  18.02700 -7.27900 43.41600
H  18.71800 -11.49000 46.59700
H  19.82500 -11.81800 45.19500
H  18.16000 -11.99100 44.93700
H  23.00100 -12.30400 47.30400
H  24.45100 -11.18100 49.78500
H  22.67400 -12.24900 50.12400
H  21.73000 -13.08000 48.86400
H  21.34200 -11.37900 49.47700
H  26.47400 -11.75300 48.18100
H  25.40400 -12.87200 47.43300
H  25.03700 -13.24600 50.24800
H  26.76700 -13.37700 49.79200
H  25.74700 -14.43500 49.10400
H  29.83700 -7.37900 48.52800
H  29.29500 -8.98500 47.96600
H  28.73400 -8.35600 49.47600
H  27.84500 -4.53100 44.33500
H  28.90000 -0.64400 45.95800
H  27.07700 -0.50400 45.81300
H  28.11900 -0.04200 44.55100
Mg 6.90500 53.90700 41.43000
C  6.53200 50.51500 40.90200
C  10.14100 53.67200 40.08200
C  6.83700 57.21600 40.86800
C  3.57700 54.04700 42.49000
N  8.05900 52.35100 40.47500
C  7.75000 50.96400 40.50300
C  9.00900 50.07700 40.19500
C  10.10600 51.09300 40.30900
C  9.39200 52.50500 40.36200
C  11.03800 50.83600 41.57100
C  8.92500 49.27800 38.85100
C  8.80500 50.22600 37.61600
H  7.37100 50.51400 37.04700
N  8.27600 55.26800 40.56700
C  9.53800 54.99300 40.12100
C  10.21600 56.22700 39.82800
C  9.30000 57.24800 40.16600
C  8.05700 56.59500 40.57400
C  11.61900 56.27200 39.19900
C  9.61200 58.76600 40.24200
O  10.69100 59.13400 39.77900
C  8.66900 59.80200 40.79300
N  5.36800 55.46700 41.71000
C  5.62000 56.79400 41.38000
C  4.35200 57.74300 41.67600
C  3.35200 56.66800 42.17800
C  4.15600 55.32200 42.15900
C  4.53600 58.92500 42.61800
C  2.09500 56.52900 41.21100
C  0.78800 56.86300 41.96500
N  5.38300 52.59000 41.79900
C  4.09900 52.78200 42.26900
C  3.48800 51.50100 42.47800
C  4.40700 50.64000 41.95500
C  5.51700 51.30400 41.48000
C  2.10300 51.17700 42.90400
C  4.66400 49.24400 41.66100
O  3.88600 48.31000 41.81000
C  6.05900 49.09700 40.95900
C  5.75600 48.47700 39.73500
O  5.10600 49.05100 38.85300
O  6.28200 47.15000 39.65700
C  5.96000 46.44500 38.39600
H  11.17700 53.50000 39.78400
H  6.71300 58.20200 40.41400
H  2.51400 54.07300 42.73800
H  9.04300 49.37300 41.02600
H  10.78400 50.86300 39.48700
H  11.49100 51.77400 41.89200
H  11.85400 50.21400 41.20300
H  10.60300 50.22500 42.36300
H  8.11400 48.55000 38.86300
H  9.84400 48.69900 38.76700
H  9.48400 49.92200 36.82000
H  9.22300 51.18600 37.91800
H  11.75800 55.44600 38.50000
H  12.39600 56.17900 39.95800
H  11.72500 57.20300 38.64300
H  7.88700 60.14700 40.11700
H  9.22000 60.72200 40.98600
H  8.13400 59.51800 41.69900
H  4.16900 58.06300 40.65100
H  3.07300 56.82900 43.22000
H  4.74000 59.79700 41.99700
H  5.31000 58.84800 43.38100
H  3.59000 59.03600 43.14800
H  1.88500 55.52100 40.85300
H  2.23800 57.29500 40.44900
H  -0.09600 56.70200 41.34800
H  0.65000 57.89900 42.27300
H  0.59200 56.23900 42.83700
H  2.04700 50.86100 43.94500
H  1.78600 50.34000 42.28200
H  1.43800 52.02300 42.72800
H  6.66200 48.55000 41.68300
H  4.95700 46.01900 38.43800
H  6.65300 45.65300 38.11200
H  6.13300 47.02800 37.49100

