158

Mg 9.55700 3.47000 27.11100
C  10.72900 1.79800 29.92500
C  8.29100 5.92600 29.12800
C  8.02800 4.89200 24.42200
C  10.62200 0.80600 25.13200
N  9.47500 3.75200 29.25300
C  10.05100 3.01300 30.24100
C  9.70200 3.54400 31.66900
C  8.79000 4.78200 31.31600
C  8.94800 4.89500 29.78600
C  7.35900 4.62800 31.79800
C  10.96100 3.84200 32.48100
C  10.88500 4.67500 33.74000
H  11.86400 4.44000 34.82600
N  8.29100 5.20100 26.81700
C  7.90600 6.05500 27.73600
C  7.21400 7.10900 27.17000
C  7.21700 6.89900 25.79400
C  7.84900 5.63200 25.61500
C  6.69200 8.19700 28.00000
C  6.77800 7.80400 24.72100
O  6.78900 7.44500 23.59400
C  6.21700 9.13500 25.00600
N  9.10500 2.70700 25.12300
C  8.58400 3.56100 24.18200
C  8.66500 3.00300 22.72900
C  9.49400 1.68900 22.91800
C  9.77900 1.72000 24.51000
C  7.29500 2.77300 22.04600
C  10.78200 1.49800 22.12600
C  10.86900 0.11900 21.46100
N  10.50700 1.68600 27.38500
C  10.93800 0.74000 26.48400
C  11.63900 -0.24000 27.22200
C  11.63600 0.08200 28.62200
C  10.87800 1.29800 28.63100
C  12.30600 -1.45800 26.60400
C  12.00300 -0.33800 29.92300
O  12.58800 -1.33400 30.34400
C  11.43900 0.81800 30.87300
C  10.48600 0.25600 31.94400
O  9.34200 -0.13600 31.85200
O  11.25900 0.06700 33.10700
C  10.50600 -0.47200 34.28500
H  7.86100 6.66100 29.81200
H  7.81300 5.35700 23.45700
H  10.96600 -0.05200 24.55000
H  9.24500 2.74400 32.25300
H  9.06400 5.71800 31.80300
H  6.63100 4.69200 30.98900
H  7.11100 5.43500 32.48800
H  7.15600 3.66100 32.25800
H  11.72400 4.28500 31.84200
H  11.24800 2.82500 32.74800
H  9.89800 4.85100 34.16900
H  11.16800 5.65100 33.34400
H  7.33700 9.03100 27.72200
H  6.74600 8.05600 29.07900
H  5.68300 8.48300 27.70400
H  6.91400 9.79300 25.52500
H  5.31100 8.91100 25.56900
H  5.90900 9.57700 24.05800
H  9.27700 3.75400 22.23100
H  8.95100 0.78500 22.63900
H  7.14500 3.48300 21.23300
H  6.46100 2.95900 22.72200
H  7.27800 1.74200 21.69200
H  11.59300 1.70500 22.82400
H  10.65900 2.26700 21.36300
H  10.48900 -0.60800 22.17900
H  11.91000 -0.18400 21.35200
H  10.37200 0.03600 20.49400
H  12.96000 -1.20000 25.77100
H  11.63700 -2.22500 26.21500
H  12.91700 -1.96600 27.35000
H  12.26200 1.24600 31.44500
H  10.09700 0.40400 34.78800
H  11.26000 -0.88700 34.95400
H  9.77200 -1.26700 34.15500
Mg 25.39900 51.29300 26.22400
C  23.49600 52.57800 28.82800
C  27.78200 50.17700 28.53800
C  27.65400 50.83400 23.70500
C  23.22200 52.64500 23.95900
N  25.55300 51.36300 28.38800
C  24.63000 51.88600 29.27800
C  25.06000 51.63100 30.71600
C  26.49500 51.00900 30.56400
C  26.63100 50.86800 29.05200
C  27.73500 51.78400 31.18100
C  24.06100 50.77400 31.54600
C  23.72200 51.33700 32.90900
H  24.96800 51.45200 33.84100
N  27.38500 50.55900 26.15300
C  28.16600 50.07100 27.16400
C  29.19200 49.33400 26.67200
C  29.24700 49.60800 25.22000
C  28.03600 50.40600 24.97700
C  30.01300 48.38600 27.47500
C  30.16000 48.99900 24.18800
O  30.07100 49.20300 22.97200
C  31.14400 47.95000 24.58900
N  25.46500 51.80500 24.13500
C  26.48600 51.45000 23.31300
C  26.19700 51.86800 21.89200
C  24.71700 52.18500 21.95600
C  24.38200 52.17700 23.43700
C  26.98100 53.06500 21.23100
C  23.87400 51.33700 21.01300
C  23.13600 50.07500 21.63600
N  23.56900 52.31800 26.30000
C  22.83500 52.86800 25.35100
C  21.58700 53.53000 25.88300
C  21.77900 53.39100 27.26200
C  23.06300 52.74400 27.42400
C  20.49400 54.20800 25.14700
C  21.26100 53.68300 28.55200
O  20.29300 54.33000 28.92700
C  22.31200 53.22500 29.55400
C  22.67200 54.23700 30.48800
O  23.59500 55.04700 30.33200
O  21.75900 54.33300 31.46000
C  21.72000 55.64900 32.27000
H  28.57900 49.96400 29.25500
H  28.16300 50.46200 22.81300
H  22.52200 52.98900 23.19500
H  25.01400 52.58100 31.24800
H  26.58600 50.13500 31.20900
H  27.16100 52.61000 31.60100
H  28.43700 52.12400 30.42000
H  28.30600 51.12000 31.83000
H  24.48600 49.78100 31.69500
H  23.21400 50.49600 30.91900
H  22.90500 50.82200 33.41500
H  23.34200 52.34500 32.74000
H  31.05200 48.70900 27.53300
H  30.05300 47.34300 27.16400
H  29.74300 48.33000 28.53000
H  31.71000 48.25900 25.46800
H  31.82100 47.66300 23.78500
H  30.58900 47.05700 24.87700
H  26.38300 51.08100 21.16200
H  24.57200 53.24800 21.76200
H  27.79800 52.69000 20.61500
H  27.37800 53.69100 22.03000
H  26.45500 53.65700 20.48300
H  24.39300 51.04700 20.10000
H  23.08500 51.95500 20.58300
H  22.09100 50.31900 21.82700
H  23.64800 49.76500 22.54700
H  23.19600 49.20800 20.97700
H  20.45100 53.90900 24.09900
H  20.82500 55.24600 25.15600
H  19.46800 54.05000 25.47900
H  21.93900 52.40300 30.16600
H  21.98300 56.49300 31.63200
H  22.39200 55.50800 33.11600
H  20.72800 55.76200 32.70800

