158

Mg 44.60200 3.82900 47.35500
C  43.49000 7.00000 46.33100
C  41.75200 2.32800 46.16300
C  46.07800 0.63900 47.51400
C  47.91300 5.27700 48.04100
N  42.90300 4.52600 46.35700
C  42.61300 5.87500 46.11000
C  41.21500 6.02900 45.47300
C  40.55900 4.65500 45.89500
C  41.80700 3.76600 46.13300
C  39.56600 4.62700 47.16600
C  41.36900 6.24200 43.95200
C  40.76000 7.58900 43.34200
H  40.13100 7.52400 41.88900
N  43.94500 1.80100 47.07500
C  42.70000 1.44800 46.63400
C  42.56600 0.02000 46.69000
C  43.79100 -0.48600 47.10200
C  44.66900 0.64400 47.23100
C  41.24900 -0.66300 46.32900
C  44.08300 -1.99000 47.44800
O  43.26200 -2.82700 47.19100
C  45.29900 -2.38400 48.20800
N  46.74500 3.10100 47.52700
C  46.97400 1.72800 47.64800
C  48.53200 1.54900 47.97900
C  49.07400 2.98700 48.22600
C  47.81800 3.85900 47.94900
C  48.95800 0.65700 49.18800
C  50.27900 3.47700 47.43200
C  51.24700 4.46900 48.16700
N  45.54700 5.74700 47.35200
C  46.85500 6.19300 47.73600
C  46.88400 7.60800 47.55700
C  45.63500 8.00900 46.91400
C  44.82400 6.80200 46.88900
C  48.10400 8.41200 47.93900
C  44.82300 9.07000 46.46900
O  44.97300 10.27200 46.58800
C  43.39600 8.46300 46.01600
C  42.41400 9.10400 46.94400
O  42.20200 8.78200 48.08600
O  41.75400 10.25000 46.44500
C  40.69300 10.85500 47.32700
H  40.85800 1.89800 45.70500
H  46.50400 -0.35900 47.63200
H  48.87700 5.71800 48.30500
H  40.59200 6.76000 45.98900
H  40.06000 4.20100 45.03900
H  40.04900 4.13700 48.01100
H  38.67800 4.03600 46.94000
H  39.21200 5.61700 47.45300
H  40.85800 5.41600 43.45800
H  42.37300 6.07300 43.56400
H  41.49100 8.39700 43.37200
H  40.02800 7.87200 44.09900
H  41.29200 -1.24600 45.40900
H  40.46600 0.09300 46.25600
H  40.91300 -1.33600 47.11700
H  45.47900 -1.77900 49.09700
H  46.19700 -2.21900 47.61200
H  45.26500 -3.43000 48.51100
H  48.87800 0.97000 47.12300
H  49.26200 3.00200 49.29900
H  48.08300 0.24500 49.68900
H  49.71700 1.11500 49.82200
H  49.38100 -0.25000 48.75600
H  49.94600 3.82900 46.45600
H  50.94600 2.66200 47.14900
H  52.11800 3.88600 48.46500
H  50.73700 4.71100 49.09900
H  51.34900 5.43700 47.67700
H  48.58100 7.91700 48.78500
H  47.74000 9.39800 48.22800
H  48.86200 8.40300 47.15600
H  43.12600 8.69200 44.98500
H  39.96000 11.42500 46.75500
H  41.18800 11.41900 48.11700
H  40.13200 10.03200 47.77000
Mg -6.23500 24.72100 26.06800
C  -4.49100 26.21800 28.72500
C  -7.41000 22.34700 28.42400
C  -7.68700 23.13800 23.51900
C  -4.54100 26.80600 23.87300
N  -5.92500 24.31800 28.28100
C  -5.32800 25.20500 29.18700
C  -5.69600 24.87700 30.66600
C  -6.19300 23.40800 30.45800
C  -6.56800 23.34700 28.96900
C  -5.23400 22.27400 30.80700
C  -6.80200 25.86700 31.22900
C  -6.34200 26.56600 32.53200
H  -5.61400 25.78300 33.65000
N  -7.35200 22.90600 25.94100
C  -7.69000 22.12100 26.99400
C  -8.42900 20.97900 26.39000
C  -8.56900 21.15900 24.97600
C  -7.91600 22.45600 24.74400
C  -8.95600 19.80900 27.29700
C  -9.29700 20.35600 23.84600
O  -9.36600 20.74000 22.69400
C  -10.21600 19.21600 24.29500
N  -6.17400 24.97900 24.00200
C  -6.99700 24.30800 23.15700
C  -6.92000 24.78600 21.69200
C  -5.81200 25.87600 21.87100
C  -5.53600 25.92500 23.34400
C  -6.69700 23.84000 20.49600
C  -6.09700 27.28900 21.27400
C  -4.97200 27.72900 20.25600
N  -4.73700 26.16500 26.15700
C  -4.10300 26.98300 25.20200
C  -3.17800 27.84000 25.81200
C  -3.21000 27.55500 27.17100
C  -4.17400 26.53200 27.34900
C  -2.34800 28.83900 25.03400
C  -2.74500 27.94000 28.41800
O  -1.81600 28.73600 28.79400
C  -3.58900 27.14700 29.50200
C  -2.52100 26.52300 30.37800
O  -1.74000 25.65000 30.07800
O  -2.60000 27.02800 31.66100
C  -1.68000 26.40000 32.68300
H  -7.64000 21.59600 29.18200
H  -8.12400 22.66400 22.63700
H  -4.16900 27.48000 23.09800
H  -4.83800 24.81800 31.33500
H  -7.05300 23.32200 31.12300
H  -5.87800 21.70800 31.48200
H  -4.43100 22.69700 31.41000
H  -4.96500 21.75800 29.88600
H  -7.75300 25.38100 31.44700
H  -6.87700 26.66200 30.48700
H  -7.22300 27.04900 32.95500
H  -5.74500 27.43700 32.26200
H  -8.82600 18.84300 26.81100
H  -10.01700 20.05900 27.29700
H  -8.57600 19.67600 28.31100
H  -9.47300 18.46800 24.57100
H  -10.70100 18.78600 23.41900
H  -10.98100 19.51200 25.01300
H  -7.87400 25.26800 21.47700
H  -4.95100 25.54800 21.28800
H  -6.31100 22.92200 20.93700
H  -5.98300 24.21000 19.76000
H  -7.64300 23.59400 20.01300
H  -6.16300 28.07800 22.02400
H  -7.03600 27.20700 20.72800
H  -4.83600 28.80400 20.37100
H  -5.48600 27.61400 19.30200
H  -4.03200 27.17700 20.29400
H  -2.29500 29.75000 25.63000
H  -2.78100 29.06300 24.05900
H  -1.36100 28.44700 24.79000
H  -4.20500 27.84800 30.06600
H  -1.87100 25.32800 32.72300
H  -1.84400 26.95200 33.60900
H  -0.65500 26.48700 32.32200

