158

Mg 51.55400 45.77200 42.02300
C  48.64900 47.42100 40.98800
C  50.13600 42.89000 41.07900
C  54.64900 44.53200 42.13000
C  52.90300 48.91200 42.94200
N  49.58800 45.25600 41.12900
C  48.49200 46.04700 40.91500
C  47.29800 45.27400 40.45100
C  47.73100 43.83400 40.86100
C  49.25000 43.97500 40.89200
C  47.29000 43.27700 42.22700
C  46.83600 45.39600 38.98900
C  45.25300 45.24600 38.73800
H  44.77900 44.07500 37.89800
N  52.34000 43.94700 41.56100
C  51.58800 42.84600 41.29000
C  52.39500 41.69000 41.37200
C  53.75300 42.18300 41.36700
C  53.67000 43.64500 41.67200
C  51.84300 40.34600 41.06600
C  54.92100 41.32800 41.07100
O  54.85900 40.08900 40.79400
C  56.41200 41.95700 41.07200
N  53.56900 46.71400 42.45100
C  54.67000 45.85300 42.52700
C  55.98800 46.66600 42.93200
C  55.41800 47.99400 43.23900
C  53.86800 47.89100 42.99100
C  56.79500 45.91900 44.05400
C  55.95500 49.15800 42.22300
C  56.37500 50.41200 42.93800
N  50.96300 47.77500 42.10500
C  51.63200 48.94900 42.40600
C  50.78300 50.05200 42.34600
C  49.67400 49.48000 41.65800
C  49.81600 48.12100 41.56200
C  50.92000 51.48900 42.76400
C  48.33500 49.84300 41.15300
O  47.77800 50.94400 41.23600
C  47.69200 48.54300 40.59300
C  46.31000 48.32100 41.01000
O  45.42400 48.52300 40.26100
O  46.20800 48.02700 42.36000
C  44.84200 47.99000 42.84600
H  49.61900 41.93000 41.02100
H  55.66300 44.12800 42.16300
H  53.29200 49.90000 43.19600
H  46.47200 45.51500 41.12000
H  47.34400 43.09600 40.15800
H  46.71900 43.97800 42.83600
H  48.15300 43.13300 42.87700
H  46.76100 42.32400 42.23800
H  47.36600 44.72700 38.31100
H  47.06600 46.38900 38.60300
H  44.83400 46.09200 38.19300
H  44.73500 45.13600 39.69000
H  50.88300 40.16200 41.54900
H  52.55900 39.63300 41.47400
H  51.74800 40.23600 39.98500
H  56.68100 42.27800 42.07900
H  56.40300 42.85900 40.45900
H  57.11400 41.28000 40.58500
H  56.68900 46.62300 42.09900
H  55.67500 48.27500 44.26000
H  56.56300 46.34700 45.02900
H  57.87800 46.02400 43.98900
H  56.58900 44.85500 44.16700
H  55.21900 49.46600 41.48000
H  56.70200 48.74700 41.54400
H  56.25600 50.38400 44.02100
H  55.76300 51.28200 42.69900
H  57.39800 50.62700 42.62900
H  49.99600 51.74400 43.28300
H  51.11700 52.06600 41.86000
H  51.82100 51.58100 43.37100
H  47.71100 48.65300 39.50800
H  44.16000 47.28500 42.37000
H  44.37300 48.96800 42.74700
H  44.85700 47.67100 43.88800
Mg 0.47200 43.60800 26.68900
C  2.66200 43.67900 29.43800
C  -2.03900 42.56300 28.93700
C  -1.58700 42.89400 24.05200
C  3.06300 44.53300 24.58400
N  0.34900 43.13700 28.88200
C  1.36300 43.34300 29.81300
C  0.86200 43.07500 31.25500
C  -0.66100 42.67100 31.10500
C  -0.77800 42.79900 29.53400
C  -1.03700 41.23400 31.67200
C  1.19000 44.28900 32.16200
C  0.31400 44.60600 33.39800
H  -0.01900 43.52100 34.42700
N  -1.60800 42.96800 26.59200
C  -2.42100 42.64700 27.57100
C  -3.75100 42.47000 26.99600
C  -3.66700 42.56500 25.60700
C  -2.22400 42.78100 25.29900
C  -4.95400 42.13400 27.88700
C  -4.66500 42.33100 24.51600
O  -4.41600 42.39300 23.29000
C  -6.11000 41.93100 24.92200
N  0.71700 43.53800 24.71300
C  -0.24000 43.18000 23.76600
C  0.30500 43.38200 22.31500
C  1.49500 44.34400 22.56000
C  1.81200 44.11300 24.06900
C  0.63600 42.04800 21.54500
C  1.15800 45.87500 22.45400
C  1.86300 46.50700 21.27600
N  2.43600 43.99000 26.90100
C  3.33900 44.40400 25.95700
C  4.65600 44.45400 26.52600
C  4.43100 44.17600 27.85200
C  3.04300 43.92400 28.08500
C  5.95800 44.85900 25.89200
C  5.07700 43.99700 29.15700
O  6.25200 44.00400 29.43100
C  3.91300 43.77000 30.22900
C  4.28100 42.56600 30.96600
O  4.12300 41.42000 30.51200
O  4.68000 42.97400 32.22700
C  4.90100 41.84700 33.15400
H  -2.83900 42.29000 29.62700
H  -2.12400 42.66300 23.12900
H  3.91000 44.74000 23.92700
H  1.55400 42.28000 31.53100
H  -1.30500 43.43400 31.54200
H  -1.31400 40.55700 30.86400
H  -1.99600 41.18100 32.18800
H  -0.18500 40.76900 32.16700
H  1.20900 45.14500 31.48700
H  2.18900 44.12000 32.56400
H  -0.63100 45.10700 33.18900
H  0.93400 45.22100 34.04900
H  -5.83400 42.53000 27.38100
H  -5.04000 42.73800 28.79100
H  -5.00000 41.09300 28.20600
H  -6.76600 41.92800 24.05100
H  -6.57900 42.74400 25.47800
H  -6.02300 40.96400 25.41600
H  -0.50300 43.95100 21.85600
H  2.35700 44.07800 21.94800
H  -0.27300 41.82000 20.98800
H  0.91300 41.27600 22.26300
H  1.38900 42.17600 20.76700
H  1.35500 46.48700 23.33500
H  0.10800 46.13100 22.31500
H  1.19200 46.87600 20.50100
H  2.55500 45.84900 20.75000
H  2.42700 47.35300 21.67000
H  6.37000 45.51100 26.66100
H  6.01800 45.19800 24.85800
H  6.69800 44.06600 25.78000
H  3.89000 44.68600 30.82000
H  4.22400 41.89500 34.00700
H  5.89000 42.06100 33.55800
H  4.84000 40.79400 32.88000

