158

Mg 42.00600 7.89500 29.93300
C  43.79600 9.45100 32.39300
C  39.88300 6.57000 32.25500
C  40.30100 6.49600 27.45500
C  44.84600 8.34100 27.68900
N  42.05500 7.90900 32.08900
C  42.66200 8.83000 32.83900
C  42.08800 8.82000 34.31200
C  40.81200 7.82400 34.21900
C  40.98900 7.33800 32.81400
C  40.80900 6.62800 35.28000
C  41.73400 10.23300 34.88400
C  42.44900 10.68700 36.21200
H  41.55600 11.36700 37.30300
N  40.31000 6.80800 29.87700
C  39.55100 6.33100 30.92500
C  38.39900 5.60300 30.43000
C  38.38200 5.74500 29.02200
C  39.72600 6.32500 28.74800
C  37.43900 4.89800 31.38100
C  37.24400 5.33200 28.02200
O  37.49800 5.31200 26.82300
C  35.90700 5.19500 28.56500
N  42.64400 7.22300 27.89200
C  41.64200 6.88200 27.12500
C  42.15800 6.79200 25.63900
C  43.67600 7.29100 25.74100
C  43.80200 7.58500 27.21700
C  42.03800 5.32800 25.03500
C  43.96100 8.36000 24.76500
C  43.28900 9.73200 25.14100
N  43.95700 8.73300 29.98300
C  44.96800 8.81600 29.04900
C  45.97700 9.69300 29.58800
C  45.65300 9.93700 30.95500
C  44.40200 9.35500 31.15000
C  47.09200 10.31100 28.77200
C  46.04800 10.64600 32.16300
O  46.97200 11.40900 32.40100
C  44.83900 10.26200 33.22500
C  45.38300 9.45000 34.37300
O  45.45500 8.21300 34.59600
O  45.91400 10.40300 35.21900
C  46.32400 9.97700 36.57700
H  39.06000 6.35900 32.94000
H  39.75500 6.16400 26.57000
H  45.58900 8.58600 26.92800
H  42.89400 8.32000 34.84900
H  39.86100 8.33000 34.05000
H  39.75500 6.55000 35.54600
H  41.49600 6.97600 36.05100
H  41.29600 5.79700 34.77000
H  40.65200 10.35800 34.92700
H  42.01300 10.99500 34.15700
H  43.27100 11.36400 35.98200
H  42.93500 9.82400 36.66700
H  36.92400 4.09700 30.85000
H  36.72400 5.54700 31.88600
H  38.03200 4.31600 32.08600
H  35.76100 6.10700 29.14400
H  35.89300 4.31300 29.20600
H  35.10300 4.97700 27.86300
H  41.47400 7.38700 25.03300
H  44.39400 6.53000 25.43800
H  41.74900 4.75800 25.91800
H  42.98200 4.95300 24.63900
H  41.27900 5.15700 24.27200
H  43.53500 7.98900 23.83300
H  45.03500 8.53200 24.69100
H  42.71300 9.71000 26.06600
H  42.67300 10.04700 24.29900
H  44.08700 10.47400 25.18200
H  46.83300 11.16800 28.15000
H  47.59900 9.61100 28.10900
H  47.77700 10.69900 29.52600
H  44.34200 11.15200 33.61000
H  46.89500 9.04900 36.60600
H  45.49400 9.75100 37.24500
H  46.99900 10.77400 36.89000
Mg -9.26200 18.21000 41.05900
C  -5.83400 17.64000 41.41100
C  -8.56300 21.46900 40.26800
C  -12.45900 18.56900 40.29800
C  -9.76900 14.72400 41.42800
N  -7.41300 19.24800 40.74200
C  -6.12400 18.89100 40.85900
C  -5.20100 19.98600 40.36000
C  -6.05200 21.27200 40.81400
C  -7.46300 20.64600 40.61000
C  -5.82800 21.74300 42.31000
C  -4.93100 19.85900 38.87800
C  -3.46900 19.42400 38.46000
H  -3.31600 17.96300 38.08900
N  -10.45800 19.85400 40.42500
C  -9.97100 21.08800 40.16000
C  -11.08900 21.93700 39.82400
C  -12.25900 21.18400 40.11200
C  -11.77300 19.82100 40.28200
C  -10.93900 23.32900 39.21400
C  -13.67800 21.73900 40.09900
O  -13.87200 22.91400 39.87000
C  -14.80400 20.83000 40.29400
N  -10.83600 16.86400 40.83000
C  -12.10300 17.28300 40.48900
C  -13.09000 16.15400 40.25100
C  -12.21500 14.92300 40.69600
C  -10.86000 15.53900 41.07900
C  -14.45900 16.36300 40.88700
C  -12.18600 13.83400 39.66900
C  -12.71100 12.45300 40.13200
N  -8.06600 16.50500 41.40900
C  -8.42100 15.15500 41.49900
C  -7.23300 14.35500 41.70700
C  -6.23500 15.33600 41.72700
C  -6.77100 16.60400 41.52200
C  -7.21100 12.92600 41.99700
C  -4.76100 15.48400 41.94600
O  -3.93000 14.67400 42.30800
C  -4.48700 17.02800 41.70600
C  -3.74400 17.61600 42.89800
O  -4.21200 18.56800 43.53000
O  -2.43000 17.32400 42.92700
C  -1.65400 18.06700 43.88500
H  -8.27000 22.50500 40.09100
H  -13.47900 18.83300 40.00800
H  -9.91600 13.65900 41.61800
H  -4.24100 20.11500 40.85900
H  -5.75200 22.10100 40.17400
H  -5.09300 21.22000 42.92200
H  -6.79400 21.78300 42.81500
H  -5.50300 22.77800 42.41000
H  -5.30900 20.79000 38.45700
H  -5.58800 19.05500 38.54600
H  -2.78500 19.72300 39.25500
H  -3.17000 20.10900 37.66700
H  -11.35700 23.39900 38.21000
H  -9.90700 23.65700 39.09300
H  -11.47600 23.95800 39.92500
H  -15.61900 21.49900 40.57100
H  -14.46600 20.27000 41.16500
H  -14.99400 20.26500 39.38100
H  -13.17400 16.02100 39.17200
H  -12.49400 14.48800 41.65600
H  -14.66000 15.51600 41.54200
H  -15.34400 16.40500 40.25200
H  -14.52200 17.24300 41.52900
H  -11.16000 13.64300 39.35600
H  -12.65400 14.07300 38.71400
H  -13.18300 12.47800 41.11400
H  -11.89000 11.74300 40.22200
H  -13.38500 12.08100 39.36000
H  -7.60700 12.30000 41.19700
H  -7.78800 12.71300 42.89700
H  -6.17700 12.61700 42.14800
H  -3.81500 17.05100 40.84800
H  -1.24000 18.85300 43.25400
H  -0.78200 17.62200 44.36400
H  -2.24000 18.50900 44.69000

