158

Mg 47.93600 25.37000 28.34400
C  48.85500 27.57800 30.78600
C  46.98800 23.15600 30.82900
C  47.18700 23.10200 25.96900
C  49.53900 27.35900 25.97500
N  47.91600 25.36300 30.60100
C  48.25700 26.44700 31.38500
C  47.85900 26.17900 32.83900
C  47.52400 24.61600 32.85500
C  47.33800 24.37500 31.35500
C  48.62500 23.73300 33.49500
C  46.68900 27.07800 33.33300
C  46.98000 28.07000 34.54000
H  45.91600 28.08700 35.71100
N  47.13800 23.42700 28.38400
C  46.85900 22.75900 29.48500
C  46.32400 21.43700 29.05800
C  46.31100 21.34700 27.66300
C  46.83700 22.64800 27.27800
C  46.12300 20.31600 30.01100
C  45.87700 20.24100 26.64200
O  45.99900 20.42400 25.45100
C  45.35100 18.93700 27.04100
N  48.28800 25.27400 26.29800
C  47.82800 24.27400 25.51300
C  48.31100 24.45300 24.03500
C  48.94500 25.83100 23.95600
C  48.91900 26.15000 25.51900
C  49.23600 23.28700 23.54800
C  48.17700 26.84900 22.97900
C  49.06900 27.56300 21.88100
N  48.97300 27.13700 28.28900
C  49.50500 27.87700 27.31000
C  50.12800 29.06100 27.84100
C  49.88100 29.02900 29.18600
C  49.20500 27.80800 29.41100
C  50.73300 30.22100 27.19400
C  49.99100 29.69000 30.41200
O  50.45400 30.78000 30.71700
C  49.20700 28.90600 31.44600
C  50.16000 28.74900 32.58400
O  51.14700 28.01400 32.60400
O  49.75400 29.56900 33.58900
C  50.62300 29.34200 34.79300
H  46.71300 22.57700 31.71300
H  46.94700 22.33600 25.22800
H  50.12900 28.02800 25.34500
H  48.73100 26.35800 33.46800
H  46.58100 24.48900 33.38600
H  48.19400 23.30800 34.40100
H  49.46900 24.33700 33.83100
H  49.00300 23.10200 32.69100
H  45.75200 26.58400 33.59100
H  46.43200 27.76500 32.52700
H  46.88600 29.06400 34.10100
H  47.99100 28.07800 34.94700
H  45.08600 20.37100 30.34200
H  46.75300 20.60600 30.85300
H  46.43400 19.34200 29.63200
H  44.49100 19.18700 27.66200
H  46.16600 18.49400 27.61200
H  45.09900 18.30100 26.19300
H  47.39000 24.33000 23.46400
H  49.98600 25.70800 23.66000
H  48.84000 22.93200 22.59700
H  49.16900 22.51800 24.31800
H  50.23900 23.70500 23.46000
H  47.87600 27.73300 23.54000
H  47.24800 26.39900 22.62900
H  49.87000 26.90300 21.54500
H  49.42000 28.53300 22.23300
H  48.48900 27.80000 20.98900
H  51.08600 29.92500 26.20600
H  51.65400 30.53500 27.68400
H  50.12900 31.12600 27.12200
H  48.26100 29.31300 31.80200
H  50.09000 28.55100 35.32000
H  50.55000 30.23600 35.41200
H  51.67800 29.14400 34.60400
Mg 27.19700 50.81600 25.86200
C  25.31300 51.94500 28.63000
C  29.42000 49.33800 28.19700
C  29.20400 49.98500 23.33900
C  25.20700 52.77000 23.86600
N  27.39100 50.70400 28.18400
C  26.42400 51.20400 29.09100
C  26.77300 50.72300 30.53300
C  28.11500 49.96300 30.32400
C  28.29400 49.95000 28.81700
C  29.30800 50.70600 30.97300
C  25.65200 50.00800 31.33500
C  25.23300 50.51800 32.79400
H  26.29000 50.77100 33.87100
N  29.04600 49.74500 25.78000
C  29.85300 49.30900 26.86400
C  30.99700 48.63900 26.27100
C  30.95600 48.88900 24.85900
C  29.70000 49.54700 24.62100
C  32.06100 47.80200 27.05900
C  32.00500 48.63300 23.77300
O  31.91400 48.84700 22.56800
C  33.29700 47.99700 24.25400
N  27.17800 51.31900 23.89300
C  28.07800 50.78400 22.99900
C  27.69000 51.09100 21.49400
C  26.32100 51.82900 21.61500
C  26.21800 52.01100 23.22600
C  28.73200 51.63400 20.52200
C  25.18800 51.05500 20.93500
C  24.20400 52.08100 20.33900
N  25.51900 52.10000 26.15400
C  24.84200 52.83600 25.21100
C  23.70100 53.54600 25.73900
C  23.85200 53.19300 27.11600
C  25.02700 52.37000 27.28300
C  22.69800 54.38100 25.05300
C  23.20200 53.28000 28.43300
O  22.02000 53.62100 28.70300
C  24.16000 52.52600 29.50900
C  24.62100 53.49600 30.55300
O  25.63600 54.17300 30.58500
O  23.67100 53.48100 31.58300
C  23.97000 54.25800 32.83600
H  30.00200 48.84700 28.98100
H  29.75500 49.63600 22.46300
H  24.50700 53.28100 23.20300
H  26.93100 51.71200 30.96400
H  28.06600 48.93800 30.69000
H  29.83900 51.33400 30.25900
H  30.00200 49.99200 31.41700
H  28.93800 51.33200 31.78500
H  26.00500 49.01200 31.60000
H  24.69600 49.80900 30.85100
H  24.57700 49.74400 33.19200
H  24.72400 51.47900 32.71900
H  32.63100 47.02800 26.54500
H  31.78100 47.32800 28.00000
H  32.89800 48.45700 27.30100
H  33.89300 48.07400 23.34400
H  33.18200 46.95900 24.56400
H  33.69900 48.71200 24.97200
H  27.45300 50.06800 21.20200
H  26.55400 52.82800 21.24700
H  29.68000 51.37100 20.99200
H  28.69100 52.72000 20.43300
H  28.79800 51.02600 19.62000
H  24.73000 50.56400 21.79300
H  25.62500 50.42700 20.15800
H  23.37400 51.46900 19.98600
H  24.55400 52.58700 19.44000
H  23.81400 52.85200 21.00300
H  21.74200 53.87800 24.90600
H  22.97900 54.66000 24.03800
H  22.55900 55.32300 25.58300
H  23.74500 51.67300 30.04600
H  25.04200 54.31700 33.02600
H  23.42000 53.95000 33.72500
H  23.61600 55.27500 32.67100

