158

Mg 48.99900 46.69300 43.45700
C  45.75000 46.96200 42.03500
C  49.21900 43.70000 41.80200
C  52.28200 46.81400 44.01500
C  48.66200 49.96800 44.61000
N  47.67000 45.48900 41.99900
C  46.37000 45.77700 41.54300
C  45.79000 44.74000 40.58100
C  46.91300 43.66200 40.72600
C  48.02900 44.33700 41.58500
C  46.43200 42.15300 41.15700
C  45.29900 45.25400 39.17400
C  44.09000 44.64400 38.43000
H  44.30900 43.78900 37.14600
N  50.52100 45.38200 43.06200
C  50.37500 44.13400 42.45300
C  51.74500 43.49900 42.49000
C  52.57000 44.36800 43.25300
C  51.80800 45.60500 43.47400
C  51.95200 42.06100 42.04100
C  53.97200 43.91600 43.68900
O  54.48500 42.84600 43.35800
C  54.85000 44.91500 44.57000
N  50.21700 48.15800 44.36400
C  51.58200 47.96300 44.42200
C  52.32900 49.27500 44.98100
C  51.09700 50.16800 45.37600
C  49.86100 49.39400 44.71700
C  53.36300 48.96300 46.02400
C  51.20300 51.66300 44.85800
C  50.97100 52.72300 45.93000
N  47.58300 48.24000 43.27100
C  47.55500 49.42900 43.96200
C  46.19600 49.92900 44.02000
C  45.42000 49.00900 43.18700
C  46.35100 48.05400 42.75500
C  45.70500 51.17100 44.69200
C  44.10600 48.67300 42.72500
O  43.03500 49.17400 42.98600
C  44.41800 47.55700 41.66000
C  43.30700 46.54700 41.59100
O  43.09100 45.78700 42.46500
O  42.40800 46.78500 40.63100
C  41.15900 46.01500 40.57300
H  49.32500 42.69000 41.40100
H  53.36700 46.94000 44.03900
H  48.55000 50.96900 45.03100
H  44.83700 44.45400 41.02600
H  47.37200 43.54800 39.74400
H  47.00900 41.86400 42.03600
H  46.76800 41.52200 40.33400
H  45.38100 41.89200 41.27700
H  46.12300 44.98900 38.51200
H  45.26400 46.34400 39.15300
H  43.58700 45.53800 38.06000
H  43.36200 44.17200 39.08900
H  52.47800 42.09300 41.08700
H  51.07700 41.41000 42.03900
H  52.52200 41.51300 42.79100
H  54.18000 45.33400 45.32100
H  55.42300 45.55000 43.89400
H  55.49200 44.29500 45.19500
H  52.80100 49.69200 44.09100
H  51.02400 50.13000 46.46300
H  53.63200 47.90700 46.02200
H  53.02600 49.09400 47.05200
H  54.28200 49.50300 45.79400
H  50.38800 51.68700 44.13300
H  52.06600 51.87600 44.22700
H  49.90000 52.91400 45.86000
H  51.50400 53.67100 46.00600
H  51.08600 52.14100 46.84500
H  44.63600 51.17800 44.90600
H  46.01000 52.00000 44.05300
H  46.26100 51.25500 45.62600
H  44.43300 47.87300 40.61700
H  40.87500 45.60500 41.54200
H  41.11600 45.17000 39.88500
H  40.37000 46.70400 40.27300
Mg -10.63400 39.24900 41.07300
C  -9.16700 36.23100 39.80600
C  -8.15900 40.88300 39.39400
C  -12.61400 41.93300 41.06000
C  -13.21400 37.21300 42.19600
N  -8.98400 38.62300 39.77900
C  -8.56600 37.36800 39.31300
C  -7.47200 37.42500 38.30700
C  -6.97200 38.84700 38.43100
C  -8.07300 39.48000 39.27800
C  -5.67800 39.04500 39.25100
C  -7.92500 36.91800 36.82100
C  -7.06000 35.91500 35.94900
H  -6.66400 36.37100 34.54000
N  -10.35900 41.20500 40.55600
C  -9.27100 41.71000 39.91000
C  -9.35500 43.13600 39.78200
C  -10.68800 43.49700 40.07900
C  -11.27100 42.20600 40.64000
C  -8.27500 44.00500 39.24700
C  -11.29000 44.91300 39.94000
O  -10.55500 45.88500 39.64800
C  -12.67100 45.16900 40.47200
N  -12.66400 39.54100 41.57500
C  -13.25400 40.79500 41.53500
C  -14.67300 40.76200 42.02100
C  -14.83400 39.26500 42.48000
C  -13.49200 38.57500 41.94800
C  -15.09400 41.73000 43.14300
C  -16.01500 38.33500 42.01000
C  -16.76000 37.52700 43.00100
N  -10.99600 37.13400 41.28300
C  -12.12400 36.49200 41.78700
C  -11.86500 35.03300 41.77100
C  -10.76100 34.89900 40.94000
C  -10.31400 36.26500 40.58600
C  -12.76700 33.89700 42.30700
C  -9.90000 33.93100 40.30700
O  -9.95700 32.68100 40.35400
C  -8.82500 34.77400 39.44800
C  -7.42300 34.32400 39.88600
O  -6.54700 34.02400 39.07600
O  -7.31800 34.18200 41.28100
C  -6.10400 33.46800 41.75800
H  -7.27900 41.28200 38.88500
H  -13.15500 42.88100 41.03700
H  -14.06600 36.60300 42.50100
H  -6.66200 36.77200 38.63200
H  -6.90400 39.38400 37.48400
H  -5.51000 38.13700 39.82900
H  -5.69700 39.88200 39.94900
H  -4.78400 39.18300 38.64300
H  -7.93800 37.82300 36.21300
H  -8.94600 36.55300 36.93700
H  -7.57300 34.97800 35.73300
H  -6.15700 35.69400 36.51900
H  -8.79300 44.78100 38.68400
H  -7.68700 43.42300 38.53700
H  -7.67600 44.57500 39.95700
H  -13.53200 44.73900 39.96100
H  -12.88000 46.23900 40.45600
H  -12.63300 44.87600 41.52100
H  -15.33400 40.89600 41.16500
H  -14.66800 39.13300 43.54900
H  -15.52100 42.60300 42.64900
H  -14.18900 42.05200 43.65800
H  -15.80100 41.34100 43.87600
H  -15.67800 37.76900 41.14200
H  -16.65100 39.07600 41.52600
H  -16.36700 36.51300 42.93100
H  -17.82800 37.49500 42.78300
H  -16.66800 37.89100 44.02400
H  -12.91900 34.07800 43.37100
H  -12.16700 32.98700 42.29100
H  -13.65900 33.68400 41.71800
H  -8.88300 34.70600 38.36200
H  -6.17600 33.16000 42.80100
H  -5.16500 34.00400 41.61900
H  -6.09800 32.60300 41.09500

