158

Mg 46.72700 25.01600 28.71300
C  47.31200 27.45900 31.21200
C  45.67000 22.85200 31.12500
C  46.36500 22.77500 26.37500
C  48.40300 27.16800 26.43700
N  46.30300 25.22000 30.89100
C  46.54600 26.34700 31.68300
C  46.19100 26.09600 33.09600
C  45.96000 24.50700 33.10900
C  45.94000 24.13100 31.59400
C  46.96700 23.69900 33.85800
C  44.84400 26.83000 33.48500
C  44.52900 27.29000 34.96100
H  45.26100 26.52200 36.15800
N  45.99700 23.18000 28.72500
C  45.58400 22.43400 29.77200
C  45.05000 21.15300 29.34800
C  45.14300 21.11200 27.95700
C  45.84700 22.42900 27.63200
C  44.53200 20.17800 30.30200
C  44.68900 20.08400 26.88100
O  44.72000 20.27200 25.69100
C  44.13100 18.80900 27.34100
N  47.23000 25.01400 26.55900
C  47.06400 23.88200 25.89500
C  47.39300 24.09200 24.42300
C  47.99800 25.58100 24.45000
C  47.94800 25.98700 25.89700
C  48.30600 23.07300 23.76600
C  47.28600 26.52500 23.46900
C  45.84100 26.93200 23.88300
N  47.79000 26.81200 28.75500
C  48.32600 27.54000 27.78000
C  48.71700 28.78600 28.23600
C  48.43200 28.76400 29.58100
C  47.80100 27.55600 29.86000
C  49.08100 30.02400 27.46100
C  48.28000 29.64500 30.78400
O  48.64700 30.80400 30.90400
C  47.71700 28.72200 31.90000
C  48.70700 28.50700 32.89400
O  49.63900 27.70900 32.84300
O  48.46800 29.36800 34.02200
C  49.37900 29.21700 35.19000
H  45.40500 22.14000 31.90900
H  46.34500 22.11900 25.50300
H  48.84200 27.83000 25.68700
H  47.00400 26.37500 33.76700
H  44.95600 24.32200 33.49100
H  47.76800 24.42200 34.01100
H  47.20800 22.67700 33.56400
H  46.58600 23.46600 34.85200
H  43.99400 26.25900 33.11000
H  44.79500 27.80600 33.00300
H  43.50600 26.95800 35.13900
H  44.56300 28.37900 34.95900
H  44.27300 19.21100 29.87200
H  43.68200 20.60800 30.83200
H  45.32400 20.02800 31.03500
H  44.83300 18.16800 27.87300
H  43.81500 18.17800 26.51000
H  43.31300 19.02800 28.02800
H  46.45900 24.07400 23.86200
H  49.07100 25.62000 24.26300
H  48.72700 22.36700 24.48200
H  49.14300 23.51100 23.22200
H  47.73900 22.46800 23.05900
H  47.18100 25.92100 22.56800
H  47.96600 27.34200 23.22900
H  45.13800 26.73900 23.07200
H  45.75400 28.01300 23.99300
H  45.49100 26.43800 24.78900
H  48.47400 29.85200 26.57200
H  50.12400 29.95600 27.15000
H  48.91600 30.95500 28.00200
H  46.84100 29.14800 32.38900
H  48.76800 28.77100 35.97600
H  49.73500 30.20200 35.49300
H  50.22400 28.54200 35.05400
Mg 48.94300 44.43100 42.81400
C  45.46000 44.37700 42.22900
C  49.16600 41.12500 42.43600
C  52.26900 44.77400 42.56900
C  48.73100 47.98900 42.78500
N  47.44500 42.94600 42.20900
C  46.08600 43.06900 42.09300
C  45.49300 41.65300 42.15400
C  46.68100 40.67900 42.38100
C  47.87500 41.66500 42.38300
C  46.60800 39.83500 43.72900
C  44.44200 41.20800 41.03100
C  44.51300 42.00000 39.67700
H  44.65200 41.13900 38.42100
N  50.50700 43.09800 42.60300
C  50.33700 41.76400 42.43200
C  51.66200 41.12300 42.29300
C  52.64400 42.16300 42.33100
C  51.80000 43.44000 42.45700
C  51.84100 39.63700 42.10700
C  54.16800 42.02300 42.12700
O  54.64100 40.88800 42.14000
C  55.15200 43.30700 41.84700
N  50.35800 46.13400 42.57200
C  51.66900 46.00500 42.60000
C  52.38600 47.43100 42.65500
C  51.27300 48.42200 42.93300
C  50.05800 47.46600 42.69100
C  53.59700 47.44100 43.60700
C  51.29400 49.64100 41.90000
C  51.03900 51.03500 42.51900
N  47.45200 45.93200 42.54600
C  47.48800 47.27800 42.67700
C  46.16500 47.86800 42.61900
C  45.31200 46.76200 42.46900
C  46.16200 45.62200 42.41300
C  45.85500 49.32500 42.43800
C  43.91100 46.34100 42.36600
O  42.81900 46.96900 42.39000
C  43.99000 44.84100 42.21000
C  43.06400 44.20100 43.21900
O  41.91100 43.76500 43.04700
O  43.58800 44.11700 44.48700
C  42.74300 43.49400 45.49900
H  49.34500 40.04700 42.42500
H  53.35500 44.78900 42.68400
H  48.72700 49.08100 42.78300
H  44.82400 41.74300 43.01000
H  46.76700 39.93500 41.58900
H  45.73300 40.14600 44.29900
H  47.46200 40.10200 44.35100
H  46.56300 38.74700 43.68100
H  43.44100 41.39900 41.41900
H  44.53100 40.12500 40.94900
H  45.36700 42.67900 39.68000
H  43.60000 42.59300 39.62800
H  51.61600 39.39200 41.06900
H  51.13100 39.17100 42.79000
H  52.82900 39.20400 42.26500
H  54.61900 43.94000 41.13700
H  56.01400 42.83500 41.37600
H  55.42100 43.82300 42.76900
H  52.82200 47.69600 41.69200
H  51.18100 48.78500 43.95600
H  53.64100 48.34300 44.21800
H  54.43600 47.62900 42.93600
H  53.76000 46.51600 44.15900
H  50.57900 49.38100 41.11900
H  52.23100 49.76500 41.35800
H  51.04100 50.99900 43.60900
H  50.13700 51.52700 42.15400
H  51.90200 51.60900 42.18200
H  46.04000 49.70500 43.44300
H  44.79700 49.39600 42.18300
H  46.56300 49.75100 41.72800
H  43.40300 44.55000 41.33800
H  42.56500 42.47900 45.14400
H  41.77700 43.95600 45.70100
H  43.21500 43.65400 46.46800

