158

Mg 54.56500 25.26900 44.24000
C  51.80200 27.45800 43.95900
C  52.53400 22.71400 43.28600
C  57.26600 23.29800 43.67300
C  56.57200 27.97700 44.71900
N  52.49400 25.19300 43.56400
C  51.51500 26.08600 43.57600
C  50.15900 25.45600 43.21800
C  50.39000 23.96400 43.36400
C  51.92700 23.97700 43.47200
C  49.68100 23.28700 44.61400
C  49.53000 25.83200 41.84400
C  50.43900 26.60300 40.82200
H  50.64100 25.98300 39.48400
N  54.89900 23.23200 43.66600
C  53.84500 22.30500 43.36500
C  54.43100 21.03800 43.04900
C  55.84800 21.16000 43.09300
C  56.08900 22.58200 43.46000
C  53.61200 19.81200 42.74000
C  56.84800 20.01100 42.91700
O  56.45000 18.90400 42.58300
C  58.36100 20.27500 43.04400
N  56.62200 25.65500 43.91200
C  57.52400 24.66000 43.90400
C  58.92200 25.12500 44.12100
C  58.76700 26.65100 44.25300
C  57.15300 26.76500 44.35500
C  59.59400 24.47700 45.37700
C  59.32700 27.46700 43.10500
C  59.71700 28.94900 43.53500
N  54.28500 27.33800 44.29800
C  55.17200 28.31200 44.67400
C  54.50600 29.56900 44.88400
C  53.15300 29.30700 44.64600
C  53.10900 27.93900 44.31100
C  55.03600 30.92500 45.31500
C  51.79300 29.78800 44.67300
O  51.42000 30.84900 45.09000
C  50.85100 28.69400 44.05200
C  50.29100 29.26300 42.79200
O  50.90800 29.67800 41.81600
O  48.86000 29.17800 42.91200
C  48.24000 29.80600 41.69100
H  51.81100 22.05500 42.79900
H  58.18900 22.71700 43.62800
H  57.10300 28.88900 44.99900
H  49.42800 25.81300 43.94200
H  50.03800 23.41300 42.49200
H  50.40200 23.00900 45.38300
H  49.27300 22.29100 44.43800
H  48.89600 23.93000 45.01200
H  48.64300 26.44600 42.00300
H  49.10200 24.99800 41.28800
H  51.41900 26.89900 41.19600
H  49.86700 27.51500 40.65000
H  52.57700 19.95900 42.43400
H  53.72300 19.16100 43.60700
H  54.04000 19.35500 41.84800
H  58.83900 19.36700 42.67600
H  58.61400 20.40900 44.09600
H  58.77300 21.04000 42.38500
H  59.36500 24.74100 43.20200
H  58.98700 26.99200 45.26500
H  60.06000 25.14800 46.09900
H  60.48100 23.91900 45.07700
H  58.96900 23.68300 45.78500
H  58.57200 27.48500 42.31900
H  60.27000 27.07900 42.71800
H  58.94600 29.57000 43.07900
H  60.71500 29.24500 43.21000
H  59.61200 28.96900 44.61900
H  54.99700 30.83200 46.40000
H  54.44100 31.80100 45.05500
H  56.05700 31.11800 44.98400
H  49.98500 28.62500 44.71100
H  48.15600 29.14100 40.83000
H  48.68900 30.72500 41.31400
H  47.31400 30.19900 42.10900
Mg -6.23100 25.40800 25.98300
C  -4.50800 26.68400 28.76900
C  -8.04200 23.52600 28.03200
C  -7.48900 24.03400 23.24100
C  -3.74500 26.94500 23.91200
N  -6.42000 25.34000 28.15300
C  -5.61700 25.85900 29.13000
C  -6.05200 25.37300 30.55000
C  -6.92100 24.13300 30.19200
C  -7.12300 24.34500 28.68200
C  -6.15800 22.73200 30.43000
C  -6.84800 26.52300 31.33600
C  -7.14200 26.24500 32.88700
H  -6.30100 25.13200 33.55000
N  -7.71700 24.08900 25.69100
C  -8.40800 23.43200 26.67400
C  -9.37900 22.56000 26.05400
C  -9.15700 22.66400 24.69500
C  -8.10900 23.65800 24.47800
C  -10.38900 21.67300 26.92100
C  -9.95500 21.97500 23.60500
O  -9.60700 22.04000 22.41200
C  -11.02000 20.95800 23.87300
N  -5.68300 25.53700 23.85800
C  -6.32200 24.68200 22.96500
C  -5.74000 24.84800 21.53500
C  -4.67300 25.95500 21.66700
C  -4.70300 26.21500 23.21500
C  -5.30600 23.49600 20.89400
C  -5.08100 27.28100 20.95000
C  -4.37300 27.54000 19.57300
N  -4.56800 26.61600 26.23400
C  -3.67100 27.10200 25.32100
C  -2.53700 27.77700 26.00900
C  -2.85000 27.66000 27.31600
C  -4.03900 26.91500 27.44400
C  -1.38100 28.49100 25.37100
C  -2.38700 28.01200 28.64500
O  -1.34400 28.54500 28.97300
C  -3.48600 27.47100 29.70100
C  -2.87700 26.59100 30.71400
O  -2.30900 25.56400 30.40900
O  -3.05200 27.05000 32.01600
C  -2.54100 26.19000 33.10400
H  -8.68100 22.88000 28.63700
H  -7.88800 23.65100 22.29900
H  -2.89000 27.40200 23.40800
H  -5.12700 25.07300 31.04200
H  -7.79800 24.15300 30.83900
H  -5.91900 22.12000 29.56000
H  -6.81600 22.10600 31.03200
H  -5.23300 22.90000 30.98200
H  -7.77900 26.60400 30.77600
H  -6.34100 27.48700 31.30800
H  -8.20300 26.06500 33.05600
H  -6.69100 27.10300 33.38600
H  -9.97800 20.66400 26.92200
H  -11.33700 21.50200 26.41100
H  -10.53500 22.08300 27.92000
H  -11.30900 20.51600 22.92000
H  -11.90800 21.45000 24.26900
H  -10.71700 20.24800 24.64300
H  -6.63700 25.21700 21.03800
H  -3.72300 25.54300 21.32700
H  -5.20900 22.79700 21.72500
H  -4.31200 23.56900 20.45200
H  -6.05600 23.14000 20.18800
H  -4.71100 28.15300 21.49000
H  -6.16800 27.32100 20.88000
H  -4.95100 27.53200 18.65000
H  -3.64500 26.74200 19.42500
H  -3.78000 28.45400 19.60600
H  -1.69300 28.86200 24.39500
H  -0.49600 27.88000 25.19400
H  -1.05300 29.35500 25.94900
H  -3.85700 28.35700 30.21700
H  -1.49900 26.50900 33.12200
H  -2.77900 25.16900 32.80600
H  -3.02500 26.40500 34.05600

