158

Mg 45.62700 44.49700 43.17000
C  42.19600 44.14800 42.95800
C  46.00700 41.23200 42.48200
C  48.84600 45.12000 42.81700
C  45.05400 48.00600 43.42500
N  44.22300 42.92700 42.83300
C  42.90400 42.93500 42.95800
C  42.33600 41.48800 42.79000
C  43.59500 40.59200 42.89600
C  44.69100 41.66600 42.83200
C  43.65000 39.81200 44.23700
C  41.47800 41.33900 41.58700
C  41.86700 42.07800 40.28500
H  41.75300 41.36200 38.97300
N  47.24300 43.30000 42.69000
C  47.18000 41.96800 42.52000
C  48.52300 41.46100 42.32200
C  49.43400 42.55100 42.39000
C  48.51900 43.73300 42.62600
C  48.89600 40.04400 42.04500
C  50.87600 42.51100 42.18000
O  51.52200 41.45900 42.11400
C  51.69300 43.75200 42.22500
N  46.82700 46.33100 43.19300
C  48.13400 46.31600 43.02300
C  48.68800 47.78700 42.95100
C  47.43700 48.58700 43.36800
C  46.37000 47.58000 43.37300
C  49.97700 47.99000 43.84000
C  47.28300 49.69200 42.30000
C  46.73900 50.97700 42.74400
N  43.99900 45.89600 43.23400
C  43.90400 47.24500 43.33500
C  42.52200 47.68600 43.35400
C  41.80300 46.46900 43.27500
C  42.70700 45.42400 43.20200
C  42.03700 49.10400 43.56100
C  40.39400 45.92500 43.18100
O  39.31500 46.47200 43.27400
C  40.65400 44.35300 42.90100
C  39.82100 43.56600 43.82800
O  38.92800 42.80100 43.53800
O  40.26300 43.83900 45.11600
C  39.90300 42.74200 45.95400
H  46.02600 40.16200 42.26300
H  49.87300 45.46800 42.69300
H  44.80700 49.04100 43.67000
H  41.69000 41.25400 43.63600
H  43.71400 39.88900 42.07200
H  42.89600 39.91700 45.01700
H  44.40100 40.29900 44.85800
H  43.90500 38.77900 44.00100
H  40.48200 41.70300 41.84000
H  41.44900 40.25600 41.47100
H  42.89900 42.40000 40.42200
H  41.26500 42.96900 40.10400
H  48.03400 39.43100 42.30600
H  49.70700 39.62500 42.64100
H  49.09400 39.98100 40.97500
H  51.69100 44.15100 43.23900
H  51.22700 44.46000 41.53900
H  52.72300 43.46600 42.01300
H  48.99000 47.81400 41.90400
H  47.63900 49.00800 44.35300
H  49.85900 48.85500 44.49100
H  50.80400 48.19000 43.15800
H  50.21300 47.13700 44.47700
H  46.65800 49.29500 41.50000
H  48.27000 49.93000 41.90300
H  47.56200 51.51300 43.21800
H  45.88900 50.87100 43.41700
H  46.43300 51.63300 41.92800
H  42.75900 49.82100 43.95000
H  41.22100 49.00900 44.27800
H  41.77900 49.48000 42.57100
H  40.29600 44.21500 41.88100
H  40.39600 42.70100 46.92600
H  40.24700 41.81500 45.49500
H  38.83100 42.79100 46.14400
Mg 34.02900 49.28800 24.89000
C  34.00500 47.48500 27.90600
C  32.51600 51.88000 26.51600
C  33.76200 50.78900 21.92400
C  35.29500 46.31700 23.34400
N  33.53600 49.68700 27.02400
C  33.65700 48.83000 28.04000
C  33.54600 49.57100 29.36600
C  32.92600 50.92300 28.88500
C  32.92200 50.85000 27.37800
C  31.55500 51.30100 29.54700
C  34.88900 49.64700 30.12800
C  34.84700 49.28800 31.62500
H  33.56600 49.30400 32.42100
N  33.27500 51.16500 24.32900
C  32.62300 52.11900 25.10400
C  32.02000 53.16200 24.29400
C  32.44400 52.90500 22.95800
C  33.20300 51.59300 23.01000
C  31.26900 54.30000 24.86900
C  32.19200 53.67200 21.68000
O  32.64100 53.20900 20.59400
C  31.37200 54.98000 21.61200
N  34.45600 48.64600 22.98000
C  34.36800 49.53700 21.92500
C  34.79800 48.88800 20.60700
C  35.52000 47.58500 21.16800
C  35.08000 47.47100 22.58300
C  33.64600 48.62100 19.64700
C  37.06300 47.77200 20.88600
C  37.67100 46.66400 20.00500
N  34.56400 47.25700 25.40200
C  34.96700 46.13800 24.69400
C  35.24800 45.02600 25.51700
C  34.87600 45.45500 26.76500
C  34.43600 46.87900 26.66500
C  35.78200 43.64000 25.17500
C  34.78900 45.10600 28.14200
O  35.03100 44.04100 28.67900
C  34.26400 46.39300 28.97500
C  33.00200 46.08700 29.74900
O  31.91100 46.43500 29.43900
O  33.31900 45.36700 30.90800
C  32.11800 45.11900 31.70200
H  32.13200 52.72000 27.09700
H  33.84000 51.35100 20.99100
H  35.81400 45.52600 22.79800
H  32.75400 49.11400 29.96000
H  33.63300 51.69700 29.18500
H  31.36400 50.78300 30.48700
H  30.78400 50.99600 28.84000
H  31.39800 52.35000 29.80000
H  35.40200 50.55400 29.80900
H  35.55900 48.91800 29.67200
H  35.49600 50.01000 32.12000
H  35.37100 48.33300 31.67200
H  31.34600 54.41800 25.95000
H  30.19700 54.19000 24.70000
H  31.49500 55.23000 24.34800
H  30.45600 54.96400 22.20100
H  31.15200 55.05000 20.54700
H  32.15400 55.64200 21.98400
H  35.48400 49.62100 20.18100
H  35.16800 46.67600 20.67800
H  33.77600 47.64800 19.17300
H  33.76300 49.37200 18.86600
H  32.69500 48.67100 20.17800
H  37.52800 47.83100 21.87000
H  37.28300 48.72900 20.41400
H  36.99200 46.23700 19.26700
H  37.97000 45.87700 20.69700
H  38.54200 47.18500 19.60700
H  36.19300 43.27800 26.11800
H  36.58300 43.72300 24.44000
H  35.03500 43.00600 24.69800
H  34.98200 46.69300 29.73800
H  31.51900 45.99400 31.95700
H  32.53400 44.85200 32.67400
H  31.51400 44.27900 31.36000

