158

Mg 16.81500 51.75500 26.79700
C  18.88200 50.48200 29.22400
C  14.58000 52.78500 29.17200
C  14.74800 52.61000 24.25600
C  19.01300 50.40800 24.38600
N  16.69500 51.49500 28.82800
C  17.72800 51.08800 29.74200
C  17.34500 51.31500 31.15900
C  15.84400 51.74600 31.14100
C  15.70100 52.00700 29.62700
C  14.86000 50.72600 31.79100
C  18.25300 52.45000 31.77900
C  18.40200 52.46200 33.31100
H  17.44400 51.51600 34.18200
N  15.00000 52.73200 26.67000
C  14.25200 53.04500 27.84200
C  13.13800 53.85200 27.38500
C  13.17600 53.85400 25.90200
C  14.37300 53.03100 25.55000
C  12.11100 54.44400 28.38600
C  12.19300 54.54700 24.92300
O  12.36700 54.50300 23.70900
C  11.01300 55.29800 25.42500
N  16.89600 51.43700 24.62400
C  15.90000 51.93800 23.86100
C  16.17800 51.65000 22.35900
C  17.62900 50.99700 22.37000
C  17.88800 50.92700 23.87400
C  15.15900 50.67600 21.84400
C  18.73900 51.85200 21.58400
C  19.04600 53.21300 22.07800
N  18.54900 50.65900 26.78700
C  19.33000 50.25400 25.74600
C  20.47700 49.52100 26.25500
C  20.34600 49.66100 27.60600
C  19.16200 50.34700 27.89500
C  21.59200 48.81700 25.49700
C  21.01000 49.32500 28.89400
O  22.05800 48.76500 29.07400
C  20.01800 49.80900 30.04600
C  19.47500 48.67300 30.83000
O  18.77300 47.83500 30.34400
O  19.96800 48.65000 32.11100
C  19.54700 47.53200 32.86900
H  13.95600 53.08000 30.01800
H  14.11000 52.84200 23.40100
H  19.64200 49.89300 23.65600
H  17.54600 50.39700 31.71000
H  15.67400 52.71500 31.61000
H  15.46700 49.97700 32.29900
H  14.29600 50.21600 31.00900
H  14.17900 51.22500 32.48100
H  17.80900 53.40400 31.49500
H  19.28400 52.34400 31.44000
H  18.04800 53.45400 33.59100
H  19.43000 52.25100 33.60400
H  12.58800 55.26000 28.92900
H  11.96900 53.69000 29.15900
H  11.14200 54.71700 27.96800
H  10.22400 54.57300 25.62700
H  10.72300 55.97400 24.62100
H  11.40500 55.99900 26.16100
H  16.18900 52.54800 21.74100
H  17.55700 49.95300 22.06500
H  14.58500 51.32200 21.17900
H  14.48700 50.11500 22.49300
H  15.72000 49.99200 21.20700
H  18.52100 52.01200 20.52800
H  19.63300 51.23500 21.67700
H  18.20300 53.67800 22.59100
H  19.28800 53.85200 21.22900
H  19.94900 53.21900 22.68900
H  22.60900 49.14300 25.72100
H  21.45100 48.97800 24.42900
H  21.64400 47.78100 25.83100
H  20.52400 50.54300 30.67300
H  18.46300 47.54400 32.98200
H  19.98600 47.49600 33.86600
H  19.70300 46.52100 32.49300
Mg 9.94000 47.42300 26.76800
C  7.90100 47.47900 29.62100
C  12.33100 49.08900 28.41500
C  11.66300 47.17400 23.97000
C  6.96800 46.61900 24.86400
N  9.99500 48.27400 28.75200
C  9.21300 48.04700 29.82600
C  9.84600 48.44000 31.20400
C  11.05300 49.30100 30.61800
C  11.18900 48.81200 29.18500
C  10.84800 50.83400 30.80300
C  10.30900 47.17200 31.94800
C  9.86300 47.09100 33.38800
H  9.87300 45.81900 34.15300
N  11.77700 47.96900 26.31600
C  12.70300 48.67600 27.12100
C  13.95900 48.68800 26.45200
C  13.81600 47.94000 25.25000
C  12.34300 47.72600 25.13200
C  15.26700 49.12100 27.09100
C  14.81800 47.51900 24.17300
O  14.54600 47.02900 23.08700
C  16.24100 47.78200 24.45600
N  9.32700 47.17100 24.68700
C  10.29200 46.94100 23.77500
C  9.73100 46.44100 22.48900
C  8.17500 46.34200 22.64900
C  8.09600 46.72900 24.20100
C  10.07300 47.28600 21.20200
C  7.63000 44.98200 22.35200
C  6.11400 44.88800 21.90800
N  7.80900 47.14800 27.08300
C  6.76800 46.76500 26.27200
C  5.55900 46.60300 27.03700
C  6.00900 46.71100 28.42400
C  7.34800 47.17800 28.37500
C  4.21900 46.22200 26.47300
C  5.55100 46.64500 29.77800
O  4.42800 46.39600 30.23100
C  6.83200 47.04000 30.64100
C  7.14100 45.81600 31.48200
O  7.99700 44.99700 31.17100
O  6.36100 45.76000 32.62900
C  6.47800 44.64800 33.49900
H  13.03100 49.72200 28.96400
H  12.23700 47.09100 23.04400
H  6.06600 46.45200 24.27300
H  9.18700 49.02400 31.84600
H  12.00700 49.09500 31.10400
H  10.13700 51.20600 31.54100
H  10.66300 51.29700 29.83300
H  11.81300 51.18000 31.17200
H  11.39900 47.20800 31.92300
H  10.04900 46.27600 31.38500
H  8.80600 47.28500 33.20400
H  10.23200 47.97000 33.91600
H  15.69000 48.18000 27.44200
H  14.95500 49.77700 27.90400
H  16.03500 49.68400 26.56100
H  16.78900 47.66000 23.52200
H  16.56900 47.14900 25.28000
H  16.40300 48.81700 24.75700
H  10.16700 45.44600 22.40500
H  7.70400 47.14200 22.07700
H  10.81000 48.02300 21.52100
H  9.23400 47.82000 20.75400
H  10.59700 46.69700 20.44900
H  7.78800 44.43800 23.28300
H  8.31100 44.51200 21.64300
H  5.59500 44.47800 22.77500
H  5.98800 44.18800 21.08300
H  5.59000 45.80800 21.64700
H  3.63300 47.09400 26.18300
H  3.66500 45.77700 27.30000
H  4.36100 45.59900 25.59000
H  6.60800 47.76900 31.42000
H  7.43700 44.13300 33.43800
H  5.72100 43.87400 33.37500
H  6.45000 45.15400 34.46300

