158

Mg -1.40900 18.35800 26.84200
C  -1.90000 16.07700 29.40800
C  -1.54700 20.92300 29.03100
C  -1.29300 20.56100 24.09500
C  -1.88400 15.69000 24.61800
N  -1.79600 18.46800 29.00500
C  -1.87400 17.40500 29.87700
C  -1.99900 17.89700 31.30600
C  -1.96300 19.46600 31.08700
C  -1.71600 19.67900 29.61600
C  -3.19600 20.19300 31.54700
C  -0.82100 17.31200 32.13500
C  -1.17900 16.48200 33.36800
H  -0.73200 16.92200 34.78600
N  -1.37800 20.42900 26.59600
C  -1.30100 21.30000 27.67800
C  -0.98100 22.62000 27.20900
C  -0.81200 22.52500 25.80400
C  -1.18700 21.13500 25.38900
C  -0.79200 23.88200 28.14000
C  -0.35300 23.53000 24.74700
O  -0.31000 23.27100 23.54000
C  0.27900 24.83500 25.22400
N  -1.56400 18.19500 24.72500
C  -1.49600 19.17900 23.81300
C  -1.65500 18.64300 22.34800
C  -1.77600 17.12500 22.48600
C  -1.77500 16.99100 24.04500
C  -2.80500 19.25700 21.55500
C  -0.69500 16.36200 21.76300
C  0.60000 15.94800 22.52600
N  -1.65200 16.26500 26.92700
C  -1.90000 15.35700 25.95600
C  -2.15800 14.04200 26.52600
C  -2.13400 14.20900 27.89400
C  -1.90300 15.61500 28.07900
C  -2.32500 12.75500 25.79700
C  -2.31200 13.53500 29.16100
O  -2.53200 12.37000 29.56900
C  -2.19300 14.73300 30.19600
C  -1.05000 14.18700 31.02300
O  0.10400 14.13000 30.76700
O  -1.69100 13.59900 32.08800
C  -0.95000 12.72300 32.99400
H  -1.30800 21.67700 29.78400
H  -1.16300 21.25300 23.26000
H  -2.00200 14.89000 23.88500
H  -2.97100 17.56800 31.67200
H  -1.11800 19.75300 31.71400
H  -3.84000 19.59500 32.19100
H  -3.72600 20.59800 30.68500
H  -2.80700 20.99600 32.17300
H  -0.11400 18.07800 32.45100
H  -0.35700 16.52700 31.53800
H  -0.65800 15.52600 33.31500
H  -2.25400 16.30800 33.32300
H  0.25100 24.18700 28.04800
H  -1.17600 23.59700 29.11900
H  -1.41200 24.67200 27.71500
H  0.86200 25.31700 24.44000
H  1.04300 24.66800 25.98400
H  -0.49600 25.42600 25.71300
H  -0.66900 18.83000 21.92200
H  -2.75100 16.77500 22.14800
H  -2.42000 19.78300 20.68200
H  -3.42200 19.92800 22.15300
H  -3.42900 18.46900 21.13100
H  -0.42800 16.86100 20.83200
H  -1.33000 15.52300 21.47800
H  0.70600 16.43700 23.49400
H  1.44100 16.31200 21.93700
H  0.67100 14.86100 22.56900
H  -2.37100 12.81500 24.71000
H  -3.24600 12.39800 26.25600
H  -1.56200 12.00300 25.99900
H  -3.10100 14.82100 30.79400
H  -0.27100 12.06600 32.45200
H  -1.78700 12.15700 33.40300
H  -0.40000 13.27100 33.75900
Mg 26.25300 51.00400 26.23400
C  24.42900 52.21300 28.99700
C  28.77300 50.30400 28.38900
C  27.90200 49.74000 23.63700
C  23.78800 52.26300 24.08600
N  26.68200 51.32300 28.48000
C  25.69400 51.61700 29.36500
C  26.23300 51.34100 30.79200
C  27.80700 51.10500 30.60400
C  27.74300 50.84200 29.14600
C  28.71700 52.30800 31.01900
C  25.46800 50.22000 31.58600
C  24.91200 50.49300 32.99500
H  25.82800 50.46000 34.20200
N  28.15300 50.11900 26.00300
C  29.07700 50.02300 27.04100
C  30.30100 49.43300 26.43400
C  30.02900 49.22600 25.07800
C  28.67100 49.68800 24.83400
C  31.41900 48.95200 27.26700
C  30.86400 48.53600 23.99900
O  30.61100 48.67600 22.79600
C  32.06800 47.79100 24.35700
N  25.92500 51.09500 24.17400
C  26.75200 50.39000 23.34600
C  26.17800 50.40800 21.90200
C  24.79600 51.09600 22.08600
C  24.80600 51.48500 23.53800
C  27.08200 51.03000 20.79500
C  23.62300 50.25500 21.61000
C  23.18400 48.97200 22.44200
N  24.54300 52.07300 26.45100
C  23.62900 52.47100 25.46400
C  22.51300 53.05500 26.06700
C  22.71000 52.99900 27.45100
C  24.01400 52.41900 27.68600
C  21.38200 53.59100 25.35200
C  22.21700 53.25100 28.77500
O  21.11900 53.67100 29.12600
C  23.30300 52.69200 29.82600
C  23.59700 53.79900 30.77000
O  24.40400 54.64800 30.51000
O  22.84300 53.80600 31.90700
C  23.27000 54.82000 32.87500
H  29.47000 49.93600 29.14500
H  28.41600 49.30700 22.77600
H  22.96800 52.66700 23.48800
H  26.17500 52.26600 31.36500
H  28.21400 50.22200 31.09700
H  29.37700 51.85600 31.76000
H  28.09100 53.05300 31.51100
H  29.25800 52.86300 30.25300
H  26.16500 49.39200 31.71200
H  24.66700 49.85100 30.94600
H  24.12500 49.76200 33.17900
H  24.44800 51.45600 32.77800
H  31.31500 48.88900 28.35000
H  32.21700 49.68600 27.15200
H  31.73000 47.94400 26.99400
H  32.76000 48.53400 24.75300
H  32.55500 47.45000 23.44300
H  31.92100 46.98100 25.07100
H  26.06100 49.35500 21.64600
H  24.80700 51.92800 21.38200
H  26.76900 52.05200 20.58300
H  26.98600 50.38800 19.91900
H  28.11400 50.96100 21.13900
H  23.78300 49.96200 20.57300
H  22.69800 50.83100 21.63500
H  23.48500 48.14300 21.80200
H  22.11100 49.05700 22.61100
H  23.74500 49.09300 23.36900
H  20.76300 52.75300 25.03300
H  21.64500 54.32900 24.59500
H  20.87900 54.16100 26.13400
H  22.87000 51.95700 30.50400
H  22.36900 54.86300 33.48700
H  23.42900 55.79100 32.40500
H  24.16900 54.50900 33.40600

