158

Mg 16.64700 51.31400 27.09700
C  18.74300 50.15300 29.74200
C  14.39100 52.16300 29.31900
C  14.88500 52.36000 24.49200
C  19.15200 50.19100 24.88900
N  16.63200 51.25000 29.22600
C  17.56000 50.77800 30.16900
C  17.20900 51.05900 31.61600
C  15.70600 51.43800 31.48400
C  15.49900 51.61900 29.91400
C  14.64900 50.56000 32.16900
C  18.04500 52.23900 32.17800
C  18.37200 52.26600 33.67000
H  17.19600 51.79100 34.56300
N  14.89400 52.22500 26.89700
C  14.08100 52.50400 27.98000
C  12.98700 53.27900 27.55400
C  13.00400 53.33300 26.08500
C  14.27500 52.61300 25.75300
C  12.01600 53.96400 28.44700
C  12.02100 53.83400 25.01600
O  12.21100 53.77200 23.81000
C  10.80700 54.67500 25.52700
N  17.00800 51.21100 24.91900
C  16.09400 51.81400 24.04100
C  16.59700 51.86700 22.62900
C  17.98100 51.15800 22.75600
C  18.13400 50.92200 24.27400
C  15.66800 51.19300 21.59900
C  19.22800 51.87100 22.15900
C  19.68800 51.27100 20.80900
N  18.45600 50.29500 27.22200
C  19.31200 49.81600 26.26800
C  20.33800 49.05700 26.82900
C  20.20500 49.22800 28.22000
C  19.07600 49.99600 28.38100
C  21.45400 48.48600 26.02500
C  20.81100 48.89900 29.53500
O  21.81200 48.25100 29.74000
C  19.85200 49.53000 30.59300
C  19.32000 48.50700 31.53300
O  18.44000 47.70400 31.31700
O  20.07200 48.53300 32.71100
C  19.76700 47.43000 33.65600
H  13.62900 52.39200 30.06600
H  14.30700 52.83500 23.69600
H  19.96400 49.93700 24.20400
H  17.39500 50.18200 32.23600
H  15.66000 52.43900 31.91200
H  14.06800 50.01100 31.42800
H  13.96700 51.19200 32.73800
H  15.22000 49.89700 32.81900
H  17.53900 53.19900 32.07400
H  18.94700 52.32300 31.57200
H  18.59700 53.31100 33.88000
H  19.27200 51.67600 33.84100
H  11.10000 53.38000 28.53900
H  11.81200 55.00300 28.18900
H  12.39000 53.97200 29.47100
H  11.17700 55.60600 25.95500
H  10.27300 54.13800 26.31100
H  10.15800 54.88200 24.67700
H  16.76200 52.88700 22.28100
H  17.87400 50.16300 22.32300
H  15.00300 51.94300 21.17200
H  15.12800 50.48000 22.22200
H  16.15700 50.53000 20.88500
H  20.05900 51.74100 22.85200
H  19.23900 52.95700 22.06600
H  20.17600 52.08900 20.27900
H  18.87200 50.88100 20.20000
H  20.45900 50.52900 21.01500
H  21.08100 48.10500 25.07400
H  21.92800 47.70100 26.61400
H  22.09400 49.35800 25.88700
H  20.33200 50.21700 31.29000
H  20.13500 46.50500 33.21400
H  18.68600 47.36300 33.78100
H  20.32000 47.78400 34.52600
Mg -12.10800 38.03600 42.00100
C  -10.22100 35.16300 40.97300
C  -9.93600 40.00700 40.42200
C  -14.22400 40.49900 42.70000
C  -14.50300 35.66900 43.25100
N  -10.35700 37.59500 40.74500
C  -9.64200 36.40100 40.60300
C  -8.27400 36.58700 39.97100
C  -8.10100 38.16800 40.18600
C  -9.59900 38.62300 40.39500
C  -7.15200 38.63400 41.31800
C  -8.16300 35.99000 38.62300
C  -6.94400 35.04800 38.38700
H  -5.85400 35.68200 37.43300
N  -12.15200 40.02800 41.58100
C  -11.10200 40.66100 40.92400
C  -11.42800 42.11300 40.98300
C  -12.70400 42.24300 41.57200
C  -13.09500 40.93700 41.93600
C  -10.50700 43.19800 40.35900
C  -13.39200 43.64400 41.87600
O  -12.76700 44.64800 41.63700
C  -14.65700 43.65200 42.56300
N  -14.16400 38.08300 42.65800
C  -14.77800 39.26200 43.00600
C  -15.98900 38.98900 43.93600
C  -16.20300 37.42100 43.72900
C  -14.82900 37.03200 43.20900
C  -15.70500 39.44500 45.31200
C  -17.51500 37.00100 42.90300
C  -18.80100 36.65500 43.75900
N  -12.33800 35.83400 42.22400
C  -13.43200 35.06400 42.62200
C  -13.13100 33.63200 42.51000
C  -11.87000 33.67400 41.85000
C  -11.47000 34.97600 41.65800
C  -13.90600 32.48000 42.97700
C  -10.82700 32.82600 41.26800
O  -10.88200 31.59100 41.19600
C  -9.74000 33.76300 40.68100
C  -8.46100 33.44400 41.40600
O  -7.57100 32.73600 40.94900
O  -8.35200 34.08800 42.57800
C  -6.93600 34.11200 43.15200
H  -9.14500 40.64300 40.01800
H  -14.99200 41.20700 43.01900
H  -15.32800 35.04300 43.59600
H  -7.55500 36.17200 40.67700
H  -7.64100 38.47100 39.24500
H  -6.66200 37.80700 41.83300
H  -7.68100 39.13400 42.12900
H  -6.42300 39.35900 40.95500
H  -7.98700 36.87100 38.00600
H  -9.10800 35.54700 38.30700
H  -7.38900 34.13300 37.99500
H  -6.54300 34.80000 39.37000
H  -11.14800 43.82600 39.74000
H  -9.65700 42.80400 39.80200
H  -10.04300 43.81800 41.12600
H  -15.13800 44.63000 42.53700
H  -14.30100 43.33000 43.54200
H  -15.37600 42.97300 42.10400
H  -16.85100 39.55700 43.58600
H  -16.19700 36.85900 44.66300
H  -16.18700 40.39400 45.54600
H  -14.63900 39.66000 45.39500
H  -16.03100 38.66000 45.99400
H  -17.21300 36.15100 42.29100
H  -17.76400 37.80600 42.21200
H  -19.08900 35.66900 43.39300
H  -19.59400 37.39200 43.63400
H  -18.57700 36.69400 44.82500
H  -14.32000 31.92700 42.13400
H  -14.68600 32.60900 43.72800
H  -13.30600 31.69700 43.44100
H  -9.64900 33.51100 39.62400
H  -6.27600 34.73400 42.54800
H  -6.51300 33.11000 43.21900
H  -6.83900 34.59500 44.12400

