158

Mg 41.15000 9.05100 30.30200
C  43.14300 10.24600 32.81900
C  39.09100 7.67500 32.60100
C  39.51000 7.34100 27.76500
C  43.52900 10.05500 27.95600
N  41.19700 8.91500 32.55400
C  41.97600 9.63200 33.36000
C  41.52800 9.50100 34.78300
C  40.27100 8.55900 34.70000
C  40.16700 8.36500 33.17600
C  40.41100 7.19800 35.44600
C  41.27500 10.87700 35.41200
C  40.33800 10.95900 36.58800
H  40.78200 11.64300 37.88100
N  39.50300 7.80500 30.16400
C  38.71200 7.43300 31.26200
C  37.52700 6.76500 30.78500
C  37.58400 6.76800 29.39100
C  38.92000 7.28200 29.04600
C  36.55700 6.03200 31.70800
C  36.56600 6.23400 28.37800
O  36.76100 6.18800 27.20300
C  35.18800 5.94300 28.92900
N  41.42200 8.79300 28.15000
C  40.59500 8.08400 27.37700
C  41.09800 8.00400 25.97100
C  42.22100 9.10800 25.93900
C  42.41900 9.39100 27.47400
C  41.49700 6.59700 25.45800
C  41.93000 10.46600 25.15600
C  41.14800 11.56000 25.82500
N  43.01900 9.94300 30.36400
C  43.84900 10.33500 29.33000
C  45.03800 10.96800 29.82800
C  44.75000 11.01700 31.21600
C  43.60900 10.34100 31.45700
C  46.19800 11.49500 29.11500
C  45.28300 11.44900 32.48800
O  46.21300 12.16600 32.72200
C  44.32300 11.04600 33.54300
C  45.02100 10.23200 34.61800
O  45.65300 9.22200 34.41100
O  44.94300 10.89300 35.78100
C  45.80200 10.43300 36.87900
H  38.41500 7.25400 33.34800
H  38.96100 6.97100 26.89600
H  44.17700 10.47200 27.18100
H  42.39100 9.02600 35.24900
H  39.45200 9.17600 35.07000
H  39.78500 7.20000 36.33800
H  41.38400 7.09700 35.92600
H  40.32900 6.30400 34.82800
H  40.75800 11.54900 34.72700
H  42.27400 11.18800 35.71900
H  40.13000 9.94000 36.91500
H  39.43900 11.48400 36.26400
H  35.58700 6.51000 31.84900
H  36.90900 5.91200 32.73300
H  36.47600 5.01000 31.33700
H  34.83000 6.81600 29.47500
H  35.12200 5.08300 29.59600
H  34.50200 5.71900 28.11100
H  40.35000 8.37700 25.27200
H  43.19300 8.73700 25.61300
H  42.48100 6.51100 24.99600
H  40.74600 6.38300 24.69800
H  41.39100 5.84200 26.23600
H  41.35500 10.28400 24.24800
H  42.80000 10.91000 24.67300
H  40.96000 11.40100 26.88700
H  40.24000 11.76000 25.25700
H  41.79100 12.42900 25.68400
H  45.98200 12.56400 29.09400
H  46.35100 11.03000 28.14200
H  47.16500 11.19400 29.51800
H  43.83500 11.88900 34.03200
H  45.23100 10.40900 37.80800
H  46.61100 11.11800 37.13100
H  46.24200 9.44800 36.72700
Mg -10.63400 39.24900 41.07300
C  -9.16700 36.23100 39.80600
C  -8.15900 40.88300 39.39400
C  -12.61400 41.93300 41.06000
C  -13.21400 37.21300 42.19600
N  -8.98400 38.62300 39.77900
C  -8.56600 37.36800 39.31300
C  -7.47200 37.42500 38.30700
C  -6.97200 38.84700 38.43100
C  -8.07300 39.48000 39.27800
C  -5.67800 39.04500 39.25100
C  -7.92500 36.91800 36.82100
C  -7.06000 35.91500 35.94900
H  -6.66400 36.37100 34.54000
N  -10.35900 41.20500 40.55600
C  -9.27100 41.71000 39.91000
C  -9.35500 43.13600 39.78200
C  -10.68800 43.49700 40.07900
C  -11.27100 42.20600 40.64000
C  -8.27500 44.00500 39.24700
C  -11.29000 44.91300 39.94000
O  -10.55500 45.88500 39.64800
C  -12.67100 45.16900 40.47200
N  -12.66400 39.54100 41.57500
C  -13.25400 40.79500 41.53500
C  -14.67300 40.76200 42.02100
C  -14.83400 39.26500 42.48000
C  -13.49200 38.57500 41.94800
C  -15.09400 41.73000 43.14300
C  -16.01500 38.33500 42.01000
C  -16.76000 37.52700 43.00100
N  -10.99600 37.13400 41.28300
C  -12.12400 36.49200 41.78700
C  -11.86500 35.03300 41.77100
C  -10.76100 34.89900 40.94000
C  -10.31400 36.26500 40.58600
C  -12.76700 33.89700 42.30700
C  -9.90000 33.93100 40.30700
O  -9.95700 32.68100 40.35400
C  -8.82500 34.77400 39.44800
C  -7.42300 34.32400 39.88600
O  -6.54700 34.02400 39.07600
O  -7.31800 34.18200 41.28100
C  -6.10400 33.46800 41.75800
H  -7.27900 41.28200 38.88500
H  -13.15500 42.88100 41.03700
H  -14.06600 36.60300 42.50100
H  -6.66200 36.77200 38.63200
H  -6.90400 39.38400 37.48400
H  -5.51000 38.13700 39.82900
H  -5.69700 39.88200 39.94900
H  -4.78400 39.18300 38.64300
H  -7.93800 37.82300 36.21300
H  -8.94600 36.55300 36.93700
H  -7.57300 34.97800 35.73300
H  -6.15700 35.69400 36.51900
H  -8.79300 44.78100 38.68400
H  -7.68700 43.42300 38.53700
H  -7.67600 44.57500 39.95700
H  -13.53200 44.73900 39.96100
H  -12.88000 46.23900 40.45600
H  -12.63300 44.87600 41.52100
H  -15.33400 40.89600 41.16500
H  -14.66800 39.13300 43.54900
H  -15.52100 42.60300 42.64900
H  -14.18900 42.05200 43.65800
H  -15.80100 41.34100 43.87600
H  -15.67800 37.76900 41.14200
H  -16.65100 39.07600 41.52600
H  -16.36700 36.51300 42.93100
H  -17.82800 37.49500 42.78300
H  -16.66800 37.89100 44.02400
H  -12.91900 34.07800 43.37100
H  -12.16700 32.98700 42.29100
H  -13.65900 33.68400 41.71800
H  -8.88300 34.70600 38.36200
H  -6.17600 33.16000 42.80100
H  -5.16500 34.00400 41.61900
H  -6.09800 32.60300 41.09500

