158

Mg 23.83100 -5.17900 46.20200
C  25.71500 -2.66300 44.47200
C  21.07000 -4.25600 44.42200
C  22.51900 -8.13600 46.92500
C  26.87800 -6.28600 47.44700
N  23.52400 -3.65100 44.60800
C  24.38300 -2.63000 44.11700
C  23.58300 -1.72900 43.20000
C  22.08100 -2.10900 43.59100
C  22.22200 -3.41100 44.26000
C  21.43700 -0.97500 44.49600
C  23.98100 -1.90800 41.69500
C  24.57300 -0.64000 40.99100
H  24.66300 -0.75600 39.44500
N  21.95500 -6.01900 45.79400
C  20.96000 -5.46100 45.06500
C  19.84600 -6.36500 44.99100
C  20.18200 -7.53200 45.74500
C  21.64600 -7.29500 46.17300
C  18.56600 -6.01800 44.24100
C  19.20900 -8.72300 45.95300
O  18.13800 -8.70700 45.44400
C  19.59700 -9.90400 46.80100
N  24.57900 -6.86800 47.20000
C  23.79500 -8.00100 47.36000
C  24.58500 -9.24200 47.92200
C  25.99900 -8.49400 48.28700
C  25.84600 -7.13900 47.57000
C  23.89600 -9.76900 49.21600
C  27.18900 -9.33400 47.78200
C  28.23500 -9.61300 48.82900
N  25.93200 -4.48900 46.26100
C  27.00100 -5.01300 46.86000
C  28.17400 -4.22100 46.57700
C  27.74600 -3.21900 45.73700
C  26.38800 -3.49800 45.43800
C  29.58700 -4.44900 47.13500
C  28.07000 -2.06900 44.95600
O  29.14400 -1.45000 44.93500
C  26.77300 -1.67800 44.21900
C  26.38700 -0.23000 44.57000
O  25.52400 0.02200 45.43400
O  27.23300 0.64500 43.94800
C  26.99900 2.04300 44.46000
H  20.25000 -3.84100 43.83300
H  22.03800 -9.06500 47.23700
H  27.86400 -6.48600 47.87200
H  23.79000 -0.68100 43.41700
H  21.45300 -2.12400 42.70000
H  21.99300 -0.03900 44.55100
H  21.32600 -1.39800 45.49400
H  20.51900 -0.66500 43.99600
H  23.13300 -2.29800 41.13100
H  24.84500 -2.56700 41.60300
H  25.55000 -0.27100 41.30300
H  23.88700 0.16500 41.25600
H  18.90600 -5.57000 43.30700
H  17.98400 -5.32900 44.85200
H  17.96300 -6.88600 43.97100
H  18.67800 -10.28800 47.24400
H  20.19100 -9.59100 47.66000
H  20.08900 -10.64200 46.16800
H  24.72300 -10.07400 47.23100
H  26.06400 -8.16100 49.32300
H  22.87900 -9.37900 49.26700
H  24.53400 -9.61500 50.08600
H  23.75400 -10.81300 48.93600
H  27.64400 -9.01000 46.84600
H  26.78800 -10.29200 47.45100
H  28.72100 -10.56100 48.59600
H  27.86000 -9.48800 49.84500
H  29.02400 -8.87400 48.69200
H  30.37100 -3.72300 46.91600
H  29.98100 -5.45000 46.96100
H  29.45500 -4.48700 48.21600
H  27.02200 -1.81700 43.16700
H  27.92000 2.50900 44.11100
H  26.99300 2.08500 45.54900
H  26.04900 2.38500 44.04900
Mg -0.97400 33.73500 26.94000
C  -2.89500 32.09200 29.10400
C  0.21700 35.82500 29.51800
C  0.82400 35.43200 24.68400
C  -2.75800 32.32200 24.21200
N  -1.43500 34.04300 28.99700
C  -2.09100 33.02600 29.73200
C  -1.99500 33.29600 31.23000
C  -1.46900 34.80200 31.15600
C  -0.82700 34.91700 29.80800
C  -2.58200 35.85400 31.36500
C  -1.10500 32.23800 31.98100
C  -0.76100 32.57000 33.40000
H  -1.24300 31.46200 34.45100
N  0.53900 35.19000 27.09300
C  0.86600 35.92100 28.22400
C  1.94000 36.79500 27.91300
C  2.01900 36.82000 26.53900
C  1.11300 35.77700 26.05500
C  2.55500 37.71400 28.95400
C  2.77000 37.74400 25.51500
O  2.40700 37.84800 24.33500
C  3.85000 38.62900 25.97000
N  -0.98600 34.00600 24.73400
C  -0.07700 34.64900 24.01600
C  -0.27100 34.43900 22.50400
C  -1.20800 33.14700 22.45400
C  -1.74600 33.18900 23.86500
C  -0.59000 35.72200 21.65900
C  -0.55100 31.78800 22.02700
C  0.55000 31.33400 22.93700
N  -2.53600 32.59600 26.67800
C  -3.12900 31.99600 25.56000
C  -4.05800 31.03700 25.97500
C  -4.04300 31.06100 27.38500
C  -3.10000 31.99200 27.72100
C  -4.85800 30.25400 25.10600
C  -4.62000 30.44700 28.56800
O  -5.43900 29.56900 28.70700
C  -3.80100 31.08900 29.77500
C  -4.80500 31.81200 30.55100
O  -5.37900 32.89400 30.14500
O  -5.04600 31.26400 31.75400
C  -6.03600 31.85500 32.65200
H  0.53500 36.49300 30.32100
H  1.52400 35.85100 23.95800
H  -3.18000 31.79800 23.35200
H  -2.99600 33.39400 31.65000
H  -0.74400 35.05600 31.93000
H  -2.76700 36.08500 32.41400
H  -3.50900 35.46600 30.94300
H  -2.22200 36.76300 30.88300
H  -0.17700 32.09400 31.42700
H  -1.63200 31.28600 31.92000
H  -1.15200 33.51700 33.77300
H  0.32800 32.62600 33.37300
H  2.58900 37.20700 29.91900
H  1.96400 38.63000 28.98100
H  3.58600 37.81600 28.61600
H  4.51000 38.97300 25.17300
H  4.41200 38.25500 26.82500
H  3.20800 39.46900 26.23600
H  0.69500 34.14100 22.09800
H  -1.96400 33.38700 21.70600
H  -1.17400 35.45600 20.77900
H  0.35700 36.03200 21.21700
H  -1.14700 36.36400 22.34200
H  -0.04000 31.97100 21.08200
H  -1.33900 31.05000 21.87500
H  0.55200 31.82500 23.91000
H  1.53200 31.52400 22.50300
H  0.53600 30.25400 23.08500
H  -4.89900 29.25200 25.53300
H  -4.38200 30.14400 24.13200
H  -5.88700 30.58000 24.95200
H  -3.32900 30.26800 30.31500
H  -5.63200 32.59800 33.33900
H  -6.56900 31.07500 33.19400
H  -6.76200 32.50100 32.15700

