158

Mg 47.31800 24.59000 28.66800
C  47.98100 26.76700 31.15900
C  46.46300 22.21800 30.86000
C  46.55700 22.74200 26.00000
C  48.49600 27.04300 26.27900
N  47.37700 24.53400 30.84800
C  47.50400 25.55000 31.69600
C  47.34500 25.05200 33.19400
C  46.93300 23.59000 32.97900
C  46.89300 23.38300 31.46300
C  47.85200 22.62800 33.71700
C  46.31000 25.93500 33.93000
C  46.77500 26.47600 35.38400
H  45.70000 26.50300 36.34700
N  46.69200 22.75900 28.44500
C  46.24900 21.92500 29.47900
C  45.94000 20.67300 28.91600
C  46.00400 20.72200 27.52200
C  46.38200 22.16800 27.29000
C  45.77400 19.42100 29.85900
C  45.87000 19.63500 26.43600
O  46.22200 19.85800 25.30600
C  45.32100 18.32600 26.68100
N  47.45800 24.79900 26.44200
C  47.13200 23.90400 25.58200
C  47.35400 24.26100 24.11300
C  47.73700 25.77900 24.27500
C  47.95800 25.84000 25.78700
C  48.48900 23.35300 23.50100
C  46.66400 26.79800 23.70100
C  45.43700 27.18800 24.53600
N  48.11600 26.46700 28.69000
C  48.45600 27.35600 27.70400
C  48.87200 28.67700 28.20300
C  48.70000 28.50000 29.60300
C  48.25500 27.13900 29.83200
C  49.48500 29.88900 27.40100
C  48.79000 29.10600 30.89300
O  49.11000 30.24500 31.20200
C  48.27400 28.04700 31.87800
C  49.26800 27.89800 32.98800
O  50.20100 27.15800 32.82600
O  49.04900 28.82700 33.97000
C  49.81600 28.75300 35.22300
H  46.17100 21.49100 31.62100
H  46.17500 22.03400 25.26200
H  49.01500 27.72900 25.60700
H  48.28700 25.16300 33.73100
H  45.91900 23.41800 33.33900
H  47.23000 21.92300 34.26900
H  48.44200 23.12700 34.48700
H  48.55500 21.98000 33.19300
H  45.35500 25.47100 34.17800
H  46.09600 26.83900 33.36100
H  47.22400 27.45100 35.19700
H  47.51100 25.73900 35.70700
H  46.46600 18.62600 29.58000
H  44.76400 19.04600 29.69600
H  45.92600 19.59300 30.92500
H  44.47100 18.27700 27.36200
H  46.20900 17.80100 27.03500
H  45.15400 17.75000 25.77100
H  46.43100 24.08000 23.56300
H  48.68600 25.91700 23.75600
H  48.38300 22.35200 23.92000
H  49.44900 23.70200 23.88200
H  48.54000 23.30900 22.41300
H  46.30200 26.25500 22.82800
H  47.30900 27.59600 23.33300
H  45.50500 26.53100 25.40300
H  44.60800 26.93800 23.87300
H  45.55900 28.21000 24.89700
H  48.88800 30.12600 26.52000
H  50.46600 29.50300 27.12600
H  49.51700 30.85300 27.90900
H  47.36900 28.54300 32.22900
H  49.25500 28.26800 36.02300
H  49.95600 29.77100 35.58400
H  50.77800 28.26300 35.07500
Mg -10.53900 17.10900 43.09300
C  -6.94300 17.07300 43.08700
C  -10.36600 20.54400 42.27100
C  -13.79300 17.02500 42.67600
C  -10.47900 13.59600 42.92900
N  -8.82100 18.57300 42.76800
C  -7.46000 18.38700 42.84200
C  -6.72500 19.68200 42.56200
C  -7.84400 20.79600 42.81400
C  -9.13100 19.92500 42.62300
C  -7.77100 21.40400 44.23100
C  -6.06800 19.76500 41.19800
C  -4.49100 19.70800 41.16500
H  -3.72000 18.93300 40.08800
N  -11.95700 18.58300 42.60100
C  -11.66000 19.88100 42.22400
C  -12.89200 20.52500 41.90700
C  -13.93400 19.55500 42.09400
C  -13.24000 18.31900 42.44600
C  -13.08500 21.98900 41.70100
C  -15.51400 19.83400 41.89500
O  -15.90100 20.88000 41.46600
C  -16.56500 18.73600 42.16800
N  -11.97800 15.51900 42.87000
C  -13.27400 15.82300 42.90700
C  -14.02300 14.52000 43.19200
C  -13.02000 13.36200 43.04700
C  -11.74100 14.18200 42.88500
C  -14.70300 14.53500 44.58300
C  -13.17800 12.26000 41.96700
C  -12.83100 12.62100 40.48100
N  -9.05000 15.62000 43.09500
C  -9.19700 14.23400 42.99500
C  -7.85800 13.67200 43.15000
C  -6.96900 14.73100 43.21900
C  -7.76400 15.90800 43.17800
C  -7.51300 12.23500 43.45200
C  -5.58700 15.07800 43.38900
O  -4.66100 14.34900 43.75800
C  -5.48100 16.60500 43.34600
C  -4.91600 17.10600 44.58500
O  -5.45400 17.11000 45.67900
O  -3.59300 17.33500 44.36000
C  -2.87900 17.82100 45.59000
H  -10.35400 21.61800 42.07400
H  -14.86300 16.81800 42.74600
H  -10.45100 12.50600 42.97900
H  -5.92900 19.70400 43.30600
H  -7.83300 21.57100 42.04800
H  -6.89100 21.06700 44.77700
H  -8.51800 21.01200 44.92200
H  -7.78100 22.49400 44.22200
H  -6.31400 20.67200 40.64500
H  -6.53400 19.02600 40.54500
H  -4.08800 19.48500 42.15200
H  -4.26200 20.77400 41.17000
H  -13.99400 22.25000 42.24500
H  -13.38900 22.22200 40.68000
H  -12.27500 22.68100 41.93100
H  -17.60700 19.00500 41.99400
H  -16.49300 18.31500 43.17100
H  -16.45400 18.00900 41.36300
H  -14.82500 14.43700 42.45800
H  -12.89500 12.83700 43.99400
H  -14.27500 15.33700 45.18400
H  -14.52600 13.70000 45.26000
H  -15.78600 14.63400 44.51000
H  -14.21100 11.91700 41.90300
H  -12.51200 11.43300 42.21300
H  -11.91100 12.15400 40.13200
H  -12.77200 13.70900 40.45100
H  -13.59000 12.28600 39.77200
H  -8.19700 11.60800 42.88000
H  -7.60600 12.10800 44.53100
H  -6.44900 12.00100 43.41500
H  -4.77000 16.92700 42.58400
H  -1.80800 17.93800 45.42400
H  -3.02900 17.09500 46.39000
H  -3.08200 18.84700 45.89600

