158

Mg -2.03000 17.02800 25.82800
C  -2.15000 14.75200 28.47100
C  -2.12700 19.63200 28.13500
C  -2.33200 19.11500 23.32100
C  -2.12200 14.28200 23.64100
N  -2.27700 17.16000 28.00000
C  -2.30300 16.07100 28.88200
C  -2.61300 16.53000 30.29800
C  -2.55300 18.12400 30.15000
C  -2.33500 18.37700 28.69400
C  -3.82400 18.94400 30.65000
C  -1.54200 16.09300 31.29700
C  -1.51100 16.83300 32.65800
H  -1.22400 16.06200 33.97100
N  -2.24800 19.16600 25.74700
C  -2.08800 20.01900 26.77300
C  -2.22900 21.39400 26.25500
C  -2.25600 21.31900 24.84500
C  -2.28000 19.86200 24.55000
C  -2.45200 22.62100 27.07900
C  -2.30900 22.35500 23.79000
O  -2.47000 22.12800 22.62300
C  -2.10100 23.73400 24.17300
N  -2.20500 16.76300 23.83600
C  -2.28000 17.82300 22.92000
C  -2.24700 17.27600 21.49200
C  -2.01300 15.72300 21.64200
C  -2.17000 15.54700 23.12100
C  -3.54700 17.59300 20.73600
C  -0.59300 15.23000 21.09000
C  -0.57700 14.23500 19.92800
N  -2.07100 14.94500 25.97500
C  -2.00900 14.03900 25.00700
C  -1.95800 12.74900 25.56400
C  -2.03300 12.99500 26.91200
C  -2.02300 14.36200 27.15100
C  -1.77100 11.44800 24.86800
C  -1.89600 12.38300 28.16000
O  -1.76600 11.22400 28.44700
C  -1.99100 13.45200 29.26500
C  -0.86000 13.29900 30.24100
O  0.23600 13.82900 30.11000
O  -1.26400 12.51600 31.29400
C  -0.25100 12.21900 32.26500
H  -1.85300 20.43800 28.81900
H  -2.44100 19.75900 22.44500
H  -2.18200 13.43300 22.95600
H  -3.58700 16.23900 30.69200
H  -1.69600 18.57800 30.64800
H  -4.21400 19.46900 29.77900
H  -3.57600 19.66700 31.42800
H  -4.66200 18.28300 30.87200
H  -0.58600 16.24100 30.79500
H  -1.71700 15.07300 31.64200
H  -2.43800 17.39900 32.74700
H  -0.61900 17.44000 32.50800
H  -3.44400 22.97500 26.79500
H  -1.67600 23.38600 27.04100
H  -2.49800 22.33300 28.12900
H  -1.16200 23.91700 24.69400
H  -2.91600 24.06900 24.81600
H  -2.02200 24.40300 23.31700
H  -1.44400 17.74200 20.92100
H  -2.73100 15.10300 21.10500
H  -4.35000 18.21100 21.14000
H  -4.05000 16.64500 20.54600
H  -3.19900 17.97700 19.77700
H  -0.06000 14.86900 21.97000
H  -0.10400 16.18400 20.89800
H  0.17600 13.45600 20.05000
H  -0.35500 14.69700 18.96600
H  -1.52800 13.72500 19.78100
H  -1.36900 10.70600 25.55600
H  -1.09800 11.60900 24.02500
H  -2.79900 11.17100 24.63200
H  -2.94100 13.27400 29.76800
H  -0.65900 12.05100 33.26100
H  0.54900 12.95900 32.29500
H  0.36400 11.35300 32.01900
Mg 35.90500 2.06100 29.93800
C  33.29900 2.80500 31.96500
C  37.99600 2.08600 32.58300
C  38.45000 1.40600 27.76400
C  33.66000 2.14500 27.16400
N  35.62500 2.35700 31.98500
C  34.47500 2.61000 32.63800
C  34.70800 2.70800 34.16500
C  36.19600 2.83000 34.28300
C  36.66200 2.39300 32.86500
C  36.69500 4.30100 34.40300
C  34.12600 1.53400 35.09500
C  33.91000 1.97100 36.54400
H  34.51200 3.30100 37.19000
N  37.99700 1.80000 30.14700
C  38.64000 1.80800 31.35900
C  40.06300 1.48200 31.11200
C  40.15200 1.20700 29.70200
C  38.84900 1.47700 29.16300
C  41.05600 1.33200 32.14300
C  41.34800 0.70900 28.84300
O  41.41900 0.46800 27.65200
C  42.65000 0.50300 29.62600
N  35.93000 1.63800 27.83700
C  37.18600 1.54000 27.19800
C  37.04500 1.38000 25.65800
C  35.40500 1.55800 25.48800
C  34.92500 1.78000 26.89500
C  37.72500 2.53600 24.88200
C  34.82400 0.27500 24.88600
C  34.29700 0.40000 23.43600
N  33.87000 2.24400 29.53700
C  33.14400 2.46800 28.38200
C  31.80600 2.88500 28.71300
C  31.84600 3.03200 30.09900
C  33.12400 2.66300 30.56400
C  30.69300 3.14300 27.78600
C  31.07100 3.45300 31.22900
O  29.96900 3.96400 31.22800
C  31.94300 3.17600 32.49000
C  32.00500 4.40900 33.37100
O  32.44600 5.52100 33.13400
O  31.39100 4.06100 34.59600
C  31.18800 5.18000 35.50800
H  38.55700 2.20700 33.51200
H  39.32100 1.26200 27.12200
H  32.98300 2.11600 26.30900
H  34.21200 3.60700 34.53200
H  36.64500 2.20700 35.05500
H  37.50400 4.29700 35.13400
H  35.88400 4.95600 34.72100
H  37.10800 4.64300 33.45400
H  34.77400 0.66300 34.99800
H  33.13200 1.22300 34.77400
H  34.11000 1.08300 37.14300
H  32.83100 2.04800 36.68000
H  41.35100 0.29400 32.29600
H  40.62900 1.73000 33.06400
H  41.93400 1.92900 31.89900
H  43.33700 0.17500 28.84600
H  42.50700 -0.24900 30.40200
H  42.88000 1.50000 30.00200
H  37.49900 0.45500 25.30100
H  35.04200 2.39400 24.89100
H  38.62500 2.85000 25.41100
H  37.04800 3.34200 24.59900
H  38.15100 2.14000 23.96100
H  34.05100 -0.10400 25.55400
H  35.62200 -0.46200 24.97300
H  34.98400 -0.13200 22.77700
H  34.10900 1.41700 23.09300
H  33.32200 -0.04100 23.22800
H  31.12800 3.43900 26.83200
H  30.03400 3.94200 28.12500
H  30.05700 2.26500 27.67200
H  31.44800 2.47500 33.16100
H  32.14400 5.57400 35.85300
H  30.53800 5.01500 36.36800
H  30.82900 6.08800 35.02400

