158

Mg 53.76800 24.18000 43.99900
C  51.05700 26.20300 43.08200
C  52.39100 21.64700 42.13700
C  56.77100 22.54100 44.14000
C  55.19900 26.96900 45.59900
N  52.10500 24.07300 42.44400
C  51.11800 25.05700 42.33500
C  49.93800 24.49100 41.42400
C  50.24900 22.91800 41.37500
C  51.66400 22.85700 42.04700
C  49.21900 22.00600 41.99700
C  49.75700 25.07700 39.94400
C  51.09800 25.46000 39.38000
H  51.16200 25.99600 37.94600
N  54.38800 22.27400 43.41000
C  53.61100 21.34400 42.76400
C  54.26400 20.06900 42.86400
C  55.59100 20.33600 43.45300
C  55.61800 21.78600 43.66000
C  53.62000 18.77300 42.29400
C  56.64000 19.28400 43.65500
O  56.33600 18.08800 43.49100
C  58.08600 19.60000 44.23900
N  55.78200 24.81900 44.44900
C  56.82000 23.94300 44.51800
C  58.07200 24.64800 45.16900
C  57.46700 25.92700 45.80900
C  56.05700 25.89300 45.31100
C  58.98600 23.84500 46.17900
C  58.20200 27.27400 45.46400
C  58.29100 28.31000 46.59400
N  53.18700 26.14700 44.37500
C  53.82700 27.08900 45.19100
C  52.89800 28.21400 45.40000
C  51.83200 27.89600 44.55000
C  52.06600 26.66600 43.96400
C  53.19800 29.52000 46.16800
C  50.60600 28.43400 44.03100
O  50.10800 29.52700 44.35300
C  49.98200 27.30500 43.30500
C  49.54500 27.87600 42.05800
O  50.27800 28.39100 41.20200
O  48.15700 27.83900 41.95600
C  47.66000 28.49900 40.73200
H  51.92100 20.77700 41.67300
H  57.68900 21.97100 44.29300
H  55.59800 27.66700 46.33700
H  48.96000 24.65000 41.87700
H  50.26700 22.68600 40.31000
H  48.42600 22.64300 42.39000
H  49.65000 21.53900 42.88300
H  48.91900 21.21100 41.31500
H  49.05600 25.90800 39.88200
H  49.30700 24.30600 39.31700
H  51.63800 24.51300 39.39200
H  51.60900 26.15200 40.04900
H  54.23700 18.57200 41.41800
H  52.55100 18.88000 42.10900
H  53.84600 18.05100 43.07900
H  57.91900 20.13300 45.17500
H  58.63700 20.13900 43.46900
H  58.55600 18.63800 44.43800
H  58.60200 25.10800 44.33500
H  57.39200 25.82100 46.89100
H  59.92400 23.70000 45.64300
H  58.38100 22.99700 46.50100
H  59.08100 24.33000 47.15000
H  57.64700 27.84600 44.72000
H  59.20400 27.09300 45.07500
H  59.30600 28.66900 46.76100
H  58.02400 27.99400 47.60300
H  57.64900 29.16800 46.39500
H  52.31900 29.64800 46.79900
H  53.45000 30.28300 45.43200
H  54.13400 29.33800 46.69600
H  49.14800 26.87900 43.86400
H  47.79500 29.57400 40.85400
H  46.57500 28.42200 40.65400
H  48.19700 28.13700 39.85600
Mg 26.79600 50.38000 26.82700
C  24.59500 51.40700 29.40100
C  29.03200 49.32800 29.15100
C  28.73100 49.72200 24.25500
C  24.48500 51.95700 24.52200
N  26.73300 50.45400 28.98100
C  25.76800 50.90000 29.86600
C  26.14000 50.55300 31.38100
C  27.64900 50.06300 31.24500
C  27.81600 49.90600 29.71900
C  28.66500 51.01000 31.85700
C  25.11400 49.46500 31.94300
C  24.37100 49.88900 33.26100
H  24.16500 48.97100 34.46100
N  28.57800 49.62300 26.66100
C  29.31500 49.15900 27.77800
C  30.56900 48.64300 27.27300
C  30.52800 48.72100 25.82900
C  29.29900 49.40100 25.49600
C  31.62200 48.08400 28.16800
C  31.58900 48.17100 24.86100
O  31.51100 48.27000 23.65400
C  32.74500 47.40700 25.31400
N  26.62500 50.90800 24.68700
C  27.57900 50.42800 23.85000
C  27.07500 50.52400 22.38800
C  25.61600 51.00400 22.53300
C  25.54300 51.32100 24.04600
C  28.04000 51.44000 21.57300
C  24.43100 50.04500 22.18300
C  23.41200 50.53300 21.13100
N  24.90000 51.47200 26.91700
C  24.09700 51.95700 25.90700
C  22.87200 52.55500 26.50900
C  23.00500 52.29600 27.89400
C  24.27900 51.68700 28.08300
C  21.77700 53.31300 25.71000
C  22.32500 52.45700 29.16400
O  21.29700 52.97300 29.52400
C  23.41900 51.99000 30.20400
C  23.93100 53.13000 31.04300
O  25.04200 53.71000 30.91400
O  23.09700 53.37500 32.02800
C  23.40300 54.48100 32.98200
H  29.72100 48.91300 29.89000
H  29.32700 49.35600 23.41600
H  23.73500 52.26300 23.79000
H  26.20100 51.53100 31.85800
H  27.75400 49.10600 31.75600
H  29.20300 50.42900 32.60600
H  28.24800 51.94100 32.24200
H  29.28700 51.38600 31.04400
H  25.69100 48.55400 32.10400
H  24.40000 49.22400 31.15500
H  23.41600 50.22700 32.85900
H  24.85200 50.81300 33.58100
H  31.51000 48.19800 29.24700
H  32.62100 48.50500 28.05600
H  31.86500 47.03100 28.02500
H  32.41700 46.70000 26.07700
H  33.43600 48.04700 25.86200
H  33.16100 46.94300 24.42000
H  27.21600 49.51800 21.99300
H  25.47400 51.93500 21.98400
H  29.02100 51.46600 22.04600
H  27.54600 52.36800 21.28600
H  28.15400 50.95400 20.60400
H  23.89900 49.78600 23.09800
H  24.94800 49.14000 21.86300
H  23.64800 50.15400 20.13700
H  23.54700 51.61000 21.02700
H  22.39200 50.26100 21.40000
H  21.86600 53.30800 24.62300
H  21.94900 54.33500 26.04900
H  20.80200 53.06700 26.12900
H  22.89400 51.30000 30.86400
H  23.98800 54.08200 33.81100
H  22.51400 54.86500 33.48200
H  23.80800 55.36800 32.49500

