158

Mg 48.62100 45.19500 43.94100
C  45.50500 45.79700 42.49000
C  48.83000 42.09800 42.44100
C  52.05600 45.27400 44.28300
C  48.60600 48.59500 44.96000
N  47.24100 44.07400 42.69300
C  46.02600 44.53600 42.23000
C  45.39100 43.39000 41.47500
C  46.28100 42.13300 41.86100
C  47.55400 42.79700 42.37300
C  45.64200 41.32000 43.00500
C  45.31600 43.71500 39.90300
C  43.82000 43.66600 39.34500
H  43.69200 42.83800 38.07100
N  50.19800 43.79800 43.65300
C  50.04900 42.59900 42.94300
C  51.31600 41.84300 42.97300
C  52.22200 42.75500 43.55200
C  51.46400 44.03300 43.90100
C  51.46900 40.41600 42.33100
C  53.73800 42.54200 43.67200
O  54.20500 41.48100 43.24900
C  54.77000 43.49300 44.28900
N  50.16400 46.70100 44.65500
C  51.48300 46.49800 44.58800
C  52.25300 47.69300 45.08700
C  51.06200 48.59200 45.71800
C  49.86600 47.94900 45.11900
C  53.47500 47.39800 46.07100
C  51.19800 50.06500 45.28200
C  51.10300 51.08400 46.38400
N  47.30900 46.89800 43.76600
C  47.46800 48.18100 44.28300
C  46.28700 48.96500 44.01100
C  45.36900 48.02400 43.36000
C  46.12700 46.81800 43.22100
C  46.04200 50.38200 44.20000
C  44.07500 47.83400 42.78000
O  43.18200 48.57800 42.61500
C  44.09700 46.34000 42.20200
C  43.05500 45.55500 42.89000
O  43.23600 44.78900 43.84500
O  41.81400 45.67100 42.25800
C  40.78900 44.74700 42.73900
H  48.98600 41.11700 41.98700
H  53.14500 45.31700 44.33700
H  48.54200 49.61400 45.34600
H  44.37800 43.34100 41.87300
H  46.52000 41.46600 41.03300
H  45.80000 40.27200 42.75000
H  44.59000 41.54400 43.18300
H  46.07100 41.42100 44.00100
H  45.92700 42.94500 39.43100
H  45.79000 44.65100 39.60800
H  43.62600 44.70100 39.06200
H  43.15300 43.20300 40.07300
H  51.81900 40.42300 41.29900
H  50.63600 39.72700 42.46500
H  52.20900 39.84000 42.88700
H  55.61100 42.89200 44.63500
H  54.33400 43.85300 45.22100
H  54.99500 44.27700 43.56500
H  52.64900 48.22400 44.22100
H  51.06200 48.42200 46.79500
H  53.34500 46.38100 46.44200
H  53.54800 48.02800 46.95800
H  54.41800 47.62300 45.57400
H  50.57500 50.31100 44.42200
H  52.14800 50.25100 44.78200
H  51.54900 52.02700 46.06600
H  51.63500 50.77100 47.28300
H  50.06400 51.31100 46.62300
H  46.28500 50.91300 43.28000
H  46.70600 50.83600 44.93600
H  44.97900 50.46200 44.42500
H  43.86800 46.37700 41.13700
H  39.93700 45.32800 43.09300
H  41.07600 44.05500 43.53100
H  40.39900 44.19900 41.88100
Mg 36.23300 49.03300 25.40900
C  36.40900 46.96600 28.23000
C  34.78700 51.41400 27.49000
C  35.90400 50.95700 22.68900
C  37.22400 46.29400 23.44800
N  35.49300 49.06100 27.61600
C  35.96400 48.25600 28.55800
C  35.57600 48.74800 29.99900
C  34.91400 50.17500 29.68700
C  35.03000 50.19600 28.14400
C  33.43000 50.47300 30.20800
C  36.81600 48.85000 30.89600
C  36.57000 48.44700 32.35500
H  36.67300 49.52400 33.51000
N  35.56500 50.97100 25.16500
C  34.92400 51.77800 26.11400
C  34.60300 53.03800 25.39800
C  35.10500 52.95400 24.05400
C  35.51400 51.55000 23.91800
C  33.95000 54.18500 26.20500
C  34.99700 54.03900 23.02400
O  35.39100 53.84100 21.89800
C  34.35800 55.36900 23.33900
N  36.53900 48.64500 23.36800
C  36.29500 49.62000 22.47500
C  36.56600 48.97300 21.06700
C  37.23400 47.61300 21.32000
C  37.04000 47.52700 22.81100
C  35.35400 48.86200 20.11800
C  38.66000 47.57700 20.83800
C  39.11500 46.17100 20.34300
N  36.79000 46.99000 25.74300
C  37.14600 45.98300 24.81100
C  37.46900 44.72800 25.56500
C  37.10200 45.01400 26.90700
C  36.75500 46.39500 26.96800
C  38.03900 43.44100 24.89700
C  37.07700 44.53100 28.24600
O  37.48500 43.45000 28.70500
C  36.65100 45.80200 29.20200
C  35.45700 45.45200 30.02300
O  34.29400 45.46400 29.63100
O  35.91600 45.26600 31.32100
C  34.99600 44.79500 32.32900
H  34.44000 52.21900 28.14000
H  35.70500 51.53400 21.78300
H  37.52200 45.44700 22.82700
H  34.81900 48.03700 30.32800
H  35.57900 50.95400 30.06000
H  32.87100 49.65700 30.66500
H  32.88400 50.78200 29.31700
H  33.41000 51.42700 30.73600
H  37.31700 49.81100 31.01500
H  37.55100 48.12700 30.54200
H  37.31200 47.69800 32.63200
H  35.60900 47.95000 32.49600
H  33.00600 54.57500 25.82500
H  34.67100 54.99900 26.27200
H  33.68700 53.90100 27.22400
H  34.69300 56.06200 22.56700
H  34.88000 55.60300 24.26700
H  33.28300 55.33300 23.51300
H  37.24800 49.68900 20.60800
H  36.72100 46.78400 20.83100
H  34.64700 49.58800 20.52100
H  34.97800 47.85900 19.92000
H  35.71400 49.35200 19.21300
H  39.32100 47.93100 21.63000
H  38.82700 48.28700 20.02700
H  39.88000 45.80000 21.02400
H  39.61700 46.38400 19.39900
H  38.29900 45.46300 20.20100
H  38.79000 43.60200 24.12400
H  37.28900 42.75500 24.50400
H  38.47100 42.88300 25.72700
H  37.51400 46.01200 29.83500
H  34.33500 44.06900 31.85600
H  34.39200 45.60700 32.73600
H  35.59200 44.36400 33.13400

