158

Mg -9.56600 40.35700 42.46000
C  -8.29300 37.17900 41.48900
C  -6.79900 41.71700 41.01600
C  -11.03000 43.37900 42.73400
C  -12.59600 38.72500 43.39800
N  -7.77700 39.49900 41.24600
C  -7.47700 38.21100 41.01400
C  -5.98500 38.05100 40.54700
C  -5.47000 39.55000 40.42100
C  -6.69900 40.26400 40.83800
C  -4.23400 39.98200 41.25900
C  -5.53700 37.08400 39.33200
C  -4.03200 36.90500 39.15500
H  -3.48900 37.67800 37.99500
N  -8.94700 42.36600 42.07100
C  -7.80600 42.63900 41.46000
C  -7.66300 44.07500 41.47200
C  -8.84700 44.67000 42.02500
C  -9.73900 43.50300 42.29300
C  -6.39500 44.77200 40.93300
C  -9.10100 46.17200 42.19500
O  -8.25400 46.96700 41.87200
C  -10.38000 46.64900 42.80000
N  -11.53900 40.95100 43.00700
C  -11.88000 42.28800 43.05600
C  -13.36500 42.34100 43.30900
C  -13.79900 40.88000 43.59900
C  -12.52900 40.11200 43.35800
C  -13.79800 43.35200 44.41800
C  -15.01100 40.41100 42.67400
C  -15.95700 39.34600 43.17600
N  -10.32100 38.35000 42.59400
C  -11.54900 37.86600 42.98700
C  -11.50800 36.38200 42.94100
C  -10.26100 36.08400 42.39600
C  -9.56700 37.29400 42.19500
C  -12.59600 35.53200 43.32100
C  -9.36700 35.04900 41.89000
O  -9.60000 33.84900 41.82500
C  -8.10300 35.70600 41.35600
C  -6.94200 35.22600 42.18600
O  -6.77300 35.51600 43.34700
O  -6.10700 34.34100 41.51300
C  -4.93000 33.86000 42.22400
H  -5.86900 42.21200 40.73100
H  -11.61000 44.29800 42.62400
H  -13.52300 38.28200 43.76800
H  -5.38200 37.64400 41.35800
H  -5.26200 39.95900 39.43300
H  -4.29600 40.94900 41.75800
H  -3.38900 40.08100 40.57800
H  -4.01400 39.25200 42.03800
H  -5.80700 37.73900 38.50400
H  -6.09100 36.14700 39.27800
H  -3.93800 35.83500 38.97000
H  -3.42700 37.20800 40.00900
H  -6.32600 45.85600 41.02600
H  -6.04400 44.28500 40.02300
H  -5.67900 44.54100 41.72200
H  -10.35200 47.73700 42.84800
H  -10.60300 46.08100 43.70300
H  -11.17800 46.40100 42.09900
H  -13.76700 42.67700 42.35300
H  -14.01400 40.64000 44.64100
H  -12.92800 43.98500 44.59500
H  -14.20100 42.84700 45.29600
H  -14.63400 43.93200 44.02700
H  -14.64700 40.00200 41.73200
H  -15.69000 41.24500 42.50400
H  -15.58400 39.17200 44.18500
H  -15.83800 38.44600 42.57200
H  -17.00300 39.60500 43.01600
H  -12.75100 35.72300 44.38300
H  -12.41500 34.46800 43.16600
H  -13.44900 35.98900 42.81800
H  -7.98400 35.31900 40.34400
H  -4.37200 34.75600 42.49500
H  -4.33100 33.27400 41.52600
H  -5.30700 33.12800 42.93800
Mg -1.32600 34.20900 27.67000
C  -2.94400 32.66100 30.47200
C  0.18700 36.30900 29.65900
C  -0.57700 36.01300 24.87200
C  -3.31700 32.02900 25.68700
N  -1.61000 34.53800 29.81500
C  -2.13600 33.70800 30.73200
C  -1.53900 34.02700 32.19400
C  -0.55400 35.23700 31.88700
C  -0.62400 35.35000 30.29600
C  -0.64800 36.57900 32.68500
C  -0.92000 32.84300 33.00100
C  -1.55800 32.25800 34.24700
H  -0.67400 32.13100 35.46500
N  -0.20700 35.87700 27.28300
C  0.37700 36.60600 28.28200
C  1.23400 37.56200 27.65000
C  1.08900 37.38300 26.27400
C  0.04800 36.39700 26.03500
C  2.15900 38.44600 28.41000
C  1.83300 37.98400 25.17400
O  1.80600 37.60800 24.02800
C  2.59900 39.24800 25.53800
N  -1.83900 34.10000 25.59300
C  -1.55200 35.03700 24.70900
C  -2.15200 34.71800 23.30100
C  -2.70100 33.24100 23.54200
C  -2.62000 33.07300 24.99200
C  -3.16900 35.70900 22.73000
C  -2.03300 32.03200 22.82800
C  -0.53600 31.87500 22.58800
N  -2.58400 32.53700 27.96200
C  -3.31900 31.81100 27.04800
C  -4.18700 30.88200 27.70800
C  -4.01500 31.18200 29.04200
C  -3.15300 32.20700 29.14300
C  -5.05500 29.85800 27.16500
C  -4.43800 30.85000 30.37100
O  -5.21900 30.00000 30.74600
C  -3.70200 31.77700 31.39600
C  -4.64700 32.61400 32.20700
O  -5.27100 33.54500 31.76500
O  -4.53800 32.24500 33.48100
C  -5.38100 33.06200 34.48000
H  0.83300 36.75100 30.42000
H  -0.27200 36.48200 23.93400
H  -3.89800 31.31800 25.09600
H  -2.29500 34.51200 32.81300
H  0.46200 34.87000 32.03000
H  -1.29700 36.42800 33.54800
H  -1.22600 37.20900 32.00900
H  0.26500 37.07800 33.00800
H  0.07300 33.20200 33.27000
H  -0.67700 32.08300 32.25900
H  -2.00700 31.29500 34.00400
H  -2.35800 32.92400 34.57000
H  3.16100 38.07600 28.19100
H  2.05100 38.47400 29.49400
H  2.07700 39.51800 28.23400
H  1.87500 39.91100 26.01200
H  3.10600 39.76800 24.72500
H  3.38000 38.83300 26.17500
H  -1.37300 34.71700 22.53800
H  -3.75000 33.25000 23.24800
H  -3.81600 36.04300 23.54100
H  -3.85000 35.30700 21.98000
H  -2.69300 36.53900 22.20900
H  -2.52700 31.96700 21.85800
H  -2.35900 31.03300 23.11600
H  0.02400 32.62100 23.15200
H  -0.34800 32.06400 21.53100
H  -0.29600 30.85400 22.88400
H  -4.87200 29.66400 26.10800
H  -6.06100 30.24300 27.33300
H  -4.94900 28.92200 27.71300
H  -2.99000 31.20000 31.98500
H  -4.84500 33.20800 35.41700
H  -6.32500 32.57200 34.71700
H  -5.59000 34.06400 34.10400

