158

Mg -2.88100 16.54200 27.75000
C  -3.49700 14.35300 30.43100
C  -3.57700 19.12400 29.98100
C  -2.95700 18.66400 25.25600
C  -3.23600 13.82600 25.61700
N  -3.43800 16.68300 29.94800
C  -3.52800 15.66600 30.83400
C  -3.78900 16.15100 32.22800
C  -4.02000 17.69200 32.03300
C  -3.72200 17.82300 30.55300
C  -5.34600 18.30000 32.50200
C  -2.69700 15.97300 33.25200
C  -3.23500 15.78200 34.76000
H  -2.18700 16.04600 35.81600
N  -2.96100 18.64900 27.63500
C  -3.20300 19.52700 28.66300
C  -3.15200 20.83000 28.08900
C  -2.95600 20.74900 26.75200
C  -2.88900 19.30500 26.46700
C  -3.36600 22.12700 28.85400
C  -2.75900 21.89000 25.67000
O  -2.73100 21.72400 24.43100
C  -2.66000 23.33600 26.16600
N  -3.14600 16.32300 25.81100
C  -3.20300 17.33300 24.88000
C  -3.24700 16.96100 23.39600
C  -3.29500 15.37700 23.60500
C  -3.17600 15.10900 25.14000
C  -4.43800 17.44800 22.56300
C  -2.13600 14.75400 22.77600
C  -0.76000 14.59600 23.44800
N  -3.24400 14.49000 27.86900
C  -3.29000 13.48500 26.98600
C  -3.58200 12.22300 27.60400
C  -3.61800 12.45200 28.98100
C  -3.49400 13.86800 29.13400
C  -3.74100 10.93500 26.90600
C  -3.77100 11.84800 30.28300
O  -3.89800 10.69500 30.69900
C  -3.64100 13.12000 31.20800
C  -2.52500 12.75100 32.05200
O  -1.33000 12.89800 31.76200
O  -2.95800 12.24700 33.24800
C  -1.97200 11.87000 34.23100
H  -3.60000 20.00400 30.62700
H  -3.08600 19.32800 24.39800
H  -3.29000 12.98700 24.92100
H  -4.76500 15.75200 32.50400
H  -3.27400 18.32000 32.52000
H  -6.22400 17.65800 32.58600
H  -5.50600 19.16000 31.85200
H  -5.14200 18.74400 33.47700
H  -1.93300 16.74900 33.18700
H  -2.10800 15.07800 33.05300
H  -3.66700 14.78200 34.81700
H  -4.06900 16.45800 34.94800
H  -4.15300 22.75300 28.43500
H  -2.44600 22.71200 28.87000
H  -3.60900 21.83400 29.87600
H  -3.55400 23.66400 26.69500
H  -2.52800 23.93000 25.26100
H  -1.76800 23.38300 26.79000
H  -2.26100 17.21200 23.00500
H  -4.26100 15.00100 23.26900
H  -5.21900 16.70600 22.39800
H  -4.21800 17.86200 21.57900
H  -4.97200 18.18500 23.16300
H  -1.96200 15.39200 21.91000
H  -2.47700 13.77100 22.45000
H  -0.79000 14.55600 24.53700
H  -0.26900 15.51200 23.12300
H  -0.26800 13.77000 22.93400
H  -2.76400 10.50500 26.68400
H  -4.30000 11.04800 25.97700
H  -4.32600 10.25300 27.52300
H  -4.57900 13.23400 31.75100
H  -1.14600 11.28200 33.83100
H  -2.51100 11.28200 34.97400
H  -1.62700 12.79800 34.68800
Mg 34.63600 2.73500 28.96600
C  32.82600 3.94100 31.70400
C  37.42900 2.49100 31.00000
C  36.31000 2.00800 26.30300
C  31.74700 3.44000 26.96100
N  35.04200 3.16200 31.12600
C  34.11100 3.60600 32.04000
C  34.81000 3.65900 33.49400
C  36.36700 3.42800 33.09700
C  36.27300 2.94800 31.64400
C  37.32900 4.61800 33.34800
C  34.28900 2.62200 34.53300
C  34.00700 3.22500 35.98100
H  35.14800 4.15500 36.51800
N  36.57100 2.36100 28.67600
C  37.59000 2.28700 29.57600
C  38.79800 1.93600 28.91400
C  38.50300 1.95800 27.49500
C  37.05900 2.12600 27.44300
C  40.15300 1.78100 29.68300
C  39.49600 1.89600 26.33600
O  39.11800 2.00600 25.19600
C  40.90300 1.48300 26.67500
N  34.13500 2.87300 26.85200
C  34.97900 2.36700 26.01000
C  34.36100 2.22300 24.62200
C  32.80800 2.45400 24.90900
C  32.89200 2.95800 26.31600
C  34.97800 3.14100 23.52900
C  31.97900 1.12200 24.84900
C  31.11000 1.05700 23.60400
N  32.75500 3.58500 29.17000
C  31.69900 3.86700 28.33100
C  30.55000 4.32400 29.00200
C  30.89900 4.32000 30.33600
C  32.28300 3.91300 30.37700
C  29.23900 4.68200 28.36100
C  30.47200 4.55500 31.67000
O  29.34000 4.66600 32.17300
C  31.77300 4.40800 32.65000
C  32.07600 5.72100 33.30000
O  32.50000 6.72800 32.71100
O  31.69500 5.72200 34.61900
C  31.77900 6.93400 35.44000
H  38.26300 2.39200 31.69700
H  36.80400 1.72500 25.37100
H  30.86900 3.57700 26.32600
H  34.67000 4.65700 33.91000
H  36.77500 2.64400 33.73500
H  37.91600 4.34400 34.22500
H  36.71700 5.46800 33.65000
H  38.08200 4.82800 32.58700
H  34.87100 1.70600 34.63200
H  33.40100 2.19000 34.07100
H  33.87100 2.46100 36.74600
H  33.05500 3.75300 35.93700
H  40.51000 0.77500 29.46500
H  39.97300 1.86100 30.75500
H  40.90400 2.45000 29.26300
H  41.31000 1.21400 25.70000
H  40.79700 0.59400 27.29600
H  41.42500 2.30900 27.15900
H  34.65800 1.19800 24.40000
H  32.30900 3.14100 24.22600
H  34.33300 3.06900 22.65300
H  35.99100 2.96300 23.16900
H  34.74400 4.18600 23.73000
H  31.38300 1.00300 25.75300
H  32.69900 0.30400 24.87800
H  30.09500 1.32500 23.89600
H  31.21700 0.07800 23.13700
H  31.49700 1.72300 22.83200
H  29.30700 4.63400 27.27500
H  28.87000 5.62200 28.77300
H  28.47600 3.94000 28.59500
H  31.60200 3.72600 33.48300
H  31.09900 7.69700 35.06100
H  32.82700 7.23000 35.49200
H  31.57500 6.56100 36.44400

