158

Mg -0.68400 7.64900 25.39400
C  0.49700 9.21300 28.30600
C  -0.98400 4.67400 27.05600
C  -1.21400 6.08600 22.40900
C  -0.02500 10.54400 23.66800
N  -0.17100 6.97100 27.40300
C  0.04200 7.88100 28.41300
C  -0.11500 7.17800 29.74300
C  -0.47700 5.61100 29.40500
C  -0.61800 5.76000 27.87600
C  0.65300 4.57100 29.74500
C  -1.06000 7.72900 30.83900
C  -0.32600 7.71000 32.27400
H  0.75900 6.59800 32.50400
N  -1.03300 5.64300 24.77700
C  -1.16000 4.52000 25.62700
C  -1.50800 3.30300 24.93900
C  -1.46300 3.67700 23.58000
C  -1.24600 5.17600 23.53100
C  -1.72500 1.98700 25.68800
C  -1.69000 2.86500 22.34200
O  -1.58300 3.35200 21.24900
C  -2.01500 1.43400 22.36400
N  -0.58500 8.24500 23.30100
C  -1.02000 7.47800 22.32000
C  -1.20100 8.27400 21.04100
C  -1.01200 9.75000 21.46000
C  -0.50400 9.53000 22.90600
C  -0.12600 7.85800 19.86100
C  -2.29800 10.69700 21.51600
C  -2.49000 11.59600 20.33000
N  0.12000 9.53500 25.87400
C  0.35800 10.60700 25.06800
C  0.90100 11.70600 25.85300
C  0.86500 11.15200 27.19900
C  0.41600 9.87700 27.13400
C  1.19900 13.11900 25.41900
C  1.23200 11.49200 28.53900
O  1.70500 12.51200 29.01400
C  0.93800 10.15800 29.33800
C  2.18000 9.62600 30.01600
O  3.08100 9.17300 29.36300
O  2.16400 9.89200 31.37200
C  3.43100 9.72100 32.10300
H  -0.95300 3.71100 27.57000
H  -1.51100 5.67300 21.44200
H  -0.02200 11.50400 23.14700
H  0.90600 7.09700 30.11600
H  -1.41400 5.30700 29.87300
H  1.48800 4.90400 30.36200
H  1.11400 4.30500 28.79300
H  0.12000 3.72000 30.16800
H  -1.98100 7.14500 30.83200
H  -1.16100 8.78300 30.58100
H  -1.01500 7.61100 33.11300
H  0.05900 8.71600 32.44800
H  -1.92400 2.28400 26.71800
H  -0.79800 1.43600 25.53100
H  -2.54200 1.41000 25.25600
H  -1.41900 0.91700 23.11700
H  -1.76000 0.95900 21.41700
H  -3.08400 1.36200 22.56300
H  -2.18900 8.10700 20.61200
H  -0.24600 10.27700 20.89100
H  0.75900 7.35600 20.25100
H  0.15300 8.72700 19.26600
H  -0.58700 7.15700 19.16500
H  -2.28400 11.30200 22.42200
H  -3.18300 10.06500 21.58900
H  -3.26400 11.14100 19.71100
H  -1.61100 11.62700 19.68700
H  -2.80400 12.57200 20.70100
H  0.24700 13.60500 25.20500
H  1.99400 13.13100 24.67400
H  1.59400 13.74600 26.21800
H  0.14700 10.32800 30.06800
H  3.63600 10.72000 32.48700
H  4.26000 9.41800 31.46300
H  3.46600 9.02800 32.94400
Mg 0.51600 42.64300 26.22400
C  2.62200 42.56600 28.94200
C  -1.95000 41.27800 28.35800
C  -1.54200 42.46100 23.54500
C  3.20100 43.37300 24.12700
N  0.40000 41.99100 28.40700
C  1.30600 42.26300 29.37600
C  0.69400 42.00000 30.79500
C  -0.36200 40.92600 30.44600
C  -0.66600 41.41300 28.97800
C  0.14300 39.54100 30.51300
C  0.21400 43.30500 31.59600
C  0.89900 43.56000 33.01800
H  0.69300 42.46400 34.02100
N  -1.44400 42.15100 26.06600
C  -2.23900 41.51200 26.99500
C  -3.52600 41.25000 26.39300
C  -3.46600 41.64800 25.07000
C  -2.11400 42.11100 24.84200
C  -4.65300 40.63100 27.24800
C  -4.63900 41.58600 24.11600
O  -4.62300 42.06500 23.00400
C  -5.94200 40.86300 24.37200
N  0.76600 43.06200 24.13200
C  -0.23700 42.80100 23.20300
C  0.27700 43.07700 21.77800
C  1.74900 43.37400 22.00200
C  1.95000 43.35700 23.49800
C  -0.11500 41.96500 20.76500
C  2.14200 44.72600 21.28400
C  2.48500 46.01600 22.10700
N  2.45300 42.85500 26.43400
C  3.45200 43.17600 25.48600
C  4.72000 43.33000 26.16100
C  4.44600 43.06000 27.52300
C  3.04000 42.77500 27.64400
C  6.04100 43.65300 25.63800
C  5.06100 42.91100 28.76700
O  6.25300 42.86300 29.04500
C  3.89600 42.68500 29.79400
C  4.22100 41.41700 30.58400
O  4.30100 40.29800 30.08900
O  4.60600 41.75300 31.89600
C  5.14500 40.74300 32.68300
H  -2.69100 40.75100 28.96300
H  -2.21000 42.24900 22.70800
H  4.17500 43.52200 23.65800
H  1.46800 41.58900 31.44300
H  -1.25800 41.01300 31.06100
H  -0.11100 39.00500 31.42700
H  1.20200 39.53400 30.25500
H  -0.40200 39.05800 29.70200
H  -0.82300 43.11500 31.87200
H  0.28700 44.16900 30.93500
H  0.49300 44.49600 33.40000
H  1.97900 43.64800 32.89600
H  -4.52300 40.88600 28.30000
H  -4.72400 39.55100 27.11500
H  -5.58600 41.12700 26.97900
H  -5.70700 39.85200 24.70400
H  -6.36900 40.81500 23.37000
H  -6.63200 41.39500 25.02700
H  -0.29200 43.94500 21.44400
H  2.29600 42.47300 21.72400
H  0.70300 41.81600 20.06000
H  -1.04700 42.28600 20.29800
H  -0.32900 40.99700 21.21700
H  1.31900 44.99800 20.62400
H  2.99000 44.46200 20.65200
H  3.57200 46.09400 22.12200
H  2.11800 45.84000 23.11800
H  2.05300 46.80900 21.49500
H  5.91100 44.20300 24.70600
H  6.57900 42.76200 25.31500
H  6.63900 44.34200 26.23500
H  3.93900 43.49800 30.51900
H  4.84700 41.06500 33.68100
H  6.23000 40.80400 32.60700
H  4.72500 39.74500 32.56200

