158

Mg 17.15500 -0.72200 28.37300
C  16.17100 1.03300 31.06500
C  19.38900 -2.41700 30.26700
C  18.39000 -2.11100 25.56500
C  15.26400 1.49500 26.33000
N  17.61600 -0.69600 30.45400
C  16.92200 -0.05900 31.39300
C  17.22000 -0.53400 32.86000
C  18.38100 -1.55800 32.58200
C  18.47200 -1.59600 31.02400
C  19.65400 -1.41800 33.49300
C  15.99500 -0.97000 33.65600
C  15.59000 -0.25200 34.98500
H  16.81600 -0.03900 35.92100
N  18.62300 -2.14700 28.00200
C  19.50500 -2.71700 28.90500
C  20.38700 -3.61300 28.20900
C  20.08900 -3.54000 26.84600
C  18.93500 -2.58600 26.73400
C  21.27800 -4.55700 28.98900
C  20.76600 -4.25000 25.69300
O  20.44100 -4.14300 24.52100
C  21.91300 -5.17300 25.87600
N  16.96700 -0.29600 26.16100
C  17.49500 -1.10900 25.21300
C  17.19900 -0.56300 23.78800
C  16.00800 0.38900 24.06500
C  16.05200 0.57400 25.61300
C  18.44300 0.00800 23.01600
C  14.62200 -0.01700 23.37200
C  13.57600 -0.67700 24.26200
N  15.89300 0.87200 28.63500
C  15.09800 1.60000 27.71400
C  14.37400 2.58800 28.45000
C  14.72200 2.35000 29.77900
C  15.72100 1.31700 29.85600
C  13.27600 3.57600 28.04100
C  14.48500 2.87400 31.10500
O  13.72900 3.68800 31.56500
C  15.46900 1.98500 32.05800
C  16.43300 2.84100 32.74700
O  17.44300 3.27600 32.25600
O  15.95900 3.14400 34.07100
C  16.68200 4.09800 34.87800
H  20.06100 -3.00200 30.89800
H  18.85900 -2.51800 24.66600
H  14.58500 2.06900 25.69600
H  17.63100 0.33500 33.37400
H  18.07100 -2.53800 32.94400
H  19.48700 -0.48400 34.03000
H  20.65200 -1.29600 33.07300
H  19.78500 -2.19700 34.24400
H  16.05100 -2.01800 33.95000
H  15.13800 -0.84300 32.99400
H  14.97100 -0.94500 35.55400
H  14.97800 0.64300 34.88000
H  21.33600 -5.55500 28.55400
H  20.92700 -4.61800 30.01900
H  22.33900 -4.30600 29.00500
H  22.53100 -4.71400 26.64800
H  22.46500 -5.32800 24.94900
H  21.55500 -6.14900 26.20300
H  16.81500 -1.34000 23.12800
H  16.20300 1.37000 23.63300
H  18.18400 0.99600 22.63400
H  18.62700 -0.73600 22.24100
H  19.35400 0.09000 23.60900
H  14.77500 -0.73300 22.56500
H  14.34400 0.96300 22.98500
H  14.10800 -1.09400 25.11800
H  13.16200 -1.53100 23.72600
H  12.77300 0.03400 24.45400
H  13.74200 4.44600 27.57800
H  12.67400 3.83800 28.91000
H  12.78800 3.07700 27.20400
H  14.90300 1.33700 32.72700
H  16.06500 4.95600 34.60900
H  17.71100 4.16100 34.52300
H  16.67600 3.74300 35.90800
Mg 42.18800 40.96800 26.79700
C  41.45000 43.48000 29.13400
C  43.13300 38.97500 29.41600
C  43.03800 38.58300 24.46900
C  41.38700 43.21500 24.23400
N  42.35100 41.27500 29.04800
C  41.87500 42.35000 29.78300
C  42.02200 42.07400 31.26400
C  42.76200 40.73200 31.28100
C  42.73000 40.28400 29.84300
C  44.19500 40.81900 31.93000
C  40.59700 41.96100 31.91200
C  40.48900 42.70300 33.21300
H  39.85000 41.91800 34.41900
N  42.74600 38.96900 26.93900
C  43.19600 38.38000 28.14200
C  43.53400 37.00100 27.81000
C  43.48700 36.81500 26.39600
C  43.00600 38.10800 25.81100
C  43.86900 35.92000 28.87200
C  43.85600 35.57500 25.57800
O  43.55800 35.51100 24.38100
C  44.42700 34.37100 26.21500
N  42.36900 40.95700 24.62600
C  42.63800 39.82200 23.87500
C  42.44100 40.17400 22.33800
C  41.68400 41.53400 22.32300
C  41.82300 41.92500 23.85700
C  43.87100 40.28400 21.74000
C  40.13600 41.40800 21.96400
C  39.38400 40.20100 22.57700
N  41.74300 42.99800 26.61700
C  41.31800 43.71300 25.53100
C  40.93900 45.03400 25.98900
C  40.94200 45.03800 27.41700
C  41.37500 43.72600 27.74500
C  40.53100 46.19400 25.21100
C  40.76400 45.84000 28.66000
O  40.46900 46.99600 28.81800
C  40.88500 44.73500 29.73200
C  41.73600 45.35000 30.81600
O  42.90800 45.49400 30.81100
O  40.88900 45.89200 31.74100
C  41.59800 46.34000 33.02600
H  43.38700 38.31700 30.25000
H  43.09700 37.89900 23.62000
H  41.21700 43.95000 23.44600
H  42.59200 42.87000 31.74300
H  42.09400 40.06900 31.83000
H  44.33800 40.08500 32.72300
H  44.54300 41.82600 32.15900
H  44.93900 40.48100 31.20800
H  40.33300 40.92700 32.13200
H  39.89400 42.41300 31.21200
H  39.91100 43.60500 33.01000
H  41.48900 43.03100 33.49700
H  44.93100 35.73900 28.70500
H  43.34300 34.96600 28.86400
H  43.75900 36.36000 29.86300
H  43.94300 34.05800 27.14000
H  45.49600 34.51600 26.36900
H  44.42600 33.50800 25.54900
H  41.97400 39.38000 21.75400
H  42.11200 42.32700 21.70800
H  43.94600 39.46400 21.02600
H  44.65700 40.30800 22.49400
H  44.05300 41.18200 21.15100
H  40.16000 41.44800 20.87500
H  39.61400 42.35300 22.11300
H  38.86800 39.66000 21.78400
H  38.54700 40.55700 23.17900
H  39.96300 39.69100 23.34600
H  39.79600 46.69100 25.84400
H  40.03600 45.88300 24.29100
H  41.39600 46.83000 25.02300
H  39.90800 44.52500 30.16700
H  41.91600 45.61900 33.77900
H  40.97200 46.98400 33.64400
H  42.43800 46.97900 32.75300

