158

Mg 36.88800 49.45900 25.19900
C  37.03500 47.79500 28.20500
C  35.41000 52.11900 27.02100
C  36.49000 51.03100 22.27500
C  38.06800 46.73900 23.48900
N  36.12300 49.85400 27.32700
C  36.42300 49.04000 28.40700
C  35.91500 49.61200 29.72500
C  35.25900 50.95100 29.27100
C  35.62200 50.99500 27.80400
C  33.75500 51.13400 29.52700
C  37.16700 49.84100 30.64600
C  37.15300 49.24800 32.06900
H  35.82900 49.24900 32.86900
N  36.12600 51.31700 24.75500
C  35.55100 52.24200 25.61600
C  35.00300 53.32400 24.80300
C  35.39300 53.08200 23.46700
C  36.04200 51.76500 23.42600
C  34.23200 54.50900 25.38700
C  35.11700 53.98500 22.29500
O  35.45600 53.68100 21.10700
C  34.58200 55.39200 22.48500
N  37.37100 48.97100 23.15700
C  37.08000 49.76400 22.13500
C  37.43200 49.19100 20.79100
C  38.14600 47.86300 21.22500
C  37.95000 47.86500 22.70200
C  36.25900 49.02200 19.83600
C  39.67100 47.92400 20.96100
C  40.18800 47.72800 19.52300
N  37.45600 47.57600 25.70800
C  37.89200 46.56300 24.87200
C  38.28000 45.50300 25.77000
C  37.99100 45.89000 27.06700
C  37.41800 47.15600 26.99500
C  38.93000 44.23900 25.28100
C  38.07500 45.55300 28.47400
O  38.54500 44.56200 28.99300
C  37.28700 46.73600 29.29300
C  36.07300 46.11100 29.99400
O  34.88800 46.22100 29.68400
O  36.54200 45.50300 31.15300
C  35.59000 44.87800 32.13500
H  35.14800 53.04200 27.54300
H  36.37800 51.63300 21.37100
H  38.35200 45.87200 22.89000
H  35.32500 48.79500 30.14100
H  35.70000 51.80600 29.78200
H  33.30500 50.35100 30.13700
H  33.23300 51.26400 28.57900
H  33.61700 52.05800 30.08900
H  37.38000 50.90800 30.70600
H  38.04600 49.45000 30.13300
H  37.69200 50.01500 32.62500
H  37.64700 48.28000 32.14900
H  34.06000 54.33500 26.44900
H  33.26900 54.71700 24.92000
H  34.88900 55.37400 25.30100
H  35.13100 55.87400 23.29400
H  33.51800 55.43400 22.71900
H  34.74400 55.91400 21.54200
H  38.20900 49.78200 20.30800
H  37.76200 46.93900 20.79500
H  36.59000 49.47000 18.89900
H  35.40100 49.56400 20.23400
H  35.92600 48.03700 19.50700
H  40.03600 47.13200 21.61500
H  40.07500 48.87200 21.31500
H  40.75300 48.61300 19.23200
H  39.42500 47.31900 18.86100
H  40.87800 46.92200 19.77500
H  40.01000 44.27700 25.13900
H  38.48400 43.87200 24.35700
H  38.78700 43.54900 26.11300
H  37.92400 47.09400 30.10200
H  35.86200 43.84200 32.33700
H  34.56200 44.91800 31.77500
H  35.70200 45.41600 33.07700
Mg 1.68500 41.63400 25.66100
C  2.59300 42.02600 29.14400
C  -1.52900 40.68100 26.78400
C  1.04600 40.59300 22.54800
C  5.02300 42.27200 24.89600
N  0.71300 41.44700 27.70200
C  1.23800 41.75500 28.95900
C  0.23100 41.51300 30.10800
C  -1.12000 41.09200 29.28300
C  -0.65300 41.05300 27.80200
C  -1.75700 39.72200 29.75000
C  0.03900 42.71900 31.06600
C  0.27600 42.39800 32.56700
H  -0.13100 40.96300 33.02000
N  -0.02500 40.80500 24.84200
C  -1.26300 40.47800 25.39300
C  -2.14800 40.01700 24.36500
C  -1.47000 40.15800 23.16900
C  -0.07100 40.52900 23.48000
C  -3.60100 39.69400 24.65900
C  -2.07200 40.09700 21.73000
O  -1.43300 40.23100 20.72400
C  -3.53400 39.75800 21.50600
N  2.88800 41.38800 24.04300
C  2.35200 40.97800 22.82900
C  3.39100 40.88000 21.66000
C  4.58500 41.63700 22.32700
C  4.18200 41.78000 23.87300
C  3.54900 39.48200 21.15700
C  4.78700 43.06300 21.76400
C  5.40900 43.18000 20.30900
N  3.51900 42.20600 26.76500
C  4.79800 42.40900 26.28600
C  5.61900 42.79200 27.39000
C  4.86100 42.56600 28.54200
C  3.57300 42.26100 28.11900
C  7.11800 42.99600 27.35200
C  4.87400 42.55700 29.98500
O  5.81400 42.76700 30.71300
C  3.34400 42.11300 30.45200
C  3.67600 40.81400 31.25100
O  3.58400 39.68400 30.88900
O  4.13000 41.17800 32.52800
C  4.56900 39.93700 33.31100
H  -2.56500 40.43900 27.03100
H  1.02200 40.25800 21.50900
H  6.00600 42.52400 24.49400
H  0.65000 40.68700 30.68200
H  -1.80000 41.93100 29.43100
H  -1.24300 39.29600 30.61100
H  -1.56700 38.91700 29.04000
H  -2.83700 39.74800 29.89600
H  -0.97800 43.10000 30.96700
H  0.61700 43.56700 30.69700
H  -0.41500 43.10100 33.03300
H  1.29500 42.57100 32.91300
H  -4.24200 40.56500 24.51800
H  -3.75000 39.32600 25.67400
H  -3.94100 38.96400 23.92500
H  -3.86900 39.93200 20.48300
H  -4.09700 40.41700 22.16600
H  -3.68300 38.69300 21.68800
H  3.07800 41.53100 20.84400
H  5.56000 41.14800 22.33500
H  2.78700 39.30100 20.40000
H  3.47200 38.75600 21.96600
H  4.55800 39.27200 20.80200
H  5.30300 43.70500 22.47900
H  3.81300 43.53600 21.64100
H  5.23500 42.28000 19.71800
H  6.46600 43.44300 20.35500
H  4.82600 43.99700 19.88300
H  7.43300 43.48900 26.43200
H  7.58900 42.01800 27.45200
H  7.40300 43.51600 28.26600
H  2.94400 42.78600 31.21100
H  5.54400 40.25000 33.68600
H  4.88400 39.07100 32.73000
H  4.00100 39.71600 34.21500

