158

Mg 17.83600 -1.70500 28.51100
C  16.57000 0.15100 31.16300
C  19.62700 -3.62100 30.66500
C  19.40100 -3.05400 25.85500
C  15.89300 0.23000 26.35800
N  18.04500 -1.73700 30.67900
C  17.45000 -0.83600 31.55100
C  17.95300 -1.06700 32.97100
C  19.03700 -2.17400 32.76100
C  18.94500 -2.54000 31.29600
C  20.50500 -1.80900 33.21200
C  16.75600 -1.53600 33.91400
C  16.60300 -0.74600 35.29200
H  17.84000 -0.55200 36.15800
N  19.06900 -3.39400 28.30500
C  19.71300 -4.05000 29.29400
C  20.59600 -5.01100 28.72800
C  20.64900 -4.85500 27.29900
C  19.69000 -3.70400 27.07900
C  21.25100 -6.03700 29.63800
C  21.43900 -5.59500 26.28500
O  21.17400 -5.40300 25.10600
C  22.48400 -6.64600 26.61300
N  17.62800 -1.47100 26.37000
C  18.37400 -2.10400 25.50100
C  18.15900 -1.57600 24.04800
C  16.90100 -0.73800 24.27000
C  16.80500 -0.62300 25.73700
C  19.41300 -0.83800 23.41600
C  15.68400 -1.49300 23.59900
C  14.54800 -0.69400 22.87600
N  16.52400 -0.03000 28.64400
C  15.81400 0.63900 27.70800
C  14.96600 1.61800 28.33800
C  15.30500 1.48500 29.70900
C  16.21000 0.47300 29.81900
C  14.05200 2.60700 27.63200
C  15.10500 2.11600 31.03900
O  14.47200 3.14700 31.35700
C  15.86500 1.17100 32.04400
C  16.75400 2.12100 32.88900
O  17.89100 2.49800 32.62000
O  16.01100 2.67200 33.81800
C  16.73300 3.72000 34.57700
H  20.22400 -4.33800 31.23100
H  20.03100 -3.30800 25.00000
H  15.36100 0.76300 25.56700
H  18.39900 -0.13700 33.32500
H  18.69800 -3.08400 33.25600
H  20.57700 -0.78600 33.58300
H  21.04100 -1.87100 32.26500
H  20.90200 -2.48300 33.97100
H  16.97700 -2.57200 34.17000
H  15.81100 -1.45900 33.37700
H  15.89000 -1.22600 35.96100
H  16.22800 0.26400 35.12100
H  20.74000 -6.22900 30.58100
H  22.23700 -5.64800 29.89400
H  21.35000 -7.00300 29.14400
H  23.01300 -6.99600 25.72600
H  22.05000 -7.47700 27.16900
H  23.34100 -6.26500 27.16700
H  18.00000 -2.53200 23.54900
H  16.90400 0.26100 23.83400
H  20.10000 -0.73400 24.25500
H  19.11600 0.12500 23.00100
H  19.84000 -1.50200 22.66400
H  15.23000 -2.14000 24.34900
H  16.03500 -2.22900 22.87500
H  14.83700 0.34500 22.71800
H  13.64100 -0.80500 23.47100
H  14.25300 -1.09200 21.90500
H  14.00700 3.56800 28.14300
H  13.01900 2.28300 27.50100
H  14.32400 2.84700 26.60500
H  15.10500 0.81300 32.73800
H  15.90100 4.01000 35.21800
H  16.99800 4.50900 33.87400
H  17.53800 3.22800 35.12300
Mg 47.42500 16.68500 29.05100
C  45.17600 16.29300 31.66900
C  49.28000 18.78100 30.94300
C  49.34700 17.48200 26.31500
C  45.20000 15.05600 26.92800
N  47.20100 17.43200 31.10000
C  46.28500 17.03000 32.04600
C  46.87200 17.37500 33.41000
C  47.87000 18.51700 33.07900
C  48.14200 18.18600 31.61300
C  47.28100 19.91700 33.35300
C  47.50700 16.11800 34.03900
C  47.74700 16.13700 35.54000
H  47.67500 17.43800 36.36100
N  49.21100 17.78900 28.70800
C  49.87000 18.48000 29.70500
C  51.14900 18.97000 29.19600
C  51.14700 18.76300 27.76500
C  49.83400 17.96000 27.53300
C  52.05600 19.73500 30.13900
C  52.08900 19.12200 26.69800
O  51.94300 18.88100 25.51900
C  53.30700 19.85200 27.15000
N  47.26800 16.38400 26.97100
C  48.18200 16.75500 26.09200
C  47.78100 16.38400 24.64300
C  46.59200 15.43700 24.84200
C  46.31500 15.64100 26.34800
C  47.36700 17.63600 23.76500
C  46.80200 13.89900 24.38300
C  45.62400 13.26200 23.63600
N  45.62000 15.86300 29.23000
C  44.81500 15.24500 28.25600
C  43.56900 14.78800 28.79100
C  43.71900 15.17100 30.16000
C  44.93400 15.88600 30.30300
C  42.37300 14.19100 28.21700
C  43.02100 15.10700 31.46800
O  41.87200 14.74300 31.76900
C  44.11000 15.70100 32.59800
C  43.46700 16.60700 33.53600
O  43.00900 17.70100 33.10700
O  43.54600 16.25800 34.87400
C  42.94000 17.06800 35.87600
H  49.94800 19.42800 31.51600
H  49.80900 17.77900 25.37100
H  44.59200 14.39900 26.30200
H  46.06900 17.77300 34.03100
H  48.70400 18.38800 33.76900
H  46.20100 19.86800 33.49500
H  47.48200 20.53600 32.47900
H  47.74400 20.41100 34.20600
H  48.44600 15.88900 33.53400
H  46.81500 15.29000 33.88700
H  48.79200 15.83700 35.61600
H  47.27400 15.27700 36.01400
H  53.10100 19.59100 29.86400
H  51.91000 19.30800 31.13100
H  51.81500 20.79500 30.21900
H  53.18600 20.92900 27.26400
H  54.01500 19.64100 26.34900
H  53.75200 19.34300 28.00400
H  48.62300 15.90800 24.14200
H  45.70700 15.74400 24.28400
H  47.62100 18.55300 24.29600
H  46.33700 17.75400 23.42800
H  47.98600 17.47600 22.88200
H  46.92900 13.36900 25.32600
H  47.70700 13.90500 23.77600
H  45.26700 12.37400 24.15700
H  45.98600 12.89400 22.67600
H  44.90600 14.06400 23.46600
H  42.58100 14.01400 27.16100
H  41.56800 14.92500 28.26300
H  42.20600 13.31000 28.83700
H  44.65900 14.93800 33.14900
H  43.70600 17.75000 36.24800
H  42.75000 16.36600 36.68700
H  42.07000 17.67800 35.63100

