158

Mg 25.82000 52.05200 26.06600
C  23.91600 52.60000 28.94200
C  28.62000 51.84600 28.25700
C  27.86300 52.01800 23.41700
C  23.16400 52.83700 24.13900
N  26.17400 52.24200 28.37200
C  25.25900 52.38600 29.31500
C  25.80500 52.20500 30.68200
C  27.28900 51.88300 30.46500
C  27.37900 52.00500 28.95900
C  28.17100 52.84000 31.28300
C  25.13300 50.98600 31.48900
C  25.58100 50.85700 32.97300
H  24.81200 51.74400 33.95500
N  27.90900 51.97400 25.84000
C  28.83700 51.81000 26.82800
C  30.14100 51.73900 26.21000
C  29.98300 51.67800 24.83400
C  28.52900 51.88200 24.62400
C  31.36700 51.76700 27.10500
C  30.94900 51.54400 23.67500
O  30.64600 51.65600 22.47100
C  32.39000 51.26700 23.92600
N  25.58700 52.54000 24.14300
C  26.52500 52.37200 23.15900
C  25.99200 52.69400 21.78800
C  24.45800 52.62000 22.06400
C  24.41100 52.68500 23.55100
C  26.59000 53.93100 21.01100
C  23.65300 51.44600 21.36900
C  23.65400 51.34400 19.80600
N  23.87900 52.48400 26.34900
C  22.87700 52.78700 25.49000
C  21.66900 53.10400 26.13900
C  22.05000 53.05500 27.55400
C  23.42800 52.73200 27.61100
C  20.32800 53.52600 25.49300
C  21.59300 53.23300 28.90700
O  20.46000 53.62000 29.19300
C  22.73400 52.88500 29.87800
C  23.04200 54.07200 30.65500
O  23.69100 55.04500 30.26600
O  22.44700 54.08200 31.85200
C  22.58200 55.39300 32.61200
H  29.47200 51.69700 28.92400
H  28.45800 52.01600 22.50200
H  22.31600 52.92200 23.45700
H  25.72200 53.17000 31.18000
H  27.64700 50.88000 30.69900
H  27.76800 53.15600 32.24400
H  28.38100 53.78700 30.78500
H  29.11100 52.29200 31.35400
H  25.20100 50.04000 30.95200
H  24.04600 51.05600 31.49400
H  26.62100 51.18400 32.94200
H  25.55200 49.80100 33.24200
H  32.23800 52.30000 26.72300
H  31.63500 50.72600 27.28400
H  31.16700 52.32500 28.02000
H  32.66200 52.32100 23.98900
H  32.86200 50.78500 23.07000
H  32.61200 50.79900 24.88500
H  26.22600 51.82700 21.17000
H  24.16400 53.58100 21.64200
H  27.34600 54.29200 21.70900
H  25.90800 54.75500 20.80200
H  27.10200 53.83600 20.05400
H  22.65100 51.38600 21.79500
H  24.07500 50.53200 21.78800
H  24.24400 50.47600 19.51100
H  23.96000 52.31900 19.42700
H  22.66600 51.18700 19.37500
H  19.65900 53.34900 26.33500
H  20.29000 52.81800 24.66500
H  20.31600 54.53600 25.08300
H  22.55700 52.07300 30.58400
H  22.36400 56.27400 32.00900
H  23.36800 55.55200 33.35000
H  21.68900 55.37800 33.23700
Mg -8.78700 40.30200 43.07100
C  -8.03300 37.00700 41.79900
C  -5.83300 41.39300 41.62000
C  -9.86500 43.53600 43.51600
C  -11.75800 39.14400 44.30500
N  -7.21800 39.29600 41.69700
C  -7.11200 37.99100 41.37600
C  -5.75100 37.69200 40.71700
C  -5.02700 39.04700 40.89200
C  -6.09000 40.02100 41.40500
C  -3.78400 39.04800 41.81900
C  -5.81700 37.25700 39.16300
C  -5.18600 35.93600 38.80900
H  -3.98700 36.21100 37.85700
N  -7.97500 42.20200 42.69600
C  -6.69200 42.43500 42.06400
C  -6.48800 43.90800 42.03500
C  -7.60700 44.53800 42.60800
C  -8.59200 43.44300 42.94900
C  -5.20800 44.62700 41.46000
C  -7.83000 45.96200 42.76800
O  -7.00900 46.72600 42.21700
C  -8.90700 46.63400 43.62700
N  -10.57400 41.24800 43.70000
C  -10.73000 42.54100 43.92500
C  -12.02200 42.78100 44.60200
C  -12.74800 41.38200 44.77200
C  -11.61800 40.52400 44.27400
C  -11.88700 43.50900 45.99200
C  -14.14400 41.20200 44.07100
C  -15.22200 40.90700 45.08900
N  -9.68300 38.49200 43.15000
C  -10.88400 38.14800 43.80200
C  -11.12100 36.69800 43.72700
C  -10.00600 36.22500 42.98000
C  -9.22900 37.35700 42.57400
C  -12.27200 35.92600 44.19000
C  -9.49800 35.05100 42.34400
O  -9.82800 33.88000 42.54800
C  -8.19500 35.46200 41.61800
C  -7.03100 34.69700 42.06100
O  -6.46400 34.79800 43.12900
O  -6.84700 33.76400 41.08400
C  -5.61300 32.93800 41.31800
H  -4.83600 41.72600 41.32500
H  -10.20100 44.54300 43.77000
H  -12.66300 38.80100 44.81100
H  -5.26100 36.90300 41.28700
H  -4.69900 39.35700 39.89900
H  -4.08800 39.40400 42.80300
H  -3.01500 39.74800 41.49400
H  -3.48800 38.00000 41.85500
H  -5.33900 38.06000 38.60200
H  -6.88400 37.20400 38.94500
H  -5.86100 35.22500 38.33200
H  -4.71100 35.49900 39.68700
H  -5.42100 45.06400 40.48400
H  -4.40400 43.89100 41.44100
H  -4.80300 45.40100 42.11200
H  -8.65300 47.69100 43.69600
H  -9.08100 46.13900 44.58300
H  -9.85600 46.56300 43.09500
H  -12.64400 43.45900 44.01700
H  -12.77100 41.05900 45.81300
H  -10.84300 43.72300 46.21700
H  -12.20900 42.84500 46.79500
H  -12.39300 44.47400 46.01900
H  -14.21800 40.51400 43.22900
H  -14.40800 42.14200 43.58700
H  -15.47900 41.67600 45.81800
H  -14.86600 40.04300 45.65000
H  -16.15700 40.52600 44.67600
H  -13.16300 36.55500 44.20700
H  -12.11700 35.32800 45.08800
H  -12.33600 35.18400 43.39400
H  -8.37000 35.25200 40.56300
H  -4.80100 33.66500 41.33400
H  -5.40700 32.46000 40.36000
H  -5.64400 32.33200 42.22300

