158

Mg 6.08700 54.40100 40.70500
C  4.77500 51.25900 40.74400
C  8.97000 53.27300 39.32100
C  7.08600 57.65800 40.36200
C  2.96800 55.66500 42.00800
N  6.65000 52.48400 40.02300
C  6.04700 51.30800 40.16400
C  6.82100 50.21900 39.57200
C  8.28500 50.80000 39.57500
C  7.95200 52.30600 39.61900
C  9.15000 50.30500 40.78500
C  6.28100 49.84100 38.11600
C  6.50400 48.40900 37.61600
H  5.77200 48.13800 36.34300
N  7.75300 55.32400 39.89200
C  8.90300 54.65900 39.48300
C  9.87100 55.67700 39.19200
C  9.34700 57.00200 39.49900
C  7.96100 56.69000 39.96700
C  11.29200 55.21200 38.60100
C  10.09200 58.29700 39.42900
O  11.31000 58.31100 39.28500
C  9.49500 59.67900 39.39700
N  4.98300 56.47800 40.92600
C  5.80700 57.61400 40.86500
C  5.02800 58.80800 41.52800
C  3.75200 58.06800 42.08900
C  3.89000 56.64600 41.65200
C  5.83200 59.61900 42.57500
C  2.39700 58.73900 41.68600
C  1.86300 59.85100 42.60100
N  4.29900 53.67900 41.32300
C  3.15800 54.28200 41.84600
C  2.20900 53.20000 42.21600
C  2.88300 52.01300 41.86500
C  4.09000 52.37300 41.28200
C  0.75200 53.35600 42.67400
C  2.76800 50.65300 41.92500
O  1.87400 49.92700 42.38200
C  4.03800 49.96700 41.27100
C  3.60800 48.91600 40.30900
O  2.77100 48.93500 39.49200
O  4.29600 47.80800 40.67900
C  3.77900 46.48900 40.27900
H  9.86000 52.77500 38.93200
H  7.38100 58.70200 40.48600
H  2.03800 55.90600 42.52700
H  6.69100 49.28600 40.11900
H  8.93600 50.59600 38.72500
H  10.16200 50.18600 40.39900
H  8.74300 49.40600 41.24900
H  9.27400 51.01200 41.60500
H  6.88500 50.36300 37.37300
H  5.29100 50.25700 37.92700
H  6.21400 47.62700 38.31800
H  7.53300 48.24600 37.29600
H  11.62700 54.57000 39.41500
H  12.00700 56.02200 38.45400
H  11.20300 54.53600 37.75100
H  8.46400 59.67000 39.04300
H  10.10100 60.29900 38.73500
H  9.49600 60.03400 40.42800
H  4.76200 59.39700 40.65100
H  3.86100 57.98000 43.17000
H  6.72200 59.03600 42.81200
H  5.30800 59.98700 43.45700
H  5.99400 60.50500 41.96100
H  1.62600 57.96900 41.72900
H  2.53000 59.01100 40.63900
H  2.66300 60.10400 43.29800
H  0.91300 59.55400 43.04600
H  1.58700 60.71500 41.99700
H  0.72900 54.28600 43.24300
H  0.48400 52.46000 43.23400
H  0.18000 53.45100 41.75100
H  4.52600 49.53500 42.14500
H  4.55600 45.73400 40.15700
H  3.22600 46.42400 39.34200
H  3.08800 46.26600 41.09300
Mg -1.08100 33.98500 27.32500
C  -3.21300 32.55300 29.73900
C  0.18800 35.99600 29.77500
C  0.38500 35.87200 24.90900
C  -3.15600 32.68300 24.85900
N  -1.28900 34.08000 29.51800
C  -2.15700 33.32400 30.28700
C  -2.15400 33.78500 31.73900
C  -1.08600 34.92000 31.72500
C  -0.71100 35.02400 30.28500
C  -1.57700 36.27900 32.24900
C  -1.74000 32.50200 32.61700
C  -2.60400 32.35000 33.86400
H  -1.97900 32.13300 35.25900
N  0.15800 35.59600 27.33400
C  0.65400 36.22300 28.40900
C  1.78800 37.03800 27.97200
C  1.77700 37.11700 26.56800
C  0.74100 36.20400 26.21400
C  2.69200 37.63800 28.99300
C  2.65600 37.95300 25.62300
O  2.50700 38.06800 24.36300
C  3.80200 38.70400 26.21200
N  -1.61600 34.52400 25.11500
C  -0.61800 35.08000 24.38200
C  -0.91600 34.95100 22.87500
C  -2.09800 33.96300 22.85100
C  -2.33200 33.68300 24.34000
C  -1.35800 36.26900 22.07400
C  -1.93000 32.61700 22.04100
C  -1.35500 31.36800 22.69900
N  -2.59900 32.59500 27.28400
C  -3.36200 32.22300 26.19800
C  -4.42100 31.32900 26.63000
C  -4.39000 31.36600 28.02200
C  -3.30700 32.23400 28.34700
C  -5.30900 30.54600 25.70300
C  -5.01100 30.93200 29.29300
O  -5.97700 30.21200 29.54900
C  -4.25400 31.67500 30.48900
C  -5.21200 32.49700 31.25100
O  -5.89500 33.31400 30.69700
O  -5.42500 32.09800 32.58600
C  -6.58500 32.74800 33.16800
H  0.65900 36.55600 30.58600
H  1.18400 36.14100 24.21500
H  -3.73600 32.23800 24.04800
H  -3.09800 34.13800 32.15400
H  -0.27100 34.84000 32.44500
H  -0.79700 36.84400 32.75800
H  -2.43500 36.26300 32.92200
H  -1.83900 36.92000 31.40700
H  -0.69500 32.58100 32.91900
H  -1.72900 31.60800 31.99300
H  -3.11400 31.41300 33.64200
H  -3.45100 33.03500 33.89800
H  3.68700 37.70900 28.55400
H  2.84600 37.09500 29.92500
H  2.39800 38.64000 29.30600
H  4.47900 37.96400 26.63900
H  3.31100 39.34300 26.94500
H  4.30300 39.36800 25.50800
H  0.00500 34.55000 22.45000
H  -3.00800 34.43100 22.47700
H  -0.49900 36.56100 21.46900
H  -1.47700 36.98500 22.88700
H  -2.29700 36.16700 21.52900
H  -1.30500 33.00800 21.23800
H  -2.92000 32.44100 21.62200
H  -2.20000 30.73700 22.97300
H  -0.65600 31.83200 23.39500
H  -0.69800 30.85000 22.00100
H  -4.67400 29.99100 25.01200
H  -6.03900 31.14800 25.16300
H  -5.83000 29.69800 26.14800
H  -3.79900 30.86400 31.05700
H  -6.47000 33.82100 33.02000
H  -6.66500 32.39900 34.19700
H  -7.56800 32.44300 32.80700

