158

Mg -2.55300 17.16100 27.25400
C  -3.07200 14.84600 29.84500
C  -2.95800 19.62000 29.55100
C  -2.71300 19.21400 24.68400
C  -2.65200 14.47000 24.92200
N  -3.10700 17.15500 29.39600
C  -3.07000 16.16500 30.24900
C  -3.21500 16.63700 31.72200
C  -3.26600 18.22100 31.56600
C  -3.12300 18.37800 30.03700
C  -4.58200 18.85100 32.10300
C  -2.12400 16.13100 32.67600
C  -1.79000 17.03400 33.92200
H  -1.40000 16.08900 35.11900
N  -2.62500 19.20000 27.13600
C  -2.71100 20.04200 28.24900
C  -2.53200 21.37800 27.74600
C  -2.38600 21.24500 26.29900
C  -2.55700 19.84100 25.97200
C  -2.45900 22.59500 28.65600
C  -1.96400 22.33500 25.22300
O  -1.79900 22.06100 24.05300
C  -1.82300 23.65600 25.60700
N  -2.75100 16.81600 25.03800
C  -2.78300 17.90600 24.25000
C  -2.91600 17.42300 22.77600
C  -2.56600 15.93100 22.78600
C  -2.66000 15.70000 24.34600
C  -4.29400 17.84000 22.15400
C  -1.23200 15.48700 22.07600
C  0.04600 16.10800 22.62500
N  -2.78300 15.09100 27.26400
C  -2.82000 14.15500 26.30500
C  -2.91200 12.88500 26.82500
C  -3.02200 13.05400 28.22200
C  -2.95100 14.48400 28.44500
C  -3.09900 11.61500 26.08100
C  -3.29300 12.39000 29.45700
O  -3.50400 11.22100 29.69200
C  -3.26500 13.50200 30.57400
C  -1.97900 13.19900 31.27300
O  -0.86600 13.61700 30.96700
O  -2.22500 12.53300 32.39700
C  -1.11700 12.36000 33.36000
H  -3.04700 20.36400 30.34600
H  -2.58900 19.82200 23.78600
H  -2.60200 13.55900 24.32200
H  -4.21500 16.32300 32.01800
H  -2.43100 18.69300 32.08300
H  -4.27100 19.69100 32.72300
H  -5.04000 18.07300 32.71300
H  -5.19900 19.20000 31.27500
H  -1.19200 15.83100 32.19700
H  -2.60200 15.24600 33.09600
H  -2.61500 17.61300 34.33800
H  -0.92100 17.64300 33.67300
H  -1.59700 23.19900 28.37400
H  -2.31000 22.24500 29.67800
H  -3.40400 23.13800 28.63400
H  -1.79500 24.43000 24.84000
H  -0.93900 23.68200 26.24500
H  -2.74200 23.94900 26.11300
H  -2.11500 17.77700 22.12800
H  -3.25800 15.38900 22.14200
H  -4.84600 18.45100 22.86800
H  -4.88100 16.96300 21.88100
H  -4.01300 18.51700 21.34600
H  -1.29700 15.78800 21.03000
H  -1.20400 14.39800 22.04300
H  0.59900 15.20000 22.86500
H  -0.05800 16.63700 23.57300
H  0.51800 16.73200 21.86600
H  -2.54000 10.86100 26.63600
H  -2.74100 11.63100 25.05100
H  -4.13600 11.28600 26.14800
H  -4.08300 13.43700 31.29200
H  -1.08900 11.28200 33.52000
H  -1.43400 12.86400 34.27300
H  -0.17100 12.61600 32.88300
Mg 44.54900 4.36500 47.83900
C  42.49200 7.12800 47.35200
C  41.83400 2.29800 47.73800
C  46.60100 1.71800 48.02700
C  47.28900 6.53400 47.44000
N  42.43800 4.72500 47.42100
C  41.78700 5.88700 47.39300
C  40.37400 5.72700 47.05100
C  40.12200 4.22900 47.40800
C  41.60200 3.68200 47.69600
C  39.23700 4.08800 48.66200
C  40.06500 6.10600 45.55500
C  39.12200 7.36900 45.33000
H  39.52600 8.06700 44.06700
N  44.23200 2.28800 47.95700
C  43.07600 1.63100 47.86300
C  43.31900 0.22800 47.95600
C  44.67000 0.03400 48.17800
C  45.22700 1.33200 48.06700
C  42.28100 -0.90400 47.83000
C  45.39300 -1.31100 48.42600
O  44.75500 -2.36100 48.49100
C  46.85100 -1.43600 48.63900
N  46.66800 4.22800 47.76700
C  47.17500 2.98700 47.88800
C  48.78700 3.09600 47.93300
C  49.03700 4.60700 47.69600
C  47.62600 5.20200 47.65000
C  49.59800 2.63200 49.12800
C  50.06700 5.07300 46.61300
C  51.20600 6.02400 47.12400
N  44.90000 6.46400 47.49000
C  46.08900 7.20000 47.48700
C  45.76500 8.63900 47.45500
C  44.33800 8.68400 47.34100
C  43.92200 7.32600 47.36700
C  46.76000 9.79700 47.42800
C  43.18500 9.55800 47.29900
O  43.01300 10.78800 47.24400
C  41.96400 8.57300 47.39200
C  41.29700 8.83600 48.70200
O  41.36300 8.17200 49.69000
O  40.40000 9.89800 48.57000
C  39.41800 9.97000 49.59900
H  40.94800 1.66000 47.71900
H  47.36800 0.95200 48.15600
H  48.11800 7.23500 47.55800
H  39.87800 6.36300 47.78400
H  39.50700 3.68800 46.68900
H  38.54100 4.90400 48.85300
H  39.83700 3.86600 49.54500
H  38.59800 3.22400 48.47800
H  39.48100 5.29900 45.11100
H  40.96800 6.39200 45.01600
H  39.25200 7.96500 46.23400
H  38.07400 7.06900 45.32800
H  42.47700 -1.48700 46.93000
H  41.35200 -0.37100 47.62700
H  42.14000 -1.52000 48.71900
H  47.28000 -1.38000 47.63800
H  46.97400 -2.42200 49.08700
H  47.08700 -0.71200 49.42000
H  49.16500 2.53800 47.07600
H  49.24400 5.07800 48.65700
H  50.39000 3.25900 49.53900
H  50.14500 1.77200 48.74200
H  48.88400 2.34500 49.90100
H  49.53100 5.46000 45.74700
H  50.55600 4.14600 46.31300
H  52.14600 5.51800 47.34500
H  51.00900 6.40200 48.12800
H  51.41800 6.87600 46.47800
H  47.66000 9.66000 46.82800
H  47.20500 9.84500 48.42200
H  46.24900 10.72100 47.15800
H  41.37900 8.87500 46.52300
H  39.79700 10.04200 50.61800
H  38.68700 9.18400 49.41100
H  38.86700 10.90200 49.46900

