158

Mg 53.63000 25.99300 44.60600
C  50.95000 28.14800 44.41400
C  51.43800 23.41500 43.75600
C  56.27200 23.92000 44.21900
C  55.62500 28.69200 45.10000
N  51.40200 25.82300 44.15400
C  50.53100 26.81500 44.12300
C  49.12800 26.39200 43.55500
C  49.27400 24.84100 43.88000
C  50.81800 24.63300 43.85000
C  48.54300 24.26800 45.08300
C  48.86700 26.69400 42.04600
C  50.08500 26.97200 41.07500
H  50.36900 26.01700 39.92200
N  53.81400 23.89900 44.12800
C  52.82100 22.98800 43.89400
C  53.40200 21.68200 43.55100
C  54.86100 21.81800 43.75400
C  55.01800 23.25900 44.06200
C  52.58700 20.52000 43.21000
C  55.93200 20.62900 43.72800
O  55.57500 19.48100 43.43400
C  57.38800 20.87300 44.12000
N  55.70400 26.32500 44.50300
C  56.58000 25.27100 44.39500
C  58.00300 25.78600 44.34600
C  57.83300 27.28900 44.72000
C  56.28600 27.49500 44.79000
C  59.12400 25.06600 45.24100
C  58.58000 28.52200 43.95700
C  59.26100 29.60500 44.82300
N  53.36600 27.97200 44.91400
C  54.26700 28.95300 45.22200
C  53.61300 30.22900 45.40000
C  52.27200 29.92600 45.15000
C  52.22100 28.55900 44.84700
C  54.27700 31.52100 45.68100
C  50.99700 30.50000 45.04600
O  50.60400 31.61700 45.30500
C  50.04800 29.34600 44.55900
C  49.58500 29.93000 43.24000
O  50.16400 29.96200 42.18800
O  48.16700 30.17400 43.41400
C  47.39200 30.50500 42.13600
H  50.72400 22.61000 43.57400
H  57.24400 23.42700 44.14800
H  56.33300 29.52400 45.09400
H  48.31800 26.80800 44.15300
H  48.91300 24.23100 43.05300
H  48.17800 24.99000 45.81300
H  49.24100 23.62700 45.62100
H  47.78200 23.49700 44.96200
H  48.17000 27.52700 41.94800
H  48.33500 25.92200 41.49100
H  51.00100 27.13900 41.64100
H  49.91300 27.92300 40.57000
H  52.88700 19.65000 43.79500
H  52.61400 20.29000 42.14500
H  51.59700 20.80600 43.56300
H  57.82400 21.47300 43.32100
H  57.89500 19.91100 44.20000
H  57.23600 21.18100 45.15400
H  58.37700 25.66900 43.32900
H  58.20300 27.48300 45.72700
H  58.65600 24.33200 45.89700
H  59.69800 25.77000 45.84200
H  59.89700 24.54000 44.68000
H  57.83300 28.94300 43.28500
H  59.37200 27.96800 43.45400
H  59.54500 29.09600 45.74400
H  58.51000 30.39100 44.90300
H  60.25800 29.91400 44.50900
H  53.92500 32.45800 45.24900
H  55.34300 31.65400 45.49300
H  54.21300 31.59500 46.76600
H  49.17600 29.31500 45.21200
H  46.69200 31.25800 42.50000
H  46.85400 29.60400 41.84000
H  47.99600 30.87600 41.30800
Mg -11.77400 38.40000 42.27900
C  -9.57400 35.93300 41.05400
C  -9.85700 40.72100 40.53200
C  -14.27700 40.54300 42.58200
C  -13.98400 35.79600 43.47400
N  -10.05600 38.27300 40.81500
C  -9.19600 37.19100 40.61700
C  -7.84900 37.53300 39.92200
C  -8.02200 39.04400 39.74400
C  -9.41300 39.39100 40.35800
C  -6.89100 39.89300 40.30500
C  -7.63400 36.82300 38.55500
C  -6.31600 36.03800 38.35900
H  -5.47100 36.31600 37.11300
N  -11.94800 40.41300 41.79000
C  -11.04500 41.14200 41.09400
C  -11.56600 42.46700 41.00000
C  -12.83300 42.48100 41.54500
C  -13.07000 41.11000 42.04500
C  -10.74200 43.66100 40.42800
C  -13.78500 43.67800 41.54800
O  -13.46000 44.74700 41.05800
C  -15.18200 43.57800 42.06800
N  -13.93500 38.18100 42.97200
C  -14.66600 39.27700 42.99200
C  -16.06700 38.95400 43.54700
C  -15.94000 37.35300 43.84700
C  -14.50900 37.09700 43.45900
C  -16.67600 39.84400 44.72600
C  -16.94500 36.46300 43.11900
C  -18.17400 36.01600 43.86300
N  -11.84100 36.25500 42.23500
C  -12.75300 35.40700 42.82600
C  -12.10800 34.07000 42.83700
C  -10.86400 34.23600 42.20100
C  -10.78200 35.57200 41.79100
C  -12.60900 32.79200 43.44600
C  -9.58400 33.58000 41.83100
O  -9.15500 32.44900 42.13000
C  -8.73000 34.56600 41.00800
C  -7.39500 34.58600 41.63000
O  -6.46700 33.80800 41.32100
O  -7.28000 35.48900 42.68600
C  -6.04700 35.24200 43.53500
H  -9.14200 41.43100 40.11100
H  -15.07500 41.28500 42.64300
H  -14.65200 35.09100 43.97300
H  -7.03900 37.27400 40.60400
H  -8.09600 39.36100 38.70400
H  -7.09500 40.07300 41.36100
H  -6.70700 40.82100 39.76300
H  -5.97300 39.31500 40.19900
H  -7.68300 37.51100 37.71100
H  -8.51000 36.20600 38.35400
H  -6.63400 34.99600 38.32800
H  -5.78500 36.24600 39.28800
H  -10.80000 43.75200 39.34400
H  -9.71700 43.42000 40.70900
H  -11.00600 44.58800 40.93800
H  -15.74200 44.47800 41.81700
H  -15.06700 43.38900 43.13500
H  -15.73600 42.77500 41.58100
H  -16.76000 39.14500 42.72800
H  -16.07100 37.17100 44.91400
H  -15.75300 40.33200 45.04000
H  -17.07700 39.31000 45.58800
H  -17.34200 40.59600 44.30200
H  -16.48000 35.55000 42.74800
H  -17.20200 36.95300 42.17900
H  -18.79800 35.66900 43.03900
H  -18.66800 36.77400 44.47200
H  -17.97200 35.11900 44.44800
H  -12.84100 32.07800 42.65600
H  -13.48800 33.00700 44.05400
H  -11.80500 32.42700 44.08400
H  -8.63600 34.37400 39.93900
H  -6.16400 35.80800 44.45900
H  -5.11500 35.51600 43.04000
H  -6.00000 34.20800 43.87700

