158

Mg 1.62600 8.12500 24.72500
C  2.44000 9.71500 27.71000
C  2.38500 5.06100 26.24200
C  0.88100 6.58200 21.83700
C  1.31600 11.24400 23.20600
N  2.49600 7.48300 26.70900
C  2.47500 8.33100 27.85900
C  2.62600 7.51700 29.12600
C  2.81800 6.11200 28.62200
C  2.49700 6.18500 27.11500
C  4.23300 5.51200 28.88800
C  1.25200 7.71900 29.84600
C  1.24000 7.61100 31.35600
H  2.46700 6.90800 32.04700
N  1.51000 6.06700 24.19000
C  1.86300 4.96800 24.98100
C  1.63000 3.76700 24.24200
C  1.15600 4.20900 22.95000
C  1.17200 5.67800 22.91700
C  1.79900 2.37400 24.93800
C  0.54500 3.23100 21.90100
O  0.09200 3.62000 20.82500
C  0.52400 1.66500 22.21100
N  1.34900 8.81300 22.71000
C  0.97500 7.96400 21.75300
C  0.27500 8.72200 20.56700
C  0.24700 10.19000 21.08100
C  1.06000 10.12400 22.39600
C  1.08400 8.51500 19.26700
C  -1.15700 10.88600 21.11000
C  -1.90000 10.99300 19.72900
N  1.83500 10.21600 25.30900
C  1.70700 11.33600 24.56800
C  2.10300 12.49000 25.47700
C  2.28800 11.86900 26.74400
C  2.17800 10.51700 26.54100
C  2.28300 13.99100 25.05900
C  2.71700 12.14600 28.12300
O  3.10300 13.19600 28.61900
C  2.62400 10.74100 28.81300
C  3.79500 10.57800 29.70100
O  4.85900 10.10100 29.39800
O  3.52100 11.05300 30.95000
C  4.58700 10.84700 32.00700
H  2.76900 4.17700 26.75500
H  0.53800 6.12600 20.90500
H  1.07500 12.15300 22.65100
H  3.42900 7.82900 29.79400
H  2.12000 5.43600 29.11700
H  4.80300 5.70000 27.97800
H  4.21900 4.44700 29.12000
H  4.65000 6.05000 29.74000
H  0.50700 6.96600 29.58800
H  0.77200 8.66300 29.59100
H  0.33000 7.07900 31.63400
H  1.36600 8.61600 31.75800
H  2.44800 1.67500 24.41000
H  0.82000 1.90000 25.01800
H  2.07300 2.46000 25.99000
H  1.51100 1.20400 22.23500
H  -0.14900 1.22000 21.47800
H  -0.01100 1.51100 23.14900
H  -0.72600 8.29700 20.50000
H  0.91200 10.76500 20.43600
H  2.14400 8.36400 19.47100
H  0.85100 9.37000 18.63100
H  0.73600 7.61100 18.76600
H  -1.02900 11.87900 21.54000
H  -1.76500 10.35500 21.84200
H  -1.18400 10.73900 18.94700
H  -2.26900 12.01700 19.67500
H  -2.72900 10.28900 19.80200
H  1.31100 14.26000 24.64600
H  3.05600 13.95800 24.29100
H  2.65700 14.62700 25.86000
H  1.70100 10.85600 29.38100
H  4.29400 10.02300 32.65700
H  4.67000 11.83500 32.46100
H  5.57700 10.60300 31.62300
Mg 40.62300 8.05600 29.49800
C  42.64500 9.21200 32.31600
C  38.43400 7.05800 31.63400
C  39.17000 6.74800 26.78500
C  43.38500 8.99200 27.46000
N  40.67100 7.99600 31.79100
C  41.43000 8.68400 32.68500
C  40.70000 8.67600 34.07700
C  39.39900 7.95500 33.74900
C  39.44000 7.69900 32.29900
C  39.21500 6.75000 34.68800
C  40.49000 10.12300 34.71400
C  41.32700 10.34500 35.99900
H  41.16600 9.54900 37.22700
N  39.09800 7.03800 29.24200
C  38.20300 6.74700 30.27900
C  36.98500 6.09200 29.77000
C  37.23900 5.93700 28.40600
C  38.52900 6.61500 28.06800
C  35.90200 5.58600 30.73600
C  36.36000 5.41100 27.33700
O  36.56400 5.46400 26.14900
C  34.99700 4.89500 27.74700
N  41.19200 7.96000 27.39300
C  40.38000 7.43700 26.45000
C  40.90700 7.69900 25.05100
C  42.19100 8.53000 25.31000
C  42.31500 8.49700 26.79600
C  41.17000 6.30800 24.37200
C  42.18400 9.97000 24.64300
C  41.42100 11.01300 25.51500
N  42.66200 8.87900 29.78200
C  43.54900 9.31400 28.80700
C  44.63000 10.05300 29.36200
C  44.35000 10.01100 30.78000
C  43.14400 9.24100 30.99500
C  45.64800 10.84600 28.65900
C  44.81800 10.45500 32.05900
O  45.74900 11.11700 32.39200
C  43.74300 10.05600 33.09600
C  44.51200 9.23300 34.17100
O  44.79700 8.05800 34.11400
O  44.84600 10.03900 35.20200
C  45.37600 9.38200 36.39800
H  37.64700 6.80000 32.34600
H  38.71500 6.23500 25.93400
H  44.07900 9.44500 26.74900
H  41.33200 8.10300 34.75500
H  38.49600 8.54800 33.89700
H  39.50500 5.80900 34.22000
H  38.14200 6.65600 34.85600
H  39.82100 6.81500 35.59200
H  39.46100 10.22800 35.05600
H  40.80500 10.90000 34.01600
H  41.22600 11.38700 36.30200
H  42.39400 10.22800 35.80600
H  35.85700 4.49800 30.68100
H  35.07000 6.14000 30.30100
H  36.12300 5.94900 31.73900
H  35.25200 4.20500 28.55100
H  34.51700 4.35300 26.93200
H  34.45700 5.73400 28.18500
H  40.20500 8.33400 24.51000
H  43.04100 8.10500 24.77500
H  40.40600 5.54900 24.53900
H  42.11600 5.90600 24.73400
H  41.29700 6.44300 23.29700
H  41.76500 9.98400 23.63700
H  43.16700 10.37900 24.40900
H  41.12700 10.56000 26.46200
H  40.46300 11.32200 25.09600
H  42.08900 11.83800 25.76200
H  45.73000 11.83100 29.11800
H  45.54400 11.04100 27.59200
H  46.58500 10.32300 28.85200
H  43.32900 10.95000 33.56300
H  46.06100 8.54600 36.25500
H  44.59700 9.10900 37.11000
H  45.91100 10.07000 37.05300

