158

Mg 24.41000 -4.92500 45.08900
C  26.25200 -2.61800 43.38100
C  21.76800 -4.38900 42.91800
C  22.98900 -7.86000 46.08300
C  27.32600 -5.94000 46.86700
N  24.11400 -3.56900 43.40100
C  24.96100 -2.73300 42.89500
C  24.37200 -1.95400 41.68300
C  22.87800 -2.32200 41.80500
C  22.91800 -3.50100 42.80900
C  21.94800 -1.17600 42.33600
C  25.05200 -2.37500 40.38200
C  25.52300 -1.31900 39.30900
H  25.28300 -1.56900 37.85600
N  22.49500 -5.83700 44.71200
C  21.59000 -5.49800 43.74100
C  20.48400 -6.42900 43.76800
C  20.79000 -7.46000 44.66300
C  22.14800 -7.07200 45.22400
C  19.20500 -6.35900 42.82800
C  19.98400 -8.77700 44.84400
O  18.94800 -8.92000 44.23600
C  20.42100 -9.95900 45.59600
N  25.02200 -6.61900 46.46200
C  24.25600 -7.72000 46.63000
C  24.90000 -8.75800 47.54100
C  26.14600 -7.97500 48.06000
C  26.20100 -6.78200 47.08100
C  23.93100 -9.18100 48.66700
C  27.43600 -8.81700 48.17300
C  28.41100 -8.47900 49.25800
N  26.37600 -4.27900 45.31700
C  27.45000 -4.76100 46.06000
C  28.62300 -3.93100 45.76700
C  28.22300 -3.09400 44.73200
C  26.86200 -3.37800 44.48700
C  30.01400 -4.04500 46.43100
C  28.65400 -2.08000 43.69900
O  29.77000 -1.56700 43.57500
C  27.35700 -1.73900 42.81300
C  27.04600 -0.23900 42.82400
O  26.62300 0.43300 43.74300
O  27.52100 0.27300 41.62300
C  27.23900 1.72700 41.34600
H  20.98500 -4.16300 42.19100
H  22.70900 -8.88400 46.33800
H  28.20600 -6.35900 47.35900
H  24.54900 -0.90700 41.92700
H  22.52600 -2.75800 40.87100
H  22.38100 -0.17800 42.26900
H  21.40900 -1.37800 43.26100
H  21.16700 -0.97800 41.60200
H  24.22700 -2.83900 39.84200
H  25.82800 -3.13500 40.48000
H  26.59000 -1.11600 39.40200
H  25.08900 -0.36000 39.59000
H  19.04000 -5.32600 42.52300
H  18.30000 -6.78600 43.25900
H  19.64400 -6.93900 42.01600
H  21.26400 -10.46100 45.12100
H  19.58800 -10.62000 45.83800
H  20.61500 -9.66600 46.62700
H  25.27700 -9.65100 47.04200
H  25.98300 -7.65600 49.08900
H  23.20900 -8.39100 48.87300
H  24.50500 -9.22300 49.59300
H  23.48700 -10.13800 48.39300
H  27.87500 -8.86200 47.17700
H  27.05400 -9.78600 48.49400
H  28.63000 -9.39700 49.80200
H  28.13000 -7.79500 50.05800
H  29.28500 -8.22100 48.65900
H  30.03400 -3.74300 47.47800
H  30.86900 -3.58300 45.93700
H  30.25700 -5.10600 46.38800
H  27.70200 -2.14100 41.86000
H  28.13000 2.19100 41.76800
H  26.30700 1.99500 41.84400
H  27.11300 1.98600 40.29400
Mg 47.85000 16.31800 29.23600
C  45.63000 15.88400 32.09900
C  49.68000 18.33900 31.12500
C  49.37100 17.17300 26.41600
C  45.56600 14.39900 27.41700
N  47.67100 16.85400 31.41700
C  46.76900 16.69700 32.37500
C  47.12800 17.29200 33.77000
C  48.22800 18.29800 33.33200
C  48.50600 17.83100 31.83800
C  47.81600 19.83100 33.39900
C  47.61200 16.29900 34.85600
C  47.69400 16.67500 36.34600
H  47.24400 18.10500 36.72200
N  49.39200 17.48100 28.88400
C  50.04400 18.19800 29.79800
C  51.23900 18.74800 29.23200
C  51.14700 18.50500 27.82000
C  49.95000 17.62300 27.64400
C  52.11100 19.69700 30.05900
C  51.99500 18.85300 26.61000
O  51.67500 18.81100 25.41800
C  53.41500 19.48400 26.88100
N  47.37300 15.93900 27.10200
C  48.27200 16.29900 26.18900
C  47.86600 15.81800 24.84100
C  46.74600 14.74800 25.16800
C  46.52800 14.98400 26.64800
C  47.32300 17.06600 24.02700
C  47.18800 13.31600 24.97600
C  46.06900 12.24900 24.90100
N  46.07800 15.31700 29.56900
C  45.34700 14.49200 28.79700
C  44.21400 13.95800 29.54800
C  44.32800 14.49800 30.80700
C  45.44600 15.32100 30.82100
C  43.16300 13.08900 28.95200
C  43.64800 14.51100 32.11900
O  42.77400 13.80700 32.59500
C  44.53900 15.45400 33.02200
C  43.77500 16.59500 33.47200
O  43.05800 17.32800 32.81500
O  43.77200 16.51000 34.86000
C  42.92000 17.47700 35.58700
H  50.26800 18.96700 31.79800
H  49.90800 17.35600 25.48200
H  44.90000 13.76100 26.83300
H  46.26100 17.82400 34.16200
H  49.15300 18.15200 33.89000
H  46.86000 19.92300 33.91500
H  47.73000 20.32600 32.43100
H  48.58400 20.33700 33.98400
H  48.60800 15.95100 34.58100
H  46.93200 15.45200 34.77800
H  48.72800 16.53000 36.65700
H  47.21100 15.83700 36.84900
H  52.53300 19.12200 30.88300
H  51.35000 20.35700 30.47600
H  52.84800 20.21700 29.44700
H  53.29200 20.50800 27.23400
H  53.83100 19.56900 25.87700
H  54.02900 18.80300 27.46900
H  48.67700 15.30700 24.32300
H  45.82900 14.87100 24.59200
H  47.38700 18.03600 24.51900
H  46.27500 16.95000 23.75300
H  47.82900 17.20000 23.07100
H  47.77400 13.06500 25.86000
H  47.88800 13.15000 24.15700
H  46.21200 11.68000 23.98200
H  45.09100 12.73100 24.90500
H  46.11800 11.50200 25.69300
H  42.81500 12.44100 29.75700
H  43.58100 12.50100 28.13400
H  42.30900 13.70700 28.67600
H  44.92300 14.81900 33.82000
H  42.13000 17.01100 36.17600
H  42.67100 18.36500 35.00500
H  43.61900 17.83700 36.34200

