158

Mg 7.94300 3.31200 27.49000
C  9.25900 1.84900 30.42700
C  6.00100 5.45200 29.44500
C  6.71600 4.71500 24.67500
C  9.50700 0.76700 25.51900
N  7.62700 3.48700 29.68500
C  8.46700 2.94200 30.66200
C  8.30300 3.75000 31.99700
C  7.09500 4.68000 31.68700
C  6.89300 4.55500 30.16200
C  5.81100 4.31900 32.36900
C  9.58200 4.42400 32.61000
C  9.47100 5.03100 34.04500
H  10.30000 4.53300 35.16900
N  6.49400 4.72800 27.12000
C  5.85000 5.51900 28.00600
C  4.94500 6.45900 27.26600
C  5.21400 6.35400 25.88300
C  6.26000 5.28100 25.84900
C  3.96500 7.37600 28.02100
C  4.75500 7.20100 24.69100
O  5.07400 7.01400 23.54000
C  3.99800 8.49900 24.95900
N  8.04800 2.85400 25.38200
C  7.47800 3.56400 24.41800
C  7.57300 3.04300 22.95300
C  8.54000 1.80400 23.31900
C  8.77300 1.79500 24.83700
C  6.12900 2.75700 22.38100
C  9.81300 1.73000 22.43500
C  10.10800 0.52500 21.50600
N  9.14700 1.68200 27.81500
C  9.60000 0.71100 26.90300
C  10.34900 -0.29400 27.70200
C  10.23300 0.10800 29.02300
C  9.47700 1.33300 29.09400
C  11.04200 -1.44300 27.14600
C  10.65300 -0.22900 30.41500
O  11.30700 -1.15300 30.90600
C  10.07700 0.96600 31.32400
C  9.15700 0.27600 32.28400
O  8.00600 0.02400 32.12800
O  9.77500 0.09300 33.42000
C  8.98200 -0.09500 34.66900
H  5.58000 6.25400 30.05500
H  6.41300 5.23100 23.76200
H  9.83300 -0.05900 24.88300
H  8.08600 3.03000 32.78500
H  7.42900 5.69500 31.90600
H  5.11900 5.14200 32.55100
H  6.06000 3.94300 33.36200
H  5.36200 3.49100 31.82000
H  10.03800 5.11800 31.90400
H  10.35400 3.65900 32.68800
H  8.44300 4.99500 34.40800
H  9.81200 6.04800 33.85100
H  3.54700 6.68100 28.74900
H  3.13800 7.77300 27.43200
H  4.45800 8.21200 28.51700
H  4.54700 9.18000 25.60800
H  3.07100 8.09600 25.36800
H  3.79600 8.96100 23.99300
H  8.02500 3.80400 22.31600
H  7.90300 0.97600 23.00800
H  5.30400 3.06200 23.02400
H  6.09300 1.70800 22.08800
H  5.90700 3.31200 21.46900
H  10.55800 1.64600 23.22700
H  10.00100 2.52300 21.71200
H  10.75400 0.69600 20.64500
H  9.18000 0.02600 21.22700
H  10.62900 -0.22300 22.10300
H  11.87300 -1.10000 26.53000
H  10.40600 -2.04800 26.50000
H  11.47200 -2.08700 27.91300
H  10.94000 1.45000 31.78200
H  9.67100 0.05300 35.50100
H  8.54300 -1.09200 34.63100
H  8.17200 0.63400 34.65000
Mg -12.12800 37.86800 42.10400
C  -9.87700 35.33200 41.23500
C  -10.15900 40.06400 40.12700
C  -14.61400 40.19800 41.96100
C  -14.29900 35.56000 43.38200
N  -10.38100 37.62700 40.68200
C  -9.57900 36.51600 40.55100
C  -8.38500 36.69800 39.62400
C  -8.51600 38.24400 39.29400
C  -9.75200 38.71900 40.03500
C  -7.26400 39.02400 39.57000
C  -8.62500 35.63000 38.45200
C  -7.44500 34.84900 37.93500
H  -6.77000 35.61400 36.81300
N  -12.28600 39.89600 41.42400
C  -11.32600 40.59100 40.67300
C  -11.71400 41.93600 40.46700
C  -13.04100 42.03200 40.93800
C  -13.42900 40.67300 41.43000
C  -10.85200 43.00100 39.74200
C  -13.87300 43.20500 40.86800
O  -13.43600 44.23100 40.40900
C  -15.30800 43.32100 41.31800
N  -14.24100 37.89900 42.55000
C  -15.02000 38.95000 42.45500
C  -16.50900 38.59000 42.80300
C  -16.30800 37.17900 43.37400
C  -14.91000 36.80000 42.96300
C  -17.04100 39.72700 43.79400
C  -17.33300 36.13900 42.78500
C  -17.94200 35.16700 43.84400
N  -12.14300 35.85000 42.33400
C  -13.00100 35.05600 42.96600
C  -12.47900 33.73000 43.14000
C  -11.30000 33.82500 42.43000
C  -11.08200 35.14300 42.00000
C  -13.22100 32.53400 43.79600
C  -10.07100 33.09900 42.08100
O  -9.77900 31.94200 42.29100
C  -9.04700 34.09400 41.35600
C  -7.91200 34.22500 42.33700
O  -7.04500 33.40100 42.63800
O  -7.94600 35.54800 42.89800
C  -6.71200 35.90600 43.60400
H  -9.46400 40.73700 39.61900
H  -15.48200 40.85900 41.92300
H  -14.94800 34.90200 43.96300
H  -7.41800 36.50600 40.08900
H  -8.79500 38.33900 38.24400
H  -6.35000 38.49200 39.30700
H  -7.15600 39.24900 40.63100
H  -7.37500 39.89600 38.92500
H  -8.95500 36.21100 37.59100
H  -9.32100 34.86100 38.78500
H  -8.00300 33.96300 37.63000
H  -6.82100 34.60700 38.79600
H  -11.00100 44.03200 40.06600
H  -11.02700 42.90800 38.67000
H  -9.79700 42.82900 39.95700
H  -15.94600 42.70900 40.68000
H  -15.67000 44.34200 41.43900
H  -15.32700 42.95700 42.34500
H  -17.05100 38.57600 41.85800
H  -16.41000 37.22900 44.45800
H  -17.91600 40.26800 43.43200
H  -16.22100 40.41200 44.01000
H  -17.25300 39.23600 44.74400
H  -17.05500 35.46800 41.97200
H  -18.10900 36.72100 42.28800
H  -18.87600 35.65700 44.12100
H  -17.17900 35.02800 44.61000
H  -18.16300 34.21800 43.35500
H  -12.77700 32.35700 44.77500
H  -13.18500 31.68700 43.11000
H  -14.26100 32.82400 43.94700
H  -8.70300 33.59000 40.45200
H  -6.42100 35.33100 44.48300
H  -6.90200 36.92600 43.93900
H  -5.85800 35.86600 42.92800

