158

Mg 2.36900 -1.81400 44.02000
C  5.63500 -0.80100 43.32500
C  1.27400 1.10500 42.60100
C  -0.64300 -3.23600 43.62000
C  3.61700 -4.84600 45.34600
N  3.37500 -0.12100 42.92500
C  4.67100 0.18600 42.88300
C  4.88200 1.58000 42.36100
C  3.56300 2.26600 42.47000
C  2.65800 1.04600 42.72400
C  3.45600 3.39500 43.63800
C  5.52200 1.51200 40.92700
C  6.49900 2.68100 40.60900
H  6.31200 3.45500 39.25100
N  0.44700 -1.12300 43.35100
C  0.21400 0.13500 42.79600
C  -1.08300 0.25300 42.47200
C  -1.75200 -0.97400 42.88900
C  -0.68600 -1.86800 43.33900
C  -1.61400 1.45400 41.77700
C  -3.29500 -1.21800 42.72300
O  -4.06900 -0.31500 42.32500
C  -3.91300 -2.46800 43.08100
N  1.63400 -3.77500 44.44400
C  0.28800 -4.08300 44.23500
C  -0.00200 -5.50500 44.74100
C  1.29700 -5.92200 45.47100
C  2.26700 -4.80700 45.11700
C  -1.31700 -5.67200 45.52000
C  1.90400 -7.35600 44.95300
C  1.06700 -8.60300 45.25400
N  4.22000 -2.72100 44.24000
C  4.55000 -3.96800 44.84400
C  6.02200 -3.98000 44.86000
C  6.46300 -2.78200 44.31800
C  5.34700 -2.09400 43.94000
C  6.82500 -5.02400 45.53100
C  7.67600 -2.05400 43.95500
O  8.82300 -2.45800 44.08400
C  7.16600 -0.70600 43.31800
C  7.49600 0.38600 44.22400
O  7.24200 0.34100 45.41400
O  8.13300 1.38100 43.56900
C  8.34600 2.57500 44.47700
H  1.05100 2.06000 42.12100
H  -1.60600 -3.74800 43.56400
H  3.91400 -5.76900 45.84800
H  5.52600 2.17500 43.00800
H  3.42000 2.81400 41.53800
H  2.40200 3.29200 43.89900
H  3.66000 4.29500 43.05800
H  4.14900 3.35200 44.47800
H  4.71800 1.55800 40.19200
H  6.02600 0.58600 40.65100
H  7.48800 2.24000 40.73000
H  6.35100 3.31300 41.48500
H  -2.45700 1.19800 41.13400
H  -0.88300 1.82200 41.05800
H  -2.00300 2.21500 42.45300
H  -4.97500 -2.35300 43.29700
H  -3.53700 -2.98400 43.96400
H  -3.80700 -3.10700 42.20400
H  -0.11600 -6.05200 43.80500
H  1.07400 -5.91900 46.53800
H  -1.91000 -4.76100 45.60000
H  -1.09800 -5.95100 46.55100
H  -2.01500 -6.41700 45.13900
H  2.91100 -7.54700 45.32300
H  2.08700 -7.32000 43.87900
H  0.74500 -8.92700 44.26400
H  0.20500 -8.20800 45.79300
H  1.51500 -9.40300 45.84300
H  7.81700 -4.95500 45.08500
H  6.36000 -6.00700 45.46600
H  6.98800 -4.74100 46.57100
H  7.55900 -0.52700 42.31600
H  8.55600 2.44000 45.53800
H  7.45500 3.14200 44.21000
H  9.20100 3.09700 44.04600
Mg 17.01000 51.72800 25.63200
C  18.74500 50.57800 28.51800
C  14.44800 52.63600 27.71800
C  15.43600 52.77000 22.95600
C  19.44300 50.18800 23.61600
N  16.70000 51.67300 27.91800
C  17.56600 51.23500 28.90500
C  16.99400 51.52100 30.31600
C  15.46500 51.86500 29.97300
C  15.53200 52.03300 28.41300
C  14.41200 50.79200 30.35400
C  17.81200 52.62000 31.01500
C  18.00200 52.38300 32.50100
H  16.86000 52.93000 33.34600
N  15.21300 52.74500 25.38500
C  14.30200 53.00600 26.34400
C  13.21000 53.76300 25.72200
C  13.39400 53.74600 24.29600
C  14.71100 53.09200 24.12800
C  12.12000 54.34600 26.61600
C  12.49000 54.26000 23.16900
O  12.96900 54.37700 22.05000
C  11.03900 54.64000 23.37500
N  17.32200 51.38600 23.52400
C  16.60500 52.03600 22.64300
C  17.11600 51.87200 21.20800
C  18.59800 51.37900 21.49300
C  18.40400 50.87600 22.93900
C  16.26100 50.93300 20.35700
C  19.75000 52.46000 21.40700
C  20.91400 52.06700 20.47700
N  18.62600 50.52700 25.92100
C  19.52600 49.95800 25.01100
C  20.66200 49.35100 25.69900
C  20.40400 49.55200 27.07700
C  19.17400 50.36200 27.17000
C  21.76500 48.64300 24.92500
C  20.94200 49.35200 28.38600
O  21.90700 48.73300 28.72500
C  19.76500 49.93700 29.38600
C  19.28800 48.79000 30.21600
O  18.81600 47.70300 29.78200
O  19.36300 49.13800 31.58200
C  18.93600 48.14400 32.59800
H  13.52500 52.90200 28.23800
H  14.98200 53.20800 22.06500
H  20.30800 49.96000 22.99000
H  17.12800 50.59600 30.87700
H  15.24000 52.88700 30.27800
H  14.68400 50.44500 31.35100
H  14.35500 49.93400 29.68400
H  13.48500 51.36600 30.37200
H  17.46500 53.65000 30.92700
H  18.83600 52.55800 30.64600
H  19.01900 52.56500 32.84800
H  17.95500 51.29800 32.59400
H  11.20400 53.79200 26.41000
H  12.03800 55.36600 26.24100
H  12.22500 54.24200 27.69600
H  10.63000 53.82900 23.97700
H  10.48100 54.94300 22.48800
H  10.89800 55.53600 23.98000
H  17.23700 52.82200 20.68800
H  18.90900 50.66500 20.73000
H  15.68000 51.53900 19.66100
H  15.66000 50.29300 21.00300
H  16.94600 50.36000 19.73100
H  20.13700 52.72800 22.39000
H  19.40800 53.37700 20.92700
H  20.81200 51.02200 20.18700
H  21.79900 52.17700 21.10300
H  20.96400 52.68100 19.57800
H  22.29600 47.98800 25.61500
H  22.43900 49.34400 24.43300
H  21.33100 47.92300 24.23100
H  20.17200 50.71900 30.02600
H  17.86300 48.33800 32.60600
H  19.39100 48.44100 33.54300
H  19.15000 47.13900 32.23500

