158

Mg 48.35900 34.47500 27.46400
C  46.60000 32.89800 30.07800
C  48.67200 37.18800 29.54500
C  49.53900 36.16300 24.70600
C  47.70200 31.73500 25.46300
N  47.66600 34.99300 29.61800
C  47.18100 34.09400 30.48900
C  47.19800 34.78600 31.90700
C  47.31800 36.30000 31.52200
C  48.00800 36.10100 30.21300
C  46.00300 37.12000 31.46600
C  48.44300 34.28700 32.65100
C  48.36500 34.02200 34.15200
H  47.47500 34.84100 34.97200
N  49.17000 36.39700 27.19600
C  49.20800 37.34300 28.20800
C  49.68500 38.62600 27.59100
C  50.03600 38.30800 26.19300
C  49.53100 36.90000 25.90500
C  49.68900 39.88700 28.42700
C  50.71600 39.26400 25.20400
O  50.70700 38.99200 23.99800
C  51.10400 40.61300 25.58400
N  48.62900 33.93900 25.46000
C  49.16100 34.80000 24.52500
C  49.46300 34.05700 23.17700
C  49.06500 32.60600 23.48900
C  48.42600 32.72800 24.86300
C  48.77000 34.77600 21.96700
C  50.24200 31.61000 23.47500
C  50.33700 31.04000 22.09200
N  47.25500 32.70200 27.59400
C  47.15600 31.63500 26.74000
C  46.44600 30.53900 27.41000
C  46.19100 31.06400 28.67600
C  46.74000 32.33500 28.82800
C  45.98900 29.28200 26.70900
C  45.46700 30.75500 29.92700
O  44.82100 29.75700 30.27300
C  45.47400 32.06600 30.80800
C  45.72900 31.79800 32.18600
O  46.75900 31.37700 32.66400
O  44.55900 32.07200 32.87200
C  44.59600 31.69200 34.27800
H  48.83600 38.04200 30.20500
H  49.92200 36.58500 23.77500
H  47.57700 30.83800 24.85300
H  46.34200 34.61600 32.56000
H  48.03300 36.79900 32.17800
H  46.12100 37.95600 30.77600
H  45.85100 37.54300 32.45900
H  45.13100 36.52200 31.20100
H  49.28400 34.91000 32.34700
H  48.59200 33.28300 32.25500
H  49.38100 34.27600 34.45400
H  48.26500 32.97600 34.43800
H  49.14700 40.67700 27.90600
H  50.70500 40.27500 28.49800
H  49.26300 39.74000 29.42000
H  51.50800 41.25600 24.80200
H  51.90400 40.64400 26.32400
H  50.25400 41.07600 26.08600
H  50.53000 34.06900 22.95800
H  48.29500 32.30800 22.77700
H  49.30200 35.69600 21.72200
H  47.74900 34.98500 22.28800
H  48.76900 34.04300 21.16000
H  50.02600 30.78500 24.15300
H  51.20300 32.10600 23.61600
H  50.14500 29.97900 22.25600
H  51.31000 31.25000 21.64700
H  49.61800 31.41900 21.36700
H  46.91200 28.81300 26.36800
H  45.28200 29.34800 25.88200
H  45.52400 28.72700 27.52500
H  44.48900 32.51800 30.68800
H  43.64200 31.23600 34.54300
H  44.73000 32.63100 34.81500
H  45.29100 30.94500 34.66300
Mg 26.89000 50.68200 26.60800
C  24.92900 51.77900 29.23300
C  29.21500 49.56500 28.87000
C  29.08000 50.17600 24.09200
C  24.54600 51.93800 24.24200
N  26.98700 50.64200 28.83300
C  26.06800 51.11800 29.69700
C  26.44300 50.83600 31.17500
C  27.88200 50.23600 31.06600
C  28.01300 50.09700 29.49400
C  29.01400 51.26100 31.64500
C  25.43400 49.86500 31.89000
C  24.51200 50.55900 32.88200
H  24.52000 49.95200 34.25600
N  28.85700 50.03900 26.53500
C  29.58300 49.57300 27.54300
C  30.86300 49.10200 27.14000
C  30.96500 49.37200 25.74000
C  29.61100 49.89900 25.31800
C  31.92700 48.60200 28.11300
C  32.09200 49.14800 24.80800
O  31.98400 49.35800 23.59900
C  33.32600 48.58300 25.26000
N  26.79300 51.06000 24.43000
C  27.82400 50.57700 23.68000
C  27.43100 50.61000 22.12600
C  25.91300 51.15100 22.20100
C  25.69100 51.33900 23.74700
C  28.23300 51.45400 21.18100
C  24.77100 50.29600 21.60500
C  24.08200 50.91800 20.39600
N  25.10800 51.63900 26.65300
C  24.22800 52.05400 25.65700
C  23.07100 52.64700 26.28800
C  23.32500 52.62000 27.66000
C  24.52200 51.93900 27.85900
C  21.91300 53.24800 25.51900
C  22.80700 53.01400 29.00000
O  21.82500 53.53900 29.29600
C  23.90700 52.53500 29.98200
C  24.45600 53.72200 30.65000
O  25.19200 54.54700 30.16500
O  23.87800 53.81500 31.89100
C  23.92400 55.19700 32.55200
H  29.92200 49.31300 29.66300
H  29.86100 50.15200 23.32900
H  23.85200 52.12300 23.41900
H  26.40400 51.82300 31.63700
H  28.02000 49.26700 31.54600
H  28.63800 52.02300 32.32800
H  29.59500 51.68500 30.82600
H  29.68900 50.75300 32.33300
H  26.05100 49.07300 32.31400
H  24.75200 49.53300 31.10700
H  23.49800 50.45700 32.49600
H  24.75600 51.61500 33.00200
H  31.92500 49.07500 29.09500
H  32.93600 48.84000 27.77700
H  31.86900 47.51300 28.10600
H  33.95400 49.25600 25.84300
H  33.83500 48.18900 24.38100
H  33.04200 47.71900 25.86200
H  27.40800 49.59600 21.72700
H  25.72300 52.14300 21.79000
H  29.28200 51.40700 21.47400
H  27.97800 52.51200 21.12000
H  28.10100 50.92900 20.23500
H  24.02300 50.18600 22.39100
H  25.22800 49.33000 21.39000
H  22.99500 50.95700 20.47000
H  24.40100 50.27600 19.57500
H  24.35600 51.96100 20.23800
H  21.47000 52.61000 24.75400
H  22.13000 54.09700 24.87100
H  21.14000 53.44300 26.26200
H  23.54100 51.87800 30.77100
H  23.84500 55.86800 31.69700
H  24.84700 55.37400 33.10500
H  23.03700 55.20500 33.18600

