158

Mg 37.00100 50.16300 25.51300
C  37.09800 48.19900 28.45900
C  35.88400 52.77900 27.24900
C  36.59400 51.73300 22.56400
C  37.97500 47.25200 23.80100
N  36.34600 50.35700 27.60100
C  36.64600 49.58000 28.66600
C  36.32700 50.20100 30.00400
C  35.82800 51.53200 29.52300
C  35.96200 51.59100 28.04700
C  34.36400 51.86100 29.95600
C  37.59500 50.14000 30.91900
C  37.37300 50.00800 32.43600
H  35.99800 49.69800 32.98500
N  36.25700 51.96500 25.01900
C  35.93100 52.93600 25.86000
C  35.66100 54.16700 25.16200
C  35.93300 53.93300 23.77400
C  36.25600 52.45300 23.68100
C  35.51900 55.47300 25.91900
C  35.92200 54.86500 22.60800
O  35.75900 54.42900 21.45800
C  35.90400 56.36600 22.71500
N  37.08800 49.50600 23.53700
C  36.96700 50.37700 22.45200
C  37.43700 49.77900 21.07700
C  38.01800 48.40300 21.55600
C  37.62500 48.34700 23.06400
C  36.28300 49.58400 20.02300
C  39.50600 48.29700 21.22900
C  40.48200 49.28400 21.94900
N  37.47000 48.09800 25.97400
C  37.79100 47.05700 25.15200
C  38.12400 45.84100 25.88900
C  37.82700 46.24300 27.20400
C  37.48700 47.64500 27.18500
C  38.63300 44.50400 25.31200
C  37.76200 45.87000 28.59700
O  38.00500 44.75900 29.02100
C  37.31900 47.09500 29.46500
C  36.11800 46.69300 30.15600
O  35.04000 46.71500 29.63300
O  36.43400 46.26500 31.43700
C  35.35500 45.71000 32.24500
H  35.59400 53.64900 27.84200
H  36.60900 52.29900 21.63000
H  38.33800 46.40000 23.22300
H  35.46100 49.64300 30.36200
H  36.51700 52.30500 29.86400
H  33.91700 51.25100 30.74100
H  33.76300 51.99000 29.05500
H  34.45000 52.82300 30.46100
H  38.13600 51.08400 30.86800
H  38.20200 49.30300 30.57300
H  37.66000 50.92600 32.95000
H  38.06600 49.25500 32.81000
H  36.50400 55.74900 26.29400
H  34.81300 55.36500 26.74300
H  35.35200 56.24600 25.16900
H  34.91900 56.59900 23.12100
H  35.96300 56.89000 21.76000
H  36.71000 56.67300 23.38100
H  38.19400 50.43900 20.65200
H  37.36100 47.67000 21.08800
H  35.94300 48.54900 19.99600
H  36.60100 49.87600 19.02200
H  35.34500 50.06000 20.30800
H  39.57900 48.52600 20.16600
H  39.70200 47.22500 21.26800
H  41.19400 49.84800 21.34700
H  41.02400 48.68300 22.68000
H  39.86500 49.94900 22.55200
H  39.40600 44.09400 25.96200
H  38.99600 44.65200 24.29500
H  37.79800 43.82800 25.13100
H  38.13700 47.19000 30.17900
H  35.72800 45.60100 33.26300
H  34.86100 44.82200 31.84900
H  34.48500 46.36700 32.26900
Mg 17.88600 51.49700 26.27300
C  19.55200 49.97600 28.71400
C  15.38800 52.45100 28.50000
C  15.92300 52.43200 23.72200
C  20.10100 50.10400 23.89700
N  17.52200 51.17300 28.38400
C  18.38800 50.61800 29.24400
C  18.00100 50.79300 30.70100
C  16.50400 51.37100 30.51900
C  16.47300 51.68700 29.04700
C  15.32400 50.34000 30.88500
C  18.94600 51.81800 31.52000
C  18.32600 52.48800 32.81900
H  17.48300 51.61300 33.68200
N  16.04400 52.42800 26.10600
C  15.24100 52.80400 27.17600
C  14.05500 53.51000 26.70700
C  14.15100 53.44500 25.29100
C  15.38200 52.82200 24.98300
C  13.26600 54.41000 27.62100
C  13.12200 53.97300 24.25600
O  13.39700 54.26900 23.07900
C  11.79400 54.47200 24.74000
N  18.02000 51.38500 23.98400
C  17.01000 51.72000 23.23700
C  17.25800 51.31500 21.76900
C  18.71000 50.83700 21.79200
C  19.02300 50.86800 23.28700
C  16.24500 50.33700 21.14300
C  19.78100 51.72100 21.01700
C  19.77500 53.25100 21.29600
N  19.46100 50.24500 26.27000
C  20.34800 49.87200 25.27300
C  21.50000 49.15600 25.79500
C  21.30000 49.18500 27.22400
C  20.03400 49.82500 27.42300
C  22.58800 48.59300 24.90400
C  21.75600 48.76800 28.59100
O  22.68100 48.07100 29.02800
C  20.65500 49.40500 29.55500
C  20.17700 48.27300 30.41200
O  19.80100 47.16200 30.03600
O  20.12900 48.70500 31.71600
C  19.57100 47.73200 32.66600
H  14.57900 52.66200 29.20200
H  15.28200 52.72400 22.88800
H  20.78600 49.64200 23.18300
H  17.99900 49.82200 31.19600
H  16.35900 52.27500 31.11000
H  15.01500 50.50300 31.91700
H  15.70400 49.31900 30.93300
H  14.47700 50.31700 30.19900
H  19.30100 52.58700 30.83400
H  19.81500 51.27700 31.89600
H  17.74300 53.31100 32.40500
H  19.15300 52.86700 33.42000
H  13.83400 54.66700 28.51500
H  12.27500 54.00500 27.82500
H  13.06000 55.32700 27.07000
H  11.56500 54.00900 25.69900
H  11.08000 54.02700 24.04600
H  11.85200 55.55700 24.65400
H  17.11700 52.24100 21.21200
H  18.82300 49.85100 21.34000
H  15.59600 50.16200 22.00100
H  16.61400 49.34000 20.90000
H  15.79300 50.88600 20.31700
H  19.57600 51.66100 19.94800
H  20.71700 51.22600 21.27400
H  20.75200 53.65900 21.55800
H  19.08700 53.26300 22.14100
H  19.45000 53.81800 20.42400
H  23.31100 48.20900 25.62400
H  22.98200 49.37100 24.25000
H  22.24100 47.72700 24.34100
H  21.16000 50.12400 30.20000
H  19.87100 46.70800 32.44500
H  18.49800 47.92000 32.62700
H  20.00600 47.95600 33.64000

