158

Mg 40.80700 9.55100 29.15500
C  42.71100 10.90900 31.89100
C  38.49700 8.64500 31.63600
C  39.10200 7.99500 26.78000
C  43.38900 10.44400 27.04700
N  40.58200 9.87900 31.57800
C  41.47100 10.36200 32.41400
C  40.96900 10.37500 33.87200
C  39.59100 9.73800 33.76800
C  39.54000 9.34900 32.29100
C  39.51800 8.44400 34.71000
C  41.00700 11.82900 34.51000
C  40.38800 11.89400 35.90900
H  41.20100 12.72900 36.87000
N  39.01700 8.63000 29.12000
C  38.28700 8.23400 30.29400
C  37.29900 7.22000 29.90100
C  37.39500 7.06100 28.50800
C  38.52100 7.95500 28.06300
C  36.37400 6.63500 30.86000
C  36.57300 6.27400 27.48900
O  36.60500 6.42100 26.28200
C  35.47200 5.35900 28.04900
N  41.20100 9.13000 27.25800
C  40.28800 8.63200 26.37100
C  40.80800 8.82100 24.95400
C  42.13300 9.54600 25.05500
C  42.24700 9.77100 26.54100
C  40.62200 7.65300 23.95300
C  42.31700 10.84100 24.18600
C  41.74400 12.09200 24.66600
N  42.67400 10.33900 29.33200
C  43.63800 10.61800 28.44100
C  44.68900 11.25500 29.05000
C  44.35300 11.46800 30.37300
C  43.13000 10.82400 30.51900
C  45.89900 11.74400 28.43900
C  44.77100 12.01800 31.66000
O  45.79800 12.69900 31.88600
C  43.81100 11.62000 32.71400
C  44.60100 10.67900 33.62200
O  45.17300 9.63300 33.39900
O  44.68100 11.26200 34.83600
C  45.38200 10.60800 35.93600
H  37.75100 8.47500 32.41500
H  38.50300 7.47100 26.03200
H  44.06800 10.80900 26.27300
H  41.66300 9.80800 34.49300
H  38.85500 10.46000 34.12400
H  40.44500 8.31200 35.26800
H  39.29700 7.51400 34.18800
H  38.75500 8.44500 35.48700
H  40.64700 12.59500 33.82300
H  42.07600 12.00400 34.63600
H  40.23500 10.93700 36.40600
H  39.39900 12.33200 35.77500
H  36.39900 5.55200 30.73700
H  35.36400 7.04000 30.92400
H  36.83300 6.71400 31.84500
H  34.81400 6.01200 28.62300
H  35.95800 4.61800 28.68400
H  34.94500 4.88400 27.22200
H  40.09900 9.57100 24.60200
H  42.98200 8.90700 24.81300
H  40.28200 6.75700 24.47300
H  41.56400 7.44100 23.44600
H  39.87900 7.90900 23.19800
H  41.83900 10.70000 23.21600
H  43.36600 10.86100 23.89000
H  41.23100 11.94600 25.61700
H  41.09700 12.62800 23.97200
H  42.58300 12.73000 24.94600
H  45.67500 12.60000 27.80200
H  46.29500 10.98700 27.76300
H  46.65300 12.04600 29.16600
H  43.46300 12.53000 33.20300
H  45.97300 11.40700 36.38400
H  46.11300 9.82900 35.72400
H  44.69400 10.18400 36.66800
Mg 26.58800 49.79500 26.68000
C  24.34600 50.86700 29.13500
C  28.63600 48.72200 29.15900
C  28.72300 48.91200 24.34100
C  24.54400 51.41500 24.33300
N  26.28900 49.45300 28.90500
C  25.35700 50.03800 29.68000
C  25.54000 49.68100 31.17300
C  26.99900 49.05000 31.23000
C  27.37200 49.02200 29.70000
C  28.07400 49.77900 32.03100
C  24.41900 48.74000 31.71200
C  23.79900 49.27700 33.11200
H  24.82400 49.89100 34.18000
N  28.38400 48.90200 26.76600
C  29.08400 48.54200 27.83200
C  30.32800 47.87500 27.47200
C  30.44800 47.94800 26.04100
C  29.15500 48.66700 25.63600
C  31.37300 47.29400 28.38500
C  31.61800 47.48000 25.07300
O  31.55000 47.78500 23.86600
C  32.86900 46.82100 25.60000
N  26.63300 50.15400 24.62300
C  27.61400 49.57000 23.89400
C  27.25600 49.61900 22.42000
C  25.85400 50.34000 22.35100
C  25.60800 50.63600 23.83700
C  28.27900 50.23600 21.42400
C  24.69000 49.55100 21.60200
C  23.61000 50.54400 21.07000
N  24.76000 50.85400 26.63700
C  24.20500 51.61500 25.67000
C  23.07100 52.27200 26.16900
C  23.10000 52.06500 27.53000
C  24.17900 51.25700 27.77300
C  22.10200 53.17700 25.48300
C  22.44000 52.41900 28.77400
O  21.42100 53.09700 28.99900
C  23.33200 51.70800 29.82800
C  23.89600 52.85100 30.61400
O  24.91800 53.44900 30.30100
O  23.08300 53.07300 31.75900
C  23.50900 54.24000 32.43000
H  29.28900 48.28200 29.91600
H  29.45200 48.65500 23.56900
H  23.89300 51.89500 23.59900
H  25.55300 50.66900 31.63300
H  26.92100 47.98600 31.45400
H  28.60800 50.58200 31.52200
H  28.80300 48.99400 32.23500
H  27.65400 50.13600 32.97100
H  24.86900 47.75600 31.84900
H  23.66100 48.62500 30.93800
H  23.39500 48.32700 33.46000
H  22.99600 49.95600 32.82400
H  31.58200 46.25800 28.11800
H  31.07700 47.18900 29.42900
H  32.24100 47.94200 28.26400
H  33.26200 47.51300 26.34400
H  33.62800 46.63400 24.84000
H  32.30200 45.97700 25.99300
H  27.09900 48.65300 21.94000
H  25.98500 51.37100 22.02100
H  28.01000 51.28300 21.28300
H  28.19800 49.77000 20.44200
H  29.29100 50.19600 21.82800
H  24.24400 49.03100 22.45000
H  25.05300 48.71700 21.00100
H  24.04200 51.53000 20.89800
H  22.73700 50.65300 21.71400
H  23.17500 50.16600 20.14600
H  22.68300 53.56000 24.64500
H  21.76500 54.01500 26.09300
H  21.32000 52.52200 25.09800
H  22.79200 51.06400 30.52300
H  22.67500 54.56300 33.05400
H  23.84300 54.98800 31.71100
H  24.39800 53.90700 32.96600

