158

Mg 8.19400 3.02700 27.61200
C  9.45400 1.60100 30.62900
C  6.04200 4.94000 29.49100
C  6.74100 4.15400 24.76700
C  9.91600 0.54500 25.90700
N  7.96200 3.33900 29.85100
C  8.50300 2.64000 30.83100
C  8.07400 3.18900 32.22000
C  6.89000 4.16900 31.87400
C  6.89200 4.12700 30.30400
C  5.50500 3.74100 32.58900
C  9.18100 3.79400 33.09300
C  9.40200 3.06000 34.48100
H  9.84300 3.98000 35.68700
N  6.73500 4.35800 27.21700
C  6.02900 5.13200 28.10700
C  5.29000 6.14200 27.47200
C  5.34400 5.88100 26.06400
C  6.30600 4.77200 25.96500
C  4.50400 7.19100 28.20800
C  4.62000 6.61200 24.85900
O  5.00600 6.35200 23.69500
C  3.68700 7.76900 25.06200
N  8.24000 2.42700 25.56900
C  7.65300 3.00800 24.58300
C  7.88100 2.33600 23.29200
C  8.68400 1.07900 23.65800
C  9.03600 1.33700 25.17200
C  6.51300 2.00700 22.58200
C  9.94300 0.79400 22.78000
C  10.17200 -0.66800 22.46400
N  9.56500 1.42900 28.14900
C  10.19800 0.57900 27.25800
C  10.88500 -0.36300 28.09300
C  10.70100 0.04200 29.40600
C  9.82300 1.08200 29.36200
C  11.44300 -1.64100 27.66200
C  11.00700 -0.23700 30.78200
O  11.71500 -1.07000 31.36200
C  10.15900 0.71500 31.66300
C  9.35000 -0.25000 32.36800
O  8.27800 -0.71300 32.00000
O  9.80500 -0.43100 33.65100
C  8.89000 -1.03700 34.54000
H  5.41700 5.50200 30.18900
H  6.31800 4.47500 23.81300
H  10.34400 -0.30500 25.37200
H  7.60200 2.32300 32.68400
H  7.07400 5.22800 32.05500
H  4.72300 3.42400 31.89900
H  4.93800 4.36600 33.27900
H  5.73400 2.86100 33.19000
H  9.01800 4.86500 33.21100
H  10.08200 3.81400 32.48100
H  10.19700 2.33500 34.30900
H  8.51700 2.49600 34.77700
H  3.44900 6.91500 28.22800
H  4.55700 8.10500 27.61700
H  4.86200 7.35600 29.22400
H  3.42300 8.12800 24.06700
H  4.15600 8.66700 25.46500
H  2.84400 7.66200 25.74600
H  8.39700 2.99100 22.59000
H  8.09500 0.16600 23.57200
H  5.75900 2.19200 23.34700
H  6.40200 0.98700 22.21400
H  6.40800 2.71600 21.76100
H  10.80500 1.24300 23.27300
H  9.75600 1.13300 21.76100
H  11.21900 -0.94300 22.34300
H  9.60900 -1.03200 21.60500
H  9.82400 -1.35100 23.23900
H  10.83800 -2.10100 26.88000
H  11.53200 -2.35600 28.48000
H  12.48900 -1.48600 27.40000
H  10.67200 1.28300 32.43900
H  9.46600 -1.30100 35.42700
H  8.41800 -1.93800 34.14800
H  8.08000 -0.35900 34.80800
Mg -11.62200 37.46800 42.38300
C  -9.70800 34.74000 40.93800
C  -9.13800 39.50200 41.15100
C  -13.69800 39.98100 42.88500
C  -14.14700 35.11600 43.19000
N  -9.67400 37.17200 41.16600
C  -9.09400 35.99600 40.70900
C  -7.79300 36.21200 39.98000
C  -7.51700 37.68000 40.49100
C  -8.86200 38.19100 40.97400
C  -6.40200 37.75700 41.59300
C  -8.02600 36.03100 38.40800
C  -7.03900 35.18000 37.63600
H  -5.90200 35.82500 36.81800
N  -11.46100 39.56200 42.11700
C  -10.32500 40.23100 41.62000
C  -10.58100 41.60500 41.60900
C  -11.88500 41.84900 42.17800
C  -12.44200 40.44000 42.36900
C  -9.60800 42.69400 41.22100
C  -12.53000 43.12900 42.49100
O  -11.98900 44.15700 42.12500
C  -13.80900 43.27700 43.26800
N  -13.68400 37.52100 42.75200
C  -14.26600 38.68700 43.07700
C  -15.71700 38.47000 43.41000
C  -15.85600 36.93100 43.51600
C  -14.54000 36.48400 43.08200
C  -16.12300 39.18500 44.74900
C  -17.13100 36.42700 42.82200
C  -17.07900 36.35900 41.31400
N  -11.83100 35.37000 42.24800
C  -12.91000 34.62700 42.65600
C  -12.65900 33.24100 42.34000
C  -11.40300 33.26100 41.66100
C  -10.93800 34.52900 41.66200
C  -13.58500 32.01200 42.44400
C  -10.41600 32.39800 41.05100
O  -10.42100 31.18900 40.86500
C  -9.31500 33.36500 40.42700
C  -8.04800 32.77300 40.86400
O  -7.10800 32.61300 40.09800
O  -8.10000 32.32600 42.18800
C  -6.78800 32.39600 42.91300
H  -8.35300 40.18200 40.81300
H  -14.27200 40.83700 43.24600
H  -14.89300 34.32900 43.31500
H  -7.17100 35.43600 40.42500
H  -7.14500 38.25100 39.64100
H  -5.88800 36.80200 41.69800
H  -6.70300 38.22900 42.52800
H  -5.57100 38.32100 41.16900
H  -7.96000 36.96700 37.85300
H  -8.99900 35.56000 38.26700
H  -7.64800 34.49900 37.04100
H  -6.59300 34.47900 38.34100
H  -9.24600 43.23200 42.09700
H  -10.09600 43.36700 40.51700
H  -8.72600 42.28100 40.73000
H  -14.03600 44.29600 43.58400
H  -13.71900 42.61900 44.13200
H  -14.63200 42.92800 42.64500
H  -16.21700 38.77500 42.49000
H  -15.91800 36.53200 44.52800
H  -16.27800 40.25200 44.58600
H  -15.38000 39.23400 45.54400
H  -16.92800 38.61100 45.20800
H  -18.02200 36.95800 43.15800
H  -17.25000 35.38000 43.10300
H  -17.43000 35.36000 41.05400
H  -16.09500 36.50700 40.86900
H  -17.71900 37.14700 40.91700
H  -13.17400 31.08600 42.04100
H  -14.45000 32.32700 41.86100
H  -13.77400 31.58900 43.43100
H  -9.31600 33.29900 39.33900
H  -6.24800 31.46300 43.07500
H  -7.03100 32.65900 43.94200
H  -6.13400 33.14200 42.46100

