158

Mg 36.30600 48.84700 25.30300
C  36.90000 46.56800 27.95500
C  34.86900 51.02000 27.53500
C  35.56900 50.76300 22.74200
C  37.22800 46.28200 23.07900
N  35.87700 48.70400 27.52700
C  36.36700 47.81200 28.40700
C  36.24700 48.29700 29.84600
C  35.30000 49.51700 29.67900
C  35.34200 49.80000 28.15700
C  33.88400 49.25500 30.26500
C  37.68300 48.56900 30.44400
C  37.98000 48.10700 31.93400
H  36.82100 48.19000 32.82100
N  35.36500 50.61300 25.17800
C  34.91500 51.48400 26.18600
C  34.61300 52.85600 25.69100
C  34.62700 52.62800 24.26900
C  35.18200 51.26300 23.98300
C  34.10300 53.85000 26.58200
C  34.12700 53.61500 23.15900
O  34.12800 53.35200 21.96700
C  33.57300 54.95900 23.64400
N  36.42500 48.53800 23.06500
C  36.21600 49.52900 22.26100
C  36.65700 49.19000 20.79400
C  37.34700 47.83000 21.03200
C  37.00300 47.50200 22.47800
C  35.47900 49.08300 19.79500
C  38.94200 47.72900 20.84200
C  39.76600 48.63000 21.71100
N  37.05300 46.87800 25.39700
C  37.36400 45.92100 24.43500
C  37.69900 44.68400 25.03800
C  37.62100 44.89700 26.40200
C  37.08400 46.23200 26.55000
C  38.02900 43.41900 24.31600
C  37.82300 44.30500 27.69700
O  38.15900 43.21100 28.07100
C  37.42100 45.39300 28.73100
C  36.31400 44.85500 29.54000
O  35.19500 44.59800 29.08900
O  36.74400 44.77200 30.86500
C  35.66800 44.51200 31.80200
H  34.31100 51.66700 28.21500
H  35.22700 51.40200 21.92600
H  37.51200 45.48200 22.39200
H  35.75000 47.61600 30.53700
H  35.72100 50.37600 30.20100
H  33.08300 49.76900 29.73400
H  33.86600 49.59200 31.30100
H  33.74900 48.17800 30.37000
H  38.03700 49.59100 30.30800
H  38.29800 47.99000 29.75600
H  38.63200 48.93900 32.20100
H  38.50400 47.16500 32.09500
H  34.86300 54.63100 26.62500
H  33.95500 53.55700 27.62100
H  33.17300 54.29300 26.22400
H  32.61300 54.85000 24.14800
H  33.54900 55.69500 22.84000
H  34.30800 55.25800 24.39100
H  37.29800 49.99900 20.44200
H  37.06800 47.07500 20.29800
H  34.50800 49.14900 20.28500
H  35.61900 48.23800 19.12100
H  35.47800 49.92800 19.10600
H  39.18100 48.02400 19.82000
H  39.18900 46.66800 20.86400
H  39.37500 48.77300 22.71800
H  39.79400 49.59700 21.20700
H  40.78600 48.24500 21.72700
H  39.10700 43.30500 24.20300
H  37.63000 43.42700 23.30200
H  37.62500 42.55600 24.84500
H  38.30200 45.60900 29.33500
H  34.82800 45.20500 31.74900
H  36.08100 44.36100 32.79900
H  35.28700 43.55300 31.45300
Mg 26.85700 50.32700 25.74900
C  24.74800 51.19600 28.49200
C  29.29800 49.26800 27.81700
C  28.69000 49.71600 23.07100
C  24.40000 51.85100 23.61400
N  26.92500 50.15700 27.90000
C  25.98500 50.49200 28.80600
C  26.46800 50.01600 30.19300
C  27.97100 49.53400 30.01200
C  28.07600 49.56700 28.44000
C  29.11100 50.32100 30.77000
C  25.47900 48.90600 30.90300
C  25.00000 49.18300 32.31500
H  25.95800 49.87800 33.31100
N  28.78400 49.52900 25.49000
C  29.63300 49.18600 26.43300
C  30.86800 48.81000 25.86500
C  30.79000 48.99100 24.45300
C  29.36200 49.43000 24.27500
C  32.07000 48.45300 26.71200
C  31.84900 48.66600 23.39100
O  31.64400 48.89600 22.20000
C  33.10000 48.00600 23.84000
N  26.67000 50.88600 23.69500
C  27.49300 50.30700 22.79800
C  27.08800 50.74400 21.37900
C  25.67600 51.24800 21.49700
C  25.50200 51.28800 23.04200
C  28.14600 51.72400 20.54000
C  24.69000 50.38800 20.65200
C  23.71100 51.16700 19.85100
N  25.00100 51.43100 25.91000
C  24.12600 51.92700 24.97700
C  22.95800 52.52400 25.60500
C  23.19100 52.30200 27.02300
C  24.45100 51.60900 27.11200
C  21.83500 53.23600 24.97100
C  22.60300 52.47300 28.38500
O  21.59400 53.03000 28.72000
C  23.53900 51.68600 29.31600
C  23.92500 52.35500 30.59000
O  24.75700 53.25200 30.73700
O  23.08300 51.93300 31.55100
C  23.29600 52.45700 32.85700
H  29.96100 48.86800 28.58800
H  29.20500 49.45800 22.14200
H  23.69300 52.31200 22.92100
H  26.34300 50.92000 30.78900
H  28.13400 48.47300 30.19700
H  29.68500 49.62000 31.37700
H  28.81700 51.15800 31.40400
H  29.85000 50.63600 30.03400
H  25.84500 47.90000 30.69900
H  24.60900 48.85200 30.24900
H  24.59100 48.30300 32.81200
H  24.08200 49.75300 32.17300
H  32.32200 47.41500 26.49600
H  31.81900 48.39000 27.77100
H  32.92100 49.10000 26.49800
H  33.80100 48.65300 24.36700
H  33.59400 47.71000 22.91500
H  32.94700 47.07500 24.38700
H  27.04000 49.92000 20.66700
H  25.72400 52.28600 21.16700
H  28.97400 52.02200 21.18200
H  27.80700 52.64100 20.05800
H  28.55300 51.09100 19.75100
H  24.20500 49.71600 21.36000
H  25.18300 49.65500 20.01300
H  22.76700 51.05400 20.38500
H  23.47900 50.67500 18.90700
H  23.94600 52.21600 19.66800
H  20.97000 53.28800 25.63200
H  21.63800 52.67100 24.05900
H  22.20700 54.24400 24.78900
H  22.95300 50.82600 29.63700
H  24.35200 52.41900 33.12300
H  22.65700 51.90000 33.54200
H  22.98100 53.49900 32.90300

