158

Mg 17.51400 -2.57400 27.44000
C  16.67600 -0.41300 30.15000
C  19.29700 -4.58800 29.75100
C  18.73600 -4.27400 24.84200
C  16.06100 -0.24700 25.30500
N  17.92400 -2.53800 29.74800
C  17.52800 -1.48200 30.56800
C  17.92400 -1.83700 32.03700
C  18.86000 -3.11700 31.87600
C  18.71600 -3.43800 30.37000
C  20.33400 -2.98400 32.42600
C  16.73600 -1.99900 33.01000
C  16.68500 -1.22500 34.29400
H  18.03000 -0.89500 35.00600
N  18.70900 -4.25900 27.30000
C  19.28000 -4.99800 28.39200
C  19.84600 -6.23400 27.83200
C  19.89000 -6.00700 26.40600
C  19.15800 -4.78400 26.13600
C  20.42600 -7.23000 28.70900
C  20.63600 -6.80500 25.35800
O  20.50000 -6.54300 24.16600
C  21.45200 -7.94800 25.77100
N  17.66500 -2.17200 25.39900
C  18.16500 -3.08800 24.51500
C  17.84700 -2.68500 23.08800
C  16.87900 -1.51800 23.26800
C  16.87100 -1.23300 24.78300
C  18.98600 -2.59400 22.16300
C  15.48900 -1.70100 22.62500
C  14.37300 -2.12600 23.58800
N  16.44300 -0.80300 27.63800
C  15.88600 0.02400 26.68000
C  15.08400 1.06100 27.32300
C  15.40000 0.90300 28.67400
C  16.25000 -0.21600 28.77900
C  14.29300 2.13800 26.75700
C  15.25600 1.53200 29.98700
O  14.61700 2.53400 30.25900
C  16.08500 0.66800 31.04100
C  16.97500 1.51700 31.78900
O  18.16300 1.70800 31.61200
O  16.27500 2.00500 32.88300
C  17.02800 3.10800 33.55500
H  19.85300 -5.20800 30.45800
H  18.85900 -4.96700 24.00700
H  15.45500 0.43500 24.70600
H  18.59400 -1.05400 32.39300
H  18.41100 -3.92800 32.45000
H  20.38600 -3.78800 33.16000
H  20.40100 -2.01200 32.91500
H  21.10300 -3.15600 31.67300
H  16.53200 -3.05600 33.18100
H  15.92000 -1.67400 32.36500
H  16.23900 -1.98100 34.94000
H  15.92200 -0.45700 34.17600
H  20.07000 -8.18900 28.33100
H  20.02800 -7.20800 29.72300
H  21.50900 -7.11100 28.73800
H  20.74600 -8.67700 26.17100
H  22.04500 -7.60200 26.61800
H  21.92200 -8.39300 24.89400
H  17.35800 -3.54600 22.63200
H  17.46400 -0.70800 22.83400
H  19.10700 -1.62800 21.67300
H  18.89800 -3.36800 21.40000
H  19.85100 -2.72800 22.81200
H  15.59800 -2.55100 21.95300
H  15.16600 -0.78700 22.12700
H  14.69500 -2.84300 24.34400
H  13.63600 -2.76400 23.10000
H  13.82100 -1.22200 23.84300
H  14.05800 1.82100 25.74100
H  15.00900 2.95200 26.64400
H  13.38700 2.31700 27.33500
H  15.31000 0.30400 31.71500
H  17.32800 3.97100 32.96200
H  17.91300 2.78200 34.10300
H  16.34900 3.37600 34.36400
Mg 15.95700 53.27600 24.99300
C  17.45900 51.96000 27.79900
C  13.34500 54.34400 26.89500
C  14.42600 54.21300 22.14300
C  18.34500 51.45000 23.11100
N  15.43300 53.01400 27.06500
C  16.24900 52.70100 28.08300
C  15.70700 53.11900 29.42500
C  14.21400 53.58200 29.09200
C  14.25400 53.57500 27.54800
C  13.12400 52.49700 29.60600
C  16.64900 54.21200 30.06000
C  16.98800 53.99800 31.53200
H  16.03500 53.22000 32.46000
N  14.19100 54.37500 24.63400
C  13.25500 54.73700 25.55000
C  12.20900 55.41400 24.84900
C  12.54400 55.39500 23.47000
C  13.79900 54.65800 23.33000
C  11.00800 55.92900 25.63000
C  11.78900 55.88500 22.24700
O  12.16500 55.77400 21.06700
C  10.45200 56.46700 22.42800
N  16.28800 52.82000 22.90800
C  15.48100 53.30200 21.92500
C  16.12100 53.03900 20.55100
C  17.46700 52.20500 20.88800
C  17.40700 52.21600 22.39200
C  15.26900 52.31500 19.48200
C  18.77900 52.83900 20.22700
C  19.30100 52.18800 18.93200
N  17.48400 51.97500 25.33200
C  18.43100 51.39500 24.51400
C  19.40100 50.67100 25.17200
C  19.08600 50.95500 26.50100
C  17.85700 51.65100 26.52900
C  20.51400 49.82900 24.57500
C  19.58600 50.79400 27.80300
O  20.68800 50.36200 28.13600
C  18.50900 51.40800 28.77800
C  18.09300 50.42800 29.72400
O  17.14000 49.62500 29.54600
O  18.91000 50.59000 30.84900
C  18.43600 49.88200 32.03500
H  12.63000 54.78100 27.59500
H  14.00400 54.50700 21.18000
H  19.07800 50.92700 22.49400
H  15.59000 52.21700 30.02600
H  13.93600 54.55500 29.49700
H  12.62500 52.68200 30.55700
H  13.53200 51.49200 29.71700
H  12.42200 52.56600 28.77500
H  16.24300 55.22300 30.05600
H  17.61500 54.23900 29.55400
H  17.21000 54.99200 31.92100
H  17.99000 53.57100 31.56600
H  10.27700 55.13100 25.76300
H  10.53700 56.73900 25.07300
H  11.27500 56.37900 26.58500
H  10.12000 56.66400 21.40900
H  10.55400 57.42700 22.93500
H  9.66200 55.89900 22.92000
H  16.45500 54.01600 20.20100
H  17.26200 51.17600 20.59500
H  15.75100 51.71800 18.70800
H  14.96400 53.18500 18.89900
H  14.42800 51.81100 19.95900
H  19.54500 52.89900 20.99900
H  18.54300 53.85300 19.90500
H  18.57600 51.55500 18.42000
H  20.12500 51.55500 19.26300
H  19.63600 52.94800 18.22600
H  20.32800 49.31500 23.63200
H  20.46600 49.13200 25.41100
H  21.41000 50.44200 24.48000
H  18.98400 52.19600 29.36300
H  18.68900 48.83300 31.88000
H  17.36800 49.87600 32.25200
H  18.91200 50.29900 32.92200

