158

Mg -0.27600 7.53100 25.48500
C  0.60900 9.57500 28.07900
C  -0.38700 4.83200 27.69200
C  -0.40400 5.31500 22.85700
C  0.13800 10.13600 23.21500
N  0.14200 7.24400 27.60800
C  0.43100 8.24200 28.53200
C  0.63000 7.68100 29.96400
C  0.45300 6.15100 29.69400
C  0.09000 6.01700 28.22100
C  1.75300 5.23700 29.91100
C  -0.48600 8.22600 30.86100
C  -0.17700 8.14000 32.35800
H  1.04000 7.40700 32.92700
N  -0.35800 5.31800 25.28700
C  -0.45900 4.43500 26.31900
C  -0.73200 3.17400 25.79900
C  -0.60900 3.24400 24.35300
C  -0.45600 4.64700 24.05500
C  -0.96700 2.02600 26.69300
C  -0.63100 2.18000 23.35700
O  -0.29900 2.43000 22.20000
C  -1.07900 0.78000 23.73600
N  0.08700 7.66300 23.30700
C  -0.20000 6.67300 22.49200
C  -0.50300 7.13800 21.06800
C  -0.53800 8.67300 21.22800
C  -0.11500 8.88800 22.65600
C  0.53600 6.65400 20.04600
C  -1.92300 9.22900 20.90800
C  -1.88300 10.61700 20.22300
N  0.28400 9.51800 25.58000
C  0.32800 10.46000 24.62300
C  0.62300 11.73700 25.17400
C  0.76900 11.48900 26.59900
C  0.48300 10.08100 26.77900
C  0.81600 12.98500 24.40500
C  1.14300 12.03900 27.95600
O  1.66200 13.07500 28.23900
C  0.85400 10.88900 28.96400
C  2.07200 10.81800 29.84000
O  3.18600 10.39000 29.49700
O  1.68100 11.12000 31.14900
C  2.75700 11.24800 32.16200
H  -0.68700 3.99200 28.32300
H  -0.46500 4.65000 21.99300
H  0.10300 11.01400 22.56700
H  1.59600 8.05400 30.30400
H  -0.34500 5.75400 30.32100
H  1.58800 4.19800 30.19600
H  2.41300 5.79700 30.57300
H  2.14600 5.07800 28.90700
H  -1.43600 7.72200 30.68700
H  -0.75900 9.22600 30.52400
H  -0.98000 7.64200 32.90100
H  -0.16500 9.19600 32.62400
H  -0.45800 2.02900 27.65600
H  -0.45600 1.16600 26.26100
H  -2.04100 1.83800 26.67500
H  -0.24100 0.25700 24.19700
H  -1.26100 0.27300 22.78900
H  -1.97000 0.67300 24.35500
H  -1.45700 6.65800 20.85000
H  0.15600 9.08000 20.49400
H  1.25100 7.33000 19.57700
H  0.13800 6.05700 19.22500
H  1.17900 5.86500 20.43500
H  -2.53400 9.37900 21.79800
H  -2.41900 8.52100 20.24400
H  -1.92500 10.54400 19.13600
H  -1.01400 11.18900 20.54800
H  -2.72600 11.12900 20.68700
H  1.80400 12.99100 23.94500
H  0.52000 13.88900 24.93800
H  0.06800 12.99800 23.61300
H  -0.00500 11.16300 29.57600
H  2.66800 12.27400 32.51900
H  3.72600 10.94700 31.76400
H  2.52400 10.50300 32.92300
Mg 39.89600 10.51700 30.00000
C  41.72300 11.53100 32.64400
C  37.70700 8.86300 32.21400
C  38.30400 9.09400 27.31200
C  42.56700 11.31700 27.83600
N  39.90100 10.01200 32.29000
C  40.60700 10.81900 33.08600
C  40.11300 10.73200 34.53800
C  38.81000 9.82800 34.39700
C  38.79700 9.43600 32.88400
C  38.63800 8.65000 35.37500
C  39.81100 12.17600 35.24400
C  40.57200 12.36900 36.58100
H  39.66300 13.06400 37.58400
N  38.10800 9.38400 29.82800
C  37.39800 8.75100 30.83900
C  36.24500 8.10700 30.26600
C  36.38400 8.24700 28.83900
C  37.67300 8.94800 28.56100
C  35.20000 7.42300 31.11300
C  35.53500 7.59100 27.75600
O  35.88500 7.56700 26.59200
C  34.29600 6.79000 28.10100
N  40.45200 10.13200 27.88300
C  39.59300 9.61300 27.01000
C  39.90800 9.98600 25.49600
C  41.31400 10.75900 25.62800
C  41.51300 10.73800 27.15500
C  39.85000 8.85000 24.51000
C  41.35400 12.19400 24.95300
C  40.68500 13.40400 25.60800
N  41.74100 11.41000 30.12600
C  42.72400 11.67000 29.19300
C  43.84300 12.25000 29.83300
C  43.45600 12.31000 31.21600
C  42.20400 11.69000 31.32900
C  45.05400 12.75300 29.14600
C  43.94400 12.57900 32.54700
O  44.97100 13.16000 32.92800
C  42.82200 12.06000 33.55900
C  43.37200 11.07800 34.54100
O  43.74000 9.95500 34.31800
O  43.40900 11.68100 35.78800
C  43.71600 10.84600 36.95000
H  37.05300 8.35500 32.92400
H  37.65000 8.98800 26.44400
H  43.37700 11.63000 27.17400
H  40.86400 10.16900 35.09300
H  37.86900 10.36200 34.53200
H  38.63500 7.68200 34.87300
H  37.73300 8.80700 35.96200
H  39.49500 8.62300 36.04900
H  38.74700 12.12100 35.47600
H  40.06800 12.91900 34.48900
H  41.28600 13.15700 36.34100
H  40.92700 11.41200 36.96300
H  35.62500 7.14600 32.07800
H  34.92700 6.47600 30.64700
H  34.23100 7.91900 31.17900
H  33.59000 7.39500 28.66900
H  34.52500 5.95400 28.76300
H  33.87800 6.45700 27.15100
H  39.05400 10.63600 25.30800
H  42.08000 10.07400 25.26200
H  39.52600 7.89900 24.93200
H  40.81300 8.57200 24.08100
H  39.16700 9.16100 23.71900
H  40.88600 12.07600 23.97500
H  42.39400 12.50500 24.85400
H  40.07300 14.02600 24.95400
H  41.48300 14.06200 25.95000
H  40.12100 13.13100 26.50000
H  45.31400 13.68500 29.64800
H  45.02000 13.06900 28.10300
H  45.86500 12.09700 29.46100
H  42.37900 12.94200 34.02200
H  44.29100 11.43000 37.66900
H  44.24200 9.91400 36.74200
H  42.83000 10.59900 37.53600

