158

Mg -0.04400 7.76500 27.17800
C  0.74500 9.58700 29.93800
C  0.08900 4.99600 29.17500
C  -0.24700 5.80600 24.31900
C  0.33400 10.56500 25.10100
N  0.45300 7.30000 29.37800
C  0.57100 8.26600 30.33400
C  0.40700 7.66500 31.78000
C  0.61100 6.11600 31.45800
C  0.31800 6.12400 29.95300
C  1.96900 5.58300 31.67900
C  -0.91600 7.99000 32.47200
C  -0.92800 8.44700 33.93900
H  0.19900 7.88900 34.81000
N  -0.07800 5.66500 26.77500
C  -0.13000 4.68800 27.74700
C  -0.35000 3.36300 27.15200
C  -0.54300 3.65200 25.70700
C  -0.33100 5.08400 25.57300
C  -0.49500 2.04100 27.86300
C  -0.92900 2.77600 24.55500
O  -1.28400 3.28400 23.47700
C  -0.92900 1.28800 24.67800
N  0.04000 8.12400 25.03400
C  -0.21800 7.20200 24.07500
C  -0.53400 7.77300 22.67000
C  -0.30600 9.33000 23.01000
C  0.01100 9.36100 24.44900
C  0.50200 7.25500 21.57400
C  -1.48300 10.20200 22.69100
C  -2.09400 9.85600 21.32100
N  0.41800 9.75000 27.38000
C  0.55300 10.78100 26.47000
C  1.09700 11.91500 27.14100
C  1.06500 11.57100 28.52100
C  0.70000 10.16000 28.60700
C  1.52600 13.12500 26.39100
C  1.39700 12.03000 29.86900
O  1.88200 13.10500 30.25100
C  0.91000 10.81500 30.83000
C  1.86700 10.63800 31.94500
O  2.96700 10.14900 31.82500
O  1.38900 11.32200 33.01100
C  2.38200 11.55900 34.00200
H  0.09500 4.11200 29.81700
H  -0.36600 5.31800 23.35000
H  0.33700 11.52800 24.58700
H  1.26300 8.09000 32.30400
H  0.01000 5.46000 32.08800
H  2.76700 6.30700 31.84500
H  2.22400 4.97600 30.80900
H  2.00100 4.93900 32.55800
H  -1.63400 7.17100 32.44400
H  -1.32800 8.80200 31.87200
H  -1.88600 8.32000 34.44300
H  -0.68600 9.51000 33.93500
H  -0.26200 2.09000 28.92600
H  0.06100 1.16500 27.52700
H  -1.49500 1.62600 27.73500
H  -1.38200 0.87400 23.77700
H  -1.63700 1.13800 25.49200
H  0.07800 0.95500 24.93100
H  -1.56300 7.44800 22.51700
H  0.48000 9.75700 22.38700
H  1.30100 6.71600 22.08200
H  0.89200 7.99600 20.87700
H  0.00800 6.50900 20.95000
H  -1.45100 11.29000 22.75800
H  -2.19100 10.00400 23.49500
H  -1.64800 9.02400 20.77600
H  -1.89000 10.70500 20.66900
H  -3.16300 9.66300 21.41100
H  2.23000 13.70700 26.98600
H  0.63700 13.65500 26.04900
H  1.87600 12.75500 25.42800
H  -0.04300 11.06300 31.29700
H  2.86900 12.53400 33.98700
H  3.19700 10.84300 34.10900
H  1.90700 11.50300 34.98200
Mg 41.94600 41.86100 27.59100
C  40.83000 44.30900 29.89100
C  42.80000 39.83800 30.17700
C  43.24100 39.74400 25.35100
C  41.39300 44.28200 25.03300
N  41.69100 42.01800 29.76500
C  41.18800 43.12200 30.53000
C  41.21700 42.75800 32.05900
C  42.07200 41.38600 32.06600
C  42.31000 41.07200 30.62100
C  43.34500 41.54500 32.98300
C  39.79000 42.63900 32.73900
C  39.84100 43.17900 34.15900
H  39.39200 42.17500 35.24700
N  42.88600 40.08700 27.67500
C  43.09600 39.32500 28.84800
C  43.43500 37.93800 28.50900
C  43.55400 37.89900 27.10900
C  43.25300 39.28200 26.60700
C  43.69000 36.88700 29.54900
C  43.82300 36.70100 26.19900
O  43.91900 36.77700 24.97000
C  44.14400 35.33300 26.73500
N  42.27000 42.08400 25.54400
C  42.80800 41.04900 24.83200
C  42.80000 41.25500 23.30300
C  41.93200 42.57100 23.24800
C  41.96000 43.06000 24.68900
C  44.23000 41.36400 22.67400
C  40.48700 42.48400 22.62800
C  39.46000 41.82400 23.59400
N  41.37500 43.95100 27.48000
C  41.06000 44.73800 26.34400
C  40.43500 45.93300 26.78200
C  40.33600 45.82300 28.14900
C  40.96700 44.65600 28.53500
C  40.08200 47.18900 25.99100
C  39.87400 46.45700 29.30700
O  39.23800 47.53100 29.42800
C  40.22100 45.48800 30.51700
C  41.15600 46.16700 31.44900
O  42.36100 46.27200 31.31400
O  40.59000 46.51500 32.68200
C  41.53500 46.99200 33.77000
H  42.97500 39.19700 31.04400
H  43.31900 38.99100 24.56400
H  41.04200 45.01000 24.29900
H  41.71400 43.65300 32.43200
H  41.48900 40.58600 32.52200
H  44.08600 40.78700 32.72900
H  43.03400 41.33600 34.00700
H  43.80700 42.53200 32.96600
H  39.37900 41.62900 32.72400
H  38.93300 43.04300 32.20000
H  39.27400 44.11000 34.17800
H  40.85800 43.40500 34.48200
H  43.20000 35.95400 29.27000
H  43.37200 37.23800 30.53000
H  44.75800 36.67500 29.58500
H  45.05400 35.33800 27.33500
H  44.20700 34.59700 25.93400
H  43.21300 35.07700 27.24100
H  42.26400 40.42100 22.85000
H  42.38200 43.33700 22.61700
H  44.85200 41.93300 23.36500
H  44.15500 41.84400 21.69800
H  44.57200 40.34700 22.48400
H  40.55700 41.96200 21.67300
H  40.21700 43.50700 22.36900
H  39.75000 41.83300 24.64400
H  39.29300 40.80300 23.25200
H  38.50100 42.32600 23.46500
H  39.27400 47.05700 25.27100
H  40.92900 47.31200 25.31600
H  40.00100 48.04200 26.66500
H  39.40300 45.11900 31.13500
H  41.13100 47.62000 34.56400
H  42.41000 47.54400 33.42700
H  41.81200 46.13200 34.38000

