158

Mg 17.09100 -2.32600 27.17900
C  16.17700 -0.36700 29.85900
C  18.94200 -4.26200 29.31600
C  18.36000 -3.90400 24.48500
C  15.73100 0.02300 25.00100
N  17.43800 -2.34200 29.44600
C  16.97100 -1.45100 30.31400
C  17.35000 -1.84700 31.69100
C  18.51000 -2.97400 31.49900
C  18.28900 -3.22200 30.02700
C  19.96600 -2.58000 31.98200
C  16.20600 -2.30700 32.59500
C  16.19800 -1.66000 33.99400
H  17.40300 -1.05600 34.63900
N  18.29800 -3.93400 26.92500
C  18.99400 -4.61300 27.93100
C  19.83100 -5.70200 27.31000
C  19.56700 -5.62700 25.89400
C  18.69300 -4.47000 25.71100
C  20.62900 -6.66100 28.09900
C  20.17600 -6.54200 24.76100
O  19.99300 -6.29300 23.54600
C  21.08700 -7.73700 25.15200
N  16.85500 -2.11200 25.03400
C  17.59100 -2.82000 24.14300
C  17.74300 -2.14100 22.79000
C  16.55900 -1.09600 22.87700
C  16.31800 -1.04300 24.37800
C  19.13800 -1.50100 22.44800
C  15.24700 -1.46600 22.14600
C  14.93100 -0.49200 21.02100
N  15.93600 -0.59400 27.27800
C  15.52600 0.31900 26.36100
C  14.86000 1.41800 27.00900
C  15.10100 1.23900 28.35600
C  15.74100 -0.04400 28.47600
C  14.23900 2.64700 26.30400
C  14.89400 1.83200 29.68300
O  14.25200 2.82000 29.99000
C  15.52600 0.81700 30.64100
C  16.41800 1.52900 31.56500
O  17.62200 1.64000 31.32500
O  15.81000 2.06000 32.65000
C  16.72300 2.96800 33.44300
H  19.56800 -4.84600 29.99400
H  18.78300 -4.36100 23.58800
H  15.37700 0.76700 24.28400
H  17.80000 -0.91600 32.03700
H  18.23800 -3.86800 32.06000
H  19.97400 -1.56900 32.38900
H  20.73600 -2.83200 31.25400
H  20.07000 -3.16600 32.89600
H  16.22900 -3.38100 32.78300
H  15.30400 -1.98900 32.07300
H  15.94100 -2.43600 34.71500
H  15.36600 -0.96000 34.06000
H  20.82200 -6.25800 29.09300
H  21.56200 -6.92600 27.60200
H  20.00900 -7.55100 28.20700
H  20.37500 -8.33200 25.72400
H  22.00300 -7.51600 25.70000
H  21.43800 -8.30200 24.28800
H  17.44400 -2.98000 22.16200
H  16.92400 -0.12800 22.53400
H  20.03500 -2.05100 22.73100
H  19.30800 -0.55000 22.95300
H  19.07200 -1.58700 21.36300
H  14.37800 -1.57000 22.79600
H  15.37700 -2.45800 21.71300
H  13.98000 -0.01800 21.26300
H  14.70700 -1.13400 20.16900
H  15.69200 0.26200 20.82000
H  13.23500 2.35100 25.99900
H  14.85100 2.91600 25.44300
H  14.07300 3.43700 27.03600
H  14.84600 0.37400 31.36700
H  16.22600 3.14600 34.39700
H  16.71800 3.88800 32.85900
H  17.74800 2.61400 33.55600
Mg 6.82900 56.60700 42.61800
C  6.32900 53.08900 42.11500
C  9.97200 56.22500 41.29900
C  7.06900 60.01900 42.36300
C  3.46500 56.89100 43.57400
N  8.01800 54.81400 41.94300
C  7.64000 53.51000 41.74800
C  8.74700 52.61500 41.11800
C  9.95200 53.60900 41.21000
C  9.33700 54.97100 41.56900
C  11.09300 53.05800 42.04300
C  8.31100 52.15100 39.69900
C  8.77600 50.80600 39.26300
H  9.05300 50.53600 37.74300
N  8.31800 57.95200 41.90600
C  9.51600 57.56300 41.40700
C  10.35000 58.72600 41.14500
C  9.57200 59.84700 41.53100
C  8.28300 59.32000 41.94700
C  11.88500 58.57800 40.83400
C  10.04000 61.24000 41.47300
O  11.19100 61.52800 41.22200
C  9.06000 62.38300 41.71500
N  5.38300 58.25700 42.84400
C  5.80700 59.54500 42.89200
C  4.55600 60.48200 43.17400
C  3.37900 59.47800 43.52200
C  4.11800 58.16100 43.36700
C  4.77200 61.61000 44.20500
C  2.12100 59.60500 42.64800
C  0.88000 59.92800 43.51400
N  5.28600 55.31200 42.88700
C  4.04500 55.56900 43.40500
C  3.32600 54.32200 43.58100
C  4.22300 53.39900 43.12900
C  5.32300 53.98800 42.62500
C  1.92500 54.08700 44.19200
C  4.34700 51.95300 42.82000
O  3.49500 51.05100 42.79700
C  5.76200 51.71800 42.19800
C  5.33900 51.16300 40.84800
O  4.67100 51.77900 40.01800
O  5.74500 49.82000 40.73200
C  5.39000 48.98900 39.53100
H  10.96900 56.03100 40.89700
H  7.11100 61.10400 42.47500
H  2.48100 56.86900 44.04600
H  8.89800 51.72900 41.73600
H  10.38500 53.69600 40.21300
H  11.85100 52.73500 41.32900
H  10.85500 52.14100 42.58200
H  11.58100 53.72200 42.75700
H  8.85900 52.81600 39.03200
H  7.27300 52.34700 39.42700
H  8.05400 50.02500 39.50400
H  9.69500 50.54900 39.78900
H  12.08400 57.96300 39.95700
H  12.49300 58.11800 41.61300
H  12.22600 59.58200 40.58200
H  8.77000 62.43300 42.76500
H  8.18900 62.44000 41.06300
H  9.56400 63.34100 41.58300
H  4.24300 61.05700 42.30300
H  3.09600 59.45600 44.57400
H  4.64600 62.62900 43.83700
H  5.79400 61.58800 44.58300
H  4.03900 61.43400 44.99300
H  2.03400 58.69900 42.04800
H  2.23000 60.44500 41.96200
H  0.41200 58.94600 43.58500
H  0.32000 60.68300 42.96200
H  1.17900 60.36800 44.46600
H  1.28500 54.96900 44.18000
H  2.02300 53.81300 45.24300
H  1.37900 53.23200 43.79300
H  6.19100 50.94400 42.83400
H  5.15000 49.67900 38.72100
H  4.39100 48.63600 39.78900
H  6.04200 48.18100 39.19900

