158

Mg 47.18300 25.46200 27.40700
C  47.97700 27.51400 30.15700
C  46.31400 23.03000 29.39700
C  46.90800 23.57600 24.61900
C  48.92800 27.92500 25.33500
N  47.23900 25.31000 29.56600
C  47.53100 26.27500 30.46600
C  47.34300 25.76800 31.92000
C  46.78700 24.28900 31.68000
C  46.86300 24.14400 30.13000
C  47.53600 23.11100 32.36700
C  46.35400 26.65300 32.69700
C  46.92900 27.26200 34.00400
H  45.95400 27.55800 35.09100
N  46.45100 23.59000 27.04200
C  46.08900 22.75200 28.00800
C  45.71100 21.47700 27.40600
C  45.93200 21.57200 26.00300
C  46.43800 22.97600 25.82200
C  45.22900 20.22300 28.22800
C  45.84600 20.45200 24.93500
O  46.34400 20.61300 23.85500
C  45.17000 19.07300 25.24400
N  47.92000 25.67100 25.27500
C  47.46300 24.79400 24.32100
C  47.76100 25.20000 22.92000
C  48.20600 26.64500 23.14800
C  48.38900 26.80600 24.70000
C  48.91600 24.35200 22.23100
C  47.11100 27.71700 22.77600
C  47.53600 29.05800 22.17300
N  48.24300 27.30000 27.66900
C  48.90900 28.13100 26.74800
C  49.26700 29.43900 27.38900
C  49.00900 29.18400 28.81300
C  48.32400 27.90100 28.84100
C  50.06900 30.63000 26.72100
C  49.15100 29.68400 30.14500
O  49.52200 30.79800 30.55400
C  48.60000 28.52800 31.04100
C  49.68100 27.99200 31.81900
O  50.34800 26.97500 31.51000
O  49.90100 28.65200 32.93300
C  51.09200 28.30600 33.76500
H  46.17800 22.22500 30.12300
H  46.84900 22.89200 23.76900
H  49.23200 28.66500 24.59100
H  48.28800 25.81200 32.46000
H  45.75700 24.09800 31.98100
H  46.77800 22.43000 32.75600
H  48.19200 23.50600 33.14200
H  48.09300 22.62300 31.56700
H  45.52000 25.99400 32.93700
H  46.01900 27.46600 32.05200
H  47.26500 28.27700 33.79400
H  47.81700 26.78400 34.41800
H  45.82800 19.36800 27.91400
H  44.23700 19.94500 27.87100
H  45.34800 20.47000 29.28300
H  45.86000 18.50800 25.87100
H  45.03300 18.57100 24.28700
H  44.16300 19.18500 25.64600
H  46.82900 25.12800 22.36000
H  49.15200 26.94200 22.69400
H  48.48900 23.92100 21.32600
H  49.21300 23.49200 22.83100
H  49.83400 24.84800 21.91300
H  46.51200 27.90900 23.66600
H  46.41500 27.27100 22.06500
H  48.56000 29.02900 21.80200
H  47.40000 29.81900 22.94100
H  47.00600 29.27600 21.24600
H  49.98900 30.65500 25.63500
H  51.12600 30.51900 26.96300
H  49.64400 31.57100 27.07000
H  47.90800 28.97900 31.75200
H  51.97700 28.07200 33.17300
H  50.80700 27.41300 34.32200
H  51.37000 29.20100 34.32100
Mg 27.51400 51.20000 25.78600
C  25.72500 52.30900 28.69100
C  30.15900 50.25500 27.80800
C  29.01000 50.04300 23.09700
C  25.05100 52.73900 23.70900
N  27.86400 51.30900 28.02700
C  26.92800 51.67700 28.97300
C  27.64000 51.61200 30.43300
C  29.04100 50.97800 30.14000
C  29.00300 50.87200 28.52100
C  30.27900 51.80800 30.57000
C  26.82000 50.91300 31.53300
C  26.80500 51.48800 32.98000
H  25.74300 50.92100 33.97900
N  29.30400 50.21100 25.56700
C  30.29800 49.87300 26.48800
C  31.38500 49.11300 25.75700
C  30.99000 49.04300 24.41200
C  29.74100 49.74400 24.29000
C  32.58800 48.52200 26.56400
C  31.72500 48.26200 23.27800
O  31.25100 48.18400 22.16000
C  33.15700 47.76400 23.53900
N  27.10800 51.38800 23.71000
C  27.85700 50.78100 22.82100
C  27.09700 50.68900 21.49100
C  25.68300 51.26500 21.80800
C  25.97900 51.91900 23.12200
C  27.88000 51.43300 20.32400
C  24.58400 50.23400 21.99700
C  23.40400 50.25400 21.01800
N  25.79200 52.33300 26.06900
C  24.95600 52.88700 25.11100
C  23.98100 53.63700 25.85600
C  24.18500 53.36500 27.26500
C  25.30900 52.57800 27.35000
C  22.90200 54.48300 25.32400
C  23.66000 53.61300 28.54300
O  22.64800 54.26000 28.86400
C  24.64800 52.97800 29.52400
C  25.01100 53.98300 30.52200
O  25.99300 54.73900 30.40900
O  24.19100 53.84600 31.59600
C  24.50700 54.74700 32.72200
H  30.98300 49.92000 28.44100
H  29.50800 49.67200 22.19900
H  24.34600 53.20000 23.01300
H  27.75600 52.65400 30.72900
H  29.23500 49.98400 30.54300
H  30.00800 52.42800 31.42500
H  30.85900 52.38100 29.84700
H  30.93700 51.10200 31.07700
H  27.23000 49.91500 31.68600
H  25.85300 50.59500 31.14500
H  26.83900 52.57700 32.95100
H  27.78200 51.22000 33.38200
H  32.53900 48.52800 27.65300
H  33.56400 48.96000 26.35600
H  32.55800 47.47600 26.25600
H  32.91000 46.88300 24.13100
H  33.75800 48.50200 24.07100
H  33.65700 47.48800 22.61100
H  26.92400 49.61600 21.40700
H  25.41800 52.09100 21.14900
H  28.96100 51.53100 20.41900
H  27.47100 52.43100 20.16400
H  27.67500 50.84200 19.43100
H  24.16600 50.30100 23.00100
H  25.03300 49.24700 21.89400
H  23.75100 49.77400 20.10300
H  22.98200 51.24700 20.85700
H  22.69400 49.46100 21.25200
H  23.40100 55.21500 24.68800
H  22.44400 54.97900 26.17900
H  22.11600 53.88100 24.86700
H  24.11100 52.21100 30.08200
H  23.57100 54.72400 33.27900
H  24.83900 55.69700 32.30100
H  25.35800 54.22100 33.15500

