158

Mg -1.82100 17.43800 26.72500
C  -2.10300 14.92600 29.20500
C  -2.44600 19.90100 28.93400
C  -1.86900 19.66200 24.07900
C  -1.92900 14.86200 24.39200
N  -2.13500 17.35300 28.89600
C  -2.23500 16.25700 29.74400
C  -2.45600 16.72300 31.22000
C  -2.63100 18.33500 31.01900
C  -2.46100 18.58000 29.49800
C  -4.08000 18.75600 31.49000
C  -1.48100 16.11500 32.27400
C  -1.28100 16.85100 33.64100
H  -1.55100 16.00900 34.94900
N  -2.02800 19.48300 26.51000
C  -2.21200 20.36400 27.60500
C  -2.19800 21.76600 27.09700
C  -2.11000 21.66500 25.69000
C  -1.98800 20.23100 25.37400
C  -2.39600 22.95000 28.00100
C  -2.19600 22.75300 24.69200
O  -1.89200 22.64900 23.49800
C  -2.60600 24.10900 25.04700
N  -1.88400 17.24400 24.55800
C  -1.81200 18.29600 23.65800
C  -1.68600 17.79800 22.15100
C  -1.72300 16.30800 22.30200
C  -1.83500 16.10800 23.83400
C  -2.78300 18.28200 21.14800
C  -0.45400 15.64900 21.62400
C  0.81400 15.25100 22.49500
N  -1.91600 15.38200 26.73500
C  -1.83400 14.48000 25.71000
C  -1.86500 13.11600 26.16000
C  -2.02800 13.25400 27.55600
C  -2.00600 14.65800 27.82200
C  -1.85300 11.90200 25.26700
C  -2.11200 12.53300 28.81700
O  -2.10200 11.34500 29.06100
C  -2.24100 13.64700 29.91000
C  -1.25500 13.32200 31.01400
O  -0.10100 13.72100 31.05200
O  -1.85500 12.55900 31.99200
C  -1.24000 12.31200 33.25400
H  -2.32500 20.64000 29.72900
H  -1.77700 20.40300 23.28200
H  -2.03700 14.10500 23.61300
H  -3.37700 16.17300 31.41200
H  -1.79800 18.73600 31.59700
H  -3.84400 19.40400 32.33400
H  -4.76600 17.94100 31.72000
H  -4.56100 19.34800 30.71100
H  -0.49000 16.04200 31.82500
H  -1.74000 15.09000 32.54000
H  -1.98700 17.68000 33.68000
H  -0.35100 17.41600 33.69800
H  -3.44100 23.25600 27.97600
H  -1.84200 23.86000 27.76900
H  -2.29800 22.62500 29.03700
H  -3.46000 24.13900 25.72300
H  -2.97700 24.46300 24.08500
H  -1.73000 24.73600 25.21300
H  -0.70400 18.02400 21.73500
H  -2.65400 15.97600 21.84100
H  -3.16800 19.25900 21.44200
H  -3.68400 17.67300 21.21000
H  -2.37700 18.39600 20.14300
H  -0.06800 16.15200 20.73800
H  -0.87000 14.67900 21.35300
H  0.96100 16.02300 23.25000
H  1.76400 15.23000 21.96100
H  0.61000 14.28100 22.94900
H  -1.03600 12.03500 24.55700
H  -2.67900 11.79400 24.56400
H  -1.67000 10.91400 25.69100
H  -3.23400 13.49400 30.33200
H  -0.95000 11.26300 33.19100
H  -1.82100 12.44000 34.16700
H  -0.32500 12.87500 33.43900
Mg 30.16400 58.20900 39.99200
C  27.41000 56.30300 38.74700
C  32.21800 55.54300 39.04700
C  32.76500 60.17500 40.34900
C  28.03100 61.00000 40.18400
N  29.77700 56.20300 39.06400
C  28.56000 55.53700 38.76900
C  28.68000 54.01000 38.48800
C  30.21000 53.83200 38.75800
C  30.79500 55.26800 38.90400
C  30.48700 52.87200 39.94600
C  28.09600 53.57100 37.10700
C  28.87500 54.05600 35.83600
H  28.14800 54.67300 34.56900
N  32.29200 57.88400 39.79300
C  32.87100 56.72400 39.37000
C  34.25600 56.96100 39.42700
C  34.50500 58.35000 39.69700
C  33.17600 58.89300 40.05600
C  35.32500 55.87900 39.18400
C  35.89900 59.07200 39.69600
O  36.97900 58.48500 39.46700
C  35.96700 60.55100 40.18400
N  30.40200 60.28000 40.15200
C  31.57900 60.84200 40.44400
C  31.50300 62.31300 40.60000
C  29.98600 62.58500 40.71000
C  29.39800 61.23700 40.33800
C  32.27600 62.88200 41.84700
C  29.34800 63.81600 39.92700
C  28.19300 64.50500 40.72600
N  28.14300 58.59100 39.59300
C  27.42400 59.84800 39.77300
C  26.02400 59.58800 39.39400
C  25.99600 58.24300 39.03000
C  27.30600 57.68300 39.13400
C  24.85200 60.47700 39.45500
C  25.08100 57.19600 38.63500
O  23.88700 57.17600 38.47800
C  25.95300 55.89800 38.51600
C  25.44200 55.02400 39.65900
O  25.25200 55.35200 40.80400
O  25.18900 53.72100 39.16200
C  24.65300 52.75800 40.17800
H  32.94100 54.73800 38.89500
H  33.54700 60.92000 40.51100
H  27.33000 61.83600 40.14400
H  28.00600 53.65200 39.26600
H  30.68100 53.58600 37.80600
H  30.75200 53.54400 40.76200
H  31.26700 52.11800 39.83600
H  29.51200 52.51600 40.27600
H  27.03600 53.79000 36.97700
H  28.04000 52.48400 37.04300
H  29.40300 53.18300 35.45200
H  29.60200 54.75800 36.24400
H  36.27000 56.20500 38.74900
H  34.98800 55.05700 38.55300
H  35.59600 55.52800 40.18000
H  35.52500 60.62900 41.17700
H  35.37000 61.12800 39.47600
H  36.97100 60.96000 40.07200
H  31.95100 62.69500 39.68300
H  29.95600 62.66000 41.79700
H  33.24400 63.20300 41.46200
H  32.39700 62.19600 42.68500
H  31.77800 63.72600 42.32400
H  28.83900 63.31600 39.10300
H  30.06700 64.59200 39.66500
H  27.34800 64.70900 40.06900
H  28.52000 65.41200 41.23600
H  27.83300 63.87700 41.54100
H  24.79600 61.00500 38.50400
H  24.91000 61.28900 40.18100
H  24.02500 59.79700 39.66000
H  25.67200 55.47300 37.55300
H  24.11300 51.99300 39.62000
H  23.87600 53.17300 40.82100
H  25.36800 52.24200 40.81800

