158

Mg 49.09800 34.02500 26.15000
C  46.96900 33.11900 28.78700
C  49.39900 37.13600 27.56800
C  50.83400 35.10200 23.42200
C  48.20500 31.13000 24.44000
N  48.06600 35.06700 27.95700
C  47.57400 34.39900 29.05200
C  47.43300 35.28000 30.26600
C  48.02500 36.66000 29.76500
C  48.53000 36.29000 28.31100
C  47.12000 37.83300 30.00300
C  48.08300 34.79700 31.59300
C  47.18700 35.02400 32.84400
H  47.54500 36.17100 33.82200
N  50.00500 35.87700 25.60700
C  50.03700 37.01500 26.32400
C  50.82000 37.96100 25.76400
C  51.27700 37.42300 24.50600
C  50.66200 36.06400 24.44500
C  51.17400 39.27300 26.38400
C  52.15700 38.09100 23.48300
O  52.43200 37.56100 22.45400
C  52.94600 39.34600 23.74200
N  49.47800 33.16700 24.16000
C  50.30200 33.79000 23.29200
C  50.68700 32.90100 22.12400
C  49.63400 31.70000 22.27700
C  49.06700 31.93300 23.68100
C  50.44800 33.52200 20.68900
C  50.17500 30.22200 22.03400
C  50.97900 29.93500 20.78000
N  47.88800 32.38200 26.57100
C  47.59400 31.30600 25.75600
C  46.68000 30.38800 26.45300
C  46.44800 31.07900 27.67800
C  47.12900 32.30600 27.69200
C  46.25700 28.93100 25.95000
C  45.75400 30.97100 28.91000
O  45.05200 30.05400 29.35900
C  45.98900 32.32100 29.60100
C  46.22900 31.98000 31.05100
O  47.29700 31.71900 31.52900
O  45.09100 31.98900 31.77400
C  45.19900 31.67400 33.25700
H  49.72100 37.96800 28.19800
H  51.45500 35.47300 22.60400
H  48.00000 30.16600 23.97000
H  46.35400 35.36400 30.38900
H  48.90500 37.05100 30.27600
H  46.16900 37.45300 30.37800
H  46.97100 38.26300 29.01200
H  47.55200 38.59000 30.65700
H  48.78500 35.61600 31.75100
H  48.48900 33.79300 31.46800
H  47.01800 34.09900 33.39400
H  46.18000 35.31900 32.54900
H  50.75300 39.53800 27.35400
H  50.91500 40.16600 25.81700
H  52.24900 39.19800 26.54900
H  53.47400 39.26600 24.69200
H  52.23500 40.14300 23.95900
H  53.64700 39.63000 22.95800
H  51.72300 32.57800 22.23500
H  48.78100 31.84400 21.61300
H  50.05400 32.79900 19.97600
H  51.42200 33.70000 20.23400
H  49.84100 34.42700 20.64600
H  49.23300 29.68800 21.90900
H  50.56300 29.72800 22.92500
H  50.54800 29.20900 20.09100
H  51.96700 29.55400 21.03800
H  51.16800 30.88200 20.27400
H  46.81300 28.22400 26.56700
H  46.29500 28.73900 24.87800
H  45.24100 28.75300 26.30300
H  44.98300 32.71600 29.46000
H  45.52300 32.64200 33.64000
H  46.01300 31.00900 33.54400
H  44.26500 31.32100 33.69400
Mg -12.69000 15.77100 42.43400
C  -9.48900 14.38300 42.49800
C  -11.32200 18.58300 40.84000
C  -15.77300 16.97900 41.93300
C  -13.98900 12.61200 43.18900
N  -10.65000 16.34200 41.69700
C  -9.47800 15.61700 41.89200
C  -8.31100 16.23100 41.12000
C  -8.93500 17.65100 40.71200
C  -10.44000 17.55200 41.11700
C  -8.39200 18.96800 41.34300
C  -8.02800 15.36400 39.82200
C  -6.54300 15.27000 39.40200
H  -6.16700 16.10500 38.20500
N  -13.42900 17.59200 41.51400
C  -12.70400 18.59800 40.94200
C  -13.66900 19.64500 40.45400
C  -15.00900 19.22700 40.91500
C  -14.79900 17.86700 41.46600
C  -13.24100 21.07800 39.91300
C  -16.28800 19.99200 40.67700
O  -16.35600 21.08600 40.13900
C  -17.63800 19.53800 41.20600
N  -14.59000 14.85300 42.39200
C  -15.71000 15.63500 42.25100
C  -16.95100 14.74500 42.49400
C  -16.38700 13.29700 42.77600
C  -14.87000 13.60300 42.76400
C  -17.89900 15.37000 43.53300
C  -16.81400 12.19000 41.75200
C  -18.01100 11.27600 42.28300
N  -11.89700 13.85100 42.93700
C  -12.52300 12.67300 43.25700
C  -11.54600 11.71600 43.59400
C  -10.29400 12.33800 43.25400
C  -10.61100 13.64900 42.82900
C  -11.75900 10.35300 44.19800
C  -8.79500 12.15500 43.24400
O  -8.05600 11.18900 43.53500
C  -8.20200 13.52000 42.64800
C  -7.14200 14.14400 43.60700
O  -7.28600 14.75000 44.64300
O  -5.87500 13.89700 43.01700
C  -4.76400 14.62600 43.64900
H  -11.06600 19.59600 40.52200
H  -16.79900 17.30800 41.75800
H  -14.38200 11.63100 43.46600
H  -7.52700 16.27300 41.87700
H  -9.01800 17.81100 39.63700
H  -9.11300 19.08100 42.15200
H  -8.46400 19.75800 40.59600
H  -7.38600 18.90300 41.75900
H  -8.53600 15.69400 38.91600
H  -8.50100 14.39000 39.94900
H  -6.33700 14.22000 39.19900
H  -6.00000 15.62200 40.27900
H  -13.98200 21.82400 40.20000
H  -12.99700 21.11300 38.85100
H  -12.36100 21.48600 40.41100
H  -18.00300 18.62300 40.73900
H  -18.29800 20.38500 41.02100
H  -17.45400 19.51600 42.28000
H  -17.55600 14.80300 41.59000
H  -16.47400 12.99300 43.81900
H  -18.92300 15.26100 43.17500
H  -17.67800 16.41000 43.77500
H  -17.80400 14.89700 44.51100
H  -15.99900 11.57100 41.37800
H  -17.22000 12.78000 40.93100
H  -17.64300 10.25200 42.34400
H  -18.74600 11.38400 41.48500
H  -18.36100 11.51500 43.28700
H  -11.91300 9.48800 43.55300
H  -12.62200 10.41700 44.86200
H  -10.88700 10.14600 44.81800
H  -7.68600 13.23400 41.73200
H  -4.23100 14.12000 44.45400
H  -5.03300 15.66300 43.84800
H  -4.01800 14.56700 42.85600

