158

Mg 25.70700 -0.15400 29.52700
C  27.50400 -0.32100 32.48400
C  22.78500 0.05100 31.50500
C  23.86400 0.07400 26.76400
C  28.61100 -0.60800 27.75000
N  25.18900 -0.24700 31.75700
C  26.16200 -0.19500 32.71200
C  25.46800 -0.14400 34.13300
C  23.96900 -0.20500 33.84100
C  23.97400 -0.11300 32.29600
C  23.15500 -1.38900 34.43200
C  25.91800 0.85900 35.18000
C  24.90400 1.61300 36.02300
H  25.37500 2.23700 37.34200
N  23.65300 0.03000 29.17400
C  22.61600 0.14900 30.13200
C  21.37200 0.17000 29.39600
C  21.67200 0.12600 28.00400
C  23.09600 0.13700 27.92000
C  20.04600 0.19100 30.06100
C  20.65000 0.22700 26.85900
O  20.97200 0.15500 25.66300
C  19.22500 0.38400 27.23100
N  26.13300 -0.35000 27.58700
C  25.24000 -0.11200 26.63900
C  25.89200 -0.19600 25.24000
C  27.39400 -0.13100 25.57300
C  27.38600 -0.32900 27.10800
C  25.39300 -1.37100 24.34800
C  28.17100 1.22600 25.24700
C  29.45500 0.95000 24.57000
N  27.67600 -0.55000 29.91800
C  28.83900 -0.69500 29.11200
C  30.01100 -0.86300 29.84600
C  29.57700 -0.63200 31.21700
C  28.15500 -0.55000 31.21900
C  31.34900 -0.97600 29.37400
C  29.96900 -0.48300 32.60400
O  31.10500 -0.43400 33.04400
C  28.63700 -0.28200 33.50300
C  28.50800 -1.31200 34.46800
O  28.21100 -2.46200 34.20500
O  28.87200 -0.83700 35.68800
C  28.91200 -1.78300 36.78500
H  21.90300 -0.03900 32.14300
H  23.25000 0.42800 25.93300
H  29.40900 -0.62300 27.00500
H  25.69500 -1.07800 34.64700
H  23.41400 0.71200 34.03800
H  22.49100 -1.03600 35.22100
H  23.91000 -2.05700 34.84500
H  22.58600 -1.94000 33.68300
H  26.48400 1.57600 34.58500
H  26.64200 0.46200 35.89200
H  24.14300 0.88300 36.30100
H  24.35200 2.36000 35.45300
H  19.53500 -0.75200 29.86700
H  19.46400 1.07000 29.78500
H  20.14600 0.28300 31.14200
H  19.03900 -0.51300 27.82200
H  18.49300 0.35800 26.42300
H  19.18800 1.31400 27.79700
H  25.60400 0.75900 24.80100
H  27.90800 -0.97000 25.10400
H  25.17500 -1.09000 23.31800
H  24.50400 -1.87200 24.73200
H  26.15100 -2.14100 24.49000
H  28.35400 1.75000 26.18500
H  27.53400 1.97000 24.76800
H  30.28300 1.08600 25.26600
H  29.51300 1.59600 23.69400
H  29.59100 -0.06700 24.19900
H  31.83200 -1.72100 30.00700
H  31.87800 -0.03800 29.54500
H  31.43700 -1.23400 28.31900
H  28.56900 0.71200 33.94600
H  29.29700 -2.74000 36.43200
H  27.93000 -1.79600 37.25800
H  29.49200 -1.43100 37.63800
Mg 16.15300 52.44100 26.05100
C  18.13200 51.03000 28.71100
C  13.77300 53.18700 28.30200
C  14.16200 53.32300 23.47100
C  18.34400 50.68600 23.87100
N  15.98100 52.09200 28.28800
C  16.93600 51.66400 29.13600
C  16.45900 51.84900 30.56400
C  15.01200 52.43600 30.48900
C  14.85700 52.54400 28.94600
C  13.86000 51.59000 31.19500
C  17.37800 52.88100 31.39800
C  17.29300 52.76900 32.92100
H  16.21300 51.98800 33.62400
N  14.34600 53.35400 25.89500
C  13.49100 53.64800 26.95600
C  12.44800 54.52100 26.49200
C  12.48200 54.46700 25.03500
C  13.66700 53.69100 24.73200
C  11.31900 55.06600 27.39000
C  11.53500 55.11700 24.08400
O  11.63700 54.95100 22.88100
C  10.42900 56.02800 24.55400
N  16.22600 51.99900 23.99300
C  15.33100 52.52800 23.15400
C  15.67800 52.02900 21.66800
C  17.19400 51.66800 21.78200
C  17.29500 51.40200 23.31200
C  14.67600 50.84300 21.36100
C  18.13900 52.78200 21.27500
C  19.53200 52.37000 20.64900
N  17.94600 51.15600 26.17000
C  18.71900 50.58200 25.20300
C  19.82400 49.90800 25.79100
C  19.70900 50.13200 27.15400
C  18.47800 50.84500 27.39000
C  20.91800 49.24600 24.99500
C  20.39400 49.97600 28.51000
O  21.54200 49.53900 28.73700
C  19.37500 50.58200 29.57300
C  18.90400 49.50700 30.50900
O  18.26400 48.54600 30.13800
O  19.25700 49.78800 31.83200
C  18.85000 48.82700 32.88100
H  12.99300 53.47200 29.01100
H  13.58100 53.55500 22.57500
H  18.90000 50.13200 23.11200
H  16.40700 50.88400 31.06900
H  15.10300 53.45500 30.86600
H  13.44900 51.92900 32.14600
H  14.26500 50.63000 31.51400
H  12.98500 51.46100 30.55800
H  17.09900 53.85700 31.00000
H  18.42400 52.77800 31.11000
H  17.18800 53.77900 33.31800
H  18.24300 52.30700 33.18700
H  11.35400 54.58200 28.36600
H  10.37600 54.83000 26.89800
H  11.28400 56.13600 27.59900
H  10.10600 56.60600 23.68900
H  10.68700 56.75400 25.32500
H  9.57900 55.44600 24.91100
H  15.56900 52.87600 20.99000
H  17.30000 50.69700 21.30000
H  13.99400 50.70700 22.20100
H  15.20200 49.90100 21.20700
H  14.17400 51.05500 20.41700
H  18.36900 53.57200 21.99000
H  17.51200 53.24100 20.51000
H  20.29600 52.96500 21.15100
H  19.55800 52.52000 19.57000
H  19.72100 51.32500 20.89200
H  21.72100 49.17700 25.72900
H  21.06500 49.71000 24.02000
H  20.57200 48.23800 24.76400
H  19.93200 51.35100 30.10900
H  18.32300 47.95500 32.49300
H  18.19500 49.34400 33.58200
H  19.71100 48.42500 33.41600

