158

Mg 48.61500 44.95300 43.00900
C  45.18200 44.80100 42.47100
C  48.64300 41.65000 42.34200
C  51.93900 45.14500 43.20800
C  48.38500 48.39500 43.19900
N  47.10700 43.43700 42.32400
C  45.81700 43.54800 42.23600
C  45.00700 42.28100 41.97300
C  46.15500 41.24400 42.16300
C  47.39800 42.17300 42.16300
C  46.09200 40.48100 43.49700
C  44.29400 42.14700 40.52300
C  44.83700 42.99400 39.31800
H  44.77500 42.31000 37.91300
N  50.08000 43.63000 42.75100
C  49.89000 42.25100 42.59900
C  51.18900 41.51700 42.64500
C  52.14600 42.54300 42.92700
C  51.41700 43.90000 42.97600
C  51.30300 40.02400 42.53000
C  53.62800 42.25400 43.06000
O  54.05500 41.17100 42.76200
C  54.58000 43.36300 43.37800
N  49.98900 46.57900 42.98200
C  51.31900 46.39600 43.21900
C  52.10200 47.74200 43.44000
C  50.95600 48.82200 43.50200
C  49.67200 47.88900 43.14000
C  53.00300 47.77800 44.71800
C  51.16200 50.06400 42.56900
C  50.94400 51.45800 43.27500
N  47.10500 46.36200 42.97500
C  47.15100 47.68000 43.00200
C  45.80700 48.25100 42.82100
C  45.01300 47.15300 42.73900
C  45.83000 46.02300 42.68700
C  45.44700 49.71600 42.69900
C  43.67800 46.70300 42.60200
O  42.64000 47.38200 42.46400
C  43.74600 45.16100 42.45500
C  43.06000 44.48300 43.51100
O  42.12100 43.75800 43.30500
O  43.76100 44.68000 44.71300
C  43.42600 43.63200 45.70300
H  48.53600 40.57200 42.21000
H  53.02700 45.24200 43.20000
H  48.24000 49.47300 43.29900
H  44.26300 42.25300 42.76800
H  46.13800 40.51200 41.35600
H  45.17200 40.42500 44.07900
H  46.84300 40.82600 44.20700
H  46.30600 39.44000 43.25400
H  43.22300 42.34100 40.58800
H  44.35900 41.11000 40.19400
H  45.90900 43.09100 39.49600
H  44.32700 43.95700 39.27300
H  51.52000 39.78700 41.48900
H  50.49800 39.33900 42.79900
H  52.16100 39.68500 43.11100
H  54.23500 44.04100 44.15900
H  54.77100 43.89700 42.44700
H  55.55800 42.97500 43.66300
H  52.74000 47.97400 42.58700
H  50.76400 49.14400 44.52600
H  54.02100 48.16600 44.68900
H  53.14100 46.78800 45.15300
H  52.50600 48.25800 45.56100
H  50.53400 50.03800 41.67900
H  52.21100 49.98700 42.28500
H  50.61400 51.38600 44.31100
H  50.17100 51.97600 42.70800
H  51.88000 52.01700 43.28800
H  45.66800 50.09700 41.70200
H  46.07400 50.23100 43.42700
H  44.37600 49.77500 42.89300
H  43.26700 44.88300 41.51600
H  42.42600 43.79800 46.10500
H  44.20500 43.74400 46.45700
H  43.53200 42.67100 45.20100
Mg -2.45600 34.31300 26.53100
C  -3.97400 32.45000 29.13500
C  -1.05800 36.24700 29.00000
C  -1.16200 36.16800 24.22200
C  -4.14800 32.33200 24.18700
N  -2.67300 34.39200 28.89700
C  -3.12700 33.43800 29.70200
C  -2.93900 33.81100 31.16400
C  -2.13600 35.14800 31.04200
C  -1.91800 35.29600 29.53200
C  -2.90600 36.39400 31.66600
C  -2.22400 32.76800 32.03100
C  -2.92400 32.36700 33.33300
H  -2.25200 32.36100 34.69100
N  -1.19700 36.00100 26.55300
C  -0.82000 36.69600 27.65500
C  -0.09300 37.83500 27.24200
C  -0.15700 37.94900 25.87900
C  -0.82800 36.70600 25.46200
C  0.64000 38.73500 28.25700
C  0.27900 39.09700 24.93700
O  -0.05300 39.07900 23.75100
C  1.03400 40.26300 25.34100
N  -2.62200 34.21800 24.42700
C  -1.96600 35.05700 23.67800
C  -2.21200 34.77000 22.18100
C  -2.95700 33.42000 22.20900
C  -3.22000 33.26100 23.69200
C  -2.98000 35.88600 21.42000
C  -2.28100 32.30000 21.49400
C  -1.53400 31.30300 22.42500
N  -3.75300 32.74800 26.59000
C  -4.34000 32.04400 25.54300
C  -5.20200 31.06800 26.13500
C  -5.11300 31.14300 27.50600
C  -4.21500 32.23200 27.73300
C  -6.17600 30.23800 25.29600
C  -5.58700 30.62300 28.79500
O  -6.39700 29.73600 29.05200
C  -4.80600 31.45900 29.91700
C  -5.83200 32.13500 30.87500
O  -6.43300 33.18500 30.65100
O  -5.91500 31.46800 32.01200
C  -6.98000 31.87900 32.99800
H  -0.46100 36.74100 29.77000
H  -0.62900 36.69700 23.42900
H  -4.54100 31.65200 23.42900
H  -3.92600 34.08600 31.53600
H  -1.20700 35.18300 31.61100
H  -3.73300 36.65500 31.00600
H  -2.15000 37.15800 31.85000
H  -3.34200 36.20000 32.64600
H  -1.31000 33.18000 32.45700
H  -2.14800 31.84700 31.45200
H  -3.15800 31.31100 33.19800
H  -3.86600 32.89900 33.46600
H  1.37800 39.42800 27.85100
H  1.14700 38.13700 29.01500
H  -0.18300 39.40500 28.50900
H  0.52200 40.95400 26.01100
H  1.32600 40.83800 24.46200
H  1.97000 39.86300 25.73200
H  -1.22300 34.55400 21.77700
H  -3.99300 33.53200 21.88800
H  -3.98600 35.56900 21.14400
H  -2.38600 36.11500 20.53600
H  -3.04500 36.78500 22.03200
H  -1.53300 32.59800 20.76000
H  -3.11700 31.70000 21.13300
H  -2.26100 30.62300 22.87000
H  -0.96800 31.77400 23.22800
H  -0.90800 30.67700 21.78800
H  -5.67700 29.75100 24.45900
H  -6.96500 30.85700 24.86900
H  -6.63000 29.47700 25.93000
H  -4.30600 30.78700 30.61500
H  -6.44100 32.39300 33.79400
H  -7.37300 30.99700 33.50400
H  -7.84100 32.40100 32.58100

