158

Mg 16.69400 51.50600 25.54200
C  18.30200 50.59700 28.42800
C  13.98000 52.46200 27.53300
C  15.03800 52.14800 22.83300
C  19.27800 50.02900 23.68500
N  16.28700 51.65100 27.74300
C  17.11100 51.20600 28.73700
C  16.58600 51.48000 30.14700
C  15.10000 51.98800 29.84000
C  15.13700 52.15700 28.27800
C  13.73600 51.24500 30.30300
C  17.51900 52.38300 31.10600
C  17.89200 51.92800 32.51300
H  16.94100 51.02500 33.35500
N  14.75300 52.15900 25.23600
C  13.83200 52.51800 26.11500
C  12.64500 53.06600 25.45000
C  12.91800 53.08100 24.06700
C  14.27200 52.39600 23.95300
C  11.51200 53.59700 26.16100
C  12.07300 53.57500 22.88400
O  12.53100 53.68700 21.73300
C  10.65400 53.84900 23.20100
N  17.03700 51.07900 23.52700
C  16.23200 51.50000 22.57200
C  16.80700 51.10800 21.15600
C  18.23000 50.77800 21.55200
C  18.17000 50.55100 23.03100
C  15.97500 49.97000 20.54100
C  19.29100 51.89200 21.17800
C  20.73200 51.43800 20.90500
N  18.49300 50.59400 25.90700
C  19.39300 49.99300 25.11400
C  20.45100 49.36200 25.87600
C  19.97700 49.52600 27.15600
C  18.85000 50.32100 27.16500
C  21.69000 48.65400 25.31100
C  20.32400 49.22700 28.52800
O  21.22300 48.62500 29.02200
C  19.19000 49.82200 29.41100
C  18.61700 48.78700 30.32500
O  17.76400 47.92200 30.07400
O  19.33200 48.92300 31.50400
C  19.28500 47.89400 32.50300
H  13.09300 52.69600 28.12500
H  14.56400 52.33300 21.86700
H  20.13300 49.61400 23.14700
H  16.44900 50.47600 30.55000
H  14.96000 52.95700 30.31900
H  13.18700 50.78600 29.48100
H  13.12000 52.03400 30.73600
H  13.89700 50.47600 31.05800
H  17.22900 53.43400 31.09900
H  18.46800 52.46100 30.57400
H  18.00200 52.82200 33.12700
H  18.90900 51.53600 32.52800
H  11.77400 54.09400 27.09500
H  10.87500 52.74300 26.39200
H  11.02200 54.33700 25.52900
H  10.54000 54.85600 23.60200
H  10.20300 52.97900 23.67800
H  10.07600 53.80200 22.27800
H  16.73600 52.04800 20.60700
H  18.53400 49.84300 21.08300
H  15.38500 49.55300 21.35700
H  16.50000 49.12700 20.09100
H  15.23900 50.42000 19.87400
H  19.23200 52.58100 22.02100
H  18.95100 52.39400 20.27300
H  21.49600 52.00500 21.43800
H  20.79100 51.70600 19.85000
H  20.85800 50.37100 21.08600
H  22.40300 49.47800 25.34500
H  21.44300 48.32100 24.30300
H  21.83400 47.76600 25.92500
H  19.72600 50.54700 30.02300
H  19.89900 47.04600 32.19600
H  18.24000 47.67000 32.71800
H  19.70500 48.25600 33.44200
Mg -0.26900 43.42500 26.85700
C  1.71800 43.35700 29.77200
C  -2.95100 42.27700 28.76100
C  -2.17100 43.55600 24.09500
C  2.57600 44.06300 24.90200
N  -0.55600 42.93100 29.04400
C  0.35600 43.00700 30.04100
C  -0.27200 42.76800 31.35600
C  -1.63600 42.05700 30.96800
C  -1.74800 42.47100 29.50600
C  -1.60700 40.50200 31.00000
C  -0.39600 44.10900 32.15700
C  0.17800 44.11800 33.66200
H  -0.20100 42.89300 34.58600
N  -2.31100 43.01200 26.46100
C  -3.16400 42.54200 27.40600
C  -4.46100 42.40600 26.71600
C  -4.30600 42.82100 25.34700
C  -2.90200 43.23100 25.26400
C  -5.72400 41.87400 27.43000
C  -5.28000 42.87000 24.24300
O  -4.99400 43.26900 23.10200
C  -6.64600 42.36900 24.37600
N  0.08700 43.75700 24.75300
C  -0.85600 43.78000 23.83100
C  -0.32300 44.41000 22.46800
C  1.15800 44.50300 22.83300
C  1.29500 44.04200 24.28100
C  -0.53100 43.49900 21.26900
C  1.76000 45.86500 22.39900
C  1.73600 47.02400 23.45700
N  1.74900 43.71900 27.18000
C  2.81700 43.90300 26.29700
C  4.02500 44.03200 27.07600
C  3.65100 43.80500 28.39100
C  2.26700 43.58400 28.43200
C  5.39700 44.37500 26.50900
C  4.12900 43.69300 29.77200
O  5.27200 43.68700 30.21800
C  2.87300 43.51600 30.71100
C  3.23900 42.35300 31.60500
O  2.93300 41.16700 31.39700
O  3.88900 42.77800 32.72200
C  4.37300 41.77800 33.64400
H  -3.68700 41.66300 29.28400
H  -2.80600 43.77100 23.23300
H  3.46400 44.46200 24.40700
H  0.32700 42.06700 31.93800
H  -2.47900 42.37600 31.58100
H  -2.07200 40.11500 31.90700
H  -0.57600 40.15200 30.95100
H  -2.16300 40.09600 30.15500
H  -1.41400 44.49600 32.19900
H  0.08400 44.83200 31.49700
H  -0.15800 45.03100 34.15400
H  1.25800 44.25700 33.61300
H  -6.59600 42.52400 27.35900
H  -5.46500 41.62800 28.46000
H  -5.76100 40.95100 26.85100
H  -6.46600 41.36500 24.75900
H  -7.29300 42.63400 23.54000
H  -7.06000 42.92700 25.21600
H  -0.83800 45.36700 22.38500
H  1.64000 43.73000 22.23500
H  -1.59600 43.49700 21.03900
H  -0.29200 42.46200 21.50600
H  0.01000 43.72100 20.35000
H  1.28400 46.22700 21.48800
H  2.75100 45.60700 22.02400
H  1.38700 47.90700 22.92200
H  2.80200 47.16100 23.64000
H  1.15800 46.81300 24.35700
H  5.90700 43.41100 26.52300
H  5.91400 45.03600 27.20500
H  5.32600 44.83800 25.52500
H  2.70400 44.42900 31.28100
H  3.58900 41.41000 34.30500
H  5.19300 42.20700 34.22100
H  4.82900 40.96200 33.08300

