158

Mg 48.18300 46.03100 43.48500
C  44.75400 46.07600 42.54900
C  48.25200 42.72300 42.39200
C  51.50500 46.20300 43.12000
C  47.96900 49.58900 43.49000
N  46.58700 44.57600 42.69000
C  45.29800 44.77300 42.40100
C  44.55400 43.46200 42.04800
C  45.72500 42.41000 42.26600
C  46.94900 43.26900 42.53600
C  45.45600 41.39300 43.34900
C  43.94700 43.39700 40.54800
C  44.63700 44.16900 39.40800
H  44.98300 43.32000 38.11600
N  49.66400 44.59700 43.13500
C  49.44900 43.30900 42.81200
C  50.71700 42.63400 42.68700
C  51.75200 43.58100 42.92800
C  50.98900 44.86500 43.16700
C  50.87300 41.25200 42.27100
C  53.20800 43.32600 42.89900
O  53.57500 42.24900 42.51600
C  54.24400 44.35100 43.13600
N  49.53800 47.64900 43.12800
C  50.86700 47.44900 43.16100
C  51.65800 48.83900 43.12600
C  50.49100 49.85100 43.39900
C  49.23100 48.96600 43.31500
C  52.86300 49.07900 44.02700
C  50.58200 51.10500 42.40300
C  50.20200 52.45300 43.06300
N  46.70400 47.57200 43.29800
C  46.77000 48.94500 43.38600
C  45.46300 49.52800 43.24300
C  44.63400 48.45400 42.88200
C  45.44400 47.26400 42.96600
C  45.18700 50.95800 43.33800
C  43.31800 48.13800 42.43700
O  42.35100 48.82700 42.20500
C  43.29500 46.57500 42.23100
C  42.29000 45.95000 43.21100
O  41.67500 44.92600 42.92200
O  42.21600 46.56800 44.44100
C  41.10500 46.20700 45.32200
H  48.18300 41.69300 42.03700
H  52.57800 46.27600 42.92800
H  48.07700 50.67100 43.38900
H  43.70900 43.29800 42.71600
H  46.11000 41.86500 41.40500
H  46.11500 41.44700 44.21500
H  45.57400 40.37000 42.99100
H  44.50300 41.46300 43.87500
H  42.95400 43.84500 40.55300
H  43.77100 42.35600 40.27500
H  45.50700 44.65900 39.84600
H  44.00000 45.00900 39.13100
H  50.01400 40.64600 42.55900
H  51.76000 40.84200 42.75500
H  51.04300 41.15300 41.19900
H  54.42700 44.99700 42.27800
H  55.15500 43.86400 43.48200
H  54.01900 44.86900 44.06800
H  51.96800 49.11300 42.11800
H  50.47700 50.20200 44.43100
H  52.81000 50.02700 44.56200
H  53.73800 49.01800 43.38000
H  52.99800 48.27500 44.75100
H  49.95100 50.88300 41.54300
H  51.60200 51.15900 42.02200
H  49.28100 52.79100 42.58800
H  50.91600 53.17300 42.66300
H  50.19800 52.53900 44.15000
H  44.22000 51.24300 42.92300
H  46.00300 51.59500 42.99600
H  45.21200 51.16000 44.40900
H  43.02300 46.34800 41.20000
H  41.16500 45.15600 45.60400
H  40.13500 46.31600 44.83800
H  41.22500 46.81400 46.21900
Mg 1.19100 41.97100 24.79800
C  3.32100 41.65600 27.60000
C  -1.47800 41.44500 26.85300
C  -0.59900 41.77300 22.08600
C  4.18800 42.31500 22.74800
N  0.98100 41.52000 26.91400
C  2.00000 41.56200 27.95500
C  1.46300 41.56100 29.33100
C  -0.05100 41.44700 29.04100
C  -0.25400 41.49300 27.48200
C  -0.90600 40.30500 29.72600
C  1.83700 42.85000 30.17900
C  2.12300 42.58200 31.69200
H  1.72400 41.15100 32.34500
N  -0.73900 41.66800 24.53000
C  -1.71800 41.47900 25.46300
C  -3.00500 41.26000 24.83300
C  -2.78400 41.25500 23.43600
C  -1.32300 41.63800 23.29500
C  -4.29600 40.93600 25.68400
C  -3.79800 40.93700 22.33100
O  -3.41600 41.09000 21.18200
C  -5.18600 40.63800 22.62300
N  1.71100 42.11900 22.70900
C  0.75200 42.05300 21.72200
C  1.28800 42.18400 20.32900
C  2.74300 42.64000 20.56300
C  2.89900 42.27500 22.09900
C  1.26500 40.90300 19.40200
C  2.97700 44.19900 20.37400
C  3.24500 44.60300 18.97100
N  3.35600 41.95100 25.00900
C  4.41300 42.10900 24.09000
C  5.65800 42.03000 24.84500
C  5.30700 41.81300 26.18300
C  3.88100 41.76700 26.26600
C  7.05500 41.96700 24.27200
C  5.81400 41.71800 27.54700
O  6.91000 41.72100 28.03000
C  4.46500 41.65300 28.43600
C  4.63000 40.49300 29.45500
O  4.12000 39.40900 29.37100
O  5.30000 41.04900 30.52300
C  5.38700 40.38900 31.78200
H  -2.38300 41.38100 27.46000
H  -1.27300 41.86800 21.23200
H  5.11700 42.53300 22.21700
H  1.87100 40.64000 29.74700
H  -0.47000 42.42900 29.25800
H  -1.53100 40.75300 30.49800
H  -0.16500 39.71400 30.26300
H  -1.58300 39.80800 29.03100
H  0.98200 43.52500 30.21800
H  2.61500 43.41200 29.66200
H  1.51600 43.28600 32.26100
H  3.16600 42.77900 31.94000
H  -4.78500 40.01800 25.35800
H  -5.05200 41.71900 25.72400
H  -4.09600 40.74000 26.73800
H  -5.18100 39.77800 23.29300
H  -5.75700 40.54700 21.70000
H  -5.60900 41.46700 23.19100
H  0.83400 42.97000 19.72600
H  3.50400 42.01800 20.09400
H  2.18200 40.70000 18.84900
H  0.55000 41.14100 18.61400
H  1.00600 40.12500 20.12100
H  3.76000 44.58400 21.02800
H  2.01300 44.64800 20.61100
H  4.21200 45.10200 19.03600
H  2.61600 45.37800 18.53400
H  3.34300 43.78200 18.26100
H  7.18000 41.29200 23.42600
H  7.77000 41.79500 25.07600
H  7.07000 42.98800 23.89000
H  4.52300 42.58500 29.00000
H  4.95800 41.10000 32.48800
H  6.43800 40.16200 31.96000
H  5.00000 39.37000 31.80500

