158

Mg 25.31600 1.78000 30.04100
C  27.59200 1.63700 32.94400
C  22.71200 2.18700 32.36500
C  23.33200 1.36300 27.60300
C  28.13600 1.18000 28.07400
N  25.26100 2.00300 32.31900
C  26.25500 1.91900 33.20300
C  25.73800 2.35900 34.65700
C  24.16000 2.39800 34.57600
C  24.02000 2.22000 32.98600
C  23.41400 1.27100 35.40800
C  26.48400 3.71000 35.06000
C  27.02000 3.71300 36.50500
H  26.40700 4.65400 37.55500
N  23.26200 1.94300 29.98000
C  22.33500 2.10500 31.02800
C  21.05700 2.10100 30.54200
C  21.15400 1.80500 29.11900
C  22.59100 1.66200 28.80400
C  19.85900 2.37000 31.38700
C  20.07700 1.58500 28.09800
O  20.24500 1.28300 26.96500
C  18.69300 1.72100 28.46100
N  25.71600 1.50600 28.11800
C  24.66800 1.35800 27.26300
C  25.12400 1.41500 25.67900
C  26.70000 1.59700 25.90500
C  26.89000 1.49600 27.44500
C  24.71400 0.14100 24.90700
C  27.22500 2.98000 25.43700
C  26.66800 3.51800 24.12800
N  27.40600 1.41800 30.37800
C  28.41300 1.14400 29.47600
C  29.63000 0.87600 30.15500
C  29.38000 1.09100 31.50400
C  28.02000 1.41600 31.60000
C  30.92900 0.64500 29.43000
C  29.96600 1.18500 32.82700
O  31.12300 0.99800 33.21800
C  28.82600 1.64200 33.80400
C  28.73200 0.63900 34.88000
O  28.20200 -0.48000 34.92700
O  29.30500 1.18500 36.03700
C  29.15300 0.35700 37.18000
H  22.03300 2.39900 33.19400
H  22.64100 1.33800 26.75800
H  28.93600 1.08700 27.33700
H  25.99000 1.60100 35.39800
H  23.62200 3.30800 34.83800
H  24.14100 0.90100 36.13200
H  23.15700 0.46700 34.71800
H  22.49800 1.60000 35.89800
H  25.74800 4.51100 34.98100
H  27.25400 3.95200 34.32800
H  28.09500 3.88200 36.56500
H  26.81300 2.76600 37.00400
H  19.90600 2.47700 32.47100
H  19.18100 1.52100 31.30100
H  19.30200 3.24800 31.06100
H  18.54700 2.71400 28.88800
H  18.51800 0.92100 29.18000
H  18.11600 1.65100 27.53900
H  24.61500 2.22300 25.15400
H  27.28700 0.83200 25.39700
H  24.13600 0.28900 23.99500
H  23.97200 -0.32500 25.55500
H  25.50200 -0.60200 24.78300
H  28.29400 2.94300 25.23000
H  26.91800 3.63600 26.25100
H  27.36800 4.21900 23.67300
H  25.82500 4.14900 24.40800
H  26.42000 2.75300 23.39200
H  31.52900 0.00600 30.07800
H  31.47100 1.54200 29.13100
H  30.66100 0.04300 28.56200
H  28.90200 2.64300 34.22900
H  30.06800 0.60000 37.72000
H  29.18900 -0.69500 36.89500
H  28.25800 0.61100 37.74800
Mg 42.33200 41.18100 25.62700
C  41.58500 43.44500 28.10800
C  43.47500 39.12400 28.02200
C  43.31300 39.09400 23.25000
C  41.73900 43.58300 23.20200
N  42.53800 41.38400 27.89700
C  41.90300 42.20700 28.64500
C  41.94000 41.81000 30.16600
C  42.66900 40.42100 30.12600
C  42.91200 40.27600 28.59300
C  44.03600 40.29800 31.04100
C  40.56300 41.83600 30.91400
C  40.41200 41.31100 32.26600
H  39.79900 42.08100 33.34600
N  43.26600 39.24100 25.63500
C  43.75800 38.62100 26.69800
C  44.24100 37.34900 26.28700
C  44.25400 37.37200 24.93400
C  43.59900 38.55500 24.54000
C  44.68500 36.27600 27.32600
C  44.76800 36.24600 23.97500
O  44.68000 36.31500 22.74800
C  45.35600 35.07300 24.59900
N  42.32800 41.26500 23.57100
C  42.78500 40.23300 22.78700
C  42.57500 40.49500 21.33100
C  42.12700 41.98200 21.29800
C  42.04900 42.28100 22.76200
C  43.83400 40.27600 20.48100
C  40.84900 42.31100 20.49600
C  40.95300 43.41200 19.45000
N  41.77300 43.13300 25.60300
C  41.59300 44.00600 24.53400
C  41.22800 45.26100 25.09200
C  41.18700 45.13600 26.49800
C  41.51600 43.75000 26.74800
C  40.73400 46.37000 24.24300
C  40.83000 45.80300 27.71300
O  40.47900 46.95500 27.95100
C  41.14000 44.75100 28.88500
C  42.25100 45.27000 29.76800
O  43.40300 45.25200 29.40600
O  41.78400 45.51800 31.04700
C  42.86900 45.65200 32.10900
H  43.73400 38.33700 28.73200
H  43.54100 38.36100 22.47300
H  41.42600 44.31100 22.45100
H  42.52700 42.54500 30.71500
H  42.02600 39.69200 30.62000
H  44.03000 41.15800 31.71200
H  44.92800 40.19900 30.42300
H  43.94100 39.42700 31.68900
H  39.89600 41.19300 30.34100
H  40.15100 42.84500 30.93400
H  41.40000 40.99000 32.59700
H  39.91600 40.36800 32.03900
H  44.22700 35.32100 27.06800
H  44.42000 36.49900 28.36000
H  45.77000 36.27100 27.22400
H  44.57800 34.49100 25.09400
H  46.05600 35.39200 25.37000
H  45.86800 34.56300 23.78300
H  41.74200 39.94900 20.88900
H  42.95400 42.55000 20.87100
H  43.96000 39.24400 20.15300
H  44.68600 40.54500 21.10500
H  43.80400 40.82400 19.54000
H  40.00800 42.50300 21.16200
H  40.53200 41.46100 19.89200
H  40.27000 44.23600 19.65600
H  40.58000 43.11500 18.47000
H  41.99600 43.68800 19.29100
H  40.49400 45.94800 23.26700
H  41.58900 47.03200 24.10400
H  39.88600 46.80900 24.76800
H  40.19300 44.61100 29.40700
H  43.11700 44.62600 32.38100
H  42.46900 46.14700 32.99400
H  43.69500 46.20600 31.66400

