158

Mg -1.34400 16.96800 25.91200
C  -1.93100 14.84000 28.76500
C  -1.79600 19.72400 28.02000
C  -1.25200 18.83700 23.26300
C  -1.57300 14.09300 23.97800
N  -1.93800 17.30900 28.12800
C  -2.10500 16.24100 29.11600
C  -2.44900 16.93500 30.47500
C  -2.33900 18.48600 30.23100
C  -1.92300 18.50200 28.72300
C  -3.56100 19.38200 30.59800
C  -1.72700 16.45100 31.76300
C  -1.97300 17.20400 33.08000
H  -1.90200 16.31400 34.27900
N  -1.42700 19.04300 25.63500
C  -1.66900 19.98800 26.60500
C  -1.61300 21.27500 25.96000
C  -1.42200 21.07200 24.60300
C  -1.28800 19.61000 24.45900
C  -1.80300 22.54100 26.79500
C  -1.52100 22.13000 23.52200
O  -1.30300 21.88400 22.31900
C  -1.91500 23.56700 23.90800
N  -1.27300 16.46900 23.86500
C  -1.20800 17.48300 22.92300
C  -1.44900 16.93800 21.46800
C  -1.70300 15.39900 21.74400
C  -1.55300 15.29600 23.28300
C  -2.67400 17.65400 20.69900
C  -0.68100 14.50500 21.00400
C  0.80500 14.64500 21.49000
N  -1.45500 14.89500 26.22100
C  -1.43900 13.84800 25.32400
C  -1.53000 12.66300 26.06900
C  -1.61700 12.97800 27.39500
C  -1.75300 14.34300 27.45800
C  -1.63500 11.25000 25.44000
C  -1.72600 12.45300 28.72400
O  -1.66900 11.26900 29.07900
C  -1.89200 13.61800 29.66400
C  -0.79900 13.59900 30.60400
O  0.31100 14.06400 30.50100
O  -1.22400 12.77500 31.62400
C  -0.38800 12.67900 32.85700
H  -1.76500 20.61300 28.65200
H  -1.31100 19.56400 22.45000
H  -1.87700 13.17000 23.48100
H  -3.50000 16.69500 30.63700
H  -1.43600 18.93600 30.64300
H  -4.10600 18.82500 31.36100
H  -4.18500 19.47400 29.70900
H  -3.32700 20.43200 30.77300
H  -0.69300 16.30700 31.44800
H  -2.20400 15.49700 31.98900
H  -2.96000 17.66300 33.11900
H  -1.18500 17.95500 33.14200
H  -2.77400 22.98100 26.56900
H  -0.97400 23.19500 26.52600
H  -1.85300 22.33700 27.86500
H  -1.80800 24.18400 23.01600
H  -1.24600 23.99000 24.65800
H  -2.91100 23.54700 24.35000
H  -0.55200 17.01400 20.85300
H  -2.72300 15.03400 21.62700
H  -3.26900 16.98600 20.07600
H  -2.36700 18.52200 20.11600
H  -3.34700 17.92500 21.51300
H  -0.70200 14.97900 20.02300
H  -0.99100 13.46400 21.10100
H  0.99000 15.26400 22.36800
H  1.36800 15.07200 20.66000
H  1.17800 13.63200 21.64200
H  -0.93300 11.28000 24.60700
H  -2.66600 10.98700 25.20200
H  -1.26500 10.49700 26.13500
H  -2.89200 13.51200 30.08500
H  -1.03200 12.67400 33.73600
H  0.28400 13.53300 32.93600
H  0.15400 11.73400 32.83100
Mg 17.80600 -2.33300 28.02700
C  16.74200 0.01400 30.54000
C  19.64700 -3.89200 30.60700
C  19.16800 -4.22700 25.69900
C  16.24100 -0.41100 25.59000
N  17.98300 -2.06700 30.34800
C  17.42000 -1.06300 31.06900
C  17.74600 -1.29000 32.55900
C  18.76500 -2.49700 32.55500
C  18.75100 -2.90500 31.06900
C  20.12600 -2.01900 33.06400
C  16.44500 -1.53300 33.47700
C  16.25800 -0.70600 34.70300
H  17.47200 0.00600 35.30700
N  19.15400 -3.84300 28.13000
C  19.69300 -4.44800 29.23600
C  20.48800 -5.55000 28.86200
C  20.37600 -5.65800 27.41900
C  19.50600 -4.53300 27.04000
C  21.32000 -6.44700 29.80500
C  21.10900 -6.58000 26.46600
O  21.09300 -6.48400 25.25600
C  22.00100 -7.65800 27.01100
N  17.86700 -2.14800 25.94900
C  18.43500 -3.11200 25.20500
C  18.33200 -2.79400 23.69000
C  17.32400 -1.61500 23.66700
C  17.06600 -1.40900 25.15700
C  19.68400 -2.51400 22.94100
C  16.03800 -1.87200 22.91000
C  15.54200 -0.93700 21.76800
N  16.73400 -0.59300 28.01200
C  16.17100 0.10200 26.91300
C  15.49700 1.29400 27.41600
C  15.70800 1.28900 28.76700
C  16.46300 0.19000 29.11400
C  14.73800 2.26100 26.63600
C  15.46600 2.00800 30.04100
O  14.80500 3.00600 30.31800
C  16.17700 1.19400 31.18300
C  17.06200 2.11400 31.86700
O  18.30000 2.03900 31.85200
O  16.41100 2.97900 32.76800
C  17.18500 3.90300 33.57600
H  20.20000 -4.33200 31.43900
H  19.49300 -4.85200 24.86500
H  15.67700 0.16600 24.85500
H  18.22200 -0.32800 32.74700
H  18.44900 -3.29900 33.22200
H  20.10000 -1.02000 33.50000
H  20.75200 -1.89100 32.18100
H  20.59700 -2.75500 33.71500
H  16.46800 -2.59600 33.72000
H  15.59300 -1.48100 32.80000
H  15.80700 -1.38500 35.42600
H  15.51800 0.04300 34.42300
H  22.35300 -6.50700 29.46400
H  20.98800 -7.48500 29.83300
H  21.37700 -6.04400 30.81600
H  21.50700 -8.19500 27.82100
H  22.85900 -7.08800 27.36600
H  22.32900 -8.39300 26.27600
H  17.93600 -3.72100 23.27500
H  17.91600 -0.72600 23.44600
H  20.37600 -2.25300 23.74200
H  19.64200 -1.72800 22.18800
H  20.10700 -3.43300 22.53400
H  15.23400 -2.06000 23.62200
H  16.17400 -2.85100 22.45000
H  15.76200 -1.32400 20.77300
H  16.20600 -0.07300 21.75200
H  14.54300 -0.50100 21.79100
H  14.54300 3.17900 27.19100
H  13.83100 1.81100 26.23400
H  15.37300 2.59900 25.81700
H  15.47900 0.83700 31.94100
H  16.78800 4.91500 33.49400
H  18.26000 3.89300 33.39700
H  17.08100 3.63100 34.62700

