158

Mg 25.55000 1.99900 29.18800
C  27.43500 1.55700 32.17400
C  22.82400 2.57600 31.08500
C  23.87200 2.24300 26.32200
C  28.41900 0.86000 27.39000
N  25.19900 2.00600 31.39500
C  26.10700 2.01500 32.35900
C  25.46800 2.32000 33.75500
C  23.96900 2.46200 33.40700
C  23.98100 2.34000 31.87400
C  23.10800 1.41200 34.15900
C  26.23300 3.51000 34.44100
C  26.48600 3.14500 35.92900
H  26.28700 4.13500 37.05600
N  23.64100 2.28000 28.74900
C  22.60000 2.51900 29.67200
C  21.33100 2.59400 29.05500
C  21.61500 2.40600 27.65500
C  23.08300 2.28300 27.53700
C  20.07400 2.52200 29.88900
C  20.62400 2.39100 26.48600
O  20.93300 2.31300 25.31500
C  19.21000 2.37900 26.81400
N  26.05600 1.73400 27.14500
C  25.21300 2.00300 26.15300
C  25.96900 2.28200 24.78400
C  27.34900 1.72100 25.20100
C  27.32600 1.42100 26.67000
C  25.37800 1.60800 23.54500
C  28.64600 2.57700 24.83200
C  28.75700 4.05100 25.40300
N  27.47700 1.16400 29.63400
C  28.50700 0.79100 28.80700
C  29.69200 0.63700 29.53400
C  29.29700 0.87800 30.86900
C  27.98300 1.23200 30.90400
C  31.07400 0.21000 28.97800
C  29.73800 0.90900 32.32200
O  30.82600 0.64300 32.78800
C  28.53900 1.30100 33.16800
C  28.25100 0.22300 34.14800
O  27.76300 -0.80700 33.78100
O  28.55100 0.45700 35.48600
C  28.28200 -0.64600 36.39800
H  21.95900 2.94400 31.64100
H  23.27100 2.22200 25.41000
H  29.30000 0.50500 26.85100
H  25.68600 1.39100 34.28100
H  23.64800 3.44100 33.76200
H  22.74500 0.66400 33.45400
H  22.23700 1.76300 34.71200
H  23.71300 0.93800 34.93300
H  25.49000 4.30600 34.40800
H  27.20300 3.84000 34.07000
H  27.50900 2.77300 35.88700
H  26.05300 2.17800 36.18700
H  20.02900 1.53400 30.34600
H  19.12800 2.69400 29.37600
H  20.09800 3.26200 30.69000
H  19.02600 3.38200 27.19700
H  18.94100 1.58200 27.50700
H  18.65000 2.26000 25.88600
H  25.91200 3.36500 24.67800
H  27.38400 0.69000 24.85000
H  24.83600 0.69000 23.76900
H  26.17400 1.43300 22.82100
H  24.63200 2.25900 23.08900
H  28.62500 2.66200 23.74600
H  29.56100 2.03400 25.06900
H  27.91600 4.28400 26.05500
H  28.89700 4.81000 24.63300
H  29.65500 4.03900 26.02100
H  31.81400 0.22900 29.77800
H  31.45400 0.83900 28.17200
H  30.99000 -0.80100 28.57900
H  28.96800 2.20700 33.59600
H  29.02500 -1.38200 36.09200
H  27.25200 -1.00200 36.37300
H  28.59600 -0.42700 37.41900
Mg 35.91200 2.50900 30.52600
C  33.72200 3.60100 32.90200
C  38.40000 2.47400 32.96700
C  38.19300 1.65200 28.05100
C  33.49700 2.78100 28.05000
N  36.03500 3.08600 32.67800
C  34.99500 3.35000 33.44400
C  35.37100 3.42800 34.95800
C  36.86600 3.21400 34.92700
C  37.13400 2.89200 33.45500
C  37.72200 4.32400 35.50100
C  34.60400 2.30500 35.69100
C  34.07700 2.79700 37.08900
H  34.97400 3.65500 38.00700
N  37.94500 2.17900 30.50400
C  38.77400 2.18200 31.61400
C  40.10500 1.72000 31.12600
C  40.03500 1.29700 29.79500
C  38.68600 1.69100 29.39000
C  41.34800 1.48200 32.06700
C  41.13000 0.61300 28.82100
O  40.90600 0.07300 27.75700
C  42.50600 0.49700 29.30700
N  35.82500 2.14800 28.40200
C  36.86100 1.91500 27.60100
C  36.63300 1.83000 26.09600
C  35.01000 2.09200 26.11900
C  34.72400 2.28300 27.65800
C  37.40100 2.97900 25.41700
C  34.20300 0.86300 25.59800
C  33.00600 1.25700 24.64900
N  34.00600 3.00300 30.43300
C  33.13100 3.14600 29.38500
C  31.85600 3.64700 29.87700
C  32.05100 3.85000 31.23000
C  33.34400 3.47200 31.50700
C  30.74100 4.13700 28.98600
C  31.40100 4.24200 32.45200
O  30.21600 4.59900 32.59600
C  32.47400 4.16900 33.57600
C  32.64500 5.60900 34.07000
O  33.27800 6.51400 33.51600
O  32.01500 5.77500 35.27700
C  32.17700 7.11900 35.90400
H  39.09000 2.35500 33.80600
H  38.85800 1.24000 27.28900
H  32.76000 2.93700 27.25900
H  35.09100 4.42000 35.31300
H  37.13400 2.25700 35.37500
H  38.26900 3.82700 36.30300
H  37.16800 5.13800 35.96800
H  38.50000 4.58300 34.78400
H  35.20200 1.40000 35.80000
H  33.69900 2.04400 35.14200
H  33.67000 1.98300 37.68800
H  33.22900 3.45800 36.90900
H  41.47700 0.40300 32.15100
H  41.10800 1.69800 33.10800
H  42.08600 2.18400 31.68100
H  43.11500 0.25200 28.43700
H  42.41000 -0.26700 30.07800
H  42.85500 1.40400 29.80000
H  36.87200 0.84600 25.69200
H  34.81200 2.99100 25.53500
H  37.29700 2.85100 24.33900
H  38.43500 2.92400 25.75700
H  36.92700 3.93900 25.62000
H  33.88700 0.28300 26.46500
H  34.91600 0.28500 25.01100
H  33.25900 0.92100 23.64400
H  33.07000 2.34200 24.56900
H  32.03800 0.95500 25.04800
H  30.74900 3.51700 28.08900
H  31.00100 5.17000 28.75700
H  29.72300 4.01100 29.35300
H  31.97300 3.54400 34.31500
H  32.80200 7.02500 36.79200
H  31.22000 7.54100 36.21400
H  32.66700 7.91000 35.33600

