158

Mg 35.44700 2.52400 30.26100
C  32.83300 3.57400 32.48500
C  37.63200 2.86200 32.83900
C  37.83600 1.96900 28.07500
C  33.03300 2.66800 27.69700
N  35.23000 3.13700 32.38400
C  34.03400 3.30700 33.07000
C  34.31200 3.26400 34.57200
C  35.85200 3.38300 34.62200
C  36.27400 3.04500 33.24500
C  36.39100 4.75400 35.13900
C  33.86300 1.98500 35.26800
C  33.99700 2.08700 36.77800
H  34.60800 3.20900 37.55500
N  37.50600 2.50800 30.43700
C  38.24700 2.58800 31.59500
C  39.63300 2.29900 31.30200
C  39.72300 2.05000 29.88100
C  38.32300 2.17700 29.36500
C  40.67000 2.10000 32.35400
C  40.91900 1.58300 28.99200
O  40.85100 1.44400 27.78000
C  42.27600 1.30000 29.62300
N  35.46400 2.35800 28.15200
C  36.55800 2.03500 27.50600
C  36.32100 1.76900 26.03100
C  34.71800 1.99900 25.93700
C  34.36100 2.32600 27.35000
C  37.14800 2.58300 24.97500
C  34.01700 0.72800 25.37500
C  33.31800 0.90100 23.93500
N  33.30900 2.90500 30.04900
C  32.47000 3.01100 28.94200
C  31.10900 3.38400 29.31800
C  31.26300 3.68700 30.73100
C  32.56500 3.39900 31.09800
C  29.94300 3.55500 28.38500
C  30.55100 4.12500 31.96800
O  29.44500 4.65200 32.02100
C  31.47000 3.88900 33.16000
C  31.51800 5.09100 34.03400
O  31.90900 6.22200 33.72400
O  31.06500 4.78800 35.33700
C  31.00500 5.83200 36.40400
H  38.45400 2.89700 33.55800
H  38.51300 1.46200 27.38400
H  32.34400 2.65900 26.84900
H  33.85200 4.05000 35.17200
H  36.31300 2.57100 35.18500
H  35.65100 5.55000 35.21200
H  37.03100 5.06800 34.31500
H  37.04800 4.52300 35.97700
H  34.62700 1.29500 34.91000
H  32.83600 1.73600 34.99900
H  34.24700 1.07100 37.08500
H  32.94200 2.11300 37.05200
H  40.96500 1.05100 32.36900
H  40.26900 2.29000 33.34900
H  41.58500 2.68700 32.27900
H  42.78800 2.21600 29.92100
H  42.79400 0.68100 28.89200
H  42.19800 0.66900 30.50800
H  36.53500 0.70700 25.91300
H  34.36000 2.80000 25.29000
H  36.59100 3.24100 24.30900
H  37.80500 1.96300 24.36500
H  37.71800 3.23900 25.63300
H  33.31700 0.49800 26.17700
H  34.73200 -0.09400 25.33900
H  32.28100 0.59800 24.08100
H  33.78300 0.17000 23.27300
H  33.38900 1.85900 23.42000
H  29.98700 2.82100 27.58000
H  30.09200 4.54600 27.95700
H  28.99100 3.34900 28.87500
H  31.01800 3.03700 33.66800
H  31.14900 5.41400 37.40000
H  30.04100 6.28500 36.63700
H  31.68700 6.66700 36.24600
Mg 48.36100 35.21400 27.44100
C  46.39900 33.50000 29.78900
C  48.86400 37.72100 29.50800
C  49.67100 36.92100 24.78400
C  47.60100 32.57700 25.12300
N  47.83400 35.36400 29.45700
C  47.09300 34.59200 30.29600
C  46.92400 35.27600 31.66300
C  47.36000 36.83400 31.44400
C  48.15100 36.58100 30.08000
C  46.22000 37.88600 31.30500
C  47.69700 34.56000 32.81000
C  48.38900 35.36000 34.03600
H  47.53600 36.50600 34.62800
N  49.29900 37.07800 27.23100
C  49.51900 37.96200 28.25400
C  50.28800 39.07100 27.74100
C  50.48400 38.85300 26.35000
C  49.79800 37.59300 26.05100
C  50.77700 40.23000 28.59200
C  51.16300 39.73700 25.33100
O  51.20500 39.42100 24.20500
C  51.76900 41.04200 25.76900
N  48.59700 34.82300 25.32300
C  49.17600 35.67400 24.42000
C  49.24700 35.12500 22.95900
C  48.71900 33.67300 23.15900
C  48.27000 33.64600 24.63500
C  48.41000 36.00900 22.12400
C  49.68800 32.51100 22.72700
C  49.07700 31.29800 21.91800
N  47.33900 33.36200 27.43600
C  47.02900 32.46000 26.44200
C  46.15800 31.34300 26.86300
C  45.91900 31.77500 28.22200
C  46.63000 32.96400 28.48000
C  45.70800 30.08900 26.09300
C  45.18300 31.48600 29.42900
O  44.42400 30.52000 29.62600
C  45.37800 32.63000 30.44600
C  45.94400 32.11900 31.65800
O  47.07400 31.72400 31.90400
O  44.93800 32.12200 32.57600
C  45.18200 31.46400 33.87300
H  48.84600 38.59500 30.16200
H  49.95400 37.46100 23.87800
H  47.38000 31.70500 24.50400
H  45.86000 35.19800 31.88600
H  47.98200 37.37300 32.15800
H  45.37400 37.40000 31.79000
H  45.92900 38.05100 30.26800
H  46.50500 38.83400 31.76200
H  48.55500 33.96100 32.50500
H  46.88900 33.99700 33.27700
H  49.32900 35.68400 33.59000
H  48.71300 34.74700 34.87700
H  50.54600 41.20100 28.15400
H  51.84600 40.12900 28.78000
H  50.38200 40.20200 29.60800
H  50.95400 41.73400 25.98200
H  52.30700 41.36200 24.87700
H  52.44900 41.07300 26.62000
H  50.32200 35.15500 22.78000
H  47.76600 33.64000 22.63100
H  49.11900 36.61600 21.56200
H  47.70900 36.66700 22.63700
H  47.96100 35.40900 21.33300
H  50.22200 32.11100 23.58900
H  50.45300 32.96500 22.09700
H  47.99000 31.30800 21.84200
H  49.46100 30.36300 22.32600
H  49.32900 31.38200 20.86100
H  46.46100 29.41200 25.69000
H  45.19400 30.46200 25.20600
H  44.88700 29.54700 26.56200
H  44.44700 33.16300 30.64200
H  45.97600 32.10400 34.25800
H  45.62500 30.47600 33.74800
H  44.28900 31.41900 34.49700

