158

Mg 47.35300 25.63300 27.84700
C  48.46400 27.70100 30.41400
C  46.81500 23.15000 30.15300
C  46.94300 23.53500 25.36200
C  48.54800 28.09900 25.63100
N  47.56700 25.50900 29.97900
C  47.96000 26.53700 30.87600
C  47.66400 26.11300 32.35800
C  47.39800 24.61700 32.20100
C  47.22300 24.35900 30.66100
C  48.53900 23.79500 32.89700
C  46.69400 27.01100 33.26800
C  47.34900 27.55900 34.49800
H  46.39000 28.07000 35.63600
N  46.95000 23.63800 27.74800
C  46.64400 22.81900 28.80700
C  46.01500 21.59700 28.32600
C  46.08800 21.67600 26.89600
C  46.76900 22.92900 26.62000
C  45.45700 20.47900 29.27700
C  45.71300 20.64000 25.89000
O  45.87600 20.69500 24.63300
C  45.12000 19.33900 26.36200
N  47.69600 25.79400 25.79000
C  47.44400 24.79700 24.90800
C  47.55700 25.26100 23.48300
C  48.02600 26.71900 23.50600
C  47.97100 26.94300 25.03600
C  48.25600 24.30000 22.38800
C  47.19000 27.76100 22.72500
C  47.94200 28.50900 21.61500
N  48.24500 27.49200 27.90400
C  48.69200 28.35400 26.97900
C  49.24500 29.61900 27.53500
C  49.09600 29.41300 28.89100
C  48.56700 28.02200 29.08400
C  49.87200 30.81100 26.84500
C  49.22900 29.99400 30.20000
O  49.67300 31.08200 30.51500
C  48.84600 28.89100 31.24900
C  50.08700 28.83600 32.11300
O  51.12800 28.29100 31.80800
O  49.82100 29.27300 33.39500
C  50.87100 29.05100 34.41900
H  46.62400 22.37700 30.90100
H  46.66300 22.94100 24.48900
H  48.97000 28.77900 24.88800
H  48.66200 26.33300 32.73800
H  46.43500 24.33900 32.63100
H  48.01100 23.04500 33.48700
H  49.01900 24.37600 33.68500
H  49.11600 23.25200 32.14900
H  45.92700 26.36300 33.69200
H  46.15000 27.80100 32.74900
H  47.95000 28.41800 34.19900
H  48.06600 26.90000 34.98700
H  45.52200 20.78300 30.32200
H  46.08300 19.59200 29.38200
H  44.41000 20.24400 29.08800
H  45.85200 18.77400 26.93800
H  44.93100 18.79300 25.43800
H  44.17600 19.51800 26.87700
H  46.51300 25.37000 23.18500
H  49.05800 26.85700 23.18400
H  49.01100 23.73100 22.92900
H  48.63800 25.02700 21.67100
H  47.43000 23.68700 22.02900
H  46.69400 28.50000 23.35500
H  46.44400 27.24300 22.12300
H  48.17200 27.80000 20.81900
H  48.78200 29.01700 22.08800
H  47.31100 29.34200 21.30500
H  49.32900 31.02500 25.92500
H  50.88100 30.46900 26.61600
H  49.91600 31.73200 27.42800
H  48.06500 29.34400 31.86000
H  50.57400 28.27700 35.12700
H  51.03400 29.93800 35.03000
H  51.89800 28.97600 34.06300
Mg -10.77800 38.23100 40.72000
C  -8.30700 35.80100 40.47400
C  -8.62400 40.54900 39.52900
C  -13.44400 40.33600 40.30800
C  -13.11800 35.63300 41.37500
N  -8.71800 38.15900 40.07500
C  -7.94300 37.07000 39.94700
C  -6.56300 37.33800 39.26100
C  -6.65000 38.90800 39.17200
C  -8.09500 39.26700 39.62800
C  -5.52600 39.69800 39.94500
C  -6.42600 36.51800 37.92000
C  -5.07900 35.84200 37.66200
H  -4.13200 36.31900 36.53800
N  -10.96600 40.22700 40.16600
C  -9.90900 41.03000 39.81000
C  -10.40200 42.30800 39.59100
C  -11.81300 42.34800 39.71100
C  -12.15300 40.91700 40.09100
C  -9.53500 43.54600 39.13700
C  -12.70000 43.52800 39.72300
O  -12.23500 44.67900 39.52700
C  -14.11700 43.48700 40.01300
N  -12.98400 38.03500 40.79000
C  -13.82000 39.06900 40.58400
C  -15.27200 38.65000 40.90100
C  -15.14900 37.10900 41.19300
C  -13.65000 36.86400 41.04100
C  -15.93400 39.46700 42.03300
C  -16.04700 36.18700 40.28900
C  -15.47300 35.54300 38.99200
N  -10.76600 36.11500 40.98900
C  -11.74300 35.24200 41.37900
C  -11.20300 33.95100 41.67900
C  -9.84300 34.11600 41.29000
C  -9.63600 35.45200 40.96400
C  -12.01100 32.66800 42.03600
C  -8.56100 33.46700 41.03200
O  -8.27500 32.26600 41.04300
C  -7.51100 34.49600 40.47800
C  -6.35900 34.47700 41.35800
O  -5.50300 33.64100 41.35800
O  -6.37100 35.62100 42.12900
C  -5.28500 35.86300 43.04100
H  -8.05200 41.37600 39.10300
H  -14.23700 41.07000 40.15700
H  -13.79400 34.86500 41.75700
H  -5.76500 37.12900 39.97400
H  -6.52700 39.19600 38.12800
H  -4.88800 40.12000 39.16800
H  -4.88100 39.15600 40.63600
H  -5.90100 40.57400 40.47400
H  -6.55500 37.28000 37.15300
H  -7.24500 35.80100 37.86100
H  -5.36900 34.81700 37.42900
H  -4.51300 35.74700 38.58800
H  -8.55800 43.33600 38.70200
H  -9.39200 44.34400 39.86500
H  -10.08500 43.94200 38.28300
H  -14.58200 42.83100 39.27800
H  -14.60800 44.46000 40.05500
H  -14.23800 42.99700 40.97900
H  -16.03900 38.71000 40.12900
H  -15.65900 36.98400 42.14800
H  -15.33500 40.33800 42.29900
H  -16.16300 38.87600 42.92000
H  -16.88000 39.88400 41.68600
H  -17.00500 36.62600 40.01100
H  -16.26800 35.34100 40.93800
H  -16.26400 35.39800 38.25700
H  -14.99700 34.59600 39.24800
H  -14.77300 36.23500 38.52300
H  -11.42500 31.75600 41.92800
H  -12.81700 32.71300 41.30300
H  -12.36500 32.53900 43.05900
H  -7.29000 34.11600 39.48000
H  -4.45100 36.12500 42.39000
H  -5.10800 34.97300 43.64500
H  -5.51300 36.67700 43.72900

