158

Mg 47.98200 15.35600 28.79200
C  46.00200 15.17100 31.59400
C  50.23500 17.24600 30.72400
C  50.03300 15.60600 26.07000
C  45.50500 14.27300 26.77800
N  48.18800 16.07600 31.04200
C  47.23400 15.79300 31.95700
C  47.66600 16.26600 33.31700
C  48.93800 17.17900 33.01700
C  49.20700 16.77500 31.53800
C  48.54200 18.68900 33.16400
C  48.07900 15.02100 34.17900
C  48.38300 15.24900 35.65700
H  48.23100 16.66300 36.40900
N  49.89600 16.17400 28.45400
C  50.61000 16.93700 29.36500
C  51.92400 17.27200 28.80100
C  51.86200 16.72800 27.45700
C  50.54900 16.08500 27.26200
C  53.08700 17.97300 29.56800
C  52.97300 16.78400 26.45400
O  52.80500 16.27200 25.33900
C  54.35000 17.40600 26.68400
N  47.80400 15.02800 26.71300
C  48.75300 15.20900 25.73200
C  48.30500 14.75300 24.33600
C  46.82000 14.26800 24.65400
C  46.66300 14.55400 26.12300
C  48.47000 15.87000 23.35200
C  46.54200 12.84500 24.27000
C  47.37800 11.69800 24.88000
N  46.18300 14.76200 29.08600
C  45.29600 14.14400 28.16600
C  44.14900 13.71400 28.92100
C  44.36700 14.12300 30.26600
C  45.61000 14.77400 30.29300
C  42.93800 13.03200 28.39300
C  43.83800 14.20700 31.60500
O  42.79000 13.77200 31.94200
C  44.90900 14.91400 32.49900
C  44.30400 16.01500 33.30400
O  43.70100 16.96400 32.84400
O  44.45500 15.78400 34.64700
C  43.84800 16.78000 35.53200
H  50.99500 17.84200 31.23300
H  50.66000 15.75200 25.18900
H  44.67800 13.97000 26.13300
H  46.84100 16.79700 33.79100
H  49.78500 16.99500 33.67700
H  47.60500 18.81900 33.70600
H  48.37300 19.23100 32.23300
H  49.38400 19.27900 33.52600
H  49.02300 14.64600 33.78400
H  47.25900 14.30400 34.22500
H  49.45200 15.04300 35.71700
H  48.05200 14.37500 36.21900
H  53.90900 17.26400 29.65600
H  52.82100 18.42800 30.52200
H  53.47900 18.83400 29.02700
H  54.84400 16.97900 27.55700
H  54.21600 18.47600 26.84000
H  54.98100 17.25200 25.80900
H  48.90000 13.87500 24.08300
H  46.07800 14.89400 24.15800
H  49.52000 16.11900 23.19800
H  47.94700 16.69400 23.83700
H  47.99400 15.68100 22.39000
H  46.79200 12.72600 23.21500
H  45.49400 12.54500 24.29100
H  48.05900 11.23600 24.16500
H  46.75900 10.83200 25.11500
H  47.86000 12.02900 25.80000
H  43.18100 12.03500 28.02500
H  42.53900 13.50600 27.49700
H  42.15800 13.03900 29.15500
H  45.23800 14.15800 33.21200
H  44.28100 17.77400 35.42200
H  44.06200 16.41300 36.53600
H  42.77100 16.86100 35.38100
Mg 47.57300 24.34600 28.26300
C  48.48600 26.56900 30.84900
C  46.76200 21.97300 30.66100
C  46.71300 22.18600 25.80900
C  48.44900 26.78900 26.00400
N  47.56800 24.25300 30.48900
C  47.95800 25.29600 31.34900
C  47.63000 24.90300 32.81500
C  47.25300 23.37100 32.65700
C  47.18800 23.17700 31.18100
C  48.28800 22.41400 33.32600
C  46.56700 25.74100 33.52100
C  46.16500 25.42200 34.91900
H  46.47100 26.46000 36.03200
N  46.84500 22.36900 28.22500
C  46.49900 21.55800 29.33600
C  45.93600 20.33300 28.91800
C  45.92200 20.33600 27.48700
C  46.53900 21.62100 27.08400
C  45.41100 19.26600 29.79400
C  45.52700 19.23900 26.53200
O  45.52000 19.41100 25.29900
C  45.12700 17.86100 27.08700
N  47.78100 24.38000 26.16600
C  47.32200 23.41800 25.38000
C  47.38500 23.79200 23.80500
C  47.71000 25.28900 23.98800
C  48.02700 25.55700 25.47700
C  48.39300 23.00100 23.03100
C  46.56200 26.28400 23.50800
C  47.08100 27.59900 22.71100
N  48.26900 26.26600 28.27900
C  48.61200 27.16500 27.30400
C  48.98600 28.46000 27.78400
C  48.81400 28.24000 29.13300
C  48.48100 26.87200 29.42000
C  49.33000 29.69600 27.06400
C  48.97800 29.00200 30.42900
O  49.34400 30.15000 30.65800
C  48.77000 27.89000 31.57400
C  49.90400 27.80400 32.50300
O  51.00000 27.25800 32.32700
O  49.55100 28.43700 33.62900
C  50.37400 28.33400 34.87900
H  46.48800 21.22000 31.40300
H  46.36900 21.63300 24.93200
H  48.63900 27.55700 25.25100
H  48.59100 25.06300 33.30400
H  46.24200 23.23200 33.04000
H  48.68900 21.73300 32.57500
H  47.78500 21.72700 34.00600
H  49.14300 22.81200 33.87300
H  45.63400 25.60100 32.97500
H  46.75700 26.80300 33.37100
H  46.63700 24.49800 35.25200
H  45.11200 25.14900 34.84900
H  45.50200 19.42500 30.86800
H  46.03200 18.38000 29.65800
H  44.39500 19.09700 29.43900
H  44.26700 17.92400 27.75500
H  45.92600 17.46900 27.71600
H  44.84000 17.26200 26.22300
H  46.38200 23.60000 23.42300
H  48.58500 25.46600 23.36300
H  49.36600 23.49200 23.06600
H  48.19600 22.84500 21.97000
H  48.54600 22.02800 23.49900
H  45.96900 26.63400 24.35300
H  45.92500 25.67900 22.86300
H  48.16700 27.55200 22.63400
H  46.72000 28.47200 23.25500
H  46.52100 27.68100 21.77900
H  49.07200 30.51700 27.73300
H  48.71000 29.79500 26.17300
H  50.37500 29.75500 26.76100
H  47.82200 28.15000 32.04600
H  51.10900 29.13800 34.83200
H  50.97500 27.42500 34.85700
H  49.79000 28.41900 35.79500

