158

Mg 35.87000 49.10500 25.85000
C  36.45600 47.06600 28.58900
C  34.67600 51.57400 27.90600
C  35.07000 50.63600 23.15800
C  36.66600 46.26100 23.75800
N  35.65300 49.30700 28.00300
C  35.94300 48.32700 28.97400
C  35.76200 48.94100 30.36200
C  34.88700 50.25000 30.15200
C  35.06200 50.44400 28.60100
C  33.34900 50.15200 30.53800
C  37.12700 49.20000 31.13900
C  37.00700 49.08100 32.69600
H  36.72600 50.29600 33.53100
N  35.13400 50.89200 25.54400
C  34.76300 51.75700 26.53600
C  34.40200 53.00300 25.87200
C  34.44200 52.78900 24.45400
C  34.91100 51.38100 24.34800
C  34.05400 54.30500 26.72500
C  34.00200 53.67100 23.42400
O  34.05800 53.29000 22.26900
C  33.56100 55.05000 23.75800
N  36.11600 48.57400 23.68500
C  35.71900 49.43200 22.82700
C  35.83400 48.95200 21.37200
C  36.63100 47.57000 21.63500
C  36.39400 47.44300 23.10600
C  34.44600 48.65200 20.68900
C  38.21700 47.76900 21.35500
C  38.87500 46.84500 20.32200
N  36.42700 47.03600 26.09700
C  36.61200 45.97100 25.14800
C  37.02400 44.75700 25.88900
C  36.98000 45.13400 27.21600
C  36.58700 46.52000 27.29700
C  37.58900 43.40500 25.34200
C  37.26600 44.69600 28.57600
O  37.62600 43.64600 28.96800
C  36.84200 45.87800 29.50300
C  35.66700 45.29900 30.30300
O  34.62300 44.93200 29.83700
O  35.90800 45.35500 31.66900
C  34.77500 45.14800 32.60900
H  34.18600 52.21000 28.64500
H  34.86900 51.16700 22.22500
H  36.88500 45.37000 23.16600
H  35.23100 48.16300 30.91000
H  35.31500 51.12100 30.64800
H  32.71900 50.50200 29.72100
H  33.07500 50.77900 31.38700
H  33.11000 49.11600 30.78100
H  37.63700 50.14200 30.93800
H  37.86400 48.51000 30.72900
H  38.02900 48.76600 32.90800
H  36.19500 48.39500 32.93400
H  32.98100 54.43700 26.59000
H  34.74700 55.02100 26.28400
H  34.36600 54.16300 27.76000
H  33.77300 55.55500 22.81600
H  34.31300 55.48600 24.41600
H  32.59100 55.29100 24.19200
H  36.42800 49.67400 20.81200
H  36.28300 46.71100 21.06200
H  34.47600 47.71200 20.13900
H  34.25200 49.52400 20.06400
H  33.60100 48.60500 21.37600
H  38.75400 47.81500 22.30300
H  38.41600 48.76900 20.96900
H  38.26500 46.06800 19.86100
H  39.69200 46.40200 20.89100
H  39.29100 47.49100 19.54900
H  38.18000 43.56900 24.44100
H  36.77100 42.69300 25.23200
H  38.23500 42.95800 26.09700
H  37.71000 45.90800 30.16100
H  33.80200 45.10900 32.12000
H  34.70000 45.96500 33.32600
H  34.87500 44.18100 33.10300
Mg 26.92100 50.48400 25.59000
C  25.13400 51.70100 28.30200
C  29.69100 49.93400 27.62900
C  28.80700 49.75000 22.87300
C  24.51700 51.87100 23.46100
N  27.32200 50.50100 27.82100
C  26.37800 51.11800 28.71000
C  26.89300 51.04600 30.14500
C  28.42400 50.56400 29.85100
C  28.51700 50.40900 28.35800
C  29.42400 51.57300 30.51000
C  26.00400 50.08900 31.02200
C  25.35800 50.75800 32.22700
H  26.23700 50.88500 33.46700
N  28.85600 49.72600 25.30500
C  29.89200 49.58000 26.29800
C  31.04900 48.86500 25.66300
C  30.65800 48.75000 24.27400
C  29.44700 49.41900 24.06200
C  32.35300 48.57100 26.40900
C  31.30900 48.01500 23.21500
O  30.92400 47.96100 22.01700
C  32.63700 47.32200 23.53400
N  26.58900 50.56700 23.51800
C  27.58400 50.35100 22.63100
C  27.14700 50.68900 21.12900
C  25.63800 51.19500 21.38700
C  25.56700 51.14700 22.88200
C  28.12300 51.66900 20.44600
C  24.52100 50.36400 20.67100
C  23.73500 51.14200 19.58200
N  25.16900 51.47000 25.81100
C  24.26000 51.94100 24.90500
C  23.09900 52.56600 25.57500
C  23.43900 52.47300 26.90800
C  24.61700 51.74800 26.98900
C  22.06700 53.31200 24.87400
C  22.93600 52.77000 28.14900
O  21.91600 53.37100 28.54100
C  24.02400 52.31600 29.15300
C  24.47000 53.52100 29.92900
O  25.49300 54.21600 29.68400
O  23.53400 53.70300 30.91300
C  24.01200 54.63200 31.97400
H  30.49900 49.68300 28.31900
H  29.41900 49.60400 21.98000
H  23.91900 52.44800 22.75300
H  26.73300 52.06600 30.49600
H  28.56900 49.60700 30.35200
H  28.85200 52.15900 31.22800
H  30.07900 52.13400 29.84300
H  30.11600 50.96700 31.09500
H  26.62500 49.27900 31.40300
H  25.19200 49.58800 30.49600
H  24.59300 50.09400 32.62800
H  24.85500 51.71400 32.08600
H  32.47000 47.52100 26.67700
H  32.15800 49.09600 27.34400
H  33.26600 49.04500 26.04900
H  32.55200 46.79900 24.48700
H  33.37400 48.11000 23.68400
H  33.12700 46.74700 22.74900
H  27.12700 49.75900 20.56100
H  25.55100 52.24800 21.11600
H  28.87400 52.02800 21.15100
H  27.51800 52.46500 20.01000
H  28.60600 51.01400 19.72200
H  23.77100 50.11500 21.42200
H  24.89200 49.43100 20.24500
H  23.47900 50.39800 18.82800
H  24.20400 52.03500 19.16600
H  22.72900 51.45000 19.86500
H  21.53300 52.69600 24.15100
H  22.56100 54.07800 24.27600
H  21.43500 53.76600 25.63700
H  23.68600 51.54800 29.84800
H  24.55600 55.51700 31.64200
H  24.43600 54.16300 32.86200
H  23.10900 55.11200 32.35000

