158

Mg 1.74400 -3.42000 44.39700
C  5.17500 -2.78500 44.13200
C  0.97700 -0.90100 42.27800
C  -1.42200 -4.67300 44.10900
C  2.74300 -6.41600 46.15700
N  2.98800 -2.08200 43.28700
C  4.36000 -1.91100 43.38700
C  4.76700 -0.70200 42.39900
C  3.38100 0.00900 42.24400
C  2.34900 -1.05900 42.58200
C  3.28900 1.40300 43.05200
C  5.46900 -1.32300 41.07000
C  7.03500 -1.08000 40.97300
H  7.53100 -0.58800 39.59900
N  -0.04000 -2.78400 43.48200
C  -0.15700 -1.71200 42.61900
C  -1.54700 -1.53200 42.14200
C  -2.30400 -2.54700 42.73600
C  -1.24600 -3.40300 43.51300
C  -1.93900 -0.47000 41.19900
C  -3.76200 -2.81500 42.52500
O  -4.40700 -2.05700 41.84800
C  -4.49000 -3.87800 43.17700
N  0.82600 -5.31700 44.94500
C  -0.54900 -5.41900 44.89800
C  -1.06100 -6.55200 45.74600
C  0.26300 -7.19600 46.37400
C  1.36200 -6.24000 45.81100
C  -2.14800 -6.32700 46.88200
C  0.58700 -8.67200 45.85900
C  0.99400 -9.69500 46.94100
N  3.62100 -4.49000 45.04500
C  3.82600 -5.57800 45.75900
C  5.22000 -5.78400 45.90200
C  5.79000 -4.60700 45.35400
C  4.75000 -3.89800 44.80200
C  5.87700 -6.94400 46.67300
C  7.03200 -3.96400 45.21000
O  8.16700 -4.15000 45.59800
C  6.71200 -2.71400 44.25500
C  7.12200 -1.51200 44.90300
O  8.19200 -0.92800 44.59800
O  6.24900 -0.95800 45.84900
C  6.77100 0.27200 46.46000
H  0.63400 0.02400 41.81100
H  -2.44000 -5.06900 44.10500
H  3.02600 -7.29900 46.73500
H  5.45400 0.05000 42.78600
H  3.32000 0.27500 41.18900
H  3.44900 2.19000 42.31500
H  4.05200 1.51300 43.82200
H  2.35600 1.36200 43.61300
H  4.92600 -0.98300 40.18700
H  5.21500 -2.38000 41.15500
H  7.52400 -2.04400 41.11400
H  7.46400 -0.44500 41.74800
H  -1.67200 -0.66900 40.16100
H  -1.46000 0.43300 41.57600
H  -2.97700 -0.14900 41.27900
H  -4.36600 -3.80400 44.25700
H  -4.09900 -4.82900 42.81300
H  -5.55600 -3.80900 42.96100
H  -1.53700 -7.20600 45.01500
H  0.28600 -7.13200 47.46100
H  -1.85200 -5.48900 47.51200
H  -2.50200 -7.11900 47.54100
H  -2.99500 -6.06800 46.24500
H  1.27900 -8.69700 45.01800
H  -0.36500 -8.96000 45.41400
H  0.71300 -9.33300 47.93000
H  2.05400 -9.93200 46.85700
H  0.58500 -10.69400 46.78700
H  6.91500 -6.90600 46.34400
H  5.37900 -7.87700 46.40900
H  5.71000 -6.58400 47.68800
H  7.17200 -2.71500 43.26700
H  6.20400 0.75000 47.25900
H  6.82700 1.08300 45.73300
H  7.81400 0.20000 46.76900
Mg 16.76400 -1.99500 27.67200
C  15.55600 0.16100 30.19900
C  18.43900 -3.78300 29.87400
C  17.73000 -3.90900 25.12600
C  15.05200 0.17000 25.45500
N  16.88700 -1.84800 29.71500
C  16.38800 -0.87000 30.56300
C  16.84900 -1.19500 31.99700
C  17.89100 -2.29700 31.87000
C  17.85600 -2.67100 30.39700
C  19.33900 -1.84800 32.22500
C  15.64800 -1.58400 32.92900
C  15.64100 -1.15000 34.36700
H  16.91200 -0.82800 35.18500
N  18.00900 -3.63900 27.46200
C  18.52000 -4.33200 28.52800
C  19.24900 -5.47100 28.09100
C  19.05700 -5.57600 26.70000
C  18.20200 -4.36700 26.33200
C  20.00700 -6.38700 29.07000
C  19.55400 -6.54900 25.69300
O  19.26500 -6.54700 24.50300
C  20.45500 -7.67900 26.15800
N  16.43800 -1.86400 25.64600
C  16.96700 -2.74000 24.78800
C  16.90900 -2.17600 23.36200
C  15.63600 -1.19700 23.48300
C  15.74600 -0.90500 24.96100
C  18.19600 -1.47800 22.91400
C  14.32900 -1.85700 22.94500
C  13.34500 -2.59600 23.86700
N  15.53900 -0.10600 27.76200
C  14.89600 0.62800 26.72900
C  13.99600 1.66700 27.32600
C  14.33400 1.50400 28.68500
C  15.24400 0.46600 28.86400
C  12.96900 2.54400 26.62400
C  14.04700 2.11100 29.97300
O  13.36100 3.04900 30.21800
C  14.78600 1.17300 31.01900
C  15.58400 2.11900 31.84400
O  16.51500 2.79600 31.39700
O  15.19300 2.14300 33.14100
C  15.95000 2.91000 34.07900
H  19.06800 -4.35000 30.56200
H  18.18300 -4.34200 24.23100
H  14.58900 0.78300 24.67900
H  17.23300 -0.27400 32.43600
H  17.64000 -3.18900 32.44400
H  19.34700 -0.95800 32.85400
H  19.93400 -1.60700 31.34400
H  19.78700 -2.61100 32.86200
H  15.49600 -2.66200 32.87500
H  14.76400 -1.10200 32.51100
H  15.23600 -2.00000 34.91600
H  14.86800 -0.43900 34.65900
H  19.97500 -6.04800 30.10600
H  21.01500 -6.59000 28.70800
H  19.52000 -7.36100 29.02000
H  20.02400 -8.30400 26.94000
H  21.29400 -7.26200 26.71400
H  20.77000 -8.31000 25.32700
H  16.83700 -3.03700 22.69700
H  15.90300 -0.29800 22.92700
H  19.05600 -1.56000 23.57900
H  18.10900 -0.45600 22.54400
H  18.55100 -2.02200 22.03900
H  14.68500 -2.53600 22.17000
H  13.71300 -1.01600 22.62800
H  12.68600 -1.86800 24.34000
H  13.90100 -3.10400 24.65500
H  12.87900 -3.28500 23.16200
H  12.09800 2.07000 27.07600
H  12.92300 2.44600 25.54000
H  12.99200 3.57900 26.96600
H  13.98900 0.76800 31.64200
H  15.24000 3.44800 34.70800
H  16.58900 3.75000 33.80800
H  16.39600 2.12800 34.69400

