158

Mg 47.10600 44.91200 43.11500
C  43.64800 44.14000 43.13900
C  47.67500 41.47700 43.02800
C  50.33800 45.64300 42.30200
C  46.23400 48.26500 42.58900
N  45.76500 43.05700 42.94600
C  44.39900 42.96800 43.04400
C  43.97600 41.56100 42.86800
C  45.25500 40.71400 43.02500
C  46.32700 41.79200 43.05600
C  45.27700 39.91100 44.38200
C  43.19200 41.26000 41.53800
C  43.81900 41.82600 40.32000
H  43.14500 41.56600 38.96400
N  48.84400 43.77100 42.90600
C  48.87600 42.33400 42.97500
C  50.28700 41.97100 42.75500
C  51.12100 43.13800 42.63300
C  50.12900 44.26200 42.69500
C  50.61800 40.48600 42.50200
C  52.58800 43.18800 42.45500
O  53.16300 42.11900 42.32700
C  53.32800 44.43300 42.40600
N  48.10300 46.65200 42.36600
C  49.41800 46.69100 42.22100
C  49.88600 48.07900 41.73600
C  48.59700 48.94900 41.85000
C  47.54700 47.91000 42.34800
C  51.19100 48.63000 42.40500
C  48.18300 49.80800 40.55800
C  47.93400 51.25700 40.91200
N  45.37100 46.01700 42.95600
C  45.18100 47.34600 42.76500
C  43.70600 47.57800 42.75500
C  43.05200 46.40900 43.00500
C  44.11100 45.46700 43.01600
C  42.96500 48.89100 42.36600
C  41.81500 45.76200 43.18100
O  40.70300 46.17100 43.19000
C  42.13700 44.24700 43.21600
C  41.66200 43.53700 44.32900
O  40.78000 42.71600 44.22800
O  42.27100 43.88400 45.56700
C  41.83100 43.05600 46.69500
H  47.88800 40.40900 43.11600
H  51.29300 45.83400 41.80800
H  45.99600 49.33000 42.62600
H  43.27600 41.39500 43.68700
H  45.43700 40.01300 42.21000
H  45.52000 40.57000 45.21500
H  46.11100 39.23900 44.18100
H  44.30400 39.45300 44.56200
H  42.15300 41.54400 41.70500
H  43.13900 40.17400 41.45800
H  44.84600 41.52000 40.12200
H  43.80800 42.91500 40.36100
H  51.67800 40.26200 42.61700
H  50.33300 40.02800 41.55400
H  50.03900 39.95900 43.26000
H  53.08000 44.92200 41.46400
H  54.40100 44.24300 42.38000
H  53.10900 45.08700 43.25000
H  50.23300 47.88900 40.72100
H  48.71700 49.62000 42.70000
H  51.17700 49.69300 42.64700
H  51.99200 48.47100 41.68300
H  51.45600 48.08900 43.31300
H  47.26100 49.41600 40.12900
H  48.97500 49.74100 39.81200
H  47.09500 51.71700 40.39000
H  48.80400 51.89800 40.76800
H  47.57100 51.29100 41.93900
H  43.68600 49.69400 42.52300
H  42.11200 48.98100 43.03900
H  42.70200 48.90500 41.30900
H  41.70600 43.78000 42.33000
H  40.91400 43.54100 47.03000
H  42.62800 43.15600 47.43100
H  41.59300 42.06500 46.30900
Mg -10.26900 39.96100 42.12600
C  -9.95800 36.61000 41.15300
C  -7.48100 40.62000 40.49400
C  -11.11700 43.23400 42.36500
C  -13.41800 39.24400 43.52000
N  -8.89600 38.76900 40.98200
C  -8.95600 37.43900 40.73600
C  -7.80300 36.93200 39.84800
C  -6.91600 38.21600 39.72400
C  -7.72900 39.26200 40.51400
C  -5.45000 38.10500 40.19300
C  -8.19300 36.28000 38.41600
C  -7.20000 35.19700 37.90800
H  -6.18900 35.57600 36.82700
N  -9.40800 41.67300 41.58700
C  -8.16200 41.71300 40.97100
C  -7.75500 43.14300 40.85500
C  -8.81400 43.91400 41.38000
C  -9.88300 42.98900 41.82400
C  -6.48200 43.60200 40.13000
C  -8.78400 45.40600 41.36500
O  -7.75700 46.04500 41.04300
C  -10.08300 46.24900 41.51900
N  -12.10100 41.08100 42.64900
C  -12.23100 42.38200 42.75600
C  -13.53700 42.88400 43.43300
C  -14.24900 41.57900 43.86800
C  -13.16300 40.59300 43.31200
C  -13.34200 44.11100 44.39900
C  -15.65300 41.20500 43.37600
C  -16.67900 40.82500 44.48000
N  -11.47700 38.25900 42.30700
C  -12.70000 38.12400 42.98200
C  -13.07500 36.67500 42.87700
C  -11.96900 36.03000 42.26300
C  -11.11800 37.04000 41.86000
C  -14.23900 36.04700 43.50500
C  -11.31800 34.71800 41.90000
O  -11.74800 33.58800 42.14700
C  -10.05900 35.10200 41.09700
C  -8.83400 34.48200 41.62100
O  -8.40000 34.54300 42.71500
O  -8.36200 33.62800 40.68000
C  -7.23800 32.70600 40.85000
H  -6.57100 40.80200 39.91700
H  -11.40800 44.28400 42.43800
H  -14.29700 38.99200 44.11800
H  -7.29500 36.17100 40.44100
H  -7.09500 38.54700 38.70000
H  -5.01000 37.14000 39.94200
H  -5.30800 38.15700 41.27200
H  -4.73300 38.78300 39.73100
H  -7.99400 36.98200 37.60600
H  -9.27200 36.14200 38.35700
H  -7.79200 34.37800 37.50000
H  -6.67300 34.79700 38.77500
H  -6.47100 44.23800 39.24500
H  -5.79300 42.76900 39.99700
H  -6.03300 44.25100 40.88200
H  -10.24000 46.24300 42.59800
H  -10.95400 45.88500 40.97400
H  -9.91600 47.29800 41.27200
H  -14.10900 43.28000 42.59500
H  -14.17300 41.71200 44.94700
H  -13.80400 43.82900 45.34500
H  -13.92600 44.92800 43.97500
H  -12.29200 44.37900 44.51700
H  -15.71500 40.49400 42.55100
H  -16.00700 42.14900 42.96300
H  -17.39500 41.63800 44.59600
H  -16.24800 40.68500 45.47100
H  -17.21400 39.91400 44.21200
H  -15.10100 36.23800 42.86600
H  -14.46000 36.53700 44.45400
H  -14.11600 34.96800 43.59400
H  -10.27900 34.65800 40.12600
H  -7.47700 31.76300 41.34100
H  -6.49200 33.18100 41.48800
H  -6.79600 32.51400 39.87200

