158

Mg 54.71000 22.88900 44.67900
C  52.84900 25.63800 43.75700
C  52.09900 20.97100 43.54900
C  56.78200 20.27500 44.86300
C  57.48500 25.03700 45.40400
N  52.72900 23.26900 43.57900
C  52.16500 24.48400 43.46300
C  50.66700 24.34000 42.98600
C  50.32400 22.86200 43.41600
C  51.79800 22.36800 43.55900
C  49.43700 22.80500 44.62000
C  50.55200 24.49300 41.45800
C  49.17400 24.77800 41.01800
H  48.73400 24.03100 39.70300
N  54.49500 20.88400 44.26800
C  53.36600 20.34100 43.75800
C  53.66900 18.88300 43.60900
C  55.03400 18.61100 43.79500
C  55.49900 19.93200 44.35800
C  52.67100 17.84900 43.11600
C  55.77900 17.40300 43.67700
O  55.29800 16.41900 43.16000
C  57.33300 17.23900 43.96200
N  56.87100 22.75900 44.94600
C  57.45800 21.49600 45.09200
C  58.93400 21.59000 45.54700
C  59.11200 23.16700 45.81400
C  57.72100 23.67700 45.39800
C  59.46900 20.64000 46.62500
C  60.31400 23.78100 44.97800
C  61.48400 22.92900 44.60300
N  55.16300 24.91700 44.61500
C  56.26500 25.62700 44.96700
C  55.90900 27.03700 44.92500
C  54.58800 27.12100 44.43800
C  54.18700 25.81200 44.24100
C  56.80800 28.13800 45.06900
C  53.46000 27.98200 44.21000
O  53.32100 29.20300 44.22900
C  52.31900 27.07600 43.63600
C  52.16300 27.39100 42.21100
O  52.96500 27.13000 41.35800
O  51.03700 28.12400 42.03800
C  50.62700 28.41000 40.69700
H  51.20400 20.37300 43.36500
H  57.51700 19.48100 45.00500
H  58.35500 25.67800 45.56300
H  50.09500 25.12800 43.47500
H  49.79500 22.20200 42.72900
H  48.58500 22.14900 44.44200
H  48.95000 23.75500 44.83700
H  50.08500 22.53500 45.45300
H  50.92100 23.59600 40.95900
H  51.24600 25.28000 41.16300
H  48.95600 25.83600 40.87100
H  48.52700 24.45000 41.83100
H  52.78400 17.64000 42.05200
H  51.65600 18.16300 43.35500
H  52.88100 16.93600 43.67400
H  57.63500 17.34800 45.00400
H  57.72300 18.06200 43.36400
H  57.62800 16.26100 43.58200
H  59.46800 21.19800 44.68200
H  59.35900 23.47600 46.83000
H  60.15600 21.13600 47.31100
H  60.09300 19.92900 46.08300
H  58.66600 20.20600 47.22000
H  60.66700 24.61900 45.57900
H  59.87600 24.17900 44.06300
H  61.36100 22.52800 43.59700
H  61.57700 22.19500 45.40400
H  62.40900 23.49900 44.67800
H  56.78500 28.62500 44.09500
H  57.83100 27.93000 45.38400
H  56.33300 28.78000 45.81100
H  51.37300 27.34900 44.10400
H  49.56000 28.60900 40.59400
H  50.85400 27.57300 40.03700
H  51.12500 29.34600 40.44500
Mg 35.27700 48.59900 25.19800
C  35.70200 46.73100 28.11000
C  34.62600 51.32600 27.18600
C  34.74200 50.28900 22.45500
C  35.89000 45.62100 23.36900
N  34.85500 48.89800 27.35300
C  35.26200 48.07100 28.35900
C  35.35500 48.72500 29.73500
C  34.55500 50.09200 29.42700
C  34.65700 50.13300 27.91200
C  33.10900 50.20000 30.01300
C  36.80600 48.97000 30.26900
C  37.00600 49.14500 31.76600
H  35.84800 49.03100 32.78300
N  34.78800 50.53600 24.86800
C  34.60500 51.48100 25.79000
C  34.45500 52.77600 25.14400
C  34.46000 52.57900 23.75700
C  34.64300 51.04100 23.61100
C  34.38300 54.18700 25.74500
C  34.22000 53.55200 22.54500
O  34.42200 53.20100 21.36400
C  33.79900 54.92400 22.77400
N  35.21500 48.04600 23.19000
C  35.06800 48.95600 22.26800
C  35.42700 48.43600 20.86700
C  35.71100 46.89200 21.13900
C  35.57800 46.82000 22.65900
C  34.24200 48.52200 19.90000
C  37.15200 46.48500 20.69700
C  38.34400 47.00100 21.53300
N  35.52200 46.53900 25.59700
C  35.90000 45.49100 24.80100
C  36.50000 44.34700 25.59000
C  36.35600 44.83500 26.89400
C  35.76400 46.14200 26.87100
C  37.08900 43.06600 25.07000
C  36.72900 44.43600 28.23600
O  37.27300 43.40500 28.65100
C  36.27300 45.67700 29.08600
C  35.12300 45.24700 30.01500
O  33.91100 45.24600 29.74800
O  35.62900 44.94100 31.18500
C  34.69600 44.77200 32.35300
H  34.48500 52.24000 27.76700
H  34.63100 50.79500 21.49300
H  36.15900 44.81700 22.68200
H  34.67100 48.10600 30.31700
H  35.08200 50.99600 29.73100
H  32.39900 50.56100 29.26900
H  32.97300 50.86500 30.86600
H  32.82300 49.24600 30.45700
H  37.17100 49.95200 29.96700
H  37.46600 48.19300 29.88100
H  37.53100 50.07800 31.97100
H  37.66200 48.37100 32.16400
H  35.32500 54.70100 25.55500
H  34.31400 54.11000 26.83000
H  33.53300 54.83700 25.53900
H  32.79400 54.83000 23.18400
H  33.71000 55.42500 21.80900
H  34.54800 55.49200 23.32600
H  36.32900 48.92200 20.49400
H  34.98000 46.23400 20.67000
H  34.26400 47.65800 19.23600
H  34.36800 49.45900 19.35700
H  33.29200 48.51800 20.43400
H  37.23800 46.80200 19.65800
H  37.14300 45.40300 20.56700
H  39.27500 47.10500 20.97500
H  38.53000 46.26100 22.31100
H  38.11600 47.95300 22.01300
H  37.00000 42.95400 23.98900
H  36.62700 42.21800 25.57600
H  38.15000 43.07500 25.32000
H  37.11200 46.10400 29.63500
H  33.80200 45.38100 32.22400
H  35.31700 45.09900 33.18700
H  34.51700 43.71100 32.53100

