158

Mg 8.56400 2.84900 26.62300
C  9.90600 1.36200 29.53500
C  6.71200 4.98800 28.70100
C  7.22800 4.07700 23.97300
C  10.12600 0.21200 24.70700
N  8.27100 3.09600 28.85600
C  9.04100 2.47700 29.86700
C  8.69900 3.08900 31.24000
C  7.55000 4.06700 30.95400
C  7.51400 4.12900 29.37400
C  6.26000 3.74800 31.67000
C  9.96200 3.61100 31.96000
C  9.81800 4.64000 33.11500
H  10.69000 4.19900 34.31900
N  7.24200 4.35800 26.37900
C  6.52800 5.10200 27.31800
C  5.68700 6.05900 26.63300
C  5.85200 5.84900 25.20000
C  6.82800 4.75200 25.15300
C  4.82400 7.09200 27.35900
C  5.17800 6.63000 24.03400
O  5.44700 6.40900 22.89600
C  4.27500 7.75800 24.30900
N  8.72500 2.23300 24.74000
C  8.01100 2.97000 23.77400
C  8.07200 2.32600 22.45300
C  9.06600 1.23600 22.69000
C  9.29100 1.15100 24.11300
C  6.63600 1.81600 22.06000
C  10.45300 1.30600 21.93000
C  10.87000 0.01600 21.15800
N  9.79400 1.14400 26.99000
C  10.39000 0.22800 26.10700
C  11.21900 -0.68100 26.88500
C  11.03000 -0.31900 28.25200
C  10.17000 0.77000 28.25700
C  12.09600 -1.85400 26.36200
C  11.36500 -0.61900 29.65800
O  12.01400 -1.50600 30.16300
C  10.63500 0.40100 30.49500
C  9.70400 -0.34500 31.34500
O  8.64400 -0.86100 30.97300
O  10.16300 -0.28100 32.68300
C  9.33300 -1.00200 33.65200
H  6.20200 5.74400 29.30100
H  6.75200 4.42200 23.05200
H  10.45900 -0.59300 24.04900
H  8.38800 2.21000 31.80500
H  7.83500 5.06100 31.29800
H  6.19200 2.67300 31.83500
H  5.40200 4.00300 31.04800
H  6.00100 4.34000 32.54800
H  10.62500 4.08400 31.23600
H  10.49400 2.72500 32.30700
H  8.76900 4.64500 33.41400
H  10.13800 5.62500 32.77700
H  4.95000 7.27300 28.42700
H  3.74900 6.97600 27.22200
H  4.98200 8.09500 26.96400
H  3.87800 8.04500 23.33600
H  4.73900 8.58400 24.84800
H  3.50500 7.39800 24.99100
H  8.40400 2.97800 21.64500
H  8.58500 0.27700 22.49800
H  6.53200 0.74500 21.88200
H  6.42800 2.37200 21.14600
H  5.85800 1.99500 22.80100
H  11.23900 1.58200 22.63300
H  10.30100 2.04600 21.14500
H  11.18900 0.23700 20.14000
H  10.01200 -0.62000 20.93800
H  11.66700 -0.48400 21.70900
H  11.55800 -2.44400 25.62000
H  12.52300 -2.47500 27.15000
H  13.04700 -1.52300 25.94300
H  11.32700 1.00300 31.08400
H  9.61800 -2.04900 33.55000
H  8.24900 -0.89200 33.65500
H  9.63800 -0.67800 34.64700
Mg 43.40100 3.83800 47.53200
C  41.48400 6.74400 47.22400
C  40.42000 1.97600 47.55800
C  45.27700 1.17100 47.27400
C  46.14600 5.90300 46.86700
N  41.17800 4.31400 47.44900
C  40.65000 5.57800 47.35300
C  39.11200 5.54300 47.30200
C  38.79500 4.08300 47.88600
C  40.17000 3.36100 47.57600
C  38.46100 4.01900 49.46700
C  38.57700 5.74500 45.90700
C  37.47400 6.80400 45.85400
H  36.85100 6.83000 44.46400
N  42.87900 1.80800 47.43900
C  41.60200 1.24600 47.45200
C  41.82200 -0.17800 47.42100
C  43.20900 -0.46100 47.15400
C  43.86800 0.85300 47.27200
C  40.64300 -1.18700 47.70400
C  43.87900 -1.76200 46.85300
O  43.31800 -2.86100 46.82400
C  45.36400 -1.92900 46.66500
N  45.38000 3.55600 47.10600
C  45.99800 2.35300 47.26400
C  47.59300 2.51400 47.32200
C  47.78900 3.92100 46.76900
C  46.31700 4.49700 47.00100
C  48.17500 2.23000 48.73600
C  48.18200 4.06300 45.26200
C  49.62200 4.67800 44.98500
N  43.82600 5.92000 47.27500
C  44.99300 6.59900 47.01200
C  44.76800 8.02400 47.06000
C  43.32700 8.11900 47.06100
C  42.86900 6.86000 47.19600
C  45.78700 9.16500 47.03700
C  42.16700 9.08700 47.09400
O  42.13900 10.33700 46.99000
C  40.90900 8.14600 47.14400
C  40.02600 8.47800 48.26800
O  40.17200 8.15500 49.44700
O  38.97700 9.15100 47.84300
C  38.02200 9.60500 48.81800
H  39.47900 1.43300 47.66700
H  45.86400 0.25000 47.26400
H  47.14000 6.34500 46.76600
H  38.77900 6.35700 47.94600
H  37.96800 3.62200 47.34500
H  38.22900 5.03300 49.79300
H  39.26300 3.57000 50.05400
H  37.57500 3.42900 49.70500
H  38.12700 4.81400 45.56200
H  39.28000 5.97600 45.10700
H  38.01800 7.72000 46.08300
H  36.70500 6.65000 46.61100
H  40.07000 -1.34200 46.78900
H  39.99200 -0.73600 48.45300
H  40.95000 -2.18500 48.01400
H  45.93900 -1.87000 47.58900
H  45.79400 -1.32600 45.86400
H  45.50400 -2.94000 46.28200
H  48.15900 1.80300 46.71900
H  48.33600 4.55800 47.46500
H  47.41000 1.66400 49.26700
H  48.37300 3.12800 49.32100
H  49.05600 1.60000 48.61900
H  47.46500 4.76000 44.82900
H  48.09200 3.09700 44.76400
H  50.07800 4.06300 44.21000
H  50.24400 4.62700 45.87900
H  49.51700 5.67700 44.56200
H  46.23000 9.17800 46.04100
H  46.52500 8.83900 47.77000
H  45.30100 10.10400 47.30100
H  40.27000 8.21600 46.26400
H  37.52800 8.81900 49.38900
H  37.25400 10.12600 48.24500
H  38.44600 10.28000 49.56200

