158

Mg 47.80400 25.03700 28.04900
C  48.76800 27.29800 30.56600
C  46.69400 22.85900 30.47200
C  46.86300 23.09000 25.58800
C  48.94500 27.52000 25.73400
N  47.66100 25.12000 30.21900
C  48.16400 26.09100 31.01100
C  47.86100 25.85000 32.48700
C  47.32700 24.33400 32.47100
C  47.22200 24.06600 30.96700
C  48.21800 23.32900 33.24500
C  46.83200 26.83500 33.16900
C  47.12300 27.20500 34.58300
H  45.90700 27.16500 35.54800
N  46.96500 23.12800 28.00500
C  46.59400 22.34600 29.10000
C  45.95300 21.14200 28.62500
C  46.00100 21.19100 27.17600
C  46.59000 22.53000 26.83200
C  45.38400 20.11300 29.55100
C  45.45300 20.12900 26.22300
O  45.54900 20.19700 24.98100
C  45.01800 18.77200 26.79000
N  47.82000 25.29700 25.92200
C  47.39700 24.31300 25.14400
C  47.70400 24.60700 23.68400
C  48.15900 26.15100 23.73600
C  48.31500 26.34400 25.23100
C  48.78400 23.63900 23.09400
C  47.20500 27.20700 23.07500
C  47.70500 27.82000 21.74200
N  48.70900 26.97600 28.09700
C  49.10700 27.85000 27.11700
C  49.72900 29.01400 27.65900
C  49.55900 28.82700 29.02500
C  48.93800 27.64800 29.22600
C  50.31200 30.21500 26.91600
C  49.81200 29.54800 30.28300
O  50.36000 30.60900 30.59800
C  49.18400 28.54200 31.28700
C  50.09900 28.38300 32.47600
O  51.10900 27.69000 32.48100
O  49.61100 29.18200 33.53700
C  50.35200 29.10300 34.82100
H  46.53600 22.13200 31.27100
H  46.58400 22.35700 24.82900
H  49.27200 28.22900 24.97000
H  48.84100 25.95000 32.95600
H  46.34100 24.18300 32.91100
H  47.80500 22.46700 33.76900
H  48.57200 23.96100 34.05900
H  49.12600 23.09700 32.69000
H  45.85100 26.36000 33.16600
H  46.58500 27.64200 32.47900
H  47.49300 28.22900 34.52900
H  47.92200 26.57700 34.97700
H  44.33500 20.08200 29.25800
H  45.54700 20.49500 30.55900
H  45.96900 19.20100 29.43200
H  45.77500 18.18500 27.31100
H  44.55700 18.17200 26.00500
H  44.19300 19.11300 27.41500
H  46.82600 24.59800 23.03800
H  49.13200 26.35900 23.29100
H  48.45600 22.97400 22.29500
H  49.27100 23.01800 23.84600
H  49.60100 24.24000 22.69300
H  46.95900 27.90200 23.87800
H  46.29000 26.64300 22.89100
H  48.71800 27.43700 21.61700
H  47.71600 28.91000 21.76200
H  46.96200 27.51500 21.00600
H  51.04500 30.70100 27.56100
H  49.49900 30.94000 26.88400
H  50.60400 29.95900 25.89800
H  48.26400 28.96400 31.69000
H  50.03200 28.25800 35.43000
H  50.12600 30.00700 35.38600
H  51.43700 28.99800 34.81000
Mg 48.47600 34.95200 27.22800
C  46.78500 33.47400 29.91500
C  49.36700 37.61100 29.24100
C  49.72900 36.46400 24.46700
C  47.34200 32.28700 25.20500
N  48.11800 35.44300 29.33800
C  47.60600 34.57300 30.28300
C  47.79800 35.13200 31.67900
C  48.19800 36.60600 31.37700
C  48.63900 36.56700 29.90100
C  47.18300 37.71600 31.67800
C  48.95800 34.37500 32.44600
C  48.85000 34.25400 33.93600
H  47.90800 35.16000 34.78400
N  49.53300 36.76400 26.93800
C  49.79900 37.69900 27.88400
C  50.54900 38.68700 27.28400
C  50.81800 38.33100 25.98700
C  49.92900 37.23900 25.70700
C  51.12900 39.76200 28.06200
C  51.77700 38.96600 24.90100
O  51.93800 38.45100 23.81000
C  52.55100 40.15900 25.37400
N  48.34600 34.52300 25.06300
C  48.95000 35.32600 24.17500
C  48.89600 34.74200 22.74600
C  48.30100 33.32700 22.94000
C  48.03200 33.34200 24.55200
C  48.24000 35.66900 21.70200
C  49.10100 32.10300 22.42300
C  50.01300 31.43100 23.41100
N  47.14000 33.29100 27.47500
C  46.91100 32.23900 26.57600
C  46.08900 31.29000 27.25800
C  45.95300 31.77600 28.53400
C  46.64700 32.97600 28.61200
C  45.62600 29.97900 26.62000
C  45.34900 31.52100 29.75900
O  44.68200 30.54800 30.13600
C  45.80300 32.61900 30.72200
C  46.40000 31.90000 31.94600
O  47.46800 31.37200 32.02200
O  45.45300 31.81300 32.93200
C  45.87100 30.97600 34.18100
H  49.62800 38.42600 29.91900
H  50.03600 36.96000 23.54300
H  47.04400 31.40200 24.63800
H  46.87300 35.02400 32.24600
H  49.18700 36.79700 31.79300
H  46.42200 37.38300 32.38500
H  46.61500 37.90500 30.76700
H  47.71200 38.52200 32.18800
H  49.90500 34.78900 32.09900
H  48.94000 33.33100 32.13200
H  49.80300 34.19100 34.46300
H  48.41600 33.26000 34.03600
H  50.65800 40.67600 27.70300
H  52.21000 39.83200 27.94100
H  50.99400 39.78600 29.14400
H  53.18600 40.51300 24.56300
H  53.22500 40.05500 26.22500
H  51.77500 40.89800 25.57400
H  49.95400 34.59100 22.53100
H  47.29100 33.36100 22.53000
H  47.41300 35.17400 21.19200
H  49.00000 36.09600 21.04700
H  47.65600 36.49100 22.11600
H  49.68400 32.57500 21.63200
H  48.34700 31.37200 22.13100
H  50.99000 31.48000 22.93000
H  49.63200 30.42800 23.59900
H  50.12900 32.05700 24.29600
H  46.14800 29.08500 26.95900
H  45.83800 29.92100 25.55200
H  44.55500 29.81200 26.73900
H  44.95200 33.19200 31.09000
H  46.85200 31.27000 34.55400
H  45.88500 29.93300 33.86400
H  45.21700 30.85600 35.04400

