158

Mg -1.43000 17.81700 27.40900
C  -1.99800 15.85000 30.04700
C  -2.41800 20.48000 29.28700
C  -1.01000 19.74600 24.66700
C  -1.23700 14.99200 25.38800
N  -2.20100 18.14200 29.42300
C  -2.33100 17.17800 30.37900
C  -2.69700 17.75100 31.80900
C  -3.11600 19.22800 31.39600
C  -2.54100 19.29100 29.95300
C  -4.68300 19.47200 31.37400
C  -1.51300 17.63500 32.79500
C  -1.87800 16.88100 34.11000
H  -0.79600 16.73600 35.23800
N  -1.47900 19.88500 27.07400
C  -1.94700 20.84300 28.00800
C  -1.88700 22.17900 27.36300
C  -1.52800 21.91400 25.99300
C  -1.28800 20.48800 25.85500
C  -2.25200 23.50200 28.09200
C  -1.47000 22.98100 24.88700
O  -1.09100 22.73900 23.74800
C  -1.97100 24.34100 25.17200
N  -1.16100 17.47100 25.38300
C  -1.00700 18.42000 24.36400
C  -0.93600 17.84700 22.97800
C  -0.68800 16.34600 23.33900
C  -1.12800 16.23000 24.79700
C  -2.32800 18.08500 22.22400
C  0.80800 15.97900 23.19200
C  1.80900 16.52100 24.26000
N  -1.61000 15.82400 27.59000
C  -1.40200 14.75900 26.74800
C  -1.62900 13.54200 27.47100
C  -1.77100 13.91500 28.78500
C  -1.73700 15.31400 28.77900
C  -1.69500 12.18000 26.83400
C  -1.91500 13.33600 30.11400
O  -1.97900 12.14700 30.43700
C  -2.01900 14.57500 31.01300
C  -0.79800 14.50900 31.76400
O  0.25100 14.86800 31.30500
O  -0.97100 13.87100 32.97500
C  0.37300 13.75500 33.67600
H  -2.74300 21.38700 29.80100
H  -0.97300 20.48900 23.86700
H  -1.24200 14.12900 24.71800
H  -3.56800 17.21300 32.18400
H  -2.60200 20.01500 31.94800
H  -4.95500 19.74800 32.39300
H  -5.13700 18.50500 31.15700
H  -5.00400 20.17600 30.60600
H  -1.20400 18.63700 33.09200
H  -0.62300 17.26200 32.28700
H  -2.16100 15.91900 33.68400
H  -2.77900 17.28800 34.57000
H  -2.46100 23.23900 29.12800
H  -3.17700 23.95600 27.73400
H  -1.47400 24.24600 27.91700
H  -3.04100 24.28600 25.37100
H  -1.84800 24.84900 24.21600
H  -1.44100 24.91400 25.93300
H  -0.05300 18.10500 22.39200
H  -1.27200 15.59900 22.80100
H  -2.95000 18.64100 22.92500
H  -2.93800 17.19000 22.10500
H  -2.29200 18.65100 21.29300
H  1.16600 16.36100 22.23600
H  0.84700 14.89200 23.12700
H  1.31700 16.97700 25.11900
H  2.42200 17.27900 23.77200
H  2.38700 15.74300 24.75700
H  -2.71200 11.98600 26.49500
H  -1.36300 11.53200 27.64500
H  -1.00100 11.98500 26.01600
H  -2.92600 14.59200 31.61800
H  0.68600 14.72000 34.07400
H  1.09400 13.38500 32.94800
H  0.30200 12.99900 34.45800
Mg 26.12600 1.21000 28.82500
C  28.24700 0.77400 31.63800
C  23.54400 1.75600 31.13100
C  23.96600 1.54500 26.30400
C  28.62400 0.52200 26.74200
N  25.93400 1.19700 31.20100
C  26.97900 1.13700 32.08600
C  26.36400 1.09900 33.46000
C  24.88500 1.52100 33.31500
C  24.75800 1.45000 31.76800
C  23.83300 0.67600 34.18000
C  27.17000 1.96200 34.53100
C  26.44300 2.92100 35.40000
H  27.14800 3.12900 36.71700
N  24.10200 1.61500 28.75700
C  23.20100 1.81700 29.76100
C  21.87500 2.15600 29.15200
C  22.02100 1.80100 27.79900
C  23.42900 1.61200 27.55300
C  20.67200 2.55700 30.01600
C  20.87500 1.79600 26.73400
O  21.02200 1.42100 25.61200
C  19.42700 1.92700 27.20800
N  26.25900 1.20700 26.84200
C  25.26000 1.37700 25.99500
C  25.79600 1.37600 24.58700
C  27.33700 1.13500 24.72400
C  27.46200 1.04400 26.19900
C  25.20700 0.41000 23.55400
C  28.23900 2.30200 24.25600
C  28.44100 3.47400 25.25600
N  27.99100 0.53300 29.03100
C  28.92400 0.31700 28.09000
C  30.18100 -0.00700 28.70400
C  29.97900 0.19100 30.08100
C  28.61800 0.45000 30.26200
C  31.42900 -0.53000 28.03000
C  30.66100 0.21100 31.35200
O  31.82300 -0.11800 31.59600
C  29.52800 0.61500 32.43100
C  29.57400 -0.46000 33.48500
O  29.47200 -1.65400 33.27900
O  29.76800 0.03800 34.68700
C  29.64400 -0.81000 35.91800
H  22.77300 2.03700 31.85200
H  23.31700 1.64600 25.43200
H  29.43300 0.25200 26.06000
H  26.34000 0.04800 33.74700
H  24.75400 2.57600 33.55500
H  23.12600 0.15100 33.53800
H  23.19300 1.30000 34.80400
H  24.40300 -0.00600 34.81100
H  27.92600 2.48900 33.95000
H  27.77900 1.32100 35.16900
H  25.50700 2.38700 35.55900
H  26.15300 3.86800 34.94500
H  20.83600 3.17300 30.89900
H  20.21600 1.62300 30.34300
H  19.98900 3.14600 29.40300
H  19.29800 1.36100 28.13100
H  18.83000 1.55700 26.37500
H  19.38300 3.01500 27.24600
H  25.51400 2.38900 24.29900
H  27.70100 0.13700 24.47900
H  24.54400 1.08500 23.01200
H  24.62900 -0.36600 24.05600
H  26.07200 0.06200 22.99000
H  27.71700 2.51200 23.32200
H  29.23100 1.85800 24.16900
H  27.96500 3.37200 26.23200
H  27.90200 4.33700 24.86300
H  29.46100 3.76700 25.50500
H  31.71700 0.19600 27.27000
H  31.31800 -1.47200 27.49400
H  32.29500 -0.54000 28.69100
H  29.89300 1.53600 32.88500
H  30.58900 -1.12800 36.35800
H  29.04600 -1.66400 35.60100
H  29.22700 -0.21200 36.72800

