158

Mg 39.99600 9.82400 29.88300
C  41.87600 11.04700 32.73400
C  37.55200 8.71900 32.06600
C  38.41800 8.49100 27.26200
C  42.72400 10.68600 27.89300
N  39.88800 9.63400 32.20300
C  40.65500 10.40900 33.14400
C  40.02200 10.32100 34.55900
C  38.70800 9.50500 34.26100
C  38.65100 9.31400 32.74100
C  38.58400 8.16800 35.01400
C  39.77000 11.79200 35.15400
C  40.67500 12.19500 36.35800
H  40.12100 12.60300 37.69800
N  38.14800 8.77300 29.66500
C  37.33900 8.43800 30.69300
C  36.21700 7.76900 30.14200
C  36.47100 7.64600 28.78300
C  37.67000 8.36000 28.45600
C  35.11200 7.24000 30.99000
C  35.60800 6.97100 27.69000
O  35.92500 6.78300 26.53100
C  34.32300 6.42200 28.05500
N  40.45800 9.71100 27.81400
C  39.68200 9.03000 26.93300
C  40.23000 9.02800 25.47800
C  41.64600 9.65700 25.74100
C  41.67600 9.99600 27.26800
C  40.40000 7.52500 24.99600
C  41.97500 10.90800 24.87100
C  41.18000 12.18400 25.25400
N  41.95700 10.69400 30.14400
C  42.90200 11.06100 29.20800
C  43.98600 11.74000 29.91400
C  43.60100 11.79800 31.29800
C  42.34100 11.06600 31.38400
C  45.18000 12.38400 29.30700
C  44.01800 12.31000 32.60100
O  45.12100 12.79300 32.91500
C  42.90800 11.78100 33.59500
C  43.63000 10.84100 34.59300
O  43.80700 9.63600 34.50300
O  44.14400 11.61600 35.59600
C  44.56600 10.98200 36.84500
H  36.72400 8.59100 32.76700
H  37.93900 8.06800 26.37700
H  43.71400 10.88900 27.48100
H  40.81500 9.87200 35.15800
H  37.79700 10.09100 34.38000
H  38.51500 7.37400 34.27000
H  37.62300 8.25500 35.52100
H  39.38000 7.98500 35.73500
H  38.73700 11.89000 35.48900
H  39.82500 12.55200 34.37500
H  41.36800 12.97300 36.03800
H  41.24000 11.28400 36.55400
H  34.21200 7.78100 30.69700
H  35.31400 7.23800 32.06100
H  35.07400 6.17600 30.75900
H  34.45900 5.72900 28.88600
H  33.83300 5.97000 27.19200
H  33.65200 7.20100 28.41800
H  39.57100 9.50300 24.75100
H  42.37100 8.86900 25.53700
H  39.98100 6.74800 25.63700
H  41.44900 7.25300 24.88000
H  39.88400 7.27400 24.06900
H  41.88700 10.49800 23.86400
H  43.04900 11.09200 24.85300
H  41.86000 12.97000 25.58400
H  40.50000 11.98500 26.08200
H  40.56200 12.47900 24.40700
H  44.99500 12.74900 28.29800
H  45.94400 11.60800 29.25700
H  45.43600 13.17400 30.01300
H  42.48200 12.65700 34.08400
H  44.21000 11.55600 37.70100
H  45.64300 11.15000 36.86800
H  44.32400 9.92000 36.88200
Mg -11.76400 16.91300 40.81700
C  -8.59000 15.54900 40.13800
C  -10.68400 19.90100 39.89900
C  -15.00200 17.86900 40.87600
C  -13.00300 13.50100 40.90000
N  -9.83900 17.57700 39.85600
C  -8.63400 16.92500 39.88900
C  -7.43300 17.89100 39.64000
C  -8.18800 19.29200 39.97000
C  -9.67300 18.96300 39.82200
C  -7.89400 19.84600 41.43100
C  -6.88400 17.76400 38.27400
C  -5.43100 18.14100 38.11000
H  -4.49500 17.07700 37.40600
N  -12.75500 18.70300 40.41900
C  -12.12000 19.80500 40.00100
C  -13.14100 20.88800 39.80600
C  -14.39900 20.25500 40.13200
C  -14.11600 18.89500 40.52000
C  -12.75600 22.24100 39.20000
C  -15.76400 20.98400 40.03200
O  -15.80300 22.12600 39.64200
C  -17.04800 20.34200 40.35400
N  -13.68500 15.83200 40.81300
C  -14.83400 16.49400 41.04600
C  -16.04100 15.53200 41.38900
C  -15.42900 14.14700 41.06500
C  -13.90800 14.45900 40.92900
C  -16.55400 15.65000 42.81300
C  -15.99100 13.33100 39.85900
C  -16.80900 12.06000 40.08700
N  -11.06500 14.88100 40.68300
C  -11.62300 13.65300 40.86600
C  -10.52600 12.67200 40.88400
C  -9.31900 13.36100 40.69800
C  -9.71200 14.70100 40.42600
C  -10.65300 11.25900 41.14800
C  -7.83100 13.26100 40.59300
O  -7.24300 12.17600 40.72900
C  -7.26200 14.63500 40.28600
C  -6.31800 14.97900 41.41600
O  -6.53200 15.00500 42.64200
O  -5.05900 15.20200 40.84300
C  -4.01900 15.85800 41.70000
H  -10.30400 20.92300 39.83800
H  -16.04100 18.18700 40.99000
H  -13.49000 12.52400 40.92100
H  -6.62500 17.81800 40.36800
H  -7.79500 20.00200 39.24300
H  -7.46000 20.84200 41.52200
H  -7.29700 19.10300 41.96000
H  -8.81300 19.85800 42.01700
H  -7.59200 18.33000 37.66900
H  -6.96700 16.72500 37.95300
H  -5.12700 18.45200 39.10900
H  -5.37800 19.09000 37.57600
H  -12.83600 22.20100 38.11400
H  -11.74900 22.51700 39.51100
H  -13.45700 23.03200 39.46700
H  -17.22000 19.55700 39.61800
H  -17.90400 21.01300 40.27500
H  -17.04000 20.01800 41.39400
H  -16.84300 15.67500 40.66500
H  -15.62900 13.44900 41.87800
H  -15.97700 16.49700 43.18300
H  -16.22900 14.83300 43.45600
H  -17.63000 15.77100 42.93900
H  -15.14900 13.06100 39.22200
H  -16.70300 13.96900 39.33600
H  -17.18800 11.91100 41.09800
H  -16.38300 11.07000 39.92500
H  -17.70100 11.97500 39.46500
H  -11.47000 10.87200 40.54000
H  -10.92100 11.10900 42.19400
H  -9.73000 10.70800 40.96400
H  -6.67000 14.43700 39.39200
H  -4.18300 16.91900 41.51600
H  -2.98400 15.54900 41.55100
H  -4.15500 15.67800 42.76600

