158

Mg -1.63600 17.44200 27.43100
C  -2.08600 15.20800 30.13500
C  -2.42400 19.98600 29.58500
C  -1.85200 19.66500 24.85100
C  -1.77300 14.85400 25.25800
N  -2.28100 17.49500 29.61600
C  -2.33600 16.48700 30.51100
C  -2.58700 17.02200 31.99600
C  -2.61600 18.58300 31.75600
C  -2.50500 18.71000 30.21900
C  -3.90300 19.23000 32.28200
C  -1.55400 16.56100 32.99200
C  -1.25200 17.45200 34.19200
H  -0.53000 16.79500 35.33900
N  -1.75800 19.57000 27.32200
C  -2.21000 20.44000 28.24700
C  -2.16400 21.85300 27.77300
C  -1.72500 21.64600 26.39400
C  -1.79700 20.25500 26.12200
C  -2.39100 23.13500 28.59600
C  -1.32700 22.68400 25.39100
O  -0.99200 22.45700 24.27700
C  -1.16900 24.06600 25.92900
N  -1.98000 17.32300 25.32900
C  -2.01200 18.36900 24.46000
C  -1.92800 17.79300 23.04900
C  -1.85700 16.23000 23.19000
C  -1.89600 16.10200 24.70800
C  -3.03600 18.19300 22.09600
C  -0.56700 15.53300 22.71600
C  0.70900 15.97800 23.52000
N  -1.74000 15.43900 27.61100
C  -1.77000 14.52400 26.63300
C  -1.78600 13.20000 27.25700
C  -1.91700 13.41000 28.61500
C  -1.87500 14.81100 28.79300
C  -1.82100 11.94900 26.57400
C  -2.09400 12.70300 29.84700
O  -2.20500 11.52600 30.10000
C  -2.08500 13.89000 30.97700
C  -0.88800 13.71100 31.75400
O  0.20400 14.17500 31.42300
O  -1.16900 13.07900 32.90900
C  0.09900 12.77500 33.63800
H  -2.44400 20.85400 30.24700
H  -1.65900 20.31300 23.99300
H  -1.82700 14.08300 24.48600
H  -3.54900 16.63100 32.32800
H  -1.69500 19.02900 32.12900
H  -4.44800 18.52800 32.91300
H  -4.45100 19.69100 31.46100
H  -3.57100 19.97300 33.00800
H  -0.68000 16.41100 32.35800
H  -1.82300 15.55000 33.29900
H  -2.19900 17.92700 34.44600
H  -0.64800 18.28800 33.83900
H  -3.06100 22.73500 29.35700
H  -3.02200 23.83000 28.04300
H  -1.49700 23.55600 29.05600
H  -2.13300 24.41200 26.30100
H  -0.88400 24.70700 25.09500
H  -0.30200 24.00100 26.58700
H  -0.98900 18.20000 22.67100
H  -2.63200 15.63500 22.70700
H  -3.30100 19.22800 22.31200
H  -3.91800 17.58500 22.30200
H  -2.73400 18.10200 21.05300
H  -0.44200 15.81500 21.67100
H  -0.59900 14.44500 22.67100
H  0.52400 16.85800 24.13600
H  1.52400 16.28500 22.86500
H  1.12300 15.14000 24.08000
H  -1.37800 12.02000 25.58100
H  -2.80800 11.48600 26.60700
H  -1.16200 11.27800 27.12500
H  -2.94500 13.74700 31.63200
H  -0.14900 12.46900 34.65500
H  0.69200 13.68900 33.67800
H  0.73200 11.98200 33.24000
Mg 35.59200 48.22900 26.03000
C  35.98400 46.35700 28.93500
C  34.37100 50.80000 27.94900
C  35.39800 50.06200 23.23800
C  36.70200 45.48600 24.18300
N  35.29600 48.53600 28.22900
C  35.53400 47.63800 29.25100
C  35.29000 48.23900 30.58100
C  34.50900 49.53100 30.20300
C  34.71300 49.68300 28.67700
C  32.96800 49.49700 30.55900
C  36.59200 48.48900 31.42500
C  36.47800 48.33800 32.88800
H  36.00700 49.58700 33.62200
N  34.95000 50.15600 25.69200
C  34.48700 51.09600 26.60300
C  34.32200 52.38000 25.99700
C  34.60900 52.13200 24.61700
C  34.95400 50.69300 24.43400
C  33.92400 53.67300 26.72600
C  34.57400 53.17900 23.47300
O  34.90800 53.04000 22.30900
C  34.07700 54.57300 23.81200
N  35.97500 47.78600 23.99900
C  35.86700 48.75600 22.96600
C  36.14100 48.10700 21.58300
C  36.66500 46.70100 21.97200
C  36.43700 46.63100 23.42200
C  34.87200 48.03200 20.64700
C  38.20700 46.64200 21.69500
C  38.52800 46.09100 20.36500
N  36.02300 46.29200 26.44200
C  36.47900 45.28000 25.58600
C  36.76500 44.08400 26.35500
C  36.61200 44.45600 27.68000
C  36.15200 45.78000 27.67100
C  37.28700 42.80200 25.89400
C  36.69800 43.99400 29.01700
O  37.03800 42.88900 29.44200
C  36.35800 45.17700 29.86900
C  35.29700 44.81500 30.97300
O  34.13100 44.62500 30.81100
O  35.97100 44.64200 32.12800
C  35.11600 44.34000 33.30800
H  34.05800 51.68900 28.50100
H  35.41500 50.67800 22.33700
H  36.90000 44.61200 23.56000
H  34.74900 47.44000 31.08700
H  34.85100 50.41500 30.74100
H  32.71100 50.17200 31.37600
H  32.76200 48.54400 31.04500
H  32.25200 49.54000 29.73900
H  36.78300 49.52100 31.13100
H  37.42700 47.94200 30.98800
H  37.51800 48.28200 33.21000
H  35.87700 47.46100 33.12900
H  34.82300 54.28400 26.64000
H  33.81700 53.62300 27.80900
H  33.13100 54.21300 26.20900
H  33.02500 54.51600 24.09200
H  34.15000 55.16200 22.89800
H  34.63900 55.18400 24.51800
H  36.93100 48.63800 21.05200
H  36.14800 45.87700 21.47900
H  34.44100 47.03100 20.65000
H  35.21700 48.36700 19.66900
H  34.03600 48.61700 21.02900
H  38.63100 45.98000 22.45000
H  38.76300 47.55900 21.89100
H  38.66300 45.02100 20.52200
H  39.41300 46.54800 19.92100
H  37.68200 46.33600 19.72300
H  38.32300 42.83500 26.23000
H  37.26500 42.73500 24.80600
H  36.82800 41.92200 26.34300
H  37.33500 45.40800 30.29200
H  34.07600 44.65400 33.22500
H  35.55200 44.89400 34.13900
H  35.12800 43.26100 33.46300

