158

Mg 24.02300 -4.70900 45.59300
C  26.02700 -2.23100 44.11200
C  21.43900 -3.53300 43.68000
C  22.52400 -7.68200 46.12100
C  27.05600 -6.11700 46.85800
N  23.74200 -3.05100 44.17800
C  24.67900 -2.20200 43.74300
C  24.13600 -1.17100 42.70400
C  22.58800 -1.39600 42.87100
C  22.59800 -2.75100 43.61000
C  21.87700 -0.27400 43.62100
C  24.62100 -1.58200 41.30800
C  25.43300 -0.50300 40.57700
H  25.40400 -0.61400 39.04700
N  22.09500 -5.37000 45.15500
C  21.20300 -4.74700 44.33200
C  20.02000 -5.53200 44.30200
C  20.28800 -6.80600 45.01400
C  21.71200 -6.66200 45.43400
C  18.76500 -5.08200 43.51000
C  19.35000 -7.89500 45.20600
O  18.31400 -7.93000 44.59100
C  19.55800 -9.04800 46.22900
N  24.76600 -6.73500 46.24200
C  23.88800 -7.76500 46.46200
C  24.46300 -8.92100 47.19000
C  25.99100 -8.33900 47.40700
C  25.97800 -6.98000 46.82100
C  23.66200 -9.46500 48.36900
C  27.08800 -9.34800 46.97000
C  28.10700 -9.65100 48.02800
N  26.10800 -4.29200 45.58100
C  27.17600 -4.90800 46.20700
C  28.35800 -4.02700 46.04100
C  27.91000 -3.01900 45.21400
C  26.52000 -3.21600 44.94500
C  29.72400 -4.30000 46.48500
C  28.41200 -1.88400 44.44100
O  29.56700 -1.47600 44.40800
C  27.16200 -1.26000 43.67000
C  26.87300 0.14000 44.06400
O  26.43400 0.39300 45.13500
O  27.39200 0.96200 43.07500
C  27.49000 2.45200 43.23400
H  20.60400 -3.04700 43.17100
H  22.01500 -8.64300 46.22400
H  27.96100 -6.54300 47.29600
H  24.36800 -0.14600 42.99500
H  22.02900 -1.36100 41.93600
H  21.41600 -0.74100 44.49100
H  21.17700 0.08500 42.86600
H  22.44800 0.59100 43.95800
H  23.74000 -1.69200 40.67500
H  25.26900 -2.45200 41.40700
H  26.46400 -0.56300 40.92600
H  25.04600 0.48300 40.83600
H  17.91600 -5.29100 44.16200
H  18.72300 -5.71800 42.62600
H  18.72900 -4.04900 43.16500
H  18.58600 -9.34100 46.62600
H  20.10200 -8.81800 47.14600
H  20.02000 -9.87600 45.69200
H  24.53300 -9.58500 46.32900
H  26.22900 -8.14800 48.45300
H  23.66100 -10.55500 48.33700
H  22.60400 -9.26600 48.19700
H  24.02200 -9.11800 49.33700
H  27.58600 -8.85100 46.13800
H  26.69600 -10.28500 46.57300
H  27.80900 -9.21900 48.98300
H  29.02200 -9.24800 47.59300
H  28.19300 -10.73700 48.06200
H  30.39400 -3.82300 45.77000
H  29.97700 -5.34400 46.66700
H  29.88000 -3.84000 47.46100
H  27.42500 -1.29000 42.61300
H  28.25500 2.49500 44.00900
H  26.58400 2.85900 43.68400
H  27.79400 3.03400 42.36400
Mg 44.55500 4.26900 45.69700
C  42.74800 7.16600 45.72600
C  41.63100 2.48900 45.47100
C  46.46200 1.60200 45.31800
C  47.53500 6.34600 45.10000
N  42.34300 4.76200 45.46200
C  41.90300 6.02400 45.52600
C  40.37300 6.09400 45.37800
C  39.98800 4.50100 45.30700
C  41.35900 3.82400 45.45000
C  38.80800 4.08400 46.28500
C  39.82000 6.82500 44.14100
C  40.81200 7.31300 43.04000
H  40.32400 7.19800 41.59400
N  44.14200 2.32100 45.53100
C  42.90300 1.77600 45.43200
C  43.01600 0.36300 45.30900
C  44.41100 0.06700 45.20100
C  45.09500 1.32800 45.33100
C  41.83000 -0.59500 45.12600
C  44.97100 -1.30700 44.88400
O  44.28500 -2.31400 44.78300
C  46.45400 -1.56300 44.72800
N  46.66200 4.01500 45.39800
C  47.18500 2.78400 45.27000
C  48.70600 2.70700 45.22400
C  49.06700 4.21700 44.95900
C  47.68000 4.91400 45.16100
C  49.37300 2.24200 46.60100
C  49.65100 4.59100 43.62100
C  51.19800 4.39800 43.52900
N  45.09800 6.30200 45.53700
C  46.29800 7.01200 45.46200
C  46.06500 8.50600 45.60300
C  44.67000 8.55900 45.75200
C  44.12400 7.26600 45.62000
C  47.10300 9.59700 45.73800
C  43.60700 9.41500 46.02900
O  43.62300 10.62300 46.18000
C  42.32800 8.61700 45.89300
C  41.45300 8.85400 47.10300
O  41.48400 8.31400 48.13700
O  40.52100 9.73400 46.72700
C  39.38800 9.90100 47.64600
H  40.71600 1.90000 45.38600
H  47.17900 0.77900 45.27700
H  48.45800 6.89800 44.90900
H  39.89500 6.61200 46.21000
H  39.69300 4.22000 44.29600
H  37.89700 3.82800 45.74500
H  38.53700 4.88800 46.97000
H  38.97400 3.15700 46.83400
H  39.21900 7.64900 44.52600
H  39.13000 6.14900 43.63600
H  41.82700 6.91800 43.10200
H  40.77400 8.38800 43.21600
H  41.98500 -1.34200 45.90400
H  41.82200 -1.08700 44.15300
H  40.90800 -0.08500 45.40400
H  46.57800 -2.60400 44.43300
H  47.01900 -1.34500 45.63400
H  46.84800 -0.96200 43.90800
H  49.05900 2.01500 44.45900
H  49.74000 4.69500 45.67100
H  48.47400 2.16000 47.21200
H  50.03100 2.91300 47.15300
H  49.76700 1.22600 46.61600
H  49.31200 5.49300 43.11000
H  49.28800 3.83500 42.92400
H  51.38200 3.61100 42.79600
H  51.76800 4.21200 44.43900
H  51.73500 5.19400 43.01300
H  46.53000 10.49200 45.98300
H  47.59800 9.82600 44.79400
H  47.84200 9.37900 46.51000
H  41.76800 9.03800 45.05800
H  38.50400 9.39700 47.25600
H  39.20200 10.96200 47.81300
H  39.47400 9.45000 48.63500

