158

Mg 9.26600 4.12500 26.89000
C  10.75900 2.55000 29.74600
C  7.10800 5.73800 29.12400
C  7.73500 5.40300 24.26400
C  10.86600 1.67500 24.92700
N  9.04200 4.22900 29.25100
C  9.70800 3.47500 30.11100
C  9.38900 3.90300 31.57400
C  8.19900 4.90700 31.42100
C  8.07900 4.95800 29.84800
C  6.91800 4.54500 32.20800
C  10.60400 4.54900 32.38900
C  10.61200 4.17800 33.88000
H  11.05600 5.07900 35.10000
N  7.75300 5.42700 26.71800
C  7.07700 6.13100 27.77500
C  6.10500 7.02700 27.15900
C  6.29600 6.91800 25.75400
C  7.29900 5.89300 25.51200
C  5.24300 7.85100 28.07100
C  5.63500 7.74300 24.57500
O  5.98800 7.65300 23.39100
C  4.47600 8.73200 24.85400
N  9.37000 3.62500 24.90400
C  8.62100 4.32700 24.00600
C  8.81300 3.83500 22.56800
C  9.59000 2.42800 22.87000
C  10.09000 2.59900 24.29100
C  7.55900 3.75100 21.65900
C  10.69300 2.21200 21.82100
C  10.95700 0.83000 21.32600
N  10.56300 2.51900 27.18900
C  11.19100 1.65000 26.30400
C  12.09300 0.77700 27.01900
C  12.01100 1.08500 28.41400
C  11.05800 2.15600 28.42400
C  12.90600 -0.28000 26.41400
C  12.52600 0.81300 29.70700
O  13.43900 0.10100 30.18100
C  11.69300 1.74800 30.70000
C  10.93500 0.88800 31.68200
O  9.98600 0.12900 31.32600
O  11.38200 1.02700 32.95900
C  10.61000 0.27400 33.96300
H  6.42100 6.21800 29.82400
H  7.25900 5.76600 23.35100
H  11.10900 0.87500 24.22400
H  9.09400 3.02700 32.15100
H  8.36400 5.94000 31.72700
H  6.52900 5.51100 32.53000
H  7.06900 3.81600 33.00500
H  6.16900 4.08100 31.56600
H  10.65400 5.62600 32.22700
H  11.44600 3.99700 31.97100
H  11.27300 3.31100 33.90700
H  9.63700 3.86200 34.25000
H  4.49400 8.39600 27.49500
H  5.86700 8.65100 28.46900
H  4.87600 7.24500 28.89900
H  4.76200 9.65100 25.36600
H  3.60800 8.19900 25.24200
H  4.17200 9.17000 23.90300
H  9.60200 4.43600 22.11600
H  8.98200 1.52500 22.93100
H  6.77000 3.99300 22.37100
H  7.35300 2.73600 21.31800
H  7.69600 4.51600 20.89500
H  11.64000 2.47200 22.29500
H  10.59200 2.83000 20.92900
H  10.08900 0.18000 21.42300
H  11.80900 0.32200 21.77900
H  11.25000 0.96100 20.28400
H  12.39900 -1.23400 26.26800
H  13.77100 -0.50800 27.03600
H  13.15600 0.08900 25.41900
H  12.50100 2.25600 31.22700
H  11.33900 -0.35700 34.47200
H  9.86800 -0.42900 33.58500
H  10.14000 0.92600 34.69900
Mg 17.54700 -0.97200 26.68600
C  16.70400 1.18200 29.41100
C  19.56100 -2.63100 28.86700
C  18.44800 -2.95600 24.14000
C  15.91800 1.24700 24.54200
N  17.92600 -0.79200 28.88900
C  17.51700 0.12400 29.78200
C  18.00000 -0.13000 31.21600
C  19.16000 -1.15700 30.92500
C  18.90300 -1.59000 29.46400
C  20.58800 -0.57500 31.09500
C  16.89900 -0.69900 32.13200
C  16.78000 -0.03200 33.47000
H  17.91200 0.68700 34.15900
N  18.78700 -2.65600 26.52300
C  19.43400 -3.18500 27.55000
C  20.16200 -4.42600 27.12400
C  19.95900 -4.43200 25.68600
C  18.99500 -3.32600 25.39000
C  20.89300 -5.37300 28.02300
C  20.45100 -5.51700 24.68600
O  20.23800 -5.44700 23.47700
C  21.20100 -6.68300 25.25300
N  17.32100 -0.78000 24.63200
C  17.69600 -1.81200 23.75600
C  17.42400 -1.42900 22.33100
C  16.36200 -0.34200 22.53200
C  16.60200 0.21900 24.00700
C  18.87800 -0.98900 21.75100
C  14.87700 -0.64800 22.24900
C  14.13900 -1.42300 23.42000
N  16.57600 0.90400 26.86000
C  15.85900 1.53200 25.91800
C  15.06100 2.54000 26.52500
C  15.37000 2.48900 27.89000
C  16.32700 1.50000 28.02200
C  14.27000 3.59400 25.77800
C  15.07500 3.08000 29.18600
O  14.32100 4.01200 29.50700
C  15.91400 2.27000 30.24800
C  16.77800 3.12900 31.07000
O  17.84400 3.58000 30.69100
O  16.23900 3.34000 32.30400
C  16.89600 4.44700 33.00000
H  20.17500 -3.30400 29.47000
H  18.72100 -3.53100 23.25200
H  15.29600 1.81500 23.84700
H  18.34400 0.75300 31.75500
H  19.03200 -2.00900 31.59300
H  20.53500 0.34300 31.67900
H  21.20200 -0.42600 30.20700
H  21.06800 -1.28000 31.77400
H  17.22900 -1.71300 32.35700
H  16.00500 -0.58200 31.52000
H  16.52800 -0.87600 34.11300
H  15.87700 0.57600 33.42500
H  21.92400 -5.45800 27.68100
H  20.47900 -6.38100 27.98000
H  20.87900 -4.93000 29.01900
H  20.64500 -7.20300 26.03300
H  22.18200 -6.33100 25.57300
H  21.32600 -7.29800 24.36200
H  17.03700 -2.25800 21.73800
H  16.64200 0.43800 21.82400
H  18.87200 0.09500 21.63700
H  19.18300 -1.51500 20.84600
H  19.73700 -1.14400 22.40400
H  14.74600 -1.19800 21.31700
H  14.38400 0.28100 21.96300
H  14.59000 -1.20200 24.38700
H  14.10500 -2.47800 23.14600
H  13.10900 -1.06700 23.38600
H  14.85100 4.07500 24.99200
H  13.88400 4.29800 26.51600
H  13.32400 3.21600 25.38900
H  15.19100 1.77700 30.89800
H  16.63100 5.39100 32.52300
H  17.97700 4.44400 32.86200
H  16.58000 4.60500 34.03100

