158

Mg -1.81800 17.27100 27.02000
C  -2.00300 15.20100 29.77300
C  -1.94300 19.90800 29.23400
C  -2.19900 19.27900 24.47100
C  -2.29100 14.44400 24.97600
N  -1.79800 17.53200 29.21400
C  -1.98000 16.53000 30.13400
C  -2.03400 17.08600 31.61000
C  -2.28400 18.62800 31.35000
C  -1.95500 18.69800 29.84100
C  -3.63800 19.15200 31.81400
C  -0.78000 16.72400 32.41200
C  -0.29100 17.66700 33.56700
H  -0.05000 16.81700 34.84600
N  -1.97400 19.39600 26.87100
C  -1.90500 20.30300 27.87400
C  -1.84700 21.63300 27.35500
C  -1.97800 21.48800 25.92400
C  -2.01500 20.02800 25.68500
C  -1.77900 22.93000 28.16600
C  -2.06500 22.60300 24.87500
O  -2.25500 22.25700 23.68800
C  -2.19000 24.08100 25.25400
N  -2.27700 16.87800 25.02600
C  -2.38500 17.93800 24.14300
C  -2.71800 17.42300 22.71000
C  -2.37400 15.88900 22.89200
C  -2.46500 15.69600 24.39400
C  -4.04800 17.80100 22.13700
C  -1.11400 15.32600 22.11100
C  0.16800 15.28200 23.01100
N  -1.92500 15.22000 27.21200
C  -2.19900 14.22000 26.30900
C  -2.29200 12.95700 27.02700
C  -2.23000 13.26600 28.40800
C  -2.04300 14.67400 28.44700
C  -2.68900 11.60800 26.43400
C  -2.38000 12.77300 29.68200
O  -2.45100 11.57700 30.04300
C  -2.29000 14.01000 30.64800
C  -1.21600 13.51800 31.57800
O  -0.00000 13.45600 31.30400
O  -1.79800 13.09900 32.74900
C  -0.80600 12.33400 33.58500
H  -2.08700 20.65300 30.01800
H  -2.34700 19.95100 23.62300
H  -2.45000 13.58600 24.32000
H  -2.88800 16.60600 32.08700
H  -1.52800 19.32200 31.71700
H  -4.10300 19.56900 30.92100
H  -3.57000 19.94100 32.56300
H  -4.27200 18.42300 32.31800
H  0.07400 16.64100 31.74000
H  -0.99300 15.76600 32.88600
H  -1.04100 18.45200 33.66700
H  0.63300 18.14600 33.24200
H  -2.56700 23.60300 27.82700
H  -0.81700 23.39300 27.94700
H  -1.83600 22.66200 29.22100
H  -1.23700 24.30600 25.73300
H  -3.10800 24.17100 25.83400
H  -2.28900 24.79800 24.43900
H  -2.08900 17.90400 21.96000
H  -3.18700 15.31300 22.45000
H  -3.84700 18.10700 21.11000
H  -4.55300 18.60200 22.67800
H  -4.71200 16.93600 22.12900
H  -0.84100 15.92500 21.24200
H  -1.27600 14.31200 21.74700
H  0.10800 15.63000 24.04200
H  1.07000 15.82300 22.72300
H  0.51600 14.25700 23.14100
H  -2.43400 10.90200 27.22400
H  -2.03500 11.24100 25.64300
H  -3.72600 11.51700 26.11000
H  -3.25600 14.05300 31.15000
H  -0.27700 11.55800 33.03200
H  -1.54300 11.88000 34.24800
H  -0.17400 12.95600 34.22000
Mg 25.62500 0.61900 29.01200
C  27.72800 0.31500 31.98600
C  22.94900 1.00800 31.06600
C  23.84600 0.88300 26.26000
C  28.47500 -0.23300 27.11800
N  25.41000 0.60500 31.24400
C  26.38700 0.60400 32.27100
C  25.62200 0.89600 33.65800
C  24.09400 1.12600 33.30700
C  24.17500 0.85600 31.80200
C  23.05200 0.23300 34.03000
C  26.21900 2.14400 34.37100
C  25.57400 2.47100 35.80100
H  26.68400 2.50200 36.95200
N  23.67000 0.88900 28.70100
C  22.70800 0.95100 29.63900
C  21.45500 1.17900 28.98000
C  21.69300 1.18000 27.62500
C  23.13700 0.93500 27.44700
C  20.16000 1.28400 29.79300
C  20.71000 1.59800 26.43200
O  21.06100 1.58900 25.27100
C  19.22900 1.94300 26.65200
N  26.10000 0.41300 27.03800
C  25.21300 0.64600 26.03000
C  25.76500 0.64000 24.63600
C  27.22200 0.23000 24.90400
C  27.28400 0.08000 26.43500
C  24.97600 -0.18200 23.59800
C  28.25900 1.19800 24.26300
C  28.96700 0.81300 22.92800
N  27.64700 0.10600 29.39800
C  28.62900 -0.21700 28.50300
C  29.78900 -0.72100 29.25800
C  29.51000 -0.40900 30.60100
C  28.19200 0.09300 30.64100
C  30.99200 -1.35200 28.69200
C  30.06900 -0.40000 31.93700
O  31.17300 -0.78700 32.29200
C  28.92700 0.00200 32.87800
C  28.63900 -1.02300 33.88300
O  27.85400 -1.97300 33.68000
O  29.49800 -0.88700 34.96300
C  29.33700 -2.01200 35.98100
H  22.13600 1.26900 31.74700
H  23.36400 1.24800 25.35000
H  29.15200 -0.66400 26.37700
H  25.77800 0.01100 34.27300
H  23.70300 2.13400 33.45100
H  22.22700 0.90500 34.27000
H  23.42100 -0.07500 35.00800
H  22.78900 -0.61300 33.39600
H  26.13700 3.04200 33.75800
H  27.28700 2.02500 34.55400
H  24.84200 1.69500 36.02500
H  25.11800 3.45900 35.73800
H  19.81900 2.28500 29.52800
H  20.29400 1.18200 30.87000
H  19.40100 0.59900 29.41600
H  18.76500 2.48300 25.82700
H  19.09400 2.62200 27.49300
H  18.73500 0.98300 26.80300
H  25.71400 1.70600 24.41300
H  27.38700 -0.74500 24.44700
H  24.81100 0.51300 22.77500
H  24.04800 -0.61400 23.97300
H  25.59600 -1.02900 23.30500
H  29.12000 1.28600 24.92500
H  27.81900 2.19400 24.21300
H  28.64300 -0.12900 22.48600
H  30.05300 0.86400 23.00800
H  28.64000 1.63700 22.29400
H  31.19300 -0.87100 27.73500
H  30.60200 -2.35000 28.49000
H  31.83000 -1.23300 29.37800
H  29.27500 0.90000 33.38800
H  29.05400 -1.56400 36.93300
H  30.24600 -2.61200 36.02500
H  28.64600 -2.83800 35.81400

