158

Mg 54.31800 24.95700 46.07300
C  51.73800 26.92500 44.90900
C  52.86400 22.25500 44.24400
C  57.31000 23.14700 46.29700
C  55.84700 27.59800 47.49700
N  52.57100 24.68900 44.66200
C  51.62100 25.61900 44.32000
C  50.51600 24.98900 43.49900
C  50.68600 23.52800 43.72000
C  52.11700 23.41900 44.37400
C  49.66900 22.86200 44.66100
C  50.76900 25.28500 41.96300
C  52.18000 25.78900 41.49500
H  53.30400 24.75900 41.39900
N  55.01100 23.04000 45.42200
C  54.23200 22.13900 44.64400
C  54.98900 20.90300 44.41500
C  56.24300 21.10400 45.12200
C  56.27600 22.44800 45.59000
C  54.45800 19.67500 43.74600
C  57.35400 20.03900 45.09500
O  57.15600 18.98900 44.55600
C  58.78900 20.28200 45.55400
N  56.37200 25.24600 46.82900
C  57.39600 24.39300 46.85300
C  58.69000 25.05000 47.38700
C  58.24100 26.54400 47.70800
C  56.68500 26.42500 47.40600
C  59.32500 24.29300 48.60200
C  58.89700 27.65300 46.83700
C  58.73600 27.52000 45.35200
N  53.94100 26.82800 46.29400
C  54.59000 27.74700 46.99300
C  53.75300 28.93000 46.96000
C  52.56700 28.66800 46.15300
C  52.78900 27.31400 45.71300
C  54.05800 30.24100 47.61400
C  51.35200 29.19000 45.64400
O  50.85100 30.29800 45.74300
C  50.69900 28.04600 44.75800
C  50.68100 28.64400 43.42700
O  51.61900 29.12500 42.76900
O  49.39600 28.31700 42.84200
C  49.24000 28.49800 41.38000
H  52.22900 21.45600 43.85700
H  58.24400 22.61700 46.49700
H  56.32600 28.53200 47.79600
H  49.54900 25.41900 43.75900
H  50.63200 22.92900 42.81000
H  48.75700 23.42400 44.46000
H  49.83700 22.82300 45.73700
H  49.55900 21.85100 44.27100
H  50.09400 26.08500 41.65700
H  50.45700 24.48500 41.29200
H  52.42900 26.67100 42.08500
H  52.17300 26.10400 40.45200
H  55.16100 19.31100 42.99700
H  53.48100 19.82000 43.28500
H  54.32500 18.87300 44.47300
H  59.42000 19.46100 45.21400
H  58.87600 20.39800 46.63400
H  59.23000 21.12800 45.02600
H  59.40700 24.98100 46.56800
H  58.50400 26.76700 48.74200
H  59.22500 24.92300 49.48600
H  60.34200 24.09700 48.26100
H  58.76600 23.38300 48.81900
H  59.93500 27.34500 46.96300
H  58.82200 28.68000 47.19300
H  57.79800 26.99700 45.16600
H  59.52000 27.03300 44.77200
H  58.51700 28.47800 44.88000
H  54.87200 30.21200 48.33900
H  53.17100 30.72600 48.02200
H  54.41200 31.01200 46.92900
H  49.69000 27.68300 44.95500
H  50.19100 28.35900 40.86500
H  48.75000 29.45600 41.20800
H  48.50300 27.76200 41.06000
Mg 10.34600 47.37200 26.07400
C  8.32100 47.61200 28.90100
C  13.01900 48.18100 27.88700
C  12.26100 47.56800 23.08100
C  7.44300 47.32000 24.11200
N  10.56100 48.04900 28.24100
C  9.70800 47.79300 29.20000
C  10.39800 47.86800 30.52800
C  11.77000 48.57000 30.12600
C  11.82600 48.20800 28.64500
C  11.76100 50.14400 30.34000
C  10.47200 46.53900 31.35700
C  10.30700 46.62500 32.90300
H  10.47600 45.40900 33.87500
N  12.35700 47.74800 25.63200
C  13.30900 47.99700 26.53000
C  14.64100 47.83800 25.89500
C  14.41900 47.65000 24.54500
C  13.01300 47.69600 24.32700
C  15.99800 47.95200 26.66600
C  15.42500 47.37500 23.44300
O  15.15400 46.90800 22.33400
C  16.89600 47.47200 23.72300
N  9.93800 47.44500 23.88700
C  10.88600 47.57800 22.92800
C  10.24000 47.64200 21.59000
C  8.66500 47.57000 21.90200
C  8.66800 47.44600 23.45000
C  10.70300 48.93400 20.83000
C  7.94800 46.41400 21.15000
C  7.95400 45.03500 21.79300
N  8.33700 47.28500 26.35900
C  7.25200 47.26600 25.49100
C  6.05500 47.11400 26.26400
C  6.43100 47.30600 27.57200
C  7.81900 47.39500 27.62600
C  4.69900 46.95400 25.67900
C  5.80300 47.53400 28.90600
O  4.67800 47.80400 29.23400
C  7.08000 47.47200 29.83800
C  6.99500 46.13100 30.49900
O  6.98200 45.09400 29.87300
O  7.09800 46.31600 31.83200
C  7.13900 45.08400 32.56000
H  13.92200 48.37900 28.46800
H  12.74200 47.48400 22.10400
H  6.53900 47.26600 23.50200
H  9.79600 48.46900 31.20900
H  12.54600 48.20000 30.79700
H  12.67600 50.30600 30.91000
H  10.94200 50.50400 30.96300
H  11.85300 50.64700 29.37800
H  11.28400 45.95100 30.92700
H  9.55000 45.96500 31.26700
H  9.26800 46.93300 33.02100
H  10.92800 47.47500 33.18700
H  15.91800 47.78500 27.74000
H  16.37600 48.93600 26.39000
H  16.64900 47.12100 26.39300
H  17.22200 48.23800 24.42700
H  17.36500 47.50100 22.73900
H  17.27700 46.55500 24.17100
H  10.52100 46.65000 21.23700
H  8.16900 48.50300 21.63300
H  11.61200 49.41600 21.19100
H  9.80700 49.49600 20.56500
H  10.98200 48.50500 19.86700
H  8.37700 46.24700 20.16200
H  6.91400 46.68100 20.93300
H  7.12900 45.02300 22.50500
H  8.91100 44.87200 22.28900
H  7.66300 44.30400 21.03900
H  4.46200 47.77600 25.00300
H  4.05800 47.14400 26.54000
H  4.47900 45.95100 25.31400
H  7.07000 48.20800 30.64100
H  6.23400 44.52700 32.31800
H  6.92300 45.36800 33.59000
H  7.99600 44.41700 32.47300

