158

Mg 47.61600 17.15100 28.50200
C  45.57000 17.03500 31.23600
C  49.80000 19.08900 30.25200
C  49.37800 17.83000 25.59000
C  44.95800 15.68300 26.55000
N  47.54000 18.07100 30.38000
C  46.73700 17.77900 31.41500
C  47.22300 18.42600 32.76100
C  48.37600 19.33800 32.27100
C  48.55700 18.88200 30.83000
C  48.08900 20.88600 32.57500
C  47.77900 17.24500 33.65900
C  47.47200 17.45900 35.20100
H  46.93600 18.75700 35.72400
N  49.42300 18.20500 27.97600
C  50.22200 18.80700 28.93400
C  51.43400 19.28700 28.35400
C  51.28800 18.92800 26.92100
C  50.00600 18.31300 26.80000
C  52.58600 20.00600 29.08000
C  52.22700 19.26200 25.85800
O  52.00500 19.03600 24.67000
C  53.58700 19.85800 26.16800
N  47.09000 16.98600 26.38000
C  48.03000 17.30100 25.39800
C  47.54700 16.87000 23.98600
C  46.29400 15.96200 24.39200
C  46.10900 16.20900 25.85600
C  47.22200 18.09800 23.03200
C  46.47600 14.37700 23.99400
C  45.43800 13.84600 22.92700
N  45.66800 16.46300 28.74700
C  44.69800 15.83400 27.94400
C  43.57700 15.45800 28.73300
C  43.85600 15.81800 30.00600
C  45.06300 16.54600 30.01800
C  42.37500 14.69700 28.34100
C  43.31000 15.91100 31.29000
O  42.14300 15.67400 31.64200
C  44.42100 16.64100 32.16700
C  43.84100 17.66900 33.04700
O  43.45200 18.81300 32.74700
O  43.52100 16.95300 34.21200
C  42.55300 17.53400 35.15000
H  50.44000 19.76900 30.81700
H  49.90200 17.93300 24.63700
H  44.12500 15.16200 26.07300
H  46.45400 19.02600 33.24700
H  49.26900 19.16900 32.87300
H  48.96000 21.22600 33.13500
H  47.18500 21.01700 33.16900
H  48.07200 21.60500 31.75600
H  48.85100 17.10500 33.52400
H  47.20300 16.35100 33.41800
H  48.42100 17.27100 35.70300
H  46.74500 16.69200 35.47100
H  52.38100 20.25500 30.12100
H  53.04700 20.87800 28.61600
H  53.36100 19.23900 29.04600
H  54.13000 19.20200 26.84800
H  53.39100 20.90100 26.42000
H  54.14100 19.86100 25.23000
H  48.33500 16.26600 23.53600
H  45.41800 16.23700 23.80500
H  46.18700 18.16200 22.69500
H  47.90600 18.08900 22.18400
H  47.39400 19.07600 23.48200
H  46.39100 13.71900 24.85900
H  47.44900 14.34600 23.50300
H  44.50000 13.50300 23.36300
H  45.74400 13.10400 22.18900
H  45.28000 14.75800 22.35200
H  42.76300 13.69900 28.13600
H  41.76100 15.12600 27.55000
H  41.85000 14.54300 29.28400
H  44.92900 15.86400 32.73700
H  43.16800 18.13300 35.82200
H  42.04500 16.78700 35.75900
H  41.79800 18.10700 34.61200
Mg 6.00400 54.09200 40.75400
C  5.40500 50.77700 40.19200
C  9.25800 53.70400 39.69500
C  6.33800 57.43600 40.77300
C  2.62900 54.45100 41.79800
N  7.12300 52.44900 39.80900
C  6.72600 51.17700 39.81500
C  7.86900 50.28500 39.19400
C  9.12600 51.15000 39.58500
C  8.46300 52.52600 39.68700
C  9.85300 50.78600 40.91300
C  7.65500 50.16100 37.65400
C  7.75500 48.85600 36.94000
H  6.75000 48.62200 35.79300
N  7.55300 55.38200 40.21400
C  8.78100 55.02200 39.81700
C  9.59800 56.21600 39.55700
C  8.77600 57.33700 39.86200
C  7.49400 56.76900 40.26200
C  11.06800 56.13300 39.17200
C  9.20000 58.81600 39.87600
O  10.30000 59.13300 39.42700
C  8.36700 59.96500 40.24000
N  4.63500 55.66400 41.09300
C  5.02800 56.97800 41.07800
C  3.91100 57.93100 41.57800
C  2.75100 56.97700 41.86600
C  3.33000 55.63800 41.52500
C  4.43400 58.91700 42.73900
C  1.29500 57.29200 41.14600
C  0.20200 58.03700 41.98600
N  4.20700 52.91300 40.97500
C  3.02100 53.12900 41.56500
C  2.32000 51.87700 41.62900
C  3.18100 50.98900 41.10000
C  4.36000 51.61300 40.76200
C  0.97800 51.57800 42.36600
C  3.32900 49.55700 40.83200
O  2.53200 48.66600 41.06800
C  4.85700 49.37000 40.35900
C  4.93800 48.50500 39.10900
O  4.11300 48.31400 38.17400
O  5.87700 47.49000 39.46000
C  5.64600 46.14600 39.00800
H  10.31200 53.43300 39.61200
H  6.46500 58.51900 40.82600
H  1.59600 54.55700 42.13600
H  7.73800 49.32100 39.68600
H  9.79500 51.20100 38.72600
H  9.33400 50.00100 41.46300
H  10.05500 51.56600 41.64700
H  10.82400 50.40100 40.60100
H  8.51600 50.63200 37.18100
H  6.74500 50.63700 37.28900
H  7.65300 48.07300 37.69200
H  8.73600 48.73400 36.48100
H  11.69200 55.30700 39.51400
H  11.67900 57.01400 39.36700
H  10.97900 56.15700 38.08600
H  8.95700 60.87700 40.32800
H  8.18400 59.81900 41.30500
H  7.57200 60.00100 39.49600
H  3.67900 58.64900 40.79200
H  2.56900 57.00000 42.94000
H  3.76100 58.75700 43.58200
H  4.28000 59.97700 42.53600
H  5.48200 58.72700 42.96700
H  0.98700 56.27000 40.92200
H  1.52000 57.73600 40.17700
H  0.26100 57.88100 43.06400
H  -0.78900 57.70100 41.68000
H  0.28000 59.12200 41.90800
H  0.90700 50.61000 42.86200
H  0.11400 51.82500 41.75000
H  0.84200 52.17100 43.27100
H  5.25300 48.83900 41.22500
H  4.71200 45.82200 39.46700
H  6.45500 45.53600 39.40900
H  5.48100 46.10000 37.93100

