158

Mg 0.39000 7.25800 25.93800
C  1.16600 9.35800 28.73200
C  0.67500 4.55900 28.11500
C  -0.27500 5.38900 23.35200
C  0.92000 10.11900 23.85900
N  0.73300 7.04200 28.24800
C  1.06700 8.04700 29.14000
C  1.27600 7.42300 30.50500
C  1.35100 5.88900 30.25700
C  0.86100 5.75500 28.76300
C  2.76100 5.28100 30.35000
C  0.14100 7.81000 31.40200
C  0.42500 7.91800 32.88000
H  1.65500 7.08200 33.44700
N  0.09600 5.22900 25.78400
C  0.36500 4.31600 26.81800
C  0.23500 3.02700 26.23500
C  -0.10600 3.18400 24.82000
C  -0.08100 4.63000 24.55600
C  0.58900 1.85700 27.12800
C  -0.36700 2.20100 23.81900
O  -0.69700 2.47300 22.64600
C  -0.47900 0.77200 24.30500
N  0.60600 7.65300 23.86000
C  0.07900 6.73400 23.00400
C  -0.11000 7.36900 21.62500
C  0.08200 8.92900 21.81600
C  0.55700 8.91700 23.26600
C  0.85300 6.85300 20.50700
C  -1.15100 9.85300 21.63400
C  -1.41400 10.54100 20.21500
N  0.93000 9.35800 26.22500
C  1.05900 10.35800 25.25900
C  1.47900 11.55800 25.93500
C  1.50100 11.26600 27.29100
C  1.10100 9.88100 27.37400
C  1.71500 12.89000 25.21600
C  1.68800 11.83400 28.64000
O  2.13400 12.91600 28.96500
C  1.44600 10.50100 29.63700
C  2.67800 10.56600 30.44600
O  3.82700 10.27500 30.07500
O  2.30500 10.74500 31.74200
C  3.37200 10.69900 32.70000
H  1.00400 3.68400 28.67900
H  -0.74500 4.77500 22.58100
H  0.97100 11.09500 23.37300
H  2.19500 7.89000 30.86000
H  0.72100 5.27700 30.90300
H  2.73000 4.62900 31.22300
H  3.35900 6.13900 30.65400
H  3.03200 4.88800 29.37000
H  -0.58300 7.00500 31.27300
H  -0.36700 8.66900 30.96400
H  -0.47600 7.62100 33.41700
H  0.51700 8.99000 33.05200
H  0.53100 0.95700 26.51600
H  -0.12600 1.78000 27.94600
H  1.60800 1.86500 27.51600
H  0.43700 0.25000 24.58000
H  -0.89100 0.10600 23.54700
H  -1.13700 0.74100 25.17300
H  -1.16600 7.22600 21.39500
H  0.88000 9.34900 21.20400
H  1.46300 6.05000 20.92000
H  1.44800 7.67300 20.10600
H  0.30900 6.35800 19.70300
H  -1.04200 10.74000 22.25900
H  -1.98500 9.20500 21.90400
H  -2.47700 10.47500 19.98500
H  -0.84000 10.11800 19.39100
H  -1.05500 11.56500 20.32100
H  0.79700 13.47300 25.28100
H  2.05600 12.86900 24.18000
H  2.53200 13.41200 25.71500
H  0.55100 10.66500 30.23700
H  3.61600 11.75700 32.80300
H  4.28800 10.14200 32.50600
H  3.12600 10.37500 33.71100
Mg 47.46500 15.54100 28.40600
C  45.05900 15.26700 30.98000
C  49.40500 17.23400 30.55000
C  49.44800 16.14300 25.80700
C  45.01000 14.33100 26.17500
N  47.17400 16.23800 30.48900
C  46.22700 15.89400 31.37200
C  46.61800 16.15400 32.81500
C  47.85200 17.02700 32.64400
C  48.22400 16.84300 31.17800
C  47.67400 18.48400 33.10300
C  46.83100 14.79400 33.58200
C  46.11100 14.69700 35.00200
H  46.15300 15.87500 35.95200
N  49.22600 16.44500 28.21100
C  49.89100 17.02200 29.23300
C  51.20200 17.60000 28.70000
C  51.24500 17.27200 27.26300
C  49.92900 16.65600 27.01800
C  52.14400 18.30300 29.65900
C  52.37800 17.51100 26.25400
O  52.26000 17.18900 25.05000
C  53.67500 18.07100 26.67600
N  47.14700 15.49100 26.28200
C  48.20600 15.64900 25.46600
C  47.85300 15.19200 24.04000
C  46.51800 14.50900 24.20400
C  46.17700 14.80700 25.67200
C  47.81300 16.34300 22.93300
C  46.57600 12.99300 23.84500
C  45.48700 12.62500 22.82000
N  45.47100 14.86800 28.52900
C  44.63200 14.41600 27.51600
C  43.29900 14.04400 28.12600
C  43.44700 14.23500 29.50500
C  44.73300 14.84000 29.66100
C  42.15000 13.30700 27.50600
C  42.89200 14.12700 30.78800
O  41.86200 13.55100 31.08600
C  43.78200 14.85100 31.77100
C  43.11900 16.04800 32.38700
O  43.40900 17.23000 32.17700
O  42.32700 15.61500 33.33700
C  41.77300 16.57600 34.29300
H  50.01200 17.77700 31.27700
H  50.08200 16.36300 24.94500
H  44.42400 13.85500 25.38600
H  45.81000 16.67100 33.33300
H  48.71700 16.77900 33.26000
H  46.84100 18.61400 33.79400
H  47.43900 19.12900 32.25700
H  48.59600 18.76600 33.61400
H  47.89400 14.59500 33.71500
H  46.61300 13.95500 32.92100
H  46.55100 13.89900 35.60100
H  45.08800 14.37000 34.81700
H  52.68400 19.05600 29.08600
H  52.82800 17.65900 30.21200
H  51.57100 18.94000 30.33300
H  53.66000 19.05000 27.15400
H  54.28500 18.14000 25.77500
H  54.05500 17.34900 27.39900
H  48.72700 14.62000 23.72800
H  45.72500 15.01500 23.65300
H  46.89600 16.91500 22.78800
H  48.23200 15.91400 22.02300
H  48.62400 16.96600 23.30900
H  46.62800 12.41800 24.77000
H  47.47700 12.72900 23.29100
H  44.53300 13.13600 22.95200
H  45.28600 11.55900 22.92800
H  45.84700 12.67700 21.79300
H  42.55500 12.34900 27.18000
H  41.71000 13.89900 26.70400
H  41.41200 13.13000 28.28900
H  44.03600 14.19900 32.60600
H  42.48400 17.31500 34.66400
H  41.34500 16.03800 35.13900
H  40.96000 17.16100 33.86400

