158

Mg 15.71200 -1.50200 28.16500
C  14.55800 0.49100 30.86300
C  17.89600 -3.10600 30.38300
C  16.66300 -3.43200 25.68800
C  13.88500 0.51000 26.00000
N  16.24200 -1.21900 30.33700
C  15.52300 -0.45200 31.23500
C  16.08600 -0.67700 32.70500
C  17.15300 -1.82900 32.50800
C  17.13200 -2.05100 30.93800
C  18.57500 -1.52800 33.04400
C  14.93900 -1.11600 33.72000
C  15.09500 -0.73500 35.18700
H  16.35300 -0.07400 35.76600
N  17.17500 -2.99100 28.01100
C  17.85000 -3.57600 29.07700
C  18.73300 -4.59600 28.48300
C  18.24900 -4.89800 27.15200
C  17.32700 -3.75000 26.89400
C  19.69100 -5.32500 29.36700
C  18.51800 -5.96400 26.12700
O  17.71800 -6.13100 25.19800
C  19.41900 -7.09700 26.54400
N  15.37300 -1.49300 26.14700
C  15.83900 -2.42400 25.33500
C  15.43200 -2.15200 23.85000
C  14.49500 -0.88500 23.96900
C  14.57000 -0.63000 25.50200
C  16.58200 -1.95300 22.81500
C  13.06700 -1.02200 23.38100
C  11.90500 -1.65900 24.15400
N  14.37000 0.09300 28.37500
C  13.74600 0.81500 27.32700
C  12.95900 1.81000 27.97200
C  13.28400 1.79700 29.37000
C  14.11600 0.74300 29.52500
C  12.19600 2.85900 27.22200
C  13.05600 2.44700 30.62900
O  12.37700 3.42700 30.83400
C  13.70500 1.47700 31.70200
C  14.49000 2.38800 32.56400
O  15.58200 2.91500 32.35400
O  13.77800 2.68800 33.66200
C  14.38900 3.59000 34.65500
H  18.59000 -3.52600 31.11400
H  16.85800 -4.00800 24.78100
H  13.29800 1.10300 25.29600
H  16.54500 0.29700 32.87200
H  16.94800 -2.74900 33.05500
H  18.41300 -0.60500 33.60200
H  19.27900 -1.25800 32.25700
H  18.82500 -2.43000 33.60200
H  15.03600 -2.19900 33.65000
H  14.00400 -0.80700 33.25400
H  14.87800 -1.65700 35.72700
H  14.30500 -0.02100 35.42100
H  20.65900 -5.56000 28.92600
H  19.25800 -6.24200 29.76900
H  19.92600 -4.71500 30.23900
H  19.35600 -7.95900 25.88000
H  19.12900 -7.46900 27.52700
H  20.45300 -6.76600 26.45600
H  14.80000 -2.93900 23.43700
H  15.04600 -0.05900 23.51900
H  17.47500 -1.93000 23.44000
H  16.46100 -1.19600 22.04000
H  16.62400 -2.88700 22.25400
H  13.05900 -1.60400 22.45900
H  12.61900 -0.07100 23.09300
H  12.14000 -2.20600 25.06700
H  11.39500 -2.37300 23.50800
H  11.32100 -0.84100 24.57600
H  12.67700 3.14700 26.28700
H  12.02700 3.65700 27.94500
H  11.19600 2.46700 27.03500
H  12.96000 0.96300 32.31000
H  14.36500 4.61600 34.28700
H  15.45400 3.39100 34.77000
H  13.78100 3.64100 35.55800
Mg 27.14000 50.30100 25.91300
C  24.94800 51.30300 28.53200
C  29.42900 49.55000 28.29100
C  29.28100 49.61200 23.40700
C  24.95200 51.73600 23.54100
N  27.12800 50.45000 28.17600
C  26.13200 50.78700 29.00200
C  26.52900 50.62700 30.50300
C  27.99400 50.13100 30.38800
C  28.19700 49.92800 28.87600
C  29.06600 51.09900 30.97400
C  25.49100 49.69600 31.27600
C  24.74600 50.23900 32.53400
H  24.42100 49.26200 33.71500
N  29.09900 49.58400 25.85400
C  29.87200 49.33400 26.94800
C  31.16200 48.90800 26.58100
C  31.15700 48.90800 25.12100
C  29.80900 49.31300 24.75400
C  32.17200 48.31000 27.50700
C  32.24900 48.75500 24.06000
O  32.07100 48.94900 22.86100
C  33.67800 48.54400 24.52200
N  27.16100 50.73800 23.74300
C  28.07800 50.18600 22.91900
C  27.70400 50.31300 21.46600
C  26.24500 50.88300 21.52300
C  26.06200 51.12800 23.01700
C  28.74700 51.09800 20.58300
C  25.03100 50.11000 20.93400
C  24.37300 50.68700 19.68300
N  25.31500 51.37700 25.95000
C  24.55900 51.86900 24.91800
C  23.34200 52.41100 25.44300
C  23.48700 52.16700 26.84300
C  24.63200 51.52800 27.12900
C  22.37200 53.16800 24.77100
C  22.80500 52.44600 28.18000
O  21.75400 53.00400 28.34600
C  23.79100 51.94200 29.31400
C  24.10900 53.05700 30.23200
O  24.96700 53.86600 30.07400
O  23.38600 53.13000 31.41900
C  23.90000 53.99700 32.52200
H  30.13400 49.27500 29.07800
H  29.81300 49.13600 22.58000
H  24.18100 51.99700 22.81300
H  26.57900 51.57400 31.04000
H  28.27500 49.18800 30.85700
H  29.69200 51.43000 30.14500
H  29.80000 50.51200 31.52600
H  28.66000 51.88600 31.61000
H  26.10100 48.83600 31.55100
H  24.79400 49.19100 30.60800
H  23.78600 50.64500 32.21300
H  25.34500 51.02000 33.00100
H  33.01800 47.85600 26.99200
H  31.77200 47.45600 28.05500
H  32.46700 49.07200 28.22800
H  33.93200 49.41000 25.13400
H  34.28200 48.53800 23.61500
H  33.79100 47.61800 25.08600
H  27.71300 49.32400 21.00700
H  26.38300 51.86100 21.06300
H  29.17200 51.84500 21.25300
H  28.37100 51.56700 19.67400
H  29.53700 50.40400 20.29500
H  24.28300 49.97900 21.71600
H  25.37000 49.10500 20.68400
H  24.46300 49.96500 18.87100
H  24.97000 51.49000 19.25000
H  23.34000 51.03100 19.72000
H  22.28200 52.92000 23.71300
H  22.68700 54.21100 24.73500
H  21.37700 53.22800 25.21200
H  23.33200 51.17500 29.93700
H  23.40200 54.96100 32.41500
H  24.97600 54.13700 32.61600
H  23.59500 53.55300 33.47000

