158

Mg 2.07500 -2.45500 44.23900
C  5.40000 -1.76600 43.55100
C  1.18700 0.20500 42.08000
C  -1.13000 -3.28300 44.43000
C  3.07300 -5.57700 45.66100
N  3.11900 -1.08500 42.83300
C  4.51000 -0.89000 42.87300
C  4.99600 0.31200 41.88800
C  3.61700 0.91100 41.44100
C  2.54400 -0.04700 42.11900
C  3.32100 2.40900 41.94000
C  5.93800 -0.07000 40.66900
C  7.13200 0.93800 40.48600
H  8.06600 0.72500 39.23700
N  0.24900 -1.56700 43.55600
C  0.12800 -0.46200 42.74200
C  -1.29600 -0.19600 42.54700
C  -2.02700 -1.13300 43.33100
C  -0.95000 -2.02700 43.82200
C  -1.85200 0.92300 41.66200
C  -3.60500 -1.15000 43.51300
O  -4.34600 -0.33100 42.96200
C  -4.28200 -2.13500 44.43200
N  1.08200 -4.23700 44.89100
C  -0.28500 -4.26700 44.92700
C  -0.76000 -5.65500 45.39400
C  0.52200 -6.21700 46.09600
C  1.66600 -5.34900 45.51500
C  -2.11800 -5.79300 46.20900
C  0.80400 -7.74500 45.87700
C  0.28300 -8.68100 47.05400
N  3.78300 -3.50600 44.58700
C  4.08600 -4.68400 45.25800
C  5.51600 -4.73800 45.44600
C  6.02400 -3.58400 44.84500
C  4.95300 -2.89900 44.33400
C  6.24000 -5.83900 46.14000
C  7.23500 -2.83300 44.69500
O  8.35000 -3.07300 45.17900
C  6.92600 -1.65700 43.78400
C  7.31400 -0.52300 44.61000
O  7.05100 -0.32600 45.76800
O  7.98300 0.39100 43.75200
C  8.18500 1.74300 44.25600
H  0.95700 1.14600 41.57600
H  -2.14400 -3.68700 44.40800
H  3.35600 -6.48100 46.20400
H  5.50400 1.01500 42.54800
H  3.49000 0.97900 40.36100
H  2.80800 2.95100 41.14600
H  4.25400 2.90800 42.20300
H  2.82700 2.37200 42.91100
H  5.37000 -0.19000 39.74700
H  6.35500 -1.05200 40.89400
H  7.82100 0.85300 41.32600
H  6.77900 1.96900 40.50000
H  -2.33000 0.53000 40.76500
H  -1.10700 1.62900 41.29400
H  -2.63000 1.55400 42.09100
H  -4.45800 -3.15100 44.08100
H  -5.21200 -1.71600 44.81800
H  -3.64100 -2.20800 45.31000
H  -0.85200 -6.21200 44.46100
H  0.65800 -6.03700 47.16300
H  -1.96200 -6.07000 47.25100
H  -2.76000 -6.54500 45.75000
H  -2.55300 -4.79500 46.14400
H  1.88300 -7.87300 45.78900
H  0.36300 -7.99800 44.91300
H  -0.39100 -8.16400 47.73600
H  1.09100 -9.03800 47.69300
H  -0.14600 -9.58500 46.62000
H  5.94800 -6.73500 45.59300
H  5.91200 -5.72200 47.17200
H  7.31200 -5.64100 46.11700
H  7.44700 -1.80600 42.83800
H  8.87300 1.69700 45.10100
H  7.18700 2.07200 44.54500
H  8.56000 2.52700 43.59800
Mg 47.12900 25.58700 28.04700
C  48.20500 27.42000 30.81100
C  46.15300 23.02000 30.20500
C  45.98900 23.90600 25.42300
C  48.48900 28.08000 25.98200
N  47.18000 25.30700 30.25000
C  47.67000 26.15900 31.16000
C  47.43900 25.71800 32.59800
C  47.02300 24.23800 32.37500
C  46.73600 24.16800 30.87600
C  48.03300 23.22200 32.93200
C  46.42100 26.60700 33.36600
C  46.93800 27.32600 34.62800
H  46.02100 27.38800 35.87300
N  46.29100 23.65600 27.83100
C  45.93600 22.75800 28.81900
C  45.19700 21.66600 28.16600
C  45.25100 21.84900 26.76000
C  45.93000 23.18000 26.59800
C  44.64200 20.58700 28.95000
C  44.69800 20.94400 25.60000
O  44.96000 21.21600 24.44900
C  43.81600 19.79900 25.92300
N  47.42600 25.82400 26.01500
C  46.82700 24.97100 25.10700
C  46.99200 25.49100 23.69000
C  47.70900 26.78600 23.89000
C  47.82000 26.96400 25.42500
C  47.53400 24.65700 22.55600
C  47.06200 27.95000 23.10000
C  48.03700 28.71200 22.19100
N  48.04900 27.43200 28.29600
C  48.62400 28.38800 27.31900
C  49.25200 29.47300 28.07000
C  49.11500 29.07100 29.38900
C  48.32900 27.90300 29.46800
C  49.91800 30.54600 27.38800
C  49.46000 29.44600 30.69600
O  50.05100 30.45700 31.14300
C  48.80100 28.52000 31.65200
C  49.86300 27.98200 32.43700
O  50.58300 27.06800 32.16500
O  49.94600 28.61000 33.67800
C  51.01400 28.14400 34.53200
H  45.68200 22.30000 30.87800
H  45.47300 23.44500 24.57800
H  48.83900 28.90700 25.36000
H  48.42100 25.82400 33.05900
H  46.09100 24.13200 32.93100
H  48.59700 22.76700 32.11800
H  47.61300 22.40600 33.52100
H  48.74200 23.60900 33.66400
H  45.45500 26.16400 33.61000
H  46.14900 27.43300 32.71000
H  47.13900 28.36600 34.37200
H  47.85000 26.84100 34.97500
H  45.13600 19.69100 28.57400
H  43.56800 20.45300 28.82200
H  44.93100 20.68200 29.99700
H  44.34800 19.00900 26.45300
H  43.53800 19.31900 24.98500
H  42.86900 20.05500 26.39900
H  45.94400 25.64400 23.43500
H  48.73000 26.75500 23.51100
H  47.80700 23.66600 22.91800
H  48.46200 25.10800 22.20500
H  46.84400 24.66200 21.71200
H  46.60300 28.74900 23.68200
H  46.23000 27.58900 22.49500
H  47.52000 29.04700 21.29300
H  48.80600 28.08600 21.73800
H  48.50300 29.55700 22.69800
H  49.42400 30.74300 26.43700
H  50.95900 30.28000 27.20800
H  49.76200 31.47600 27.93600
H  48.13700 29.14400 32.25100
H  52.00100 28.35300 34.12000
H  50.87800 27.06900 34.65000
H  50.93500 28.54000 35.54400

