158

Mg 8.99300 4.15700 27.63200
C  10.29300 2.42400 30.37100
C  7.07800 5.96100 29.69400
C  7.66200 5.49100 24.90800
C  10.70700 1.83500 25.55300
N  8.62700 4.02800 29.76100
C  9.35700 3.43000 30.72500
C  9.22600 4.00900 32.09900
C  8.02600 4.98400 31.91600
C  7.83200 5.01000 30.35200
C  6.69600 4.64100 32.65300
C  10.57300 4.77700 32.57700
C  10.50300 5.51200 33.88400
H  11.41300 4.95000 35.02000
N  7.63900 5.57900 27.34700
C  6.94900 6.26700 28.34800
C  6.07200 7.26500 27.75000
C  6.13100 7.08300 26.31900
C  7.18200 6.06700 26.14100
C  5.08900 8.08100 28.59300
C  5.38900 7.86300 25.27000
O  5.52300 7.57300 24.08500
C  4.63500 9.15700 25.63800
N  9.31000 3.85300 25.50700
C  8.55400 4.51700 24.63500
C  8.61800 3.96000 23.19000
C  9.81600 2.97100 23.39100
C  9.89900 2.81400 24.87800
C  7.28800 3.27100 22.78700
C  11.25400 3.36500 22.87100
C  11.81700 2.25500 21.98200
N  10.33400 2.59500 27.88000
C  10.87300 1.69800 26.95300
C  11.67500 0.74000 27.60300
C  11.56100 0.98800 29.00600
C  10.70000 2.05800 29.07700
C  12.18600 -0.47200 27.02000
C  11.95300 0.56100 30.22300
O  12.77100 -0.34100 30.61000
C  11.17700 1.55100 31.25000
C  10.38700 0.83000 32.27900
O  9.45400 0.04400 32.06800
O  10.70500 1.31100 33.53300
C  9.84900 1.00700 34.67600
H  6.55700 6.58700 30.42200
H  7.16500 5.95600 24.05500
H  11.18300 1.02700 24.99300
H  8.97700 3.23500 32.82500
H  8.34000 5.99100 32.19100
H  6.90500 4.00700 33.51400
H  5.99000 4.14800 31.98500
H  6.30000 5.53600 33.13500
H  10.75000 5.47800 31.76100
H  11.35600 4.02000 32.62400
H  9.48600 5.44300 34.27200
H  10.83800 6.53200 33.69600
H  4.06600 7.80000 28.34500
H  5.20100 9.16100 28.49800
H  5.04500 7.93800 29.67200
H  4.30000 9.73700 24.77800
H  5.31900 9.71600 26.27600
H  3.75100 8.86500 26.20400
H  8.87700 4.85000 22.61800
H  9.59300 1.97000 23.02200
H  6.58500 3.88300 22.22100
H  6.75900 3.13800 23.73100
H  7.45200 2.36200 22.20900
H  11.89000 3.55000 23.73700
H  11.17800 4.28800 22.29500
H  11.59200 2.39900 20.92500
H  11.58900 1.24800 22.33300
H  12.90000 2.33400 22.06900
H  12.94600 -0.22500 26.27800
H  11.39400 -1.01900 26.50900
H  12.60000 -1.15600 27.76100
H  11.96100 2.09900 31.77200
H  10.16200 0.01400 34.99900
H  8.80500 1.05700 34.36600
H  10.00900 1.75100 35.45600
Mg 29.78700 58.48800 39.52600
C  27.12700 56.30800 38.46500
C  32.00500 56.06700 38.63700
C  32.25700 60.78400 39.59700
C  27.40900 60.90900 40.12100
N  29.50700 56.48000 38.64900
C  28.40400 55.71600 38.34800
C  28.70000 54.22900 38.14600
C  30.23100 54.12800 38.43600
C  30.66100 55.66000 38.67300
C  30.59700 53.20400 39.63500
C  28.36200 53.76900 36.68800
C  29.01500 54.46100 35.45000
H  28.20100 55.05600 34.37200
N  31.91900 58.46300 39.18600
C  32.62200 57.28500 38.85500
C  33.99100 57.61000 38.84400
C  34.11700 59.02600 39.24200
C  32.75100 59.51200 39.33400
C  35.10300 56.52300 38.61400
C  35.42600 59.61300 39.53600
O  36.44400 58.93800 39.40300
C  35.46300 60.99400 39.86600
N  29.83500 60.55900 39.71300
C  30.95800 61.28100 39.84000
C  30.74400 62.70900 40.33300
C  29.19000 62.77800 40.37200
C  28.78700 61.28700 40.08400
C  31.50100 63.00500 41.62500
C  28.48200 63.75000 39.39300
C  27.42400 64.73200 39.92400
N  27.66000 58.68600 39.49100
C  26.85700 59.71200 39.80400
C  25.56000 59.33200 39.54600
C  25.60600 58.00100 39.03600
C  26.86400 57.63800 38.98200
C  24.31300 60.20500 39.60500
C  24.77200 56.89300 38.56800
O  23.59800 56.86200 38.50400
C  25.73200 55.71200 38.25100
C  25.34300 54.51300 39.08200
O  25.14700 54.39600 40.28300
O  25.18300 53.50300 38.18300
C  24.49600 52.37300 38.75500
H  32.64800 55.19200 38.52100
H  32.96800 61.61000 39.52400
H  26.75600 61.73100 40.42000
H  28.07300 53.61700 38.79300
H  30.87700 53.76500 37.63700
H  29.69800 52.86900 40.15300
H  31.06400 53.84200 40.38600
H  31.28800 52.44100 39.27800
H  27.29100 53.77000 36.48700
H  28.74900 52.75000 36.71600
H  29.82700 53.80300 35.13900
H  29.53400 55.34500 35.81800
H  34.72600 55.53000 38.37000
H  35.72200 56.39400 39.50200
H  35.68900 56.94500 37.79800
H  34.84300 61.13000 40.75200
H  35.10300 61.56400 39.01000
H  36.44100 61.41600 40.09600
H  30.99700 63.45900 39.58400
H  28.88400 63.08400 41.37300
H  32.04000 63.94700 41.52600
H  32.15800 62.17200 41.87400
H  30.91400 63.25500 42.50900
H  27.94900 63.11000 38.68900
H  29.21800 64.34900 38.85600
H  26.40500 64.53400 39.59100
H  27.64300 65.77100 39.67700
H  27.38700 64.71500 41.01300
H  23.80500 60.10100 38.64700
H  24.49300 61.26600 39.77900
H  23.69000 59.91800 40.45200
H  25.70400 55.32000 37.23400
H  25.14500 51.60600 39.17700
H  23.89200 52.04300 37.91000
H  23.78100 52.51300 39.56600

