158

Mg 1.68300 -1.39800 44.18100
C  5.05900 -0.94300 43.24300
C  0.92200 1.03800 41.88000
C  -1.40000 -2.42700 44.40800
C  2.81500 -4.16000 46.12800
N  2.87600 -0.14300 42.60700
C  4.21200 -0.07100 42.45700
C  4.65000 0.90200 41.37300
C  3.27200 1.70000 41.10300
C  2.24700 0.84900 41.92000
C  3.30500 3.22500 41.27100
C  5.39200 0.28100 40.10400
C  6.87700 0.62000 40.11000
H  7.48600 0.91400 38.72200
N  -0.03100 -0.72600 43.33400
C  -0.16600 0.28300 42.43200
C  -1.57900 0.53700 42.31900
C  -2.27900 -0.30900 43.13200
C  -1.22100 -1.26700 43.66300
C  -2.11700 1.50300 41.23100
C  -3.82700 -0.29800 43.34200
O  -4.51100 0.41000 42.62100
C  -4.45400 -1.19800 44.29900
N  0.84200 -3.32300 44.85400
C  -0.45900 -3.37800 45.07100
C  -0.84200 -4.60800 45.68100
C  0.52900 -5.24700 46.32500
C  1.49700 -4.21300 45.66100
C  -1.94800 -4.52300 46.75500
C  0.87400 -6.68100 45.75900
C  1.00000 -7.72500 46.92900
N  3.52900 -2.37000 44.61200
C  3.77500 -3.39400 45.52100
C  5.20400 -3.67100 45.53400
C  5.75500 -2.61300 44.72300
C  4.69000 -1.95500 44.15800
C  5.92200 -4.87100 46.12600
C  6.94200 -2.08000 44.21700
O  8.09800 -2.50100 44.35400
C  6.55400 -0.89300 43.26900
C  7.04800 0.32300 43.91800
O  6.76900 0.71300 45.04100
O  7.85200 1.02100 42.98300
C  8.25000 2.38300 43.32700
H  0.68100 1.98300 41.38900
H  -2.43500 -2.66600 44.66000
H  3.24600 -4.93300 46.76800
H  5.32600 1.65600 41.77800
H  3.01200 1.56300 40.05400
H  2.70300 3.56100 42.11600
H  2.98700 3.68100 40.33300
H  4.29900 3.50600 41.61800
H  4.94800 0.79100 39.24900
H  5.29000 -0.80400 40.10200
H  7.53100 -0.15900 40.50200
H  7.02100 1.53600 40.68300
H  -2.66700 0.93500 40.48000
H  -1.34600 2.10500 40.74900
H  -2.71200 2.25600 41.74700
H  -5.43600 -0.85400 44.62400
H  -3.87900 -1.32200 45.21700
H  -4.53100 -2.14000 43.75700
H  -1.17400 -5.26000 44.87400
H  0.47000 -5.34000 47.41000
H  -1.63800 -4.65300 47.79200
H  -2.79800 -5.19600 46.64800
H  -2.41300 -3.54400 46.64100
H  1.84800 -6.54300 45.29100
H  0.15700 -6.94300 44.98200
H  2.04400 -8.03600 46.94000
H  0.42700 -8.60600 46.63900
H  0.61800 -7.30800 47.86100
H  5.87800 -5.54200 45.26800
H  5.27500 -5.18900 46.94300
H  6.94300 -4.75700 46.49200
H  7.00000 -1.00900 42.28100
H  7.39900 3.01700 43.07700
H  9.07800 2.68100 42.68400
H  8.55700 2.58000 44.35400
Mg 0.14700 7.43700 25.46500
C  1.11200 9.54900 28.13600
C  0.54400 4.75400 27.44100
C  -0.46300 5.57600 22.82700
C  0.60900 10.28100 23.31200
N  0.89900 7.20200 27.58900
C  1.07300 8.15000 28.48800
C  1.23400 7.55600 29.90500
C  1.36300 6.03300 29.57500
C  0.98700 5.94200 28.09700
C  2.81000 5.42400 29.66800
C  -0.05600 7.92200 30.76500
C  -0.46300 7.04800 31.99000
H  0.68400 6.63400 32.98800
N  -0.02900 5.39000 25.21500
C  0.09600 4.42800 26.11400
C  -0.27600 3.14200 25.54300
C  -0.36600 3.40200 24.12000
C  -0.22300 4.83200 24.00500
C  -0.17300 1.88500 26.39900
C  -0.56200 2.33600 22.99100
O  -0.66200 2.67300 21.78200
C  -0.51700 0.83200 23.32900
N  0.05100 7.86300 23.35500
C  -0.46300 6.98600 22.52400
C  -0.74600 7.46600 21.16300
C  -0.51600 9.06200 21.39500
C  0.20500 9.08800 22.73900
C  0.01700 6.97800 19.96400
C  -1.84100 9.86900 21.51200
C  -2.01900 10.80900 20.30300
N  0.72300 9.52700 25.66500
C  0.78700 10.51500 24.67500
C  1.20000 11.73600 25.32400
C  1.32600 11.43700 26.72500
C  1.11700 10.05300 26.82600
C  1.13900 13.08800 24.69000
C  1.66600 11.88200 28.01400
O  1.89500 13.02100 28.38100
C  1.43100 10.69800 29.05400
C  2.65700 10.61800 29.75000
O  3.72800 10.24300 29.32500
O  2.39900 10.82100 31.10800
C  3.44700 10.22300 31.98900
H  0.61000 3.88800 28.10300
H  -0.91100 4.92900 22.07100
H  0.53300 11.14900 22.65400
H  2.13500 7.92400 30.39500
H  0.73100 5.39600 30.19300
H  2.81300 4.46400 30.18300
H  3.36800 6.14300 30.26800
H  3.29800 5.17700 28.72500
H  -0.89300 8.07800 30.08400
H  0.22400 8.88300 31.19500
H  -0.90200 6.16600 31.52500
H  -1.23100 7.67000 32.44900
H  0.31100 1.11900 25.79200
H  -1.18700 1.52100 26.56800
H  0.34500 2.08400 27.33700
H  -0.57500 0.31700 22.36900
H  -1.32200 0.66600 24.04600
H  0.45600 0.62700 23.77500
H  -1.81300 7.39800 20.95200
H  0.16100 9.35300 20.59200
H  0.48300 6.04000 20.26700
H  0.72800 7.70000 19.56300
H  -0.74000 6.75500 19.21200
H  -1.80000 10.42400 22.44900
H  -2.75800 9.28800 21.60600
H  -1.88800 10.14800 19.44700
H  -1.21300 11.52700 20.14900
H  -3.00400 11.27300 20.35400
H  2.14900 13.29600 24.33600
H  0.82700 13.74400 25.50300
H  0.43200 13.10800 23.86100
H  0.52900 10.98000 29.59800
H  4.46300 10.55300 31.77300
H  3.43800 9.13500 32.04200
H  3.36100 10.43100 33.05600

