158

Mg 26.78800 50.26000 26.51700
C  24.65500 51.04700 29.24000
C  29.09500 49.37100 28.95500
C  28.77800 49.59200 24.13400
C  24.57600 51.85900 24.35900
N  26.72700 50.05000 28.88700
C  25.73100 50.42200 29.71300
C  26.19800 50.32500 31.14700
C  27.76700 50.05200 31.07600
C  27.93400 49.84600 29.54700
C  28.70900 51.06700 31.82600
C  25.36100 49.19800 31.82800
C  25.09500 49.34400 33.29400
H  25.97800 50.21800 34.21300
N  28.67400 49.41800 26.50400
C  29.43900 49.10700 27.59000
C  30.67200 48.57200 27.11900
C  30.64700 48.67500 25.70100
C  29.32100 49.18900 25.36000
C  31.79600 47.95700 28.07000
C  31.68300 48.31300 24.65700
O  31.50600 48.58200 23.51300
C  32.95700 47.60300 25.09900
N  26.75200 50.76200 24.55100
C  27.66900 50.31000 23.72900
C  27.29600 50.49900 22.30500
C  25.98500 51.30000 22.30600
C  25.76000 51.43400 23.82900
C  28.29300 51.25700 21.46200
C  24.84800 50.57200 21.56400
C  23.95500 51.57000 20.90000
N  24.98500 51.31400 26.66000
C  24.13100 51.84300 25.69500
C  22.96300 52.43600 26.31200
C  23.12100 52.12900 27.69800
C  24.36600 51.41200 27.85900
C  21.89800 53.20400 25.68500
C  22.54600 52.34300 29.02800
O  21.50500 52.83900 29.32500
C  23.43700 51.65300 30.09400
C  23.85300 52.77000 30.99900
O  24.75700 53.59300 30.83500
O  23.02300 52.68800 32.08200
C  23.21500 53.72900 33.13900
H  29.75400 49.09000 29.77900
H  29.40400 49.26900 23.30000
H  23.86700 52.31200 23.66300
H  26.08600 51.30100 31.62100
H  27.92300 49.06400 31.51000
H  29.09300 50.56500 32.71300
H  28.18800 51.97000 32.14400
H  29.52700 51.37000 31.17300
H  25.82600 48.22600 31.66500
H  24.34400 49.17100 31.43700
H  25.24400 48.34100 33.69200
H  24.05500 49.64900 33.41200
H  31.63100 46.88800 28.20600
H  31.67800 48.22700 29.12000
H  32.75000 48.28400 27.65800
H  33.71200 48.28100 25.49800
H  33.30000 47.25500 24.12500
H  32.79300 46.76000 25.77000
H  27.20700 49.50400 21.86800
H  26.14400 52.34300 22.03200
H  28.99700 51.63400 22.20300
H  27.91400 52.01200 20.77300
H  28.85700 50.55600 20.84600
H  24.28600 49.99000 22.29500
H  25.29000 49.92700 20.80500
H  22.98900 51.09000 20.74700
H  24.31500 51.82800 19.90400
H  23.77800 52.40300 21.58000
H  21.83600 54.20400 26.11300
H  20.92200 52.75800 25.87500
H  22.17700 53.22600 24.63100
H  22.85600 50.87700 30.59300
H  22.30400 53.65300 33.73300
H  23.38400 54.67900 32.63400
H  24.21300 53.63000 33.56400
Mg 7.66100 53.42900 41.10100
C  7.07700 49.97400 40.66100
C  10.75600 52.94700 40.00400
C  7.83600 56.75800 40.52000
C  4.20400 53.83600 41.86100
N  8.72100 51.62500 40.31300
C  8.40700 50.29600 40.27900
C  9.61500 49.39000 40.07000
C  10.76400 50.43800 40.16300
C  10.07300 51.80800 40.11300
C  11.78500 50.33100 41.33300
C  9.68400 48.30200 38.96100
C  9.77700 48.84200 37.55000
H  8.48300 48.62400 36.77100
N  9.17500 54.73400 40.43200
C  10.36200 54.27400 40.11000
C  11.27400 55.39900 39.93600
C  10.46100 56.60300 40.07400
C  9.10000 56.08100 40.41800
C  12.72800 55.26200 39.68400
C  10.99000 57.97600 39.84700
O  12.13600 58.23400 39.47200
C  10.04300 59.13000 39.86400
N  6.13100 55.04400 41.00500
C  6.52200 56.33700 40.89400
C  5.36100 57.27600 41.14200
C  4.21200 56.35300 41.71800
C  4.85700 54.99100 41.43900
C  5.76500 58.56500 42.02900
C  2.84900 56.59300 41.00800
C  1.74500 56.88300 42.06000
N  5.95200 52.17900 41.22400
C  4.64000 52.47700 41.64700
C  3.90100 51.24400 41.79700
C  4.83600 50.24400 41.43500
C  6.04200 50.84700 41.07600
C  2.51000 51.04000 42.26200
C  4.98800 48.74700 41.26300
O  4.21400 47.77200 41.42000
C  6.38600 48.58500 40.76200
C  6.23800 47.85100 39.54300
O  5.76600 48.42300 38.54800
O  6.68100 46.54500 39.57300
C  6.53100 45.79300 38.30600
H  11.76800 52.80700 39.61800
H  7.88500 57.82500 40.29300
H  3.12600 53.90500 42.01800
H  9.49400 48.75800 40.94900
H  11.36700 50.35200 39.25900
H  12.54400 49.85900 40.70900
H  11.48400 49.55200 42.03300
H  12.23200 51.22300 41.77100
H  8.80300 47.67200 39.07900
H  10.53500 47.63300 39.09300
H  10.69600 48.45600 37.10700
H  9.93500 49.91900 37.49300
H  12.98000 54.94000 38.67400
H  13.01300 54.45900 40.36500
H  13.31500 56.13700 39.96500
H  10.53500 60.06900 39.60900
H  9.64500 59.13400 40.87900
H  9.18500 58.80900 39.27400
H  5.04500 57.59700 40.15000
H  4.16500 56.40500 42.80600
H  6.60100 58.32800 42.68700
H  4.98000 58.74900 42.76200
H  5.97900 59.45500 41.43800
H  2.55800 55.64100 40.56400
H  2.91100 57.33100 40.20800
H  1.63000 57.93000 42.34300
H  1.89700 56.46200 43.05400
H  0.81200 56.45900 41.68700
H  2.38500 50.01500 42.61100
H  1.88900 51.27200 41.39700
H  2.12700 51.56000 43.14000
H  6.91800 47.94000 41.46100
H  5.95200 46.30900 37.54000
H  6.04800 44.86300 38.60500
H  7.49900 45.38500 38.01400

