158

Mg 23.82800 -7.65400 46.65800
C  26.56100 -5.66600 45.79500
C  22.01300 -6.35400 43.95700
C  21.59100 -10.04400 47.02800
C  26.03400 -9.36700 48.84400
N  24.26100 -6.21100 44.97200
C  25.48500 -5.53000 44.90600
C  25.56900 -4.77600 43.61600
C  24.02500 -4.77400 43.15700
C  23.30300 -5.85400 44.05800
C  23.41200 -3.33900 43.32800
C  26.57700 -5.36800 42.56500
C  27.60500 -4.33900 41.87300
H  27.26400 -3.64100 40.50800
N  21.91700 -7.92900 45.87900
C  21.37200 -7.25700 44.74200
C  20.04500 -7.86300 44.46900
C  19.92500 -8.97600 45.35100
C  21.14700 -9.04500 46.17600
C  19.17900 -7.31400 43.37600
C  18.77100 -9.96100 45.28400
O  17.97200 -9.80700 44.35100
C  18.48100 -11.10500 46.25200
N  23.76200 -9.39200 47.90500
C  22.73100 -10.19600 47.81200
C  22.97500 -11.48600 48.69000
C  24.44400 -11.20000 49.24300
C  24.79500 -9.94700 48.60100
C  21.87300 -11.68000 49.78400
C  25.35500 -12.43200 48.89200
C  24.88700 -13.92200 49.09600
N  25.85700 -7.54300 47.29700
C  26.57500 -8.26000 48.23500
C  27.91900 -7.69300 48.36400
C  27.96300 -6.66000 47.39800
C  26.71800 -6.64700 46.79000
C  28.90300 -8.15700 49.30300
C  28.81600 -5.61600 46.86400
O  29.95400 -5.28800 47.06600
C  27.90400 -4.89000 45.75400
C  27.85600 -3.42700 46.03300
O  27.16800 -2.91500 46.98100
O  28.65900 -2.83300 45.12300
C  28.71700 -1.37100 45.31700
H  21.42300 -5.92100 43.14600
H  20.92500 -10.88600 47.22900
H  26.70100 -9.96900 49.46500
H  25.87500 -3.79500 43.97900
H  24.02100 -5.07500 42.10900
H  23.55800 -2.94500 42.32300
H  23.97200 -2.76500 44.06600
H  22.34900 -3.32000 43.56900
H  26.00600 -5.88100 41.79100
H  27.02800 -6.24100 43.03500
H  28.63100 -4.70400 41.82300
H  27.58300 -3.52300 42.59500
H  19.26500 -6.24700 43.17000
H  18.12200 -7.35400 43.64100
H  19.38000 -7.99600 42.55000
H  18.35600 -10.73600 47.27000
H  19.30100 -11.82200 46.25900
H  17.54900 -11.62600 46.03200
H  23.04600 -12.32700 48.00000
H  24.37000 -11.04200 50.31900
H  21.44500 -12.67400 49.65600
H  21.14600 -10.86700 49.77400
H  22.38700 -11.59800 50.74100
H  26.19600 -12.36500 49.58300
H  25.66500 -12.30400 47.85500
H  24.07300 -14.15000 48.40700
H  24.59900 -14.08600 50.13400
H  25.71200 -14.58100 48.82700
H  29.65800 -7.46400 49.67400
H  29.51400 -8.88400 48.76800
H  28.45100 -8.73400 50.11000
H  28.36900 -4.92000 44.76800
H  29.43600 -1.22600 46.12400
H  27.82500 -0.77900 45.51800
H  29.19400 -1.04200 44.39300
Mg 44.31800 3.22400 47.39000
C  41.58000 5.12100 46.33600
C  42.17200 0.43100 47.46200
C  46.96500 1.19300 47.42000
C  46.33000 6.02700 47.15400
N  42.08400 2.87300 46.95400
C  41.15700 3.79800 46.60000
C  39.76100 3.19000 46.38600
C  39.95000 1.76100 47.13900
C  41.48700 1.62700 47.12300
C  39.16300 1.74600 48.50300
C  39.39100 3.06800 44.89100
C  37.93700 3.42700 44.40300
H  37.96000 4.52100 43.26000
N  44.56600 1.16900 47.51900
C  43.57800 0.17800 47.55200
C  44.12700 -1.13100 47.71800
C  45.54000 -0.88200 47.84600
C  45.77600 0.52100 47.50400
C  43.35600 -2.41400 48.00200
C  46.60200 -1.90200 48.26100
O  46.26900 -3.05600 48.53600
C  48.04300 -1.62000 48.41300
N  46.33700 3.54000 47.51900
C  47.27900 2.54800 47.42200
C  48.70900 3.20900 47.41000
C  48.40900 4.68500 47.67800
C  46.92900 4.78800 47.39700
C  49.69800 2.54700 48.44000
C  49.29400 5.68500 46.84600
C  49.57900 7.00600 47.57300
N  44.05200 5.18800 46.92500
C  44.97100 6.18100 46.79400
C  44.35100 7.40400 46.38500
C  42.97900 7.06300 46.18600
C  42.85000 5.68600 46.49600
C  45.02500 8.73500 46.14400
C  41.69900 7.55100 45.79800
O  41.34100 8.68900 45.44700
C  40.74200 6.34700 45.94700
C  39.71700 6.64000 46.97600
O  40.07700 6.83000 48.13800
O  38.45500 6.48400 46.40700
C  37.47100 6.42900 47.50900
H  41.56700 -0.41600 47.79200
H  47.90100 0.65500 47.25800
H  46.92000 6.94400 47.08000
H  39.04400 3.80400 46.93100
H  39.51500 0.95400 46.54900
H  39.85700 1.56700 49.32400
H  38.48900 0.89700 48.39800
H  38.57600 2.63900 48.72100
H  39.52800 2.01500 44.64700
H  40.12500 3.68800 44.37700
H  37.24800 3.74100 45.18700
H  37.53400 2.49000 44.01800
H  42.31100 -2.60400 47.75600
H  43.47800 -2.68500 49.05100
H  43.95600 -3.09400 47.39700
H  48.60100 -1.60900 47.47600
H  48.52800 -2.42300 48.96800
H  48.24400 -0.77300 49.07000
H  49.01800 3.10400 46.37000
H  48.51200 4.90900 48.74000
H  50.53100 2.08900 47.90800
H  49.20800 1.66900 48.86000
H  50.12100 3.22500 49.18200
H  48.77200 5.98400 45.93700
H  50.20500 5.14300 46.59200
H  49.65900 7.79300 46.82300
H  50.49500 6.90400 48.15600
H  48.74500 7.21800 48.24200
H  44.45000 9.36700 45.46800
H  46.01500 8.53700 45.73300
H  45.24700 9.12700 47.13700
H  40.16200 6.06000 45.07000
H  37.46400 7.45900 47.86700
H  37.84000 5.77200 48.29600
H  36.44900 6.12500 47.28100

