158

Mg 1.03600 8.18300 26.33500
C  1.60300 9.96000 29.36200
C  0.94700 5.32800 28.33900
C  0.71900 6.30700 23.56200
C  1.31300 11.06300 24.60900
N  1.24800 7.75000 28.58900
C  1.31500 8.61900 29.64200
C  1.19200 7.95700 30.94800
C  1.39700 6.48700 30.57600
C  1.14400 6.50100 29.07800
C  2.69100 5.78000 30.90100
C  -0.09400 8.41100 31.69200
C  0.01700 8.51800 33.22800
H  1.25400 7.93600 33.95300
N  0.83900 6.07500 26.02400
C  0.85100 5.11900 26.94400
C  0.55300 3.84500 26.28500
C  0.68300 4.11900 24.92500
C  0.74800 5.53800 24.77800
C  0.35400 2.52600 26.99600
C  0.60200 3.12400 23.66900
O  0.60100 3.53000 22.51200
C  0.57200 1.60900 23.86500
N  0.94000 8.60400 24.43000
C  0.82300 7.71300 23.41600
C  0.76300 8.45100 22.01500
C  0.83400 9.96000 22.39500
C  0.99700 9.85900 23.92100
C  1.71400 7.97000 20.87300
C  -0.46500 10.77400 21.91300
C  -1.73400 10.51600 22.74700
N  1.37700 10.10400 26.78600
C  1.51000 11.17100 25.96400
C  1.81800 12.37600 26.77200
C  1.83100 11.89000 28.06100
C  1.55800 10.53600 28.05200
C  2.04400 13.81900 26.21300
C  2.20000 12.28800 29.39000
O  2.57200 13.39800 29.84200
C  1.93400 11.01300 30.31900
C  3.15600 10.67200 31.07900
O  4.09000 9.87100 30.83900
O  3.17900 11.52100 32.18300
C  4.40600 11.54600 33.08100
H  0.82600 4.38700 28.88000
H  0.66400 5.89700 22.55100
H  1.22200 11.95700 23.98800
H  2.11800 8.15800 31.48600
H  0.60200 5.87500 31.00200
H  2.48100 5.07300 31.70300
H  3.45000 6.39800 31.38100
H  3.09700 5.17400 30.09100
H  -0.91200 7.72200 31.47700
H  -0.42800 9.37800 31.31800
H  -0.88000 8.07900 33.66400
H  0.08700 9.59800 33.35700
H  1.34400 2.08400 26.88100
H  -0.43600 1.95200 26.51200
H  0.01800 2.67100 28.02300
H  1.56500 1.18800 24.02300
H  0.31300 1.15500 22.90900
H  -0.13100 1.24800 24.61600
H  -0.26000 8.16900 21.76500
H  1.77900 10.39400 22.06700
H  2.42300 7.22000 21.22700
H  2.27900 8.88100 20.67800
H  1.23000 7.44200 20.05200
H  -0.54800 10.57000 20.84500
H  -0.27700 11.84200 22.02000
H  -1.58400 9.99900 23.69500
H  -2.40200 9.80800 22.25700
H  -2.18500 11.48900 22.94100
H  2.47100 13.72900 25.21400
H  2.76700 14.29800 26.87200
H  1.14300 14.42200 26.09400
H  1.08000 11.19900 30.96900
H  5.29300 11.02000 32.72900
H  4.13100 11.15700 34.06200
H  4.75800 12.57000 33.20800
Mg 45.05200 4.48900 48.04200
C  43.02000 7.11700 47.05200
C  42.44900 2.16100 47.09200
C  47.18200 1.90500 48.15200
C  47.72200 6.75000 47.73000
N  42.91800 4.62700 47.30600
C  42.31200 5.82200 46.98700
C  40.93400 5.57200 46.35600
C  40.72900 4.00800 46.64600
C  42.17300 3.58000 47.03200
C  39.50600 3.64900 47.60800
C  40.87500 5.94400 44.77900
C  39.63900 6.79300 44.35500
H  39.94900 7.66800 43.12100
N  44.80600 2.33200 47.93600
C  43.64900 1.60500 47.56300
C  43.97300 0.17100 47.74200
C  45.32000 0.10300 48.14900
C  45.84700 1.47700 48.10600
C  42.94900 -0.93000 47.55700
C  46.09500 -1.16400 48.52600
O  45.56600 -2.25900 48.36200
C  47.48300 -1.07600 49.10900
N  47.12300 4.29200 47.87900
C  47.78900 3.16100 48.11900
C  49.31600 3.33100 48.22600
C  49.46300 4.89900 48.03500
C  48.03200 5.36500 47.86700
C  50.08600 2.73100 49.34900
C  50.33900 5.30100 46.82500
C  51.68800 5.94400 46.99700
N  45.36500 6.56100 47.71500
C  46.47700 7.33600 47.67800
C  46.07300 8.74700 47.73300
C  44.71100 8.75200 47.51200
C  44.32400 7.37700 47.43100
C  46.97200 9.90100 47.76800
C  43.53100 9.55800 47.33700
O  43.41300 10.76100 47.26900
C  42.42100 8.53900 46.97700
C  41.32500 8.72000 47.92500
O  41.37300 8.54400 49.13200
O  40.22600 9.17200 47.21100
C  38.95500 9.44200 47.95300
H  41.59600 1.50500 46.90900
H  47.99900 1.18200 48.09200
H  48.58400 7.42100 47.74900
H  40.24100 6.24600 46.86000
H  40.28100 3.62600 45.72900
H  39.96500 3.13900 48.45500
H  38.78800 2.96600 47.15300
H  38.90900 4.52200 47.87100
H  40.79000 5.02900 44.19200
H  41.76300 6.51800 44.51500
H  39.32100 7.46100 45.15500
H  38.68900 6.26400 44.28800
H  43.25200 -1.68800 46.83500
H  41.98100 -0.60900 47.17300
H  42.74700 -1.36100 48.53800
H  47.86600 -1.96300 49.61300
H  47.57300 -0.25000 49.81300
H  48.08200 -0.97800 48.20300
H  49.74200 2.83100 47.35600
H  49.87000 5.36600 48.93200
H  49.48400 2.37700 50.18600
H  50.67900 3.53500 49.78500
H  50.71200 1.90300 49.01900
H  49.66500 5.83500 46.15500
H  50.67600 4.40300 46.30700
H  52.57900 5.32700 46.88100
H  51.66700 6.29400 48.02900
H  51.77900 6.83000 46.36900
H  47.75200 9.80100 48.52300
H  46.35200 10.77100 47.98100
H  47.45500 10.00500 46.79600
H  42.20200 8.75200 45.93100
H  39.07500 9.87800 48.94500
H  38.40900 8.50600 48.06700
H  38.44900 10.21400 47.37400

