158

Mg 6.19900 56.65300 42.52800
C  4.90800 53.52300 41.73800
C  9.23400 55.69700 41.15300
C  7.09700 59.94300 42.19500
C  2.99600 57.57500 43.56400
N  6.92100 54.91300 41.36700
C  6.25100 53.70000 41.25100
C  7.15200 52.63200 40.68800
C  8.56200 53.28600 40.87900
C  8.24900 54.76500 41.15300
C  9.43200 52.67000 42.04900
C  6.88400 52.11200 39.15000
C  7.11400 50.61700 38.94700
H  6.46500 50.12600 37.77500
N  7.97600 57.67700 41.87600
C  9.08700 57.11900 41.47400
C  10.10700 58.12600 41.30200
C  9.55700 59.33000 41.69500
C  8.17400 59.00400 41.97900
C  11.52500 57.76200 40.96900
C  10.35500 60.62500 41.91300
O  11.48600 60.77000 41.56000
C  9.76300 61.72600 42.74000
N  5.22800 58.47500 42.80000
C  5.78500 59.74100 42.45400
C  4.71400 60.84800 42.57400
C  3.39400 60.05500 42.95000
C  3.85500 58.58400 43.12400
C  4.94200 62.11400 43.41900
C  2.10500 60.19000 41.98900
C  0.74800 60.62100 42.63000
N  4.34700 55.76900 42.81500
C  3.15200 56.23100 43.30500
C  2.20300 55.15600 43.46200
C  2.87500 54.02200 42.91500
C  4.12300 54.49800 42.40500
C  0.80800 55.23900 43.93900
C  2.74700 52.63100 42.61700
O  1.82600 51.81700 42.81300
C  4.11700 52.25100 41.89700
C  3.75100 51.64200 40.65100
O  3.65800 52.19600 39.60800
O  3.50100 50.28100 40.85600
C  3.11100 49.38800 39.73500
H  10.27600 55.42000 40.98200
H  7.37100 60.99500 42.08900
H  2.02700 57.91200 43.93600
H  7.06000 51.73600 41.30200
H  9.08500 53.24800 39.92300
H  8.89600 51.87600 42.57000
H  9.61200 53.50500 42.72600
H  10.34300 52.28800 41.58700
H  7.53200 52.64500 38.45400
H  5.90400 52.52600 38.91400
H  6.78000 50.08700 39.83900
H  8.20300 50.62800 38.90400
H  11.87400 58.57100 40.32800
H  11.64200 56.78600 40.49800
H  12.13600 57.72100 41.87100
H  9.08800 61.29400 43.47800
H  9.20900 62.43000 42.12000
H  10.53100 62.34200 43.20800
H  4.73300 61.24600 41.56000
H  3.14500 60.31500 43.97900
H  5.99800 62.28400 43.62800
H  4.44900 62.02900 44.38800
H  4.64900 63.02700 42.90100
H  2.05300 59.17100 41.60400
H  2.34400 60.96600 41.26200
H  -0.03000 59.85900 42.58600
H  0.33900 61.52300 42.17500
H  1.05600 60.86200 43.64800
H  0.16000 55.57000 43.12700
H  0.80100 56.02000 44.69900
H  0.46800 54.26700 44.29500
H  4.60800 51.49400 42.50900
H  3.02500 49.92000 38.78800
H  2.10800 49.02200 39.95200
H  3.89600 48.63400 39.66800
Mg -11.00700 40.41800 42.52800
C  -9.15700 37.50500 41.45800
C  -8.70100 42.33800 40.75800
C  -12.98100 42.95600 42.98600
C  -13.58800 38.08400 43.47200
N  -9.12000 39.96500 41.25000
C  -8.55100 38.73600 41.00100
C  -7.21400 38.82000 40.19600
C  -7.00200 40.34900 40.20800
C  -8.34900 40.96300 40.81100
C  -5.73800 40.76800 40.82100
C  -7.33000 38.18600 38.78700
C  -6.77800 36.81400 38.53300
H  -5.79200 36.60800 37.40900
N  -10.84800 42.42400 42.03500
C  -9.81400 43.07500 41.29200
C  -10.10100 44.50500 41.19000
C  -11.30100 44.70400 41.96000
C  -11.80300 43.31800 42.31100
C  -9.19200 45.43500 40.51900
C  -11.95500 46.03600 42.24400
O  -11.53100 47.08600 41.81900
C  -13.18000 46.19800 42.99000
N  -12.93700 40.48600 43.17900
C  -13.55400 41.69700 43.32700
C  -15.05300 41.63700 43.78100
C  -15.23500 40.04400 43.78600
C  -13.88500 39.46400 43.45000
C  -15.33000 42.29000 45.15100
C  -16.27900 39.41200 42.78700
C  -17.59400 38.90900 43.38700
N  -11.31300 38.32100 42.55100
C  -12.38900 37.54100 42.98900
C  -11.94100 36.17500 43.09300
C  -10.72900 36.11300 42.42100
C  -10.41000 37.47100 42.08100
C  -12.76400 35.04100 43.64500
C  -9.69400 35.17900 42.03700
O  -9.61600 33.93900 42.05700
C  -8.62600 36.07200 41.48300
C  -7.37800 35.99800 42.30200
O  -7.02600 36.64200 43.29700
O  -6.51500 35.14000 41.67500
C  -5.34400 34.55400 42.44800
H  -7.91500 42.93500 40.28900
H  -13.71800 43.75800 42.90900
H  -14.41400 37.46700 43.83100
H  -6.42600 38.42300 40.83700
H  -6.83900 40.75800 39.21100
H  -5.46100 41.82200 40.79200
H  -4.90000 40.31400 40.29200
H  -5.71500 40.44100 41.86100
H  -6.84900 38.85300 38.07100
H  -8.37400 38.22800 38.47800
H  -7.63200 36.16500 38.33900
H  -6.39300 36.50600 39.50500
H  -9.01900 46.25400 41.21700
H  -9.60400 45.74100 39.55700
H  -8.22100 45.00700 40.27000
H  -13.08900 45.58400 43.88600
H  -13.99000 45.82500 42.36300
H  -13.33200 47.25500 43.20900
H  -15.80500 42.13300 43.16700
H  -15.34800 39.76000 44.83300
H  -14.46000 42.29900 45.80700
H  -16.12300 41.81100 45.72500
H  -15.61900 43.33500 45.04200
H  -15.78100 38.63300 42.20900
H  -16.54400 40.28900 42.19700
H  -17.91300 39.64200 44.12800
H  -17.25500 38.00700 43.89600
H  -18.35500 38.54200 42.69800
H  -12.06800 34.24000 43.89300
H  -13.44400 34.66600 42.88000
H  -13.36900 35.30900 44.51200
H  -8.39900 35.66800 40.49700
H  -4.55400 34.15600 41.81200
H  -5.78000 33.66400 42.90000
H  -4.93000 35.21500 43.21000

