158

Mg -2.06700 17.13300 25.99000
C  -2.50800 14.88300 28.69900
C  -2.35500 19.68800 28.33800
C  -2.44900 19.25000 23.51800
C  -2.31300 14.42900 23.82000
N  -2.63500 17.18900 28.23400
C  -2.39800 16.21500 29.17800
C  -2.41500 16.76200 30.61200
C  -2.61900 18.31300 30.37000
C  -2.54600 18.42700 28.88000
C  -3.91900 18.86900 30.88500
C  -1.25900 16.24700 31.48300
C  -0.34400 17.07900 32.50200
H  -0.02200 16.47400 33.87000
N  -2.12500 19.21100 25.92500
C  -2.23500 20.06300 27.00000
C  -2.15500 21.46100 26.39200
C  -2.32800 21.34400 25.01300
C  -2.27100 19.91300 24.78300
C  -2.10100 22.69500 27.21800
C  -2.33700 22.37700 23.93400
O  -2.36000 22.08300 22.72300
C  -2.23700 23.82800 24.35000
N  -2.21700 16.83500 23.98500
C  -2.32200 17.91200 23.10800
C  -2.24700 17.40900 21.66000
C  -1.93300 15.88000 21.79800
C  -2.19900 15.68200 23.31800
C  -3.45500 17.66200 20.68400
C  -0.53800 15.44500 21.24400
C  -0.32300 15.58000 19.71700
N  -2.37700 15.06100 26.15800
C  -2.48500 14.07700 25.14600
C  -2.68800 12.81200 25.73300
C  -2.67300 13.09100 27.11300
C  -2.47300 14.45900 27.34300
C  -2.99700 11.53200 25.01300
C  -2.83000 12.40000 28.32200
O  -2.93100 11.20500 28.56900
C  -2.77400 13.60500 29.43200
C  -1.61700 13.29600 30.32100
O  -0.41900 13.18600 30.00900
O  -2.20600 12.90900 31.53600
C  -1.29200 12.24500 32.47200
H  -2.34100 20.59900 28.94000
H  -2.57700 19.82800 22.60000
H  -2.39200 13.66600 23.04300
H  -3.31800 16.40600 31.10800
H  -1.82900 18.91300 30.82300
H  -4.29900 18.35000 31.76500
H  -4.62300 18.90200 30.05300
H  -3.75600 19.90900 31.16600
H  -0.57200 15.81800 30.75300
H  -1.71800 15.40700 32.00400
H  -0.86700 18.02500 32.64300
H  0.64900 17.34900 32.14300
H  -1.17700 23.19800 26.93400
H  -1.96100 22.40300 28.25900
H  -3.07200 23.18700 27.15800
H  -2.59400 24.51000 23.57900
H  -1.19400 24.03900 24.58500
H  -2.96600 23.98000 25.14600
H  -1.40400 17.86600 21.14300
H  -2.66100 15.30800 21.22300
H  -3.77600 18.69900 20.58500
H  -4.36600 17.24800 21.11600
H  -3.38500 17.33800 19.64500
H  -0.38300 14.38100 21.42000
H  0.25000 15.91800 21.83000
H  0.71400 15.88500 19.57400
H  -1.08400 16.24500 19.30900
H  -0.36800 14.59500 19.25200
H  -3.15700 10.88900 25.87900
H  -2.23300 11.16700 24.32700
H  -3.79100 11.68500 24.28200
H  -3.73100 13.54500 29.95000
H  -0.64800 11.50600 31.99600
H  -1.91500 11.92700 33.30800
H  -0.59300 13.02000 32.79000
Mg 17.61500 52.41100 26.48200
C  19.31900 50.98700 29.12800
C  15.15300 53.29300 28.75900
C  15.66900 53.39300 23.91800
C  19.88200 51.04000 24.17500
N  17.25200 52.04900 28.66200
C  18.17600 51.57400 29.56700
C  17.73800 51.79100 31.04600
C  16.24900 52.20600 30.88700
C  16.16900 52.59500 29.37200
C  15.27800 51.01400 31.32900
C  18.63500 52.70500 31.89000
C  18.95900 52.27400 33.25500
H  17.81200 51.59800 34.11700
N  15.69900 53.31000 26.32400
C  14.87000 53.54500 27.39000
C  13.61800 54.19200 26.87300
C  13.74700 54.32500 25.42800
C  15.12900 53.72100 25.13700
C  12.47100 54.57200 27.75400
C  12.75600 54.82000 24.32100
O  12.94000 54.75900 23.04600
C  11.52700 55.56300 24.68000
N  17.72700 52.18300 24.32000
C  16.85400 52.77300 23.54000
C  17.25000 52.57000 22.02300
C  18.59600 51.85400 22.07800
C  18.81100 51.74800 23.59700
C  16.20000 51.96100 21.04000
C  19.70400 52.72800 21.41600
C  20.76100 51.86200 20.66000
N  19.26800 51.26900 26.58100
C  20.09200 50.79700 25.60400
C  21.15400 49.96700 26.17000
C  20.94800 50.07400 27.57600
C  19.67900 50.80400 27.80100
C  22.17900 49.17300 25.40900
C  21.46700 49.58800 28.91000
O  22.43600 48.90600 29.23200
C  20.43300 50.28000 29.97600
C  19.88000 49.22100 30.83300
O  18.97600 48.44600 30.54500
O  20.35100 49.29200 32.12100
C  20.02300 48.20200 32.97800
H  14.40300 53.64500 29.47100
H  15.13200 53.84600 23.08200
H  20.50100 50.63900 23.36900
H  17.87300 50.78400 31.44200
H  16.12100 53.10200 31.49300
H  15.87100 50.28500 31.88200
H  14.76900 50.49400 30.51800
H  14.53700 51.38300 32.03700
H  18.17500 53.69300 31.86700
H  19.59800 52.95400 31.44500
H  19.42400 53.08700 33.81300
H  19.70700 51.48100 33.23300
H  12.69300 54.33600 28.79400
H  11.54500 54.07200 27.47000
H  12.29200 55.64700 27.79300
H  11.75400 56.22500 25.51600
H  10.81700 54.83300 25.06800
H  11.04300 56.01500 23.81500
H  17.37000 53.59300 21.66800
H  18.60400 50.86200 21.62800
H  15.64800 52.73800 20.51000
H  15.35700 51.48900 21.54500
H  16.62700 51.21100 20.37400
H  20.11300 53.38000 22.18800
H  19.21400 53.34700 20.66500
H  20.78800 50.86500 21.09900
H  21.78200 52.23900 20.72100
H  20.43300 51.81600 19.62100
H  22.54500 49.81600 24.60900
H  21.80500 48.20700 25.07200
H  22.89700 48.86300 26.16800
H  20.94300 51.14400 30.40200
H  19.16000 48.50400 33.57200
H  20.71600 47.87600 33.75400
H  19.65300 47.27100 32.54800

