158

Mg 24.91000 -5.83700 46.73800
C  27.08500 -3.61200 45.13400
C  22.37000 -4.51600 44.79700
C  23.05000 -8.48600 47.51200
C  27.65900 -7.27000 48.30800
N  24.74700 -4.22200 45.42200
C  25.74300 -3.49700 44.88900
C  25.23000 -2.42300 43.84000
C  23.63900 -2.50100 44.05900
C  23.57400 -3.80000 44.83000
C  23.02600 -1.35000 44.81300
C  25.74200 -2.59200 42.31800
C  26.41000 -1.40500 41.69800
H  25.99900 -0.92800 40.29800
N  22.87800 -6.39900 46.25400
C  22.05200 -5.69500 45.45100
C  20.78600 -6.39700 45.42300
C  20.90100 -7.64700 46.20800
C  22.31200 -7.56400 46.65400
C  19.59700 -5.97900 44.60000
C  19.80600 -8.64700 46.49300
O  18.67700 -8.48500 46.02600
C  20.06600 -9.84500 47.27300
N  25.30600 -7.72500 47.70100
C  24.32200 -8.58500 47.99700
C  24.88100 -9.74400 48.82300
C  26.27600 -9.31900 49.31100
C  26.46300 -8.05800 48.37400
C  23.85200 -10.11200 50.01600
C  27.36500 -10.38700 49.14000
C  27.87300 -10.66400 47.74000
N  27.04800 -5.51200 46.78900
C  28.02100 -6.18100 47.51900
C  29.33600 -5.54100 47.23000
C  29.01800 -4.48400 46.35000
C  27.63800 -4.60100 46.03900
C  30.63400 -6.06600 47.74400
C  29.52600 -3.42600 45.52500
O  30.68600 -3.04300 45.27000
C  28.29000 -2.75700 44.71700
C  28.24700 -1.29500 45.09600
O  27.88300 -0.84200 46.17900
O  28.71000 -0.58000 44.03700
C  28.93800 0.87700 44.25900
H  21.60300 -4.16400 44.10400
H  22.39400 -9.32100 47.76500
H  28.47000 -7.73400 48.87400
H  25.63700 -1.48400 44.21300
H  23.05200 -2.66300 43.15500
H  23.66200 -0.85000 45.54400
H  22.13900 -1.76200 45.29300
H  22.76400 -0.63600 44.03200
H  24.91500 -2.80200 41.64000
H  26.34200 -3.48600 42.14800
H  27.49100 -1.54400 41.66800
H  26.28000 -0.54800 42.35900
H  19.39300 -6.79000 43.90100
H  19.78400 -5.07600 44.01800
H  18.70000 -5.87800 45.21100
H  19.15200 -10.43700 47.32000
H  20.28500 -9.38400 48.23600
H  20.91100 -10.47200 46.98800
H  24.94300 -10.55700 48.10000
H  26.29200 -8.94700 50.33500
H  23.14600 -9.29600 50.16800
H  24.40100 -10.23600 50.94900
H  23.20900 -10.96400 49.79400
H  26.95400 -11.33300 49.49300
H  28.16500 -10.11800 49.82900
H  28.74300 -10.02000 47.60700
H  27.14400 -10.37100 46.98500
H  28.08500 -11.73000 47.66300
H  30.87300 -6.99700 47.22900
H  30.54700 -6.25400 48.81400
H  31.41500 -5.34400 47.50700
H  28.46800 -2.76800 43.64100
H  29.00300 1.04200 45.33500
H  28.02200 1.27700 43.82400
H  29.80900 1.26600 43.73200
Mg 40.48000 9.51700 29.00900
C  42.75800 10.56900 31.40700
C  38.42200 8.39900 31.37000
C  38.58800 8.13900 26.54300
C  42.94700 10.14700 26.60900
N  40.69300 9.35900 31.23500
C  41.59700 10.00700 32.01600
C  41.16200 9.95700 33.42600
C  39.78600 9.23100 33.34900
C  39.60000 8.96200 31.89600
C  39.66000 7.99600 34.26100
C  40.93600 11.42000 34.04000
C  40.36400 11.49200 35.49800
H  41.35700 11.48300 36.62100
N  38.59800 8.51900 28.93900
C  37.94400 8.16000 30.07900
C  36.69900 7.50700 29.67700
C  36.73700 7.42200 28.22200
C  37.99000 8.02900 27.82200
C  35.69400 6.91800 30.64500
C  35.65600 6.93000 27.24600
O  35.84000 6.88700 26.05600
C  34.28700 6.37100 27.74200
N  40.73400 9.28500 26.89000
C  39.80800 8.60600 26.12100
C  40.25400 8.61400 24.64700
C  41.66600 9.35400 24.71500
C  41.72600 9.64200 26.15600
C  40.40200 7.17500 24.03900
C  41.71500 10.58000 23.86700
C  41.41900 11.96900 24.52400
N  42.47800 10.19200 28.95300
C  43.34100 10.38600 27.94200
C  44.58500 10.90700 28.48300
C  44.35100 11.14300 29.84600
C  43.08500 10.56900 30.11700
C  45.77900 11.38000 27.61700
C  44.86200 11.66100 31.09800
O  45.93600 12.14000 31.33900
C  43.79400 11.40900 32.23900
C  44.45000 10.58400 33.28600
O  44.77400 9.40700 33.24200
O  44.84700 11.44600 34.28200
C  45.26500 10.81900 35.49900
H  37.62600 8.33100 32.11500
H  37.91200 7.79000 25.75900
H  43.71500 10.18800 25.83300
H  41.87200 9.36200 34.00000
H  38.94500 9.82600 33.70300
H  39.35300 7.11200 33.70300
H  38.94300 8.20100 35.05600
H  40.56400 7.73300 34.81000
H  40.35400 11.96000 33.29400
H  41.82200 12.04400 34.15700
H  39.76500 10.58700 35.59800
H  39.59700 12.26100 35.60100
H  34.86100 7.61700 30.57400
H  36.11800 6.87000 31.64800
H  35.25600 5.99000 30.27800
H  34.30600 5.66100 28.56900
H  33.78400 5.84500 26.93100
H  33.62800 7.17300 28.07400
H  39.46900 9.10100 24.06900
H  42.52700 8.72800 24.48000
H  40.27000 6.42200 24.81500
H  41.39100 7.08900 23.59000
H  39.57000 7.08800 23.34100
H  41.06800 10.52300 22.99100
H  42.69800 10.63000 23.39900
H  40.72000 12.54500 23.91900
H  42.30400 12.60400 24.54700
H  40.96400 11.97500 25.51500
H  45.88600 12.45200 27.77700
H  45.64300 11.11200 26.56900
H  46.63600 10.88700 28.07600
H  43.51900 12.38200 32.64700
H  45.15000 11.47800 36.35900
H  46.33700 10.68600 35.35900
H  44.73800 9.89300 35.73000

