158

Mg 2.48400 -0.48000 43.89800
C  5.86000 0.58000 43.91300
C  1.45700 2.60000 42.85800
C  -0.61400 -1.73100 43.65700
C  3.67600 -3.72400 44.80800
N  3.62700 1.40200 43.45000
C  4.97400 1.62900 43.54200
C  5.30800 3.06600 43.18500
C  3.84500 3.70000 43.01500
C  2.89800 2.49200 43.10700
C  3.54100 4.92000 43.97200
C  6.19500 3.29100 41.90700
C  5.65200 2.76200 40.56800
H  5.65400 3.72000 39.42000
N  0.66000 0.30000 43.21400
C  0.44100 1.62700 42.87400
C  -0.97100 1.74000 42.40800
C  -1.58900 0.48900 42.65700
C  -0.51900 -0.41200 43.25600
C  -1.52700 3.03500 41.86100
C  -3.04700 0.22400 42.46400
O  -3.77300 1.10600 42.07000
C  -3.61600 -1.08900 42.87700
N  1.68000 -2.64000 43.66200
C  0.32100 -2.75800 43.83000
C  0.05000 -4.05200 44.63200
C  1.38700 -4.64400 44.98800
C  2.34500 -3.66800 44.31100
C  -0.98200 -4.09400 45.71800
C  1.72100 -6.17300 44.66800
C  1.75400 -7.13400 45.85500
N  4.30500 -1.42000 44.31000
C  4.66800 -2.69600 44.70600
C  6.10100 -2.81100 44.94400
C  6.62600 -1.55200 44.59800
C  5.46800 -0.75900 44.26400
C  6.85500 -4.10500 45.42900
C  7.77700 -0.83100 44.51100
O  8.96100 -1.12400 44.73700
C  7.40700 0.57000 43.96900
C  8.05100 1.65700 44.74900
O  8.90700 2.44900 44.35100
O  7.46200 1.75700 45.92700
C  7.63300 3.07900 46.59700
H  1.10700 3.63400 42.83600
H  -1.61400 -2.03100 43.97800
H  4.00600 -4.62200 45.33500
H  5.74100 3.47300 44.09900
H  3.62900 4.03600 42.00100
H  3.38900 5.88300 43.48400
H  4.31100 5.02100 44.73700
H  2.62200 4.69500 44.51400
H  7.16000 2.80500 42.05200
H  6.20500 4.37300 41.77500
H  4.62500 2.41900 40.68900
H  6.26400 1.88900 40.34700
H  -0.69900 3.56700 41.39200
H  -1.95600 3.64100 42.65900
H  -2.34400 2.90200 41.15200
H  -3.53600 -1.18600 43.95900
H  -3.02300 -1.83900 42.35300
H  -4.65800 -1.01400 42.56700
H  -0.35000 -4.81000 43.95900
H  1.44900 -4.53200 46.07000
H  -1.10200 -3.01700 45.83900
H  -0.63100 -4.53000 46.65300
H  -1.86900 -4.62100 45.36700
H  2.61100 -6.15700 44.04000
H  0.91300 -6.60800 44.08000
H  1.08400 -7.98600 45.73900
H  1.54500 -6.56700 46.76200
H  2.75300 -7.57100 45.84600
H  7.24800 -4.67200 44.58500
H  6.36000 -4.80300 46.10400
H  7.69700 -3.67400 45.97100
H  7.88200 0.57000 42.98700
H  7.43900 3.99200 46.03400
H  8.68800 3.22000 46.83000
H  7.18200 3.14400 47.58700
Mg 46.97000 45.67900 44.13800
C  43.71700 45.21000 43.26200
C  47.49100 42.25200 42.86500
C  50.39300 46.09600 43.68700
C  46.48700 49.05300 44.31000
N  45.74800 43.94400 43.08700
C  44.42000 43.99500 43.12500
C  43.87800 42.70000 42.46600
C  44.95800 41.68300 42.67500
C  46.13800 42.71300 42.91800
C  44.72500 40.62400 43.82600
C  43.49000 42.97600 40.94000
C  42.08800 42.37700 40.53000
H  41.91200 41.70000 39.19900
N  48.78500 44.31600 43.66000
C  48.70300 42.97200 43.14100
C  50.03300 42.41400 42.99000
C  50.90500 43.55000 43.33900
C  50.05200 44.73100 43.47400
C  50.31400 41.08300 42.46100
C  52.42400 43.41500 43.37700
O  52.94900 42.43200 42.95800
C  53.29700 44.50700 43.91900
N  48.21700 47.32200 44.17400
C  49.55800 47.23800 43.94200
C  50.17800 48.65700 44.20300
C  48.92200 49.65500 44.03500
C  47.80500 48.64000 44.18800
C  50.92500 48.91600 45.52400
C  48.68100 50.38000 42.67000
C  48.56700 51.89800 42.82000
N  45.36400 46.85400 44.07400
C  45.33200 48.21300 44.21800
C  43.91200 48.69900 43.99600
C  43.30200 47.59100 43.66200
C  44.16700 46.48200 43.72700
C  43.36800 50.08400 44.12400
C  41.98900 47.00800 43.27100
O  40.90600 47.65600 43.15600
C  42.22300 45.47300 43.02500
C  41.24100 44.73300 43.88700
O  40.29600 44.05800 43.43800
O  41.50700 45.04100 45.19400
C  40.54000 44.32900 46.08200
H  47.59700 41.21400 42.54300
H  51.45900 46.21900 43.48400
H  46.34700 50.11500 44.52500
H  42.97900 42.44900 43.03100
H  45.12400 41.17600 41.72500
H  43.65200 40.65400 44.01500
H  45.22500 40.99100 44.72200
H  45.08600 39.63200 43.55700
H  44.24000 42.52500 40.29000
H  43.54000 44.04800 40.75300
H  41.41000 43.23000 40.50500
H  41.73700 41.63900 41.25100
H  50.94600 41.22000 41.58300
H  49.46400 40.47300 42.15700
H  50.96700 40.57500 43.17000
H  53.44800 45.07600 43.00200
H  54.24400 44.12500 44.29900
H  52.92900 45.20500 44.67100
H  50.87300 48.81800 43.37900
H  48.77800 50.22600 44.95200
H  50.90600 48.04700 46.18200
H  50.47800 49.77500 46.02400
H  51.97500 49.16100 45.36400
H  47.86600 49.97100 42.07300
H  49.44400 50.16800 41.92100
H  48.57800 52.28300 43.83900
H  47.74300 52.26000 42.20500
H  49.49800 52.34800 42.47500
H  42.96100 50.44400 45.06900
H  42.61400 50.17500 43.34200
H  44.10200 50.84200 43.85100
H  42.04900 45.33100 41.95800
H  39.55800 44.67700 45.76200
H  40.79400 44.68100 47.08200
H  40.63500 43.25200 46.22000

