158

Mg 35.81000 1.35500 30.04000
C  33.74800 2.07100 32.66200
C  38.44800 1.48100 32.33000
C  38.03200 0.84100 27.49900
C  33.22100 1.63800 27.76000
N  36.08700 1.73900 32.26300
C  35.01800 1.90500 33.16100
C  35.49200 1.92500 34.61800
C  37.05400 2.07600 34.46700
C  37.22700 1.73300 32.87700
C  37.66800 3.48700 34.82600
C  35.15800 0.53400 35.31500
C  34.87600 0.63100 36.90700
H  35.21700 1.97600 37.75500
N  37.95400 1.13400 29.91500
C  38.84300 1.15300 30.96900
C  40.16600 0.84000 30.51000
C  40.11700 0.66700 29.08000
C  38.68300 0.80400 28.75500
C  41.37200 0.66600 31.36800
C  41.16200 0.48900 28.03700
O  40.96200 0.26300 26.85600
C  42.60400 0.68200 28.44100
N  35.64300 1.06800 27.97000
C  36.64200 1.02400 27.10400
C  36.16500 0.93400 25.64200
C  34.61300 1.16800 25.76600
C  34.43500 1.23900 27.32500
C  36.80100 1.94000 24.59800
C  33.65800 0.07300 25.14800
C  33.52000 -1.28300 25.93300
N  33.87900 1.77200 30.13800
C  32.91800 1.86600 29.15700
C  31.63000 2.18600 29.75400
C  31.87900 2.21100 31.20300
C  33.23800 1.93800 31.33700
C  30.30500 2.36700 28.98800
C  31.30700 2.31500 32.53500
O  30.12900 2.44300 32.87100
C  32.51200 2.19700 33.57400
C  32.32700 3.31200 34.51200
O  32.76300 4.51000 34.29200
O  31.73000 2.88100 35.69200
C  31.31300 3.96700 36.60600
H  39.31900 1.52000 32.98700
H  38.69400 0.76100 26.63400
H  32.49500 1.77800 26.95700
H  35.05000 2.78000 35.12900
H  37.54200 1.35600 35.12400
H  36.87700 4.23700 34.80500
H  38.41600 3.78400 34.09100
H  38.05800 3.39400 35.83900
H  35.82800 -0.25600 34.97800
H  34.19700 0.41000 34.81500
H  35.28700 -0.26300 37.37700
H  33.80200 0.44900 36.95800
H  41.12200 0.81600 32.41800
H  42.20900 1.26800 31.01400
H  41.66200 -0.38000 31.26400
H  42.76600 -0.01700 29.26200
H  42.64900 1.73200 28.73000
H  43.37700 0.52200 27.69000
H  36.33700 -0.12800 25.46800
H  34.42500 2.15300 25.33800
H  37.44000 1.44300 23.86800
H  37.28000 2.80500 25.05700
H  36.03600 2.44800 24.01100
H  34.08800 -0.15200 24.17200
H  32.64300 0.43300 24.97900
H  34.05600 -2.01600 25.33000
H  32.49200 -1.53400 26.19200
H  34.00300 -1.23100 26.90900
H  30.52300 2.33700 27.92000
H  29.83900 3.29400 29.32200
H  29.66200 1.56200 29.34400
H  32.30200 1.28500 34.13300
H  32.15100 4.54900 36.98800
H  30.66400 3.56800 37.38600
H  30.80400 4.77100 36.07400
Mg 45.85000 44.76900 43.14000
C  42.43000 44.16500 43.38100
C  46.38900 41.41900 42.64000
C  49.06200 45.55800 42.15700
C  45.12500 48.21400 43.40300
N  44.57100 43.01000 43.02200
C  43.22200 43.00800 43.13000
C  42.60600 41.61100 42.90700
C  43.84400 40.76600 43.01400
C  45.04100 41.74500 42.79300
C  44.05400 39.99500 44.33300
C  41.83700 41.49400 41.55600
C  42.51200 42.09800 40.32600
H  41.89100 41.66200 38.97200
N  47.45100 43.66300 42.54200
C  47.50100 42.27600 42.52200
C  48.86700 41.79700 42.16600
C  49.70000 42.97700 42.18600
C  48.72600 44.15400 42.28200
C  49.30300 40.32100 41.95800
C  51.14500 42.85800 41.97800
O  51.69600 41.76400 41.85200
C  51.97900 44.12600 41.82800
N  46.86600 46.62400 42.72100
C  48.18700 46.64500 42.33500
C  48.64600 48.06300 42.36300
C  47.46000 48.87600 42.79600
C  46.38800 47.85800 43.01000
C  49.90300 48.27500 43.27800
C  47.09600 49.96300 41.74900
C  46.65100 51.30800 42.28900
N  44.15700 46.01600 43.44300
C  44.00300 47.41400 43.48200
C  42.64300 47.76500 43.73700
C  41.92900 46.53300 43.69900
C  42.95600 45.49700 43.50600
C  42.12000 49.18400 43.84000
C  40.65200 45.85800 43.76200
O  39.51400 46.32200 43.97100
C  40.93900 44.30400 43.63700
C  40.43700 43.60600 44.75700
O  39.92600 42.48000 44.75700
O  40.73200 44.24700 45.96500
C  40.50400 43.44400 47.13700
H  46.59300 40.35000 42.55200
H  50.11800 45.81600 42.06200
H  44.95800 49.28000 43.57400
H  41.83600 41.51900 43.67300
H  43.92600 40.07200 42.17800
H  44.99900 40.07000 44.87100
H  43.94500 38.95500 44.02400
H  43.29600 40.28100 45.06200
H  40.81200 41.81900 41.73500
H  41.73200 40.41600 41.43500
H  43.55700 41.80300 40.22200
H  42.51800 43.18800 40.32600
H  50.06300 40.30300 41.17800
H  48.42200 39.82100 41.55400
H  49.64600 39.87800 42.89300
H  51.75400 44.86000 42.60100
H  51.68800 44.48900 40.84200
H  53.01900 43.79800 41.81200
H  49.01200 48.16700 41.34200
H  47.73200 49.37300 43.72700
H  50.71100 48.29000 42.54700
H  50.03500 47.43100 43.95500
H  49.80500 49.18800 43.86500
H  46.25700 49.70500 41.10300
H  47.93500 50.22600 41.10500
H  47.19600 52.10700 41.78500
H  46.70200 51.54900 43.35100
H  45.61000 51.44200 41.99800
H  41.43200 49.35600 44.66900
H  41.63200 49.53100 42.92900
H  42.86100 49.93100 44.12500
H  40.35100 43.95100 42.79000
H  41.37200 42.83300 47.38500
H  39.58400 42.86100 47.09100
H  40.42500 44.16100 47.95400

