158

Mg 23.80600 -5.35700 45.44100
C  26.00300 -2.94100 44.14700
C  21.31800 -4.05700 43.47500
C  22.18300 -8.07300 45.98800
C  26.63300 -6.70200 47.18900
N  23.70700 -3.61900 44.17600
C  24.71100 -2.79900 43.77600
C  24.09500 -1.77900 42.71300
C  22.57900 -1.94100 42.87400
C  22.49900 -3.28500 43.59900
C  21.77000 -0.87000 43.69900
C  24.68400 -2.09500 41.27800
C  25.16400 -0.86500 40.42500
H  24.67200 -0.78300 38.96600
N  21.85600 -5.99700 44.88400
C  21.06500 -5.35700 43.98900
C  19.94400 -6.23700 43.66400
C  20.13800 -7.43900 44.34000
C  21.43000 -7.24800 45.11400
C  18.83900 -5.89300 42.60200
C  19.11900 -8.57400 44.31600
O  18.06100 -8.44700 43.61300
C  19.39500 -9.87400 45.07700
N  24.41100 -7.17300 46.35800
C  23.45000 -8.12300 46.52300
C  23.96700 -9.42800 47.18800
C  25.26900 -8.79200 47.84400
C  25.48400 -7.48200 47.11700
C  23.03400 -10.09600 48.24400
C  26.54200 -9.80100 47.85500
C  27.39800 -9.65800 49.15700
N  25.96800 -4.92100 45.67500
C  26.86700 -5.52100 46.43300
C  28.05900 -4.84200 46.33000
C  27.82000 -3.78200 45.43200
C  26.48900 -3.88100 45.05700
C  29.27300 -5.12500 47.07700
C  28.35000 -2.57300 44.81500
O  29.50400 -2.09000 44.80700
C  27.23300 -2.07400 43.88400
C  26.86400 -0.66200 44.22600
O  26.60100 -0.28300 45.34800
O  27.03400 0.06400 43.07900
C  26.78500 1.55900 43.24000
H  20.54900 -3.55400 42.88400
H  21.52700 -8.94300 46.06200
H  27.34500 -7.05500 47.93700
H  24.27000 -0.72300 42.91700
H  22.14000 -1.97500 41.87700
H  22.38900 -0.15000 44.23500
H  21.13000 -1.37100 44.42600
H  21.22100 -0.27200 42.97100
H  23.81900 -2.45700 40.72300
H  25.29900 -2.99500 41.28800
H  26.20500 -1.09300 40.19400
H  25.09300 0.07200 40.97700
H  18.64700 -6.57300 41.77300
H  19.02500 -4.95400 42.07900
H  17.90200 -5.91800 43.15700
H  19.16000 -9.66700 46.12100
H  20.43500 -10.18600 44.97700
H  18.69300 -10.57600 44.62800
H  24.21500 -10.02400 46.31000
H  25.07700 -8.45100 48.86100
H  21.99700 -9.83300 48.03500
H  23.27600 -9.92100 49.29300
H  22.95200 -11.16900 48.07500
H  27.19800 -9.58500 47.01300
H  26.12800 -10.80700 47.77400
H  28.45300 -9.81500 48.93100
H  27.16800 -10.42900 49.89200
H  27.16900 -8.70300 49.63000
H  29.54800 -4.15800 47.49700
H  30.06400 -5.37700 46.36900
H  29.15800 -5.81500 47.91300
H  27.53300 -2.21400 42.84500
H  26.49300 1.81300 44.25900
H  25.93100 1.79300 42.60400
H  27.70300 1.99000 42.84200
Mg 1.02600 43.83200 26.04500
C  2.73800 43.75100 29.10900
C  -1.83000 42.94300 27.84900
C  -0.43100 43.17300 23.22800
C  4.08900 44.04500 24.47700
N  0.42100 43.53800 28.33900
C  1.30900 43.58900 29.36500
C  0.65100 43.30000 30.75900
C  -0.78300 42.90100 30.29600
C  -0.80400 43.20900 28.72900
C  -1.22200 41.42200 30.64000
C  0.68000 44.55200 31.68300
C  1.25800 44.22700 33.05000
H  0.75000 43.07600 33.82900
N  -0.87200 43.15700 25.61800
C  -1.93900 42.98400 26.44100
C  -3.16900 42.74900 25.69700
C  -2.80400 42.81900 24.35200
C  -1.35000 42.99000 24.35600
C  -4.57700 42.65100 26.38500
C  -3.79100 42.66600 23.13700
O  -3.37900 42.51700 22.00700
C  -5.29200 42.58000 23.36300
N  1.73300 43.60800 24.16500
C  0.92600 43.36200 23.14400
C  1.79800 43.22600 21.82300
C  3.14100 43.82400 22.18500
C  2.97700 43.81200 23.75800
C  1.72500 41.74600 21.42100
C  3.43400 45.19000 21.58900
C  3.06800 46.45800 22.34200
N  3.03800 44.01900 26.58200
C  4.18700 44.08800 25.83100
C  5.35100 43.96500 26.68100
C  4.78500 43.89400 27.97600
C  3.40300 43.91300 27.83400
C  6.82600 44.06800 26.19300
C  5.17000 43.81700 29.38000
O  6.27100 43.86300 29.94600
C  3.89300 43.66700 30.17900
C  3.95000 42.38800 30.83400
O  3.61200 41.32800 30.27700
O  4.61700 42.49100 32.08200
C  4.78900 41.08200 32.67200
H  -2.64300 42.49400 28.42400
H  -0.96600 43.02000 22.28800
H  5.00900 44.12300 23.89400
H  1.20300 42.46400 31.18900
H  -1.58400 43.49500 30.73600
H  -1.44800 40.95800 29.68000
H  -2.00800 41.43800 31.39500
H  -0.33100 40.92400 31.02300
H  -0.36900 44.81400 31.81800
H  1.24400 45.34900 31.19900
H  1.23000 45.16300 33.60800
H  2.29100 44.01700 32.77300
H  -4.27400 42.60700 27.43100
H  -5.05700 41.71300 26.10600
H  -5.13900 43.53400 26.08100
H  -5.74000 42.51200 22.37100
H  -5.68300 43.47900 23.84000
H  -5.50600 41.62200 23.83500
H  1.35200 43.68800 20.94300
H  3.90900 43.20600 21.72100
H  1.07700 41.48700 20.58300
H  1.31800 41.02900 22.13400
H  2.75400 41.46000 21.19900
H  3.09200 45.27900 20.55800
H  4.50200 45.18800 21.37500
H  3.77500 46.67600 23.14300
H  2.19200 46.31500 22.97600
H  2.97000 47.31900 21.68100
H  6.97000 44.95500 25.57700
H  7.01300 43.15000 25.63500
H  7.52600 44.17900 27.02100
H  3.82700 44.41400 30.97000
H  5.38500 41.21800 33.57400
H  5.45100 40.59900 31.95400
H  3.84600 40.63600 32.99100

