158

Mg 47.67200 16.21500 27.58000
C  45.75300 16.25700 30.56000
C  50.06500 17.99600 29.25200
C  49.24500 16.43200 24.76300
C  44.80900 14.87500 26.00500
N  47.82700 16.90700 29.70500
C  47.02400 16.74200 30.79700
C  47.64200 17.22600 32.10200
C  48.93300 18.08100 31.57700
C  48.94200 17.60300 30.01300
C  48.78500 19.60500 31.62900
C  48.06300 15.97400 33.02300
C  47.68900 16.23000 34.55900
H  47.74400 17.62300 35.16500
N  49.53700 17.00700 27.12000
C  50.37800 17.65100 27.92600
C  51.50200 18.09300 27.17500
C  51.32600 17.59200 25.84600
C  49.95000 16.99200 25.82600
C  52.69900 18.61700 27.95000
C  52.17300 17.62800 24.61000
O  51.92800 16.91700 23.55500
C  53.49900 18.41600 24.64600
N  47.04200 15.74300 25.64500
C  47.92800 15.89300 24.62900
C  47.26200 15.41200 23.23200
C  45.89400 14.83800 23.68100
C  45.89500 15.12300 25.18900
C  47.22000 16.60200 22.28500
C  45.73200 13.29200 23.41100
C  44.84800 12.78600 22.23500
N  45.63700 15.70600 28.08700
C  44.70700 15.15400 27.38900
C  43.53000 14.86600 28.28100
C  43.94300 15.25300 29.51700
C  45.18800 15.82700 29.32600
C  42.21700 14.19600 27.91700
C  43.58600 15.29500 30.91400
O  42.51900 14.99300 31.40600
C  44.72600 15.91500 31.65300
C  44.15400 17.01900 32.50100
O  43.78100 18.11200 32.04200
O  44.06300 16.71900 33.85800
C  43.59500 17.72900 34.75600
H  50.76100 18.57300 29.86400
H  49.75400 16.45800 23.79800
H  43.98000 14.33200 25.54600
H  46.93500 17.97700 32.45500
H  49.88700 17.68900 31.92900
H  47.95500 19.81900 32.30200
H  48.46300 20.05300 30.68800
H  49.74600 20.08100 31.82400
H  49.11000 15.67700 32.95900
H  47.36700 15.17200 32.77400
H  48.35500 15.66300 35.21000
H  46.70800 15.78000 34.70600
H  53.32000 17.83200 28.38100
H  52.41400 19.34700 28.70700
H  53.35200 19.17000 27.27500
H  53.39800 19.30500 25.26800
H  53.73700 18.69300 23.61900
H  54.30100 17.79100 25.03800
H  47.91700 14.68200 22.75600
H  45.02900 15.39400 23.31800
H  47.84800 17.46500 22.51000
H  46.19900 16.96800 22.39600
H  47.54700 16.16600 21.34100
H  45.40700 12.74000 24.29300
H  46.74400 12.93200 23.22900
H  45.41300 12.08600 21.61900
H  44.41500 13.58900 21.63800
H  43.93700 12.23700 22.47300
H  42.30100 13.15500 28.23000
H  41.92600 14.33700 26.87600
H  41.34000 14.57400 28.44300
H  45.11400 15.17800 32.35600
H  43.07400 17.22400 35.56800
H  42.92800 18.45600 34.29200
H  44.42700 18.28500 35.18800
Mg 0.79300 43.13300 26.36500
C  2.69500 42.90600 29.28800
C  -2.07200 42.47000 28.15200
C  -0.75300 42.72000 23.43700
C  3.83700 43.43200 24.63500
N  0.34100 42.59400 28.46500
C  1.32200 42.77300 29.49900
C  0.64000 42.90500 30.89000
C  -0.88300 42.52600 30.50600
C  -0.89000 42.59800 28.92600
C  -1.45900 41.22400 31.12900
C  0.84800 44.27700 31.50800
C  1.32800 44.38100 32.93300
H  0.97000 43.27900 33.94100
N  -1.11400 42.77800 25.87000
C  -2.20500 42.57200 26.74000
C  -3.43500 42.47700 26.01300
C  -3.06900 42.51700 24.63300
C  -1.58000 42.67800 24.60400
C  -4.81700 42.45600 26.63600
C  -3.88100 42.53600 23.40800
O  -3.40100 42.78400 22.31700
C  -5.31200 42.46100 23.47300
N  1.50500 42.85100 24.40000
C  0.66300 42.78100 23.33700
C  1.38600 42.71100 21.96100
C  2.77300 43.27900 22.34000
C  2.72900 43.12200 23.90400
C  1.45400 41.32700 21.32300
C  3.11900 44.72800 21.83000
C  4.24400 44.80000 20.78100
N  2.92500 43.03500 26.80700
C  3.99900 43.33500 25.99800
C  5.17600 43.61600 26.78300
C  4.73500 43.24600 28.08000
C  3.32000 43.04300 28.05800
C  6.52700 44.00700 26.32400
C  5.12300 43.04200 29.49000
O  6.26100 42.98100 29.91300
C  3.85700 42.91600 30.35900
C  4.02800 41.69600 31.29900
O  3.97900 40.53600 30.90500
O  4.22000 42.17100 32.56300
C  4.57000 41.19000 33.53900
H  -3.02800 42.28500 28.64500
H  -1.06200 42.77300 22.39000
H  4.73800 43.80300 24.14200
H  1.08700 42.08900 31.45700
H  -1.52300 43.37000 30.76500
H  -0.74900 40.80600 31.84300
H  -1.53700 40.49700 30.32000
H  -2.42600 41.33000 31.62100
H  -0.03600 44.91100 31.43700
H  1.50800 44.89500 30.89900
H  0.93000 45.30900 33.34500
H  2.41700 44.41900 32.95900
H  -5.53100 43.18600 26.25400
H  -4.89800 42.63100 27.70800
H  -5.29300 41.48100 26.52900
H  -5.75400 41.88500 24.28600
H  -5.60900 41.94600 22.55900
H  -5.69400 43.48100 23.41700
H  0.85400 43.42700 21.33400
H  3.57300 42.62800 21.98800
H  2.43700 41.10100 20.90900
H  0.79000 41.21000 20.46600
H  1.30400 40.67200 22.18100
H  3.25900 45.41300 22.66700
H  2.16000 45.00500 21.39200
H  5.08900 45.33100 21.21900
H  3.86800 45.34600 19.91600
H  4.51400 43.84000 20.34200
H  6.89900 43.33300 25.55300
H  7.26000 44.00400 27.13100
H  6.53900 44.98500 25.84300
H  3.81400 43.80500 30.98900
H  3.98900 41.33000 34.45100
H  5.62400 41.29200 33.79600
H  4.38500 40.14500 33.29100

