158

Mg 46.85200 44.64300 44.01700
C  43.39400 44.22000 43.52600
C  47.22500 41.20300 43.15900
C  50.13900 45.00900 43.53000
C  46.32900 48.10600 43.99400
N  45.50000 42.98500 43.33000
C  44.11000 43.06800 43.27900
C  43.51500 41.71300 43.02300
C  44.69400 40.74300 42.97400
C  45.89200 41.67600 43.19800
C  44.61000 39.54200 43.93400
C  42.54300 41.53800 41.80300
C  43.13200 42.23300 40.57300
H  42.90300 41.54700 39.21000
N  48.51100 43.29300 43.70700
C  48.44800 41.91200 43.42300
C  49.80900 41.38200 43.22800
C  50.70900 42.51700 43.43500
C  49.79400 43.67000 43.67100
C  50.17300 40.02700 42.88700
C  52.20200 42.44300 43.47100
O  52.83000 41.38900 43.33000
C  53.09600 43.58400 43.85100
N  48.04000 46.37900 43.69200
C  49.39200 46.23300 43.49600
C  50.09200 47.57700 43.17000
C  48.83000 48.53400 43.39800
C  47.65500 47.63700 43.66800
C  51.35400 47.68100 44.17800
C  48.55000 49.64300 42.30900
C  48.12100 51.13000 42.71200
N  45.18900 45.92200 43.86100
C  45.12000 47.26800 44.02300
C  43.79500 47.71600 44.22200
C  42.97700 46.50500 43.99800
C  43.95800 45.48500 43.69600
C  43.39500 49.14000 44.49300
C  41.65100 45.88900 43.91200
O  40.54700 46.38700 43.94400
C  41.89000 44.43100 43.59400
C  41.24800 43.59800 44.65600
O  40.31100 42.78100 44.50800
O  41.80700 43.91300 45.89500
C  41.17100 43.22200 47.06000
H  47.27600 40.18100 42.77800
H  51.14600 45.19600 43.15300
H  46.24000 49.18200 44.15800
H  42.91000 41.45600 43.89200
H  44.90200 40.29400 42.00200
H  44.53300 38.70700 43.23700
H  43.68500 39.54500 44.51000
H  45.46600 39.46000 44.60400
H  41.60100 41.97100 42.13800
H  42.52000 40.46200 41.62800
H  44.21100 42.33400 40.68900
H  42.64900 43.18600 40.79100
H  50.18700 39.33400 43.72800
H  51.18800 39.87800 42.51900
H  49.40900 39.66400 42.19900
H  52.72400 44.21000 44.66300
H  53.08900 44.33700 43.06300
H  54.07900 43.25400 44.18600
H  50.48300 47.57500 42.15300
H  49.18500 49.11800 44.24700
H  52.30500 47.73200 43.64700
H  51.38100 46.86700 44.90100
H  51.33800 48.50300 44.89400
H  47.62300 49.35400 41.81600
H  49.33200 49.55000 41.55500
H  48.50900 51.74300 41.89900
H  48.65500 51.45000 43.60700
H  47.05400 51.22700 42.91300
H  42.31300 49.04100 44.57400
H  43.57500 49.82700 43.66600
H  43.91800 49.37200 45.42100
H  41.33500 44.32600 42.66200
H  40.09900 43.36100 47.20200
H  41.69100 43.41500 47.99900
H  41.19900 42.15800 46.82300
Mg -2.45000 33.96400 26.92900
C  -3.92200 32.11100 29.67500
C  -0.88000 35.88700 29.39200
C  -1.43300 35.99400 24.52800
C  -4.11000 31.89600 24.73800
N  -2.43600 33.94800 29.36300
C  -3.01200 33.07000 30.18200
C  -2.62900 33.48200 31.64100
C  -1.79400 34.75000 31.49900
C  -1.63500 34.84600 29.94500
C  -2.27800 36.09700 32.23500
C  -1.90400 32.37900 32.51300
C  -2.48400 32.05200 33.89000
H  -1.48600 32.00200 35.04600
N  -1.32000 35.65200 26.92000
C  -0.71500 36.20800 28.01200
C  -0.06200 37.42200 27.55000
C  -0.18300 37.51700 26.17300
C  -0.93700 36.33300 25.80600
C  0.57700 38.32900 28.51700
C  0.49000 38.57300 25.30700
O  0.35600 38.59000 24.09000
C  1.21200 39.61400 25.89500
N  -2.66300 33.94200 24.87900
C  -2.13900 34.86800 24.08500
C  -2.34600 34.43000 22.51700
C  -3.03200 33.01500 22.64600
C  -3.31300 32.96100 24.16500
C  -3.22800 35.33700 21.63800
C  -2.13100 31.88200 22.13200
C  -2.40800 31.48500 20.63700
N  -3.64900 32.36300 27.14700
C  -4.33300 31.61300 26.14800
C  -5.05400 30.49300 26.70800
C  -4.92300 30.71600 28.07600
C  -4.08800 31.82300 28.37500
C  -5.89900 29.46600 26.06000
C  -5.38600 30.18800 29.36200
O  -6.14000 29.26100 29.65200
C  -4.67400 31.11600 30.44700
C  -5.69800 31.68100 31.29800
O  -6.51800 32.53200 30.97000
O  -5.65000 31.06700 32.52000
C  -6.66600 31.45000 33.57100
H  -0.37400 36.49200 30.14700
H  -1.07100 36.59400 23.69100
H  -4.40900 31.10100 24.05100
H  -3.55600 33.74400 32.15000
H  -0.76400 34.60200 31.82400
H  -2.71200 36.85100 31.57900
H  -1.47200 36.57100 32.79700
H  -3.09700 35.90100 32.92700
H  -0.88200 32.72300 32.67100
H  -1.86100 31.51400 31.85200
H  -2.89300 31.05600 33.71700
H  -3.37800 32.58200 34.21800
H  1.62800 38.04700 28.58200
H  0.19000 38.27600 29.53400
H  0.49100 39.40700 28.37900
H  1.72500 40.14200 25.09200
H  1.93100 39.32200 26.66100
H  0.49200 40.37900 26.18500
H  -1.31800 34.32800 22.17000
H  -4.05600 33.01100 22.27200
H  -4.15400 34.90100 21.26200
H  -2.68500 35.61100 20.73300
H  -3.50200 36.30500 22.05800
H  -2.19300 30.98700 22.75000
H  -1.12000 32.24400 22.31800
H  -1.50000 31.69500 20.07000
H  -3.21200 32.15300 20.32800
H  -2.66800 30.42800 20.60500
H  -5.31200 28.55800 25.92100
H  -6.38700 29.76600 25.13300
H  -6.69600 29.31900 26.78900
H  -4.09100 30.38500 31.00800
H  -7.50000 32.04600 33.20200
H  -6.28700 32.02500 34.41600
H  -7.04500 30.52600 34.00800

