158

Mg 0.86500 8.38700 26.59000
C  1.38200 10.17200 29.41900
C  0.99000 5.37800 28.16100
C  0.89900 6.71100 23.50600
C  1.68600 11.34600 24.84800
N  1.32100 7.86500 28.51600
C  1.20100 8.75500 29.56600
C  0.92800 8.05700 30.85300
C  1.40200 6.62800 30.54300
C  1.23800 6.57800 28.95800
C  2.82200 6.16200 30.83400
C  -0.46600 8.31000 31.39900
C  -0.65600 8.01700 32.89600
H  0.48900 7.39200 33.66000
N  0.59500 6.42500 25.92200
C  0.76300 5.27600 26.68300
C  0.53300 4.08300 25.92200
C  0.49600 4.45500 24.60900
C  0.63100 5.91500 24.61400
C  0.50900 2.66700 26.51600
C  0.24800 3.62300 23.41200
O  0.04800 4.08500 22.28500
C  0.05500 2.10700 23.59600
N  1.23900 8.90500 24.45500
C  1.30500 8.02400 23.44800
C  1.69100 8.74700 22.20300
C  1.80100 10.26700 22.52300
C  1.56000 10.24000 24.05100
C  2.95200 8.14200 21.58900
C  0.79700 11.22100 21.78400
C  -0.75900 11.01900 22.06300
N  1.25600 10.41200 26.99600
C  1.64400 11.48600 26.23300
C  1.87300 12.68000 26.99500
C  1.80500 12.13500 28.31400
C  1.49000 10.81000 28.26300
C  2.16000 14.07800 26.54600
C  1.96400 12.47600 29.76100
O  2.33700 13.49900 30.30400
C  1.55200 11.18900 30.46600
C  2.69900 10.94800 31.45700
O  3.81800 10.55400 31.22200
O  2.27600 11.46200 32.61800
C  3.21800 11.72400 33.68400
H  1.11500 4.39600 28.62100
H  1.10500 6.31800 22.50800
H  1.87200 12.30200 24.35300
H  1.66800 8.38200 31.58400
H  0.67500 5.95200 30.99300
H  3.27600 5.92200 29.87300
H  2.91100 5.34900 31.55400
H  3.29400 7.05900 31.23600
H  -1.22800 7.71700 30.89400
H  -0.75400 9.36000 31.33700
H  -1.54100 7.40000 33.05200
H  -0.86400 8.95500 33.41200
H  0.64700 2.72300 27.59500
H  1.36000 2.11500 26.11700
H  -0.39300 2.15000 26.18700
H  -0.83700 1.93500 24.19800
H  0.94500 1.69400 24.07000
H  0.00300 1.66400 22.60100
H  0.77300 8.60900 21.63100
H  2.81800 10.65400 22.44900
H  3.64100 7.80600 22.36300
H  3.45500 8.89900 20.98800
H  2.66300 7.25000 21.03200
H  0.99700 11.12100 20.71700
H  1.17900 12.18500 22.12100
H  -1.40300 10.88200 21.19500
H  -0.90000 12.02900 22.45000
H  -0.95300 10.34600 22.89800
H  1.27400 14.56500 26.13900
H  2.90900 14.06200 25.75500
H  2.55700 14.61400 27.40800
H  0.59000 11.34800 30.95300
H  4.03400 11.00600 33.77800
H  2.74400 11.62900 34.66000
H  3.54400 12.76400 33.67900
Mg 41.70900 41.08400 27.17100
C  40.98300 43.36400 29.60300
C  43.15800 39.12700 29.72700
C  42.54500 38.65200 24.96200
C  41.26200 43.38300 24.80700
N  42.11800 41.28100 29.48200
C  41.50100 42.29400 30.20000
C  41.61300 42.02900 31.69300
C  42.51700 40.74000 31.71600
C  42.72000 40.39400 30.23800
C  43.89200 40.87700 32.40700
C  40.25500 41.90100 32.39800
C  39.99500 42.90800 33.48400
H  39.57500 42.53900 34.86500
N  42.53800 39.04200 27.32900
C  43.13700 38.51700 28.37800
C  43.45000 37.13500 28.10100
C  43.15400 36.91600 26.72600
C  42.69600 38.23200 26.30000
C  43.75300 36.09100 29.19300
C  43.29500 35.70800 25.83700
O  43.02500 35.73700 24.65200
C  43.92900 34.46600 26.30200
N  42.04400 41.02700 25.12200
C  42.32500 39.92500 24.41900
C  42.10700 40.28100 22.88200
C  41.67800 41.76900 22.89200
C  41.69200 42.09300 24.37000
C  43.29200 40.01700 21.91800
C  40.31500 42.04100 22.19000
C  40.13900 43.30100 21.41800
N  41.22800 43.01200 27.12400
C  41.07700 43.88600 26.12400
C  40.51700 45.16200 26.59100
C  40.38600 44.90900 28.00300
C  40.83800 43.66200 28.20500
C  40.13700 46.35100 25.76100
C  39.88300 45.48600 29.22800
O  39.36300 46.61100 29.43900
C  40.33500 44.53900 30.31100
C  41.30900 45.30100 31.23400
O  42.49500 45.56000 31.01600
O  40.67800 45.73400 32.33800
C  41.50000 46.51600 33.33800
H  43.34800 38.42100 30.53800
H  42.50500 37.91300 24.16000
H  40.94800 44.03500 23.98900
H  42.27200 42.81700 32.05800
H  42.00600 39.90600 32.19800
H  44.58500 41.07300 31.58900
H  44.17800 39.98700 32.96800
H  43.83900 41.72800 33.08600
H  40.17700 40.91900 32.86300
H  39.44900 41.97900 31.66800
H  39.26300 43.63600 33.13400
H  40.88100 43.54300 33.51900
H  43.02200 35.29600 29.04300
H  43.88500 36.46200 30.21000
H  44.76400 35.76400 28.95200
H  44.91700 34.70400 26.69700
H  43.85600 33.82300 25.42500
H  43.42200 33.89600 27.08000
H  41.23800 39.70700 22.56200
H  42.42600 42.37900 22.38300
H  44.24700 40.07900 22.44100
H  43.16100 40.61400 21.01600
H  43.15100 38.93900 21.83800
H  39.49500 42.08900 22.90600
H  40.05900 41.22700 21.51200
H  39.77400 44.08200 22.08500
H  39.47500 43.16900 20.56400
H  40.99400 43.78400 20.94600
H  40.25600 46.12900 24.70000
H  40.67700 47.27400 25.97500
H  39.11000 46.64900 25.97200
H  39.41400 44.38000 30.87200
H  42.12500 45.88200 33.96700
H  40.74100 46.98300 33.96400
H  42.08100 47.28300 32.82600

