158

Mg 44.23700 4.88500 47.59000
C  42.21600 7.68100 46.88400
C  41.44000 2.90500 46.74400
C  46.22800 2.19300 47.51200
C  46.96700 7.02600 47.77900
N  41.97500 5.25800 46.86100
C  41.44400 6.49200 46.78700
C  39.99200 6.38500 46.39100
C  39.65900 4.84100 46.74500
C  41.06000 4.28800 46.76200
C  38.87800 4.68000 48.00000
C  39.65000 6.82800 44.90200
C  38.84800 8.17200 44.62100
H  39.42600 8.96300 43.42400
N  43.87300 2.88900 47.20800
C  42.70100 2.25100 46.85800
C  42.89300 0.84400 46.63100
C  44.27400 0.63900 46.99100
C  44.87200 1.95400 47.20100
C  41.87800 -0.08100 46.13500
C  44.92600 -0.73600 46.95400
O  44.29900 -1.77400 46.73000
C  46.34400 -0.91500 47.36900
N  46.25900 4.67400 47.72600
C  46.87100 3.42500 47.80500
C  48.36300 3.50400 47.99900
C  48.57900 5.01300 48.08700
C  47.15500 5.64900 47.89600
C  48.84700 2.75600 49.26800
C  49.65900 5.57700 47.10800
C  50.86800 6.24700 47.82200
N  44.58700 6.88200 47.39900
C  45.75900 7.62800 47.53000
C  45.51200 9.03500 47.44200
C  44.13300 9.13800 47.18800
C  43.61400 7.74600 47.13900
C  46.55400 10.19400 47.59500
C  42.97300 9.99800 47.01300
O  42.98800 11.19800 46.90900
C  41.64800 9.11400 46.88000
C  40.71900 9.34300 48.04500
O  40.72400 8.67600 49.09800
O  39.81900 10.34100 47.71800
C  38.49600 10.29800 48.43500
H  40.59700 2.22400 46.60900
H  47.03600 1.47500 47.35600
H  47.80800 7.70000 47.95600
H  39.46800 7.12800 46.99200
H  39.12300 4.35000 45.93300
H  39.38500 4.35200 48.90700
H  38.19800 3.84900 47.81400
H  38.37500 5.60400 48.28300
H  39.04600 6.06000 44.42000
H  40.64000 6.93300 44.45700
H  38.63200 8.70600 45.54600
H  37.89800 7.74600 44.29600
H  42.23700 -0.31800 45.13400
H  40.88400 0.29900 45.90000
H  41.89400 -0.93000 46.81900
H  46.92200 -0.40100 46.60100
H  46.75500 -1.92100 47.28700
H  46.48600 -0.56600 48.39200
H  48.74200 3.10300 47.05900
H  48.83700 5.26500 49.11600
H  48.95900 1.72800 48.92400
H  48.10000 2.81400 50.05900
H  49.74300 3.23900 49.66100
H  49.20500 6.34800 46.48500
H  50.05400 4.82900 46.42100
H  51.72900 5.58800 47.71400
H  50.68000 6.30900 48.89400
H  51.08700 7.24700 47.44600
H  47.36100 10.19600 46.86300
H  46.98300 10.09600 48.59200
H  45.97400 11.11800 47.59900
H  41.24300 9.49500 45.94300
H  38.14300 11.30100 48.67400
H  38.58300 9.75300 49.37500
H  37.71800 9.86800 47.80400
Mg 54.14200 24.48300 44.85300
C  51.63900 26.78300 44.03100
C  51.91400 21.90800 44.07200
C  56.72000 22.44400 44.61100
C  56.26100 27.17000 45.41100
N  52.09600 24.44200 43.98200
C  51.23000 25.50300 43.87900
C  49.83000 25.04700 43.50300
C  49.89800 23.53900 44.01400
C  51.38600 23.24700 44.08800
C  49.15000 23.28800 45.34300
C  49.59200 25.15700 41.92400
C  48.09700 25.46800 41.60400
H  47.69300 25.40800 40.10800
N  54.27900 22.43400 44.38700
C  53.24000 21.51400 44.14500
C  53.83600 20.21100 43.89400
C  55.24800 20.35800 43.94500
C  55.48800 21.81000 44.28400
C  53.10800 18.93600 43.75400
C  56.26000 19.18000 43.69200
O  55.88800 18.04600 43.36200
C  57.69500 19.34000 43.90000
N  56.14800 24.76600 44.91000
C  57.02400 23.73900 44.97600
C  58.44500 24.16600 45.21800
C  58.31200 25.70200 45.47400
C  56.83900 25.88600 45.33300
C  59.27700 23.41000 46.33500
C  59.22700 26.59400 44.60000
C  60.05700 27.66100 45.31300
N  53.99100 26.62300 44.96500
C  54.90700 27.58100 45.35800
C  54.22600 28.84700 45.47100
C  52.94100 28.61700 44.86100
C  52.88600 27.20100 44.57100
C  54.68400 30.22200 45.91600
C  51.68300 29.25200 44.39400
O  51.38400 30.45800 44.43400
C  50.78800 28.12300 43.79800
C  50.50300 28.42600 42.35200
O  51.24600 28.11300 41.40700
O  49.23400 28.95600 42.21600
C  48.57200 29.02000 40.86700
H  51.27300 21.02500 44.02800
H  57.57600 21.78800 44.78300
H  56.86000 28.03700 45.69700
H  49.14100 25.55300 44.18100
H  49.39700 22.91900 43.27100
H  48.75900 22.27100 45.35900
H  48.29700 23.94000 45.53400
H  49.87200 23.41300 46.15000
H  49.84500 24.19100 41.48500
H  50.23800 25.90100 41.45800
H  48.03000 26.52100 41.87600
H  47.36300 24.92400 42.19900
H  53.48900 18.08400 43.19200
H  52.21400 19.18500 43.18200
H  52.57900 18.64500 44.66100
H  58.22300 18.48700 43.47300
H  57.87900 19.42600 44.97100
H  58.03100 20.19100 43.30800
H  59.04800 23.92700 44.34300
H  58.54700 25.97500 46.50300
H  58.71400 22.52200 46.62300
H  59.43100 24.09000 47.17200
H  60.22500 22.98900 45.99800
H  58.64500 27.23800 43.94100
H  59.90400 25.96600 44.02100
H  60.53300 28.18600 44.48500
H  60.78100 27.19500 45.98100
H  59.35400 28.25200 45.90200
H  55.24600 30.18600 46.84900
H  53.96200 31.02800 46.05100
H  55.39700 30.55800 45.16300
H  49.86200 27.86100 44.31000
H  47.80500 28.24900 40.93700
H  49.20800 28.66700 40.05500
H  48.17200 30.00400 40.62100

