158

Mg 23.79700 -5.40300 45.48600
C  25.66100 -2.79900 44.05700
C  21.13000 -4.35800 43.42500
C  22.38000 -8.50500 45.90500
C  26.75100 -6.57700 46.92100
N  23.47800 -3.82000 43.88500
C  24.42800 -2.91000 43.51400
C  23.92000 -2.04300 42.33100
C  22.36800 -2.26800 42.42900
C  22.26300 -3.55700 43.25700
C  21.64900 -1.04000 43.16400
C  24.57400 -2.44200 40.99700
C  25.00700 -1.38100 40.00900
H  24.68800 -1.65800 38.47600
N  22.06800 -6.30200 44.87600
C  21.07500 -5.61800 44.06500
C  19.90300 -6.49900 44.09100
C  20.21100 -7.66300 44.80700
C  21.58700 -7.53600 45.29100
C  18.57600 -6.13100 43.40200
C  19.23500 -8.80800 45.10200
O  18.12200 -8.82300 44.58900
C  19.47800 -9.97100 45.96400
N  24.41700 -7.21800 46.43800
C  23.65400 -8.38000 46.46800
C  24.45800 -9.52500 47.17300
C  25.69700 -8.81900 47.74500
C  25.62900 -7.39700 47.00700
C  23.65600 -10.20300 48.31700
C  26.97700 -9.66300 47.63500
C  27.98200 -9.41500 48.83600
N  25.78800 -4.78300 45.62500
C  26.88900 -5.35100 46.25200
C  28.00300 -4.49200 46.24200
C  27.59500 -3.40300 45.37100
C  26.20200 -3.65100 45.06100
C  29.37300 -4.64300 46.95700
C  28.04400 -2.15400 44.69600
O  29.13300 -1.64800 44.54600
C  26.77000 -1.79400 43.77600
C  26.39600 -0.44100 44.16400
O  26.04800 -0.09100 45.26500
O  26.57600 0.43200 43.07200
C  26.79700 1.88200 43.38000
H  20.23900 -3.94400 42.94700
H  21.82100 -9.44200 45.93500
H  27.67100 -6.94600 47.38000
H  24.10700 -1.00500 42.60700
H  21.84900 -2.40300 41.48000
H  22.10400 -0.84800 44.13600
H  20.58800 -1.23700 43.31600
H  21.76400 -0.25600 42.41600
H  23.86700 -3.04800 40.43000
H  25.41500 -3.07100 41.29000
H  26.08500 -1.31200 40.15600
H  24.61700 -0.42400 40.35700
H  18.13700 -6.96800 42.85800
H  18.72700 -5.40100 42.60700
H  17.81800 -5.71300 44.06500
H  18.51800 -10.48600 45.97900
H  19.81300 -9.69200 46.96300
H  20.22800 -10.55500 45.43000
H  24.72400 -10.17100 46.33700
H  25.65300 -8.51900 48.79200
H  23.90100 -9.65300 49.22500
H  23.81500 -11.28200 48.33100
H  22.59500 -10.04100 48.12800
H  27.51800 -9.43400 46.71700
H  26.82200 -10.74200 47.66800
H  27.62700 -10.10800 49.59800
H  28.18500 -8.40400 49.19100
H  28.93400 -9.80300 48.47500
H  29.26700 -5.50900 47.61100
H  29.82100 -3.84400 47.54800
H  29.95000 -4.96600 46.09000
H  27.06000 -1.87200 42.72900
H  26.85500 2.27500 44.39600
H  25.98500 2.44300 42.91800
H  27.77900 2.19200 43.02200
Mg 26.93600 51.32300 26.51900
C  24.68300 51.91100 29.20300
C  29.07600 50.02500 28.81000
C  29.05700 50.69600 23.97100
C  24.81100 52.93300 24.41200
N  26.82600 50.99900 28.76200
C  25.87600 51.32800 29.62000
C  26.26600 50.91300 31.06100
C  27.74400 50.57300 30.93400
C  27.91800 50.46900 29.43000
C  28.73300 51.54600 31.55600
C  25.43700 49.79100 31.62800
C  25.05100 49.97100 33.13700
H  26.05500 50.40000 34.21100
N  28.72600 50.43100 26.38700
C  29.50200 49.99500 27.46600
C  30.72700 49.37400 26.96000
C  30.81100 49.62000 25.56000
C  29.45500 50.24400 25.25800
C  31.63800 48.77900 27.93200
C  31.96700 49.43900 24.60500
O  32.05600 49.82700 23.41900
C  33.06500 48.59200 25.07200
N  27.08500 52.03300 24.50200
C  28.02300 51.58200 23.62600
C  27.67600 52.05500 22.19500
C  26.17100 52.54000 22.27700
C  25.98800 52.51300 23.84100
C  28.64000 53.12500 21.57900
C  25.08600 51.57300 21.58400
C  24.19700 52.32200 20.58500
N  25.08600 52.19100 26.67900
C  24.36200 52.82700 25.75600
C  23.17800 53.37600 26.28100
C  23.28700 53.05600 27.60700
C  24.44200 52.28800 27.83400
C  22.07000 54.16200 25.59000
C  22.60400 53.18300 28.89700
O  21.54500 53.72900 29.23700
C  23.53800 52.48200 29.93600
C  23.88100 53.54400 30.92900
O  24.93100 54.13500 30.87500
O  22.95300 53.50100 31.99600
C  23.37300 54.11000 33.24300
H  29.68000 49.65700 29.64300
H  29.80000 50.50400 23.19400
H  24.09100 53.51800 23.83600
H  26.14100 51.80900 31.67000
H  27.89200 49.61800 31.43900
H  29.37200 50.96900 32.22400
H  28.16400 52.34400 32.03300
H  29.51600 51.87800 30.87500
H  25.89000 48.80900 31.49300
H  24.51200 49.62400 31.07600
H  24.74800 48.98700 33.49500
H  24.22200 50.67800 33.14600
H  31.76300 47.73200 27.65700
H  31.28100 48.70300 28.95900
H  32.61300 49.26400 27.98100
H  32.67500 47.67900 25.52200
H  33.66600 49.15200 25.78800
H  33.66200 48.24900 24.22700
H  27.71200 51.15700 21.57700
H  26.00900 53.60600 22.11900
H  29.43100 53.25000 22.31800
H  28.29600 54.14500 21.41100
H  29.07300 52.71800 20.66500
H  24.44000 51.21000 22.38300
H  25.58300 50.71000 21.14200
H  23.34900 52.68800 21.16500
H  23.85300 51.67000 19.78200
H  24.72400 53.11900 20.06100
H  21.54800 54.71300 26.37100
H  21.44900 53.48600 25.00200
H  22.60700 54.92300 25.02400
H  22.95200 51.69800 30.41500
H  24.07500 53.51100 33.82300
H  22.52900 54.03400 33.92800
H  23.58400 55.17700 33.18300

