158

Mg 17.61800 -1.91300 27.09200
C  16.64600 0.11900 29.73500
C  19.30200 -3.83900 29.28500
C  18.67700 -3.62500 24.50800
C  16.01300 0.30000 24.85900
N  18.27900 -1.52500 29.30700
C  17.42200 -0.95100 30.18000
C  17.85600 -1.32400 31.68100
C  18.95700 -2.40400 31.45000
C  18.92800 -2.58300 29.91900
C  20.45500 -2.13200 31.95200
C  16.62900 -1.57400 32.58200
C  16.46300 -0.70500 33.80300
H  17.77300 -0.49500 34.55000
N  18.78900 -3.55800 26.94500
C  19.36600 -4.27500 27.93900
C  19.97800 -5.46500 27.46000
C  19.76300 -5.47800 26.07500
C  19.09400 -4.16500 25.77300
C  20.64900 -6.49800 28.33400
C  19.98000 -6.55500 25.01100
O  19.45400 -6.55800 23.90800
C  20.72800 -7.80700 25.21100
N  17.36400 -1.67800 24.96400
C  17.92000 -2.53300 24.11800
C  17.79300 -2.06900 22.58300
C  16.73600 -0.88200 22.76800
C  16.67100 -0.75600 24.26800
C  19.18700 -1.71900 22.03500
C  15.30900 -0.83700 22.10100
C  15.18800 0.25600 21.05900
N  16.54100 -0.11200 27.21800
C  15.95400 0.66500 26.22600
C  15.15400 1.67500 26.82400
C  15.41200 1.54200 28.21400
C  16.32900 0.49400 28.37600
C  14.17700 2.67500 26.12800
C  15.07500 2.04000 29.45300
O  14.44800 3.02700 29.76600
C  15.94100 1.17400 30.55600
C  16.83900 2.00900 31.45400
O  17.99200 2.29900 31.16400
O  16.14400 2.51500 32.57100
C  17.06800 3.23100 33.45500
H  19.76200 -4.63100 29.87900
H  19.02000 -4.19200 23.64100
H  15.62600 0.97200 24.09000
H  18.35900 -0.46600 32.12600
H  18.65400 -3.29900 31.99300
H  20.48100 -1.14400 32.41100
H  21.18700 -2.06600 31.14700
H  20.78200 -2.87000 32.68500
H  16.70900 -2.60100 32.93800
H  15.74600 -1.43700 31.95600
H  15.72300 -1.18200 34.44500
H  16.04100 0.29000 33.66100
H  21.19500 -7.23200 27.74100
H  19.85800 -6.99100 28.89800
H  21.32400 -6.12700 29.10500
H  21.64700 -7.65600 25.77800
H  21.08400 -8.16100 24.24400
H  20.05800 -8.46200 25.76800
H  17.36400 -2.91100 22.03900
H  17.27100 0.03500 22.52000
H  19.23300 -0.69300 21.67000
H  19.43500 -2.29500 21.14300
H  20.00000 -1.86800 22.74600
H  14.51400 -0.57100 22.79700
H  15.11200 -1.79200 21.61300
H  16.09400 0.83500 20.87300
H  14.35300 0.94000 21.21200
H  15.07300 -0.24700 20.09800
H  14.61000 3.04100 25.19700
H  13.73400 3.40900 26.80100
H  13.34000 2.04500 25.82600
H  15.18400 0.67300 31.15900
H  17.65600 3.95000 32.88500
H  17.85000 2.56900 33.82800
H  16.60000 3.70600 34.31700
Mg -8.55900 40.46600 42.79400
C  -7.35200 37.35000 41.72300
C  -6.06100 41.92500 40.75000
C  -10.08800 43.55200 43.14300
C  -11.53600 38.91200 43.76000
N  -6.89500 39.71700 41.33500
C  -6.55200 38.44800 41.21100
C  -5.18900 38.25700 40.41800
C  -4.70900 39.75100 40.17000
C  -5.90200 40.50900 40.90400
C  -3.29800 40.22300 40.84200
C  -5.54200 37.34700 39.13800
C  -4.54600 36.11400 39.02200
H  -4.89300 34.97300 38.04800
N  -8.07600 42.46600 42.22600
C  -6.99600 42.79100 41.38300
C  -6.90700 44.14700 41.30000
C  -8.04200 44.77700 41.85800
C  -8.84000 43.61100 42.41100
C  -5.70400 44.82900 40.51700
C  -8.42900 46.24100 41.71500
O  -7.75100 47.01300 41.04700
C  -9.81300 46.75400 42.19100
N  -10.52200 41.11000 43.42000
C  -10.85700 42.37800 43.56700
C  -12.36500 42.53900 43.94500
C  -12.82800 41.03100 44.10300
C  -11.60700 40.29000 43.78000
C  -12.55000 43.46400 45.20000
C  -14.05500 40.65300 43.32900
C  -15.05600 39.80100 44.11400
N  -9.25700 38.52900 42.87400
C  -10.44500 38.04300 43.32800
C  -10.45100 36.61500 43.24400
C  -9.21500 36.21600 42.74700
C  -8.59300 37.46100 42.43400
C  -11.53900 35.74100 43.78600
C  -8.35500 35.11300 42.41200
O  -8.49200 33.93500 42.66400
C  -7.08400 35.76700 41.76700
C  -5.87400 35.36100 42.54400
O  -5.47200 36.11700 43.45100
O  -5.39900 34.13500 42.21200
C  -4.30500 33.57000 43.01200
H  -5.19700 42.32300 40.21400
H  -10.60500 44.49700 43.32300
H  -12.47700 38.48000 44.10800
H  -4.47000 37.70100 41.02000
H  -4.77400 39.89700 39.09100
H  -3.34800 41.28400 41.08800
H  -2.54300 40.17100 40.05800
H  -3.08000 39.58500 41.69900
H  -5.47200 38.00100 38.26900
H  -6.54000 36.91100 39.15600
H  -4.58800 35.64700 40.00600
H  -3.53000 36.48300 38.87700
H  -5.99400 45.01500 39.48300
H  -4.78400 44.24500 40.51500
H  -5.38100 45.73700 41.02600
H  -9.99000 47.79800 41.93300
H  -9.82200 46.66000 43.27700
H  -10.56500 46.08200 41.77800
H  -12.80000 42.95500 43.03600
H  -12.91000 40.79700 45.16500
H  -12.88700 42.95000 46.10100
H  -13.26800 44.27200 45.06400
H  -11.59600 43.92500 45.45500
H  -13.69000 40.21500 42.40000
H  -14.63700 41.50300 42.97300
H  -14.88100 39.89200 45.18600
H  -15.03900 38.81000 43.66100
H  -16.02800 40.24200 43.89600
H  -11.28600 34.69300 43.62500
H  -12.44700 35.98200 43.23200
H  -11.70600 35.94500 44.84300
H  -6.91000 35.24200 40.82700
H  -4.47400 33.89400 44.03900
H  -3.28300 33.85100 42.75700
H  -4.42500 32.49200 43.11300

