158

Mg 41.73900 41.11300 26.74600
C  40.91200 43.61200 29.09200
C  42.67800 39.05400 29.27700
C  42.78700 38.83400 24.33900
C  41.22500 43.43500 24.21700
N  41.89000 41.41700 28.90700
C  41.28100 42.44100 29.69100
C  41.34200 42.09900 31.18100
C  41.95100 40.66600 31.15200
C  42.25000 40.38700 29.71500
C  43.13700 40.45200 32.11300
C  39.84000 42.16000 31.79900
C  39.91200 41.65300 33.27200
H  39.21300 42.49800 34.34900
N  42.60100 39.20100 26.77500
C  42.87200 38.55400 27.94000
C  43.37200 37.25800 27.62100
C  43.53800 37.20800 26.15300
C  42.93600 38.44300 25.66700
C  43.78400 36.18600 28.63400
C  44.15200 36.14000 25.23800
O  44.27800 36.29800 24.03000
C  44.75800 34.95100 25.83100
N  41.93200 41.17100 24.68600
C  42.37000 40.08900 23.86600
C  42.44900 40.46700 22.31800
C  41.53700 41.79300 22.33400
C  41.56100 42.17700 23.85900
C  43.91100 40.55100 21.70100
C  40.24300 41.65300 21.57400
C  39.25000 40.63600 22.19500
N  41.12400 43.14200 26.59400
C  41.08700 43.97400 25.55500
C  40.73600 45.33600 25.96500
C  40.57100 45.20400 27.31800
C  40.89000 43.85900 27.72700
C  40.60400 46.60500 25.13700
C  40.22900 45.86300 28.60900
O  40.00200 47.09500 28.68000
C  40.22400 44.81000 29.69800
C  40.83400 45.46800 30.86600
O  41.92700 46.06100 30.87600
O  39.97000 45.58800 31.93900
C  40.23300 46.41800 33.11200
H  42.91700 38.35500 30.08200
H  43.17800 38.21100 23.53200
H  40.93400 44.19000 23.48300
H  41.97300 42.76200 31.77300
H  41.19900 39.97200 31.52800
H  43.30800 41.40300 32.61700
H  43.96300 40.05200 31.52500
H  42.71000 39.69500 32.77100
H  39.14200 41.53000 31.24900
H  39.48600 43.18900 31.74300
H  40.92800 41.35000 33.52400
H  39.32000 40.73800 33.24500
H  44.83900 36.12000 28.90000
H  43.41700 35.22300 28.28100
H  43.23700 36.46000 29.53700
H  45.35600 34.32400 25.17000
H  43.99900 34.30000 26.26300
H  45.44100 35.27900 26.61400
H  41.84200 39.69100 21.85200
H  42.04400 42.61100 21.82200
H  44.20200 41.57300 21.45900
H  43.93200 39.87000 20.85000
H  44.59200 40.25700 22.50000
H  40.46500 41.40900 20.53500
H  39.71300 42.60500 21.53100
H  38.97400 39.90000 21.43900
H  38.32500 41.10100 22.53700
H  39.73800 40.10400 23.01100
H  40.58300 46.27000 24.10000
H  41.46800 47.23200 25.35800
H  39.70000 47.16800 25.36700
H  39.15900 44.64900 29.86300
H  40.56800 45.90000 34.01100
H  39.23800 46.83500 33.26400
H  40.98800 47.18400 32.93500
Mg 29.42300 58.88600 40.07800
C  26.88400 56.70200 38.78600
C  31.85200 56.40300 39.00200
C  31.83000 61.25800 40.34700
C  26.89100 61.29900 40.33900
N  29.42800 56.84200 38.88200
C  28.17300 56.14200 38.58200
C  28.56800 54.77700 37.96400
C  30.08200 54.66500 38.29700
C  30.50600 56.05200 38.76600
C  30.43700 53.61900 39.40100
C  28.30200 54.88000 36.38500
C  27.04000 54.08600 36.00500
H  26.22700 54.58800 34.80400
N  31.56100 58.80000 39.82300
C  32.33500 57.71000 39.37800
C  33.65900 58.18400 39.47500
C  33.79000 59.52200 39.99900
C  32.36300 59.94400 40.06600
C  34.74100 57.20800 38.98400
C  35.07900 60.30300 40.35900
O  36.23000 59.93800 40.11400
C  35.04800 61.63900 40.99400
N  29.33500 60.92200 40.19300
C  30.47800 61.68700 40.33000
C  30.08400 63.16700 40.57100
C  28.55700 63.24500 40.59500
C  28.22200 61.69500 40.39400
C  30.79700 63.75700 41.85500
C  27.88300 64.20200 39.59800
C  27.39900 65.61600 39.98400
N  27.34100 58.95400 39.84500
C  26.49700 59.99300 40.05400
C  25.08800 59.53300 40.00600
C  25.23600 58.27300 39.48300
C  26.55900 57.97700 39.39000
C  23.84100 60.31800 40.34200
C  24.47200 57.10400 39.02300
O  23.23300 56.96800 38.86300
C  25.51200 56.05800 38.58700
C  25.28900 54.85400 39.48600
O  25.57400 54.86900 40.67800
O  24.62600 53.85300 38.80100
C  24.31200 52.57900 39.40900
H  32.53300 55.58700 38.75000
H  32.52300 62.08600 40.51100
H  26.11500 62.04800 40.51100
H  28.04900 53.98400 38.50200
H  30.66900 54.37200 37.42700
H  31.04800 52.84900 38.93000
H  29.56600 53.04500 39.71500
H  30.95700 54.01800 40.27200
H  29.08900 54.56600 35.69800
H  28.05700 55.89500 36.07400
H  26.44600 53.86500 36.89200
H  27.33100 53.05300 35.82000
H  35.09000 56.46700 39.70300
H  35.64900 57.80100 38.87100
H  34.45700 56.63400 38.10200
H  34.61800 62.43200 40.38300
H  36.09500 61.82700 41.23600
H  34.45900 61.51000 41.90200
H  30.48500 63.75500 39.74600
H  28.25100 63.65800 41.55600
H  30.52400 63.37200 42.83800
H  30.58100 64.82400 41.80500
H  31.87300 63.64500 41.72300
H  27.09800 63.68300 39.04600
H  28.52200 64.36700 38.73100
H  27.82500 66.28400 39.23500
H  27.73900 65.79600 41.00400
H  26.31200 65.64200 39.90700
H  23.14600 59.63600 40.83200
H  23.29500 60.64600 39.45800
H  24.08900 61.13800 41.01600
H  25.34700 55.60900 37.60800
H  23.42100 52.24600 38.87600
H  24.09900 52.61500 40.47700
H  25.14800 51.91000 39.20300

