158

Mg 23.77600 -5.49100 46.13900
C  26.12300 -3.21400 44.76800
C  21.40300 -4.13700 44.18200
C  21.78600 -8.21500 46.93900
C  26.38200 -6.88400 48.02700
N  23.82000 -3.88500 44.63700
C  24.82400 -2.98100 44.36800
C  24.32600 -1.86400 43.44300
C  22.78100 -2.04900 43.45400
C  22.67100 -3.46200 44.03800
C  21.88000 -1.05800 44.27000
C  25.06300 -2.06500 42.07500
C  25.21800 -0.75600 41.27500
H  24.58200 -0.76400 39.88000
N  21.86700 -6.03100 45.63600
C  21.01600 -5.34000 44.80500
C  19.77800 -6.03100 44.72200
C  19.82500 -7.14800 45.51500
C  21.18600 -7.19200 46.10400
C  18.67200 -5.53500 43.78600
C  18.69100 -8.20200 45.61500
O  17.63600 -8.00200 45.00000
C  18.76200 -9.37100 46.63800
N  24.04400 -7.43800 47.19500
C  23.11600 -8.31100 47.46300
C  23.60000 -9.47300 48.33000
C  25.00300 -8.88500 48.95100
C  25.15200 -7.65600 48.02000
C  22.54400 -10.00200 49.47600
C  26.22600 -9.84800 48.83400
C  26.87900 -10.18400 50.14200
N  25.86600 -5.17300 46.43800
C  26.75800 -5.81900 47.19900
C  27.97700 -5.12900 47.14900
C  27.81100 -4.11900 46.21700
C  26.52000 -4.21700 45.70700
C  29.20800 -5.28800 47.92900
C  28.44500 -2.98700 45.51700
O  29.66000 -2.64000 45.58000
C  27.38100 -2.37700 44.53100
C  27.26500 -0.94400 44.75200
O  26.59500 -0.44400 45.61800
O  27.99700 -0.29700 43.81100
C  27.91800 1.13000 43.81300
H  20.57100 -3.64200 43.67800
H  21.31400 -9.17200 47.17000
H  27.18900 -7.31300 48.62500
H  24.60700 -0.87800 43.81400
H  22.31000 -1.87900 42.48600
H  22.60600 -0.53800 44.89500
H  21.12500 -1.58300 44.85500
H  21.41600 -0.43400 43.50600
H  24.61700 -2.83300 41.44300
H  26.11200 -2.34900 42.16400
H  26.28500 -0.58000 41.14200
H  24.78000 0.07800 41.82300
H  18.64100 -6.36100 43.07500
H  18.77200 -4.55900 43.31000
H  17.75100 -5.55200 44.36800
H  17.85000 -9.93900 46.81900
H  19.18800 -9.06900 47.59500
H  19.45600 -10.11700 46.25400
H  23.72000 -10.34100 47.68100
H  24.82300 -8.47500 49.94500
H  21.58000 -9.51300 49.33500
H  22.89400 -9.87700 50.50100
H  22.29900 -11.03200 49.22000
H  26.90100 -9.49900 48.05300
H  25.85700 -10.85100 48.62000
H  27.91600 -9.85700 50.22200
H  26.83200 -11.27300 50.17200
H  26.39300 -9.76700 51.02400
H  30.06000 -5.70100 47.38800
H  28.97000 -5.81900 48.85100
H  29.58600 -4.31400 48.23900
H  27.74900 -2.44000 43.50700
H  27.94800 1.63800 44.77600
H  26.98300 1.53300 43.42400
H  28.76500 1.55500 43.27500
Mg 51.51500 46.28600 42.30200
C  48.40500 47.43500 40.60400
C  51.14800 43.52900 40.51400
C  54.77400 45.67200 43.16300
C  51.90100 49.71500 43.24600
N  49.95400 45.65300 40.66200
C  48.78800 46.16200 40.32200
C  47.92500 45.14100 39.54200
C  48.84300 43.85600 39.48200
C  50.11900 44.38600 40.23500
C  48.12600 42.53900 39.93200
C  47.32800 45.57700 38.12200
C  45.77800 45.33500 38.00100
H  45.48800 44.20600 37.02200
N  52.75300 44.76500 41.95300
C  52.33300 43.62600 41.21200
C  53.37200 42.65500 41.34500
C  54.48800 43.26700 42.08400
C  54.05800 44.61300 42.46400
C  53.28800 41.27900 40.75800
C  55.77000 42.57100 42.44000
O  56.00600 41.47900 41.89600
C  56.72500 43.03800 43.46300
N  53.04900 47.53700 43.11100
C  54.24300 46.96300 43.49500
C  55.09300 48.01500 44.27800
C  54.12500 49.20200 44.36700
C  52.98400 48.89200 43.42500
C  55.59000 47.53500 45.73100
C  54.79700 50.54900 44.09400
C  55.13500 51.39500 45.42100
N  50.40500 48.24100 42.11000
C  50.66800 49.52000 42.65200
C  49.53500 50.33600 42.44500
C  48.69200 49.61700 41.57300
C  49.19600 48.31400 41.44000
C  49.39200 51.76900 43.01300
C  47.35100 49.67100 40.96900
O  46.47100 50.50400 41.04200
C  47.12300 48.26700 40.26400
C  45.92900 47.77400 40.89900
O  45.80600 47.32100 42.01400
O  44.86300 47.89100 40.03900
C  43.48300 47.74600 40.54300
H  50.93900 42.52500 40.14000
H  55.83500 45.56000 43.39700
H  52.10100 50.73300 43.58600
H  47.12200 45.04600 40.27200
H  49.21300 43.75200 38.46200
H  48.17500 41.81100 39.12300
H  47.14100 42.74500 40.34900
H  48.59100 42.15900 40.84200
H  47.86400 45.00700 37.36300
H  47.54400 46.63100 37.94900
H  45.46600 46.33500 37.70100
H  45.20200 45.07500 38.88900
H  53.00200 41.24000 39.70700
H  52.42200 40.82000 41.23500
H  54.07700 40.55500 40.96500
H  56.21400 43.31500 44.38500
H  57.25000 43.85800 42.97400
H  57.42200 42.21000 43.60100
H  55.90600 48.29400 43.60700
H  53.69900 49.18800 45.37000
H  54.89800 47.74500 46.54800
H  56.50400 48.06200 46.00400
H  55.69100 46.46400 45.55800
H  54.24600 51.18200 43.39900
H  55.69100 50.43500 43.48100
H  55.84200 50.87800 46.07000
H  54.26500 51.62600 46.03600
H  55.64600 52.31900 45.15400
H  48.53000 52.20000 42.50400
H  50.30900 52.35800 43.01500
H  49.05700 51.49500 44.01400
H  47.09600 48.55100 39.21200
H  43.31100 46.90000 41.20800
H  42.78800 47.88500 39.71400
H  43.29600 48.61300 41.17600

