158

Mg 6.99300 56.31300 41.78300
C  7.09100 52.79500 42.02000
C  10.20000 56.12100 40.65500
C  6.68600 59.57000 40.92300
C  3.66500 56.35100 42.85300
N  8.38300 54.56100 41.15900
C  8.22700 53.22800 41.29600
C  9.39900 52.43500 40.70900
C  10.53700 53.55800 40.65800
C  9.67500 54.84600 40.83100
C  11.67900 53.55400 41.74000
C  8.99300 51.84400 39.34400
C  9.59300 50.52200 38.93000
H  8.88400 49.73300 37.79900
N  8.29400 57.62400 40.98100
C  9.63500 57.42600 40.61000
C  10.18600 58.66500 40.23500
C  9.18900 59.66800 40.26500
C  7.93900 58.96600 40.70400
C  11.58100 58.81800 39.95500
C  9.51500 61.13500 39.90000
O  10.67700 61.49800 39.68400
C  8.36300 62.06600 39.74400
N  5.36200 57.73500 41.80500
C  5.55800 58.98500 41.41800
C  4.29200 59.84600 41.64400
C  3.19700 58.79500 42.13200
C  4.07600 57.52300 42.23900
C  4.38200 61.10200 42.52800
C  1.95200 58.67800 41.19900
C  0.58100 59.01200 41.84700
N  5.66100 54.88700 42.37900
C  4.39300 55.10100 42.98200
C  4.03700 53.80800 43.68200
C  5.02800 52.90100 43.27100
C  5.98300 53.60000 42.51600
C  2.79100 53.63100 44.45800
C  5.55700 51.53200 43.41000
O  5.12200 50.65000 44.15800
C  6.81100 51.36900 42.52600
C  6.42100 50.47400 41.48800
O  5.51900 50.68300 40.72800
O  7.31600 49.42200 41.42700
C  6.98500 48.31600 40.51800
H  11.28900 56.09500 40.57100
H  6.62400 60.65900 40.96100
H  2.72700 56.40500 43.40900
H  9.66500 51.78800 41.54500
H  10.93200 53.50000 39.64400
H  11.88600 52.60300 42.23100
H  11.36200 54.18200 42.57300
H  12.57600 54.03900 41.35600
H  9.31300 52.45700 38.50100
H  7.91300 51.93800 39.22700
H  9.41400 49.87000 39.78500
H  10.65900 50.67400 38.75800
H  12.06900 57.88500 40.23800
H  12.13500 59.56100 40.52900
H  11.72900 58.97700 38.88700
H  7.79300 62.24400 40.65600
H  7.71300 61.61900 38.99200
H  8.64400 62.93700 39.15300
H  4.05700 60.18600 40.63600
H  2.98300 59.07900 43.16300
H  4.63100 62.06100 42.07400
H  5.14400 60.87600 43.27300
H  3.47100 61.19700 43.11900
H  1.87300 57.71400 40.69500
H  2.00000 59.46400 40.44600
H  -0.01300 58.09800 41.85000
H  0.15800 59.76500 41.18200
H  0.70200 59.51300 42.80800
H  2.84300 52.58100 44.74800
H  1.92100 53.88200 43.85100
H  2.71100 54.24300 45.35700
H  7.69900 51.01200 43.04800
H  6.14900 47.68400 40.81800
H  7.89800 47.80600 40.21300
H  6.56100 48.70100 39.59000
Mg -4.82400 24.85700 26.56700
C  -3.12400 26.41700 29.20400
C  -6.36500 22.79600 28.97900
C  -6.79700 23.50200 24.13400
C  -3.15200 26.64000 24.31200
N  -4.77600 24.67600 28.79900
C  -4.11100 25.52000 29.66100
C  -4.35200 25.15000 31.18300
C  -5.22300 23.82400 31.01700
C  -5.50000 23.75700 29.51800
C  -4.49400 22.56700 31.55200
C  -5.08300 26.45200 31.78700
C  -5.98000 26.17000 33.00500
H  -5.47000 25.08100 33.98700
N  -6.29400 23.24200 26.53600
C  -6.72800 22.48700 27.60500
C  -7.71200 21.51400 27.07300
C  -7.96500 21.89200 25.75700
C  -6.98500 22.85300 25.43300
C  -8.37000 20.43100 27.96500
C  -9.08800 21.36200 24.80400
O  -9.17500 21.73900 23.62400
C  -10.06900 20.31000 25.25700
N  -4.89300 24.91700 24.43200
C  -5.89600 24.40100 23.63000
C  -5.75100 24.77300 22.13000
C  -4.67600 25.86500 22.28000
C  -4.21100 25.82300 23.81100
C  -5.45200 23.57500 21.19600
C  -5.03500 27.26600 21.69200
C  -5.26200 27.41700 20.15200
N  -3.39400 26.21600 26.68400
C  -2.75700 26.81000 25.66100
C  -1.67300 27.61800 26.14000
C  -1.78300 27.50900 27.52900
C  -2.89800 26.71900 27.82500
C  -0.75500 28.38000 25.34700
C  -1.26300 27.94800 28.76800
O  -0.27400 28.69500 28.81300
C  -2.17000 27.30400 29.96300
C  -1.28900 26.53600 30.89900
O  -0.55300 25.60400 30.56300
O  -1.33700 26.94300 32.14600
C  -0.36200 26.47100 33.13900
H  -6.87200 22.25300 29.77900
H  -7.35200 23.15000 23.26200
H  -2.54600 27.19900 23.59600
H  -3.42600 24.90700 31.70300
H  -6.17600 23.79100 31.54300
H  -3.45800 22.48600 31.22400
H  -4.98300 21.62300 31.31400
H  -4.47400 22.64300 32.63900
H  -5.77700 26.89700 31.07500
H  -4.40800 27.27900 32.00800
H  -7.01000 25.97500 32.70600
H  -5.94400 27.03800 33.66300
H  -8.36800 19.50700 27.38700
H  -9.32700 20.79200 28.34100
H  -7.70700 20.23900 28.80800
H  -10.83100 20.11800 24.50300
H  -10.69700 20.50600 26.12600
H  -9.57900 19.35900 25.46900
H  -6.68300 25.27000 21.86100
H  -3.85100 25.55500 21.63900
H  -4.90300 22.79800 21.72800
H  -4.86300 23.93700 20.35300
H  -6.37400 23.17000 20.77800
H  -4.23700 27.97200 21.92200
H  -5.96700 27.57200 22.16800
H  -6.29200 27.71100 19.95000
H  -5.10100 26.44600 19.68500
H  -4.56000 28.20000 19.86700
H  -1.22300 29.09500 24.67100
H  -0.09900 27.87500 24.63800
H  -0.24800 29.00700 26.08100
H  -2.73300 28.01900 30.56200
H  0.59300 26.26500 32.65500
H  -0.72200 25.59100 33.67200
H  -0.18100 27.40000 33.67900

