158

Mg 47.46300 24.82400 28.34600
C  48.10700 27.19700 30.66900
C  46.52900 22.63400 30.84300
C  46.61600 22.56800 25.94100
C  48.57600 27.03000 25.88200
N  47.00900 25.03900 30.43400
C  47.43000 26.08300 31.23100
C  47.12200 25.83500 32.75200
C  46.78300 24.30800 32.73600
C  46.78000 23.94400 31.22900
C  47.55800 23.32800 33.64900
C  46.01800 26.80100 33.29800
C  46.38700 27.51500 34.57100
H  45.40100 27.71300 35.67300
N  46.77500 22.83300 28.31300
C  46.50100 22.14500 29.45200
C  46.09300 20.83400 29.12900
C  45.86200 20.86100 27.65000
C  46.41200 22.15000 27.24700
C  45.70100 19.81100 30.19900
C  45.28600 19.86500 26.72700
O  45.23700 19.93800 25.49700
C  44.70200 18.57100 27.26900
N  47.64600 24.79000 26.27200
C  47.04500 23.83100 25.49400
C  47.02300 24.20100 23.98300
C  47.69500 25.64500 23.91600
C  48.04900 25.81100 25.43800
C  47.77000 23.20300 23.03800
C  46.75800 26.72400 23.19500
C  47.48900 27.77300 22.24800
N  48.38900 26.63200 28.23700
C  48.77800 27.45500 27.22700
C  49.33100 28.75000 27.71700
C  49.17500 28.61700 29.13200
C  48.45200 27.40500 29.32300
C  49.90500 29.86900 26.94100
C  49.30900 29.32600 30.44000
O  49.65200 30.47900 30.66200
C  48.62400 28.36100 31.46400
C  49.63800 28.15200 32.51700
O  50.55700 27.35800 32.59300
O  49.28600 28.90000 33.66700
C  50.14500 28.66400 34.78300
H  46.48400 21.92700 31.67400
H  46.23600 21.84400 25.21700
H  48.83500 27.80300 25.15600
H  48.05700 26.02000 33.28100
H  45.77800 24.22000 33.15000
H  48.10100 23.95500 34.35600
H  48.18700 22.65600 33.06600
H  46.79500 22.74800 34.16700
H  45.18900 26.20100 33.67400
H  45.70000 27.54500 32.56800
H  46.52700 28.56800 34.32400
H  47.31400 27.19400 35.04600
H  45.92500 18.76900 29.96800
H  44.70400 19.95700 30.61400
H  46.18800 20.02800 31.15000
H  45.44900 18.29100 28.01200
H  44.67500 17.84600 26.45500
H  43.80200 18.78600 27.84500
H  46.01800 24.29000 23.57200
H  48.64600 25.62200 23.38300
H  48.14300 22.32200 23.56100
H  48.59300 23.70300 22.52900
H  47.07100 22.82700 22.29000
H  46.28500 27.32100 23.97500
H  46.01800 26.16300 22.62500
H  47.15900 27.67300 21.21400
H  48.52800 27.48700 22.41300
H  47.17500 28.77000 22.55600
H  50.05200 29.58000 25.90000
H  50.80600 30.16200 27.47900
H  49.17500 30.67000 27.05800
H  47.83800 28.96800 31.91200
H  50.13600 29.56600 35.39400
H  51.21100 28.55100 34.58600
H  49.82100 27.70700 35.19100
Mg 41.70900 41.08400 27.17100
C  40.98300 43.36400 29.60300
C  43.15800 39.12700 29.72700
C  42.54500 38.65200 24.96200
C  41.26200 43.38300 24.80700
N  42.11800 41.28100 29.48200
C  41.50100 42.29400 30.20000
C  41.61300 42.02900 31.69300
C  42.51700 40.74000 31.71600
C  42.72000 40.39400 30.23800
C  43.89200 40.87700 32.40700
C  40.25500 41.90100 32.39800
C  39.99500 42.90800 33.48400
H  39.57500 42.53900 34.86500
N  42.53800 39.04200 27.32900
C  43.13700 38.51700 28.37800
C  43.45000 37.13500 28.10100
C  43.15400 36.91600 26.72600
C  42.69600 38.23200 26.30000
C  43.75300 36.09100 29.19300
C  43.29500 35.70800 25.83700
O  43.02500 35.73700 24.65200
C  43.92900 34.46600 26.30200
N  42.04400 41.02700 25.12200
C  42.32500 39.92500 24.41900
C  42.10700 40.28100 22.88200
C  41.67800 41.76900 22.89200
C  41.69200 42.09300 24.37000
C  43.29200 40.01700 21.91800
C  40.31500 42.04100 22.19000
C  40.13900 43.30100 21.41800
N  41.22800 43.01200 27.12400
C  41.07700 43.88600 26.12400
C  40.51700 45.16200 26.59100
C  40.38600 44.90900 28.00300
C  40.83800 43.66200 28.20500
C  40.13700 46.35100 25.76100
C  39.88300 45.48600 29.22800
O  39.36300 46.61100 29.43900
C  40.33500 44.53900 30.31100
C  41.30900 45.30100 31.23400
O  42.49500 45.56000 31.01600
O  40.67800 45.73400 32.33800
C  41.50000 46.51600 33.33800
H  43.34800 38.42100 30.53800
H  42.50500 37.91300 24.16000
H  40.94800 44.03500 23.98900
H  42.27200 42.81700 32.05800
H  42.00600 39.90600 32.19800
H  44.58500 41.07300 31.58900
H  44.17800 39.98700 32.96800
H  43.83900 41.72800 33.08600
H  40.17700 40.91900 32.86300
H  39.44900 41.97900 31.66800
H  39.26300 43.63600 33.13400
H  40.88100 43.54300 33.51900
H  43.02200 35.29600 29.04300
H  43.88500 36.46200 30.21000
H  44.76400 35.76400 28.95200
H  44.91700 34.70400 26.69700
H  43.85600 33.82300 25.42500
H  43.42200 33.89600 27.08000
H  41.23800 39.70700 22.56200
H  42.42600 42.37900 22.38300
H  44.24700 40.07900 22.44100
H  43.16100 40.61400 21.01600
H  43.15100 38.93900 21.83800
H  39.49500 42.08900 22.90600
H  40.05900 41.22700 21.51200
H  39.77400 44.08200 22.08500
H  39.47500 43.16900 20.56400
H  40.99400 43.78400 20.94600
H  40.25600 46.12900 24.70000
H  40.67700 47.27400 25.97500
H  39.11000 46.64900 25.97200
H  39.41400 44.38000 30.87200
H  42.12500 45.88200 33.96700
H  40.74100 46.98300 33.96400
H  42.08100 47.28300 32.82600

