158

Mg -2.54000 17.50600 27.27500
C  -2.87600 15.04300 29.84200
C  -3.42800 19.88900 29.48600
C  -2.38000 19.73300 24.76800
C  -2.36600 14.92500 24.96700
N  -2.93800 17.48100 29.40200
C  -2.91800 16.40900 30.27500
C  -3.05800 16.83200 31.78300
C  -3.48100 18.35700 31.53400
C  -3.33700 18.58500 30.01800
C  -4.96400 18.85200 32.00500
C  -1.84200 16.49700 32.70500
C  -1.37700 17.48600 33.79100
H  -1.11200 16.81500 35.15200
N  -2.79200 19.59100 27.18500
C  -3.15100 20.36100 28.18800
C  -3.01600 21.74500 27.71300
C  -2.47900 21.69500 26.43800
C  -2.56400 20.30400 26.07200
C  -3.32900 22.95500 28.71500
C  -2.03400 22.81000 25.41400
O  -1.63300 22.58000 24.30100
C  -1.97200 24.19100 25.96200
N  -2.54600 17.30800 25.19200
C  -2.45700 18.40100 24.39900
C  -2.26100 18.00300 22.88800
C  -1.95100 16.48700 22.97200
C  -2.26100 16.21500 24.44600
C  -3.53200 18.42300 22.06800
C  -0.49400 16.12000 22.65600
C  0.65300 16.70200 23.45300
N  -2.63200 15.44900 27.26300
C  -2.62000 14.52400 26.23600
C  -2.78100 13.18000 26.78100
C  -2.85300 13.34600 28.16200
C  -2.79400 14.75800 28.41100
C  -2.71400 11.85000 26.10800
C  -2.91500 12.59300 29.40400
O  -2.87400 11.40400 29.69500
C  -3.01100 13.72000 30.53400
C  -2.05600 13.46900 31.55300
O  -0.86100 13.85300 31.52100
O  -2.61700 12.70600 32.49500
C  -1.70200 12.21100 33.54800
H  -3.73700 20.62400 30.23300
H  -2.25900 20.39200 23.90500
H  -2.19900 14.13700 24.23000
H  -3.99400 16.52500 32.24800
H  -2.69700 19.00500 31.92500
H  -4.61100 19.60400 32.71200
H  -5.52700 18.15800 32.63000
H  -5.56800 19.24900 31.18900
H  -0.93900 16.31200 32.12400
H  -2.03100 15.59500 33.28800
H  -2.17000 18.23000 33.85600
H  -0.43400 17.94800 33.49700
H  -3.96000 22.59000 29.52500
H  -3.88300 23.72300 28.17500
H  -2.46700 23.43300 29.18000
H  -1.01200 24.35500 26.45100
H  -2.80500 24.46200 26.61200
H  -1.91100 24.90800 25.14400
H  -1.37800 18.52500 22.51900
H  -2.64800 16.01400 22.28000
H  -3.48800 19.45100 21.70600
H  -4.42100 18.45400 22.69700
H  -3.74800 17.75200 21.23700
H  -0.39700 16.07100 21.57100
H  -0.46600 15.07600 22.96700
H  1.19400 15.87500 23.91200
H  0.24400 17.40900 24.17400
H  1.31400 17.23600 22.77000
H  -2.31800 11.83700 25.09200
H  -3.67800 11.34100 26.08100
H  -1.95500 11.27600 26.64000
H  -4.03200 13.59000 30.89400
H  -0.85700 11.62700 33.18200
H  -2.24300 11.60100 34.27100
H  -1.20800 12.97400 34.15100
Mg 41.00900 9.38400 30.12500
C  42.72900 10.89000 33.00100
C  38.63500 8.38700 32.21400
C  39.68700 7.79800 27.48500
C  43.80300 10.32000 28.26800
N  40.80600 9.57400 32.34200
C  41.52800 10.27300 33.39000
C  40.92600 10.10500 34.78300
C  39.65100 9.25800 34.41000
C  39.69100 9.06600 32.88300
C  39.51600 7.92500 35.31000
C  40.68700 11.47500 35.44200
C  40.83200 11.47200 37.01100
H  41.30500 12.77300 37.73500
N  39.35900 8.26200 29.84200
C  38.45000 8.01600 30.80300
C  37.31100 7.35400 30.15500
C  37.59900 7.17000 28.78300
C  38.94400 7.72300 28.65300
C  36.07300 7.00800 30.99500
C  36.76000 6.51400 27.63800
O  37.23800 6.34900 26.55100
C  35.35200 6.11400 27.94900
N  41.63000 9.19100 28.15300
C  40.85400 8.54500 27.17800
C  41.46100 8.73400 25.78100
C  42.70100 9.50700 26.06300
C  42.72800 9.64600 27.59900
C  41.59100 7.33100 25.02200
C  43.06500 10.84700 25.26200
C  42.43000 12.18300 25.76400
N  42.89400 10.32700 30.47600
C  43.87600 10.72500 29.62500
C  44.86400 11.54400 30.30300
C  44.39900 11.56800 31.61700
C  43.24100 10.82400 31.66600
C  46.11100 12.13800 29.70800
C  44.79600 12.16000 32.87000
O  45.73500 12.82100 33.13700
C  43.65600 11.63400 33.92000
C  44.27700 10.79600 34.96900
O  45.05100 9.79700 34.81500
O  44.05600 11.37100 36.24800
C  44.71000 10.75600 37.45700
H  37.84000 8.04100 32.87700
H  39.22800 7.29000 26.63400
H  44.68200 10.62400 27.69600
H  41.65600 9.48800 35.30700
H  38.85400 9.91700 34.75600
H  40.48300 7.45700 35.49700
H  39.01700 7.14800 34.73000
H  38.96000 8.06500 36.23700
H  39.64300 11.73800 35.27600
H  41.26600 12.29800 35.02300
H  41.64400 10.80100 37.29200
H  39.94800 11.17100 37.57300
H  35.87700 5.93600 31.03600
H  35.24700 7.40700 30.40700
H  36.02400 7.35700 32.02700
H  34.97000 5.77100 26.98800
H  34.87700 7.06300 28.19700
H  35.36300 5.43200 28.79900
H  40.67700 9.29600 25.27300
H  43.55000 8.83700 25.93000
H  40.89500 7.23600 24.18800
H  41.37000 6.54200 25.74200
H  42.59500 7.14500 24.64300
H  42.81500 10.72800 24.20700
H  44.15500 10.85900 25.25800
H  41.75300 12.50400 24.97300
H  43.17900 12.97100 25.84500
H  41.72600 12.01100 26.57900
H  46.62500 12.64000 30.52800
H  45.83200 12.86700 28.94600
H  46.73000 11.37900 29.22900
H  43.18700 12.52900 34.32900
H  45.68000 11.21100 37.65900
H  44.93300 9.70300 37.28900
H  44.11100 10.75300 38.36800

