158

Mg 47.93000 34.78600 26.50300
C  45.71700 33.67900 29.14400
C  48.52500 37.61000 28.30500
C  49.25500 35.99800 23.77300
C  46.83700 31.88700 24.71200
N  47.00300 35.58800 28.43400
C  46.25600 34.95300 29.37100
C  46.37600 35.70100 30.73500
C  46.98700 37.07800 30.29800
C  47.52600 36.78400 28.91100
C  46.06000 38.28800 30.34200
C  47.40800 34.90300 31.69200
C  47.05300 34.78000 33.24200
H  47.99900 35.37000 34.33000
N  48.91800 36.43900 26.12100
C  49.10000 37.45500 27.07300
C  49.94000 38.41700 26.47900
C  50.08500 38.01200 25.04900
C  49.43300 36.75800 24.94700
C  50.35200 39.76000 27.11000
C  50.83200 38.77500 23.97900
O  50.80800 38.41400 22.79300
C  51.71300 39.98100 24.32200
N  48.14800 33.93000 24.58900
C  48.67900 34.70800 23.59100
C  48.87200 33.91900 22.25900
C  48.40800 32.42700 22.72300
C  47.69600 32.74300 24.02500
C  48.06800 34.45200 21.06300
C  49.54100 31.26600 22.88800
C  50.98700 31.64000 22.58800
N  46.57200 33.04900 26.80600
C  46.27300 32.00500 25.96900
C  45.30900 31.08500 26.62800
C  45.07000 31.68800 27.88600
C  45.89900 32.84100 27.95600
C  44.64200 29.77800 26.19700
C  44.38500 31.58600 29.17800
O  43.58800 30.74700 29.61800
C  44.64500 32.89700 29.93300
C  44.86900 32.60500 31.37000
O  45.79700 31.86600 31.73000
O  43.83700 33.14800 32.14600
C  43.78200 32.76700 33.58100
H  48.80600 38.50900 28.85800
H  49.61400 36.46200 22.85200
H  46.60500 30.96700 24.17200
H  45.38400 35.81800 31.17100
H  47.81100 37.43400 30.91600
H  46.52000 38.94700 29.60700
H  45.90000 38.77700 31.30300
H  45.05800 38.16000 29.93300
H  48.43600 35.25400 31.78900
H  47.47900 33.88200 31.31500
H  46.91500 33.71300 33.42000
H  46.02600 35.07200 33.45800
H  51.41800 39.98100 27.07600
H  50.12600 39.90600 28.16700
H  49.88000 40.56400 26.54500
H  51.14900 40.57800 25.03900
H  51.83400 40.60600 23.43700
H  52.70500 39.68800 24.66700
H  49.93500 34.04800 22.05400
H  47.55900 32.10400 22.12100
H  48.79900 34.34300 20.26200
H  47.97400 35.53400 21.16500
H  47.08800 34.02900 20.84400
H  49.30400 30.44500 22.21100
H  49.44500 30.81800 23.87700
H  51.37600 32.25900 23.39600
H  51.07000 32.27500 21.70600
H  51.63800 30.77200 22.49400
H  43.56100 29.87200 26.30000
H  45.11200 29.10200 26.91200
H  45.00600 29.50000 25.20800
H  43.74300 33.50300 29.85100
H  43.90500 33.62000 34.24800
H  44.51600 32.00600 33.84500
H  42.78500 32.34900 33.72300
Mg -11.49200 16.52200 42.58300
C  -8.10600 17.48800 42.89500
C  -12.24900 19.74000 41.84800
C  -14.58000 15.52900 41.74000
C  -10.50800 13.14200 42.78500
N  -10.23600 18.30400 42.14600
C  -8.90200 18.51300 42.38200
C  -8.46600 19.97500 42.13800
C  -9.83200 20.69300 42.25500
C  -10.88900 19.57200 42.07300
C  -10.05700 21.58100 43.47400
C  -7.73000 20.18900 40.79100
C  -6.24300 20.48700 40.81600
H  -5.36200 19.55300 39.95000
N  -13.26000 17.54300 41.99700
C  -13.33100 18.89500 41.75700
C  -14.70100 19.15200 41.29400
C  -15.39900 17.94500 41.12000
C  -14.42600 16.92400 41.58900
C  -15.14000 20.57600 41.30900
C  -16.93400 17.67400 40.79500
O  -17.62000 18.56900 40.39400
C  -17.69800 16.30100 40.65600
N  -12.37700 14.63400 42.28900
C  -13.73400 14.53500 42.18200
C  -14.28500 13.15400 42.37500
C  -13.01500 12.36900 42.62500
C  -11.84100 13.45300 42.56500
C  -15.35900 13.16200 43.54800
C  -12.76900 11.13600 41.73800
C  -13.83400 10.49800 40.90500
N  -9.63300 15.47000 42.73900
C  -9.45200 14.08400 42.88400
C  -8.03800 13.90900 43.26000
C  -7.48900 15.20600 43.31600
C  -8.51100 16.14100 42.98100
C  -7.47800 12.63400 43.51300
C  -6.24800 16.01400 43.54800
O  -5.10000 15.65100 43.89800
C  -6.66000 17.51900 43.27900
C  -6.69700 18.19400 44.61000
O  -7.29300 17.89700 45.63600
O  -5.78000 19.16600 44.49300
C  -5.48900 19.92900 45.77200
H  -12.49400 20.76400 41.55900
H  -15.59100 15.19700 41.49500
H  -10.19700 12.10200 42.90300
H  -7.95100 20.36800 43.01500
H  -9.94600 21.21000 41.30300
H  -9.23900 21.56600 44.19400
H  -10.93200 21.20700 44.00500
H  -10.30300 22.58500 43.13000
H  -8.29100 20.92800 40.21800
H  -7.89700 19.32200 40.15200
H  -5.87600 20.35100 41.83300
H  -6.08900 21.48400 40.40400
H  -15.04300 20.79000 40.24500
H  -14.43300 21.23200 41.81900
H  -16.11100 20.65500 41.79900
H  -18.66800 16.42700 40.17600
H  -18.01100 15.95300 41.64100
H  -17.11000 15.48500 40.23700
H  -14.80600 12.92500 41.44500
H  -13.19800 11.97400 43.62400
H  -16.03400 13.99900 43.36500
H  -14.87700 13.17600 44.52500
H  -15.89500 12.21300 43.53900
H  -12.54400 10.33200 42.43900
H  -11.93100 11.36600 41.07900
H  -13.82900 10.96100 39.91800
H  -14.77500 10.47000 41.45300
H  -13.69400 9.43000 40.73600
H  -6.46200 12.80400 43.86800
H  -7.46400 11.85800 42.74800
H  -8.00500 12.32500 44.41500
H  -5.87900 17.94500 42.65000
H  -6.41200 20.03200 46.34200
H  -4.93600 20.85600 45.62300
H  -4.76900 19.25100 46.23000

