158

Mg 35.72600 1.99100 29.90400
C  33.42700 3.28900 32.22300
C  38.03800 1.70100 32.50000
C  37.97100 1.44700 27.50700
C  33.23200 2.51900 27.36500
N  35.77300 2.49200 32.05600
C  34.64800 2.84900 32.77900
C  34.93900 2.75500 34.32700
C  36.40500 2.37500 34.41600
C  36.73400 2.17600 32.90100
C  37.34700 3.55500 34.90600
C  33.95700 1.73400 35.04300
C  33.13900 2.28700 36.25100
H  33.62700 3.56200 37.00800
N  37.75600 1.56800 30.01200
C  38.54500 1.41700 31.17900
C  39.81500 0.86600 30.73200
C  39.87800 0.92500 29.29900
C  38.46600 1.34100 28.90200
C  40.84000 0.25600 31.72700
C  40.98300 0.66200 28.34200
O  40.86400 0.72100 27.10500
C  42.30300 0.31800 28.76100
N  35.56700 1.62300 27.71700
C  36.70500 1.59600 26.98500
C  36.30300 1.50900 25.47100
C  34.67700 1.73600 25.42400
C  34.43600 1.96200 26.94600
C  36.99200 2.42300 24.49900
C  33.87200 0.51100 24.92800
C  32.55000 0.82500 24.26700
N  33.74200 2.61300 29.83600
C  32.88300 2.80200 28.71300
C  31.63900 3.42800 29.20800
C  31.78300 3.51900 30.60300
C  33.07300 3.09500 30.86100
C  30.49300 3.83000 28.34500
C  31.10500 3.91000 31.81400
O  29.94400 4.11000 32.04300
C  32.22300 3.82200 32.95300
C  32.42400 5.11900 33.55100
O  33.09200 6.02500 33.02000
O  31.59000 5.32500 34.57700
C  31.51900 6.62000 35.27900
H  38.76500 1.42800 33.26800
H  38.63900 1.24100 26.66900
H  32.43400 2.80200 26.67500
H  34.82700 3.72900 34.80400
H  36.57400 1.44300 34.95400
H  37.83500 4.11800 34.11100
H  38.21700 3.27700 35.50100
H  36.82200 4.35500 35.42800
H  34.47700 0.83400 35.37200
H  33.18100 1.47500 34.32200
H  33.25100 1.63700 37.11900
H  32.07400 2.37400 36.03800
H  41.57300 1.04100 31.91200
H  41.33700 -0.62100 31.31200
H  40.42300 -0.00700 32.69900
H  42.39500 -0.76800 28.73300
H  42.60200 0.74500 29.71900
H  43.00900 0.76200 28.05900
H  36.52700 0.50000 25.12700
H  34.36300 2.69500 25.01200
H  37.34800 3.35900 24.92900
H  36.26100 2.76200 23.76500
H  37.73900 1.80200 24.00400
H  33.61700 -0.18100 25.73100
H  34.56000 0.04900 24.22000
H  32.60400 1.89400 24.06200
H  31.67400 0.45700 24.80200
H  32.45100 0.32700 23.30300
H  30.19900 2.99900 27.70400
H  30.84800 4.71300 27.81200
H  29.61200 4.21300 28.86100
H  31.88900 3.14900 33.74200
H  30.68700 7.12700 34.79200
H  32.37000 7.25100 35.02200
H  31.09200 6.50700 36.27600
Mg 46.16900 24.80600 28.44300
C  47.05900 27.09200 31.08500
C  45.53200 22.45600 30.96600
C  45.53900 22.51500 26.09300
C  47.46100 26.95200 26.17700
N  46.36900 24.84600 30.75000
C  46.66600 25.83900 31.57400
C  46.26900 25.51200 33.07600
C  46.06200 23.95300 33.02800
C  46.03300 23.68300 31.46000
C  47.13700 22.99000 33.73700
C  45.06400 26.36000 33.59900
C  45.26600 27.48400 34.67600
H  44.30900 27.45200 35.85900
N  45.54400 22.84400 28.50200
C  45.35600 22.04700 29.60900
C  44.92700 20.65500 29.21300
C  44.73500 20.71900 27.79100
C  45.33800 22.00100 27.39000
C  44.66100 19.47900 30.21700
C  44.13500 19.73100 26.78500
O  43.96500 20.09000 25.59400
C  43.65400 18.31100 27.25400
N  46.43900 24.76600 26.38500
C  46.01900 23.71900 25.65100
C  46.26700 23.97600 24.13500
C  46.68500 25.50800 24.11800
C  46.84700 25.80700 25.62100
C  47.18400 23.11200 23.34600
C  45.71500 26.60700 23.44400
C  46.20000 27.62500 22.38100
N  47.03700 26.65700 28.52900
C  47.60800 27.40100 27.54100
C  48.24200 28.59900 28.13400
C  48.02600 28.59800 29.47400
C  47.30300 27.36400 29.71700
C  48.73800 29.73600 27.29400
C  48.19400 29.24400 30.81300
O  48.64400 30.32300 31.01300
C  47.51900 28.35900 31.85900
C  48.65600 28.08400 32.83100
O  49.67100 27.45800 32.57500
O  48.35600 28.60700 34.06700
C  49.33500 28.21600 35.04800
H  45.32200 21.72200 31.74600
H  45.39300 21.83600 25.25100
H  47.87500 27.60800 25.40800
H  47.17200 25.71100 33.65400
H  45.12800 23.70700 33.53300
H  46.76000 22.51800 34.64400
H  48.04800 23.50300 34.04600
H  47.52200 22.16300 33.14000
H  44.37900 25.67800 34.10400
H  44.57400 26.87900 32.77500
H  45.07900 28.43200 34.17100
H  46.20900 27.24100 35.16400
H  43.88200 18.79900 29.87200
H  44.39000 19.84100 31.20900
H  45.59500 18.93700 30.36500
H  44.38000 17.68200 27.76800
H  43.48300 17.57800 26.46500
H  42.72900 18.40400 27.82400
H  45.32800 23.87300 23.59300
H  47.63500 25.61800 23.59600
H  47.57500 23.69700 22.51400
H  46.82000 22.09800 23.18100
H  48.13300 23.12800 23.88200
H  45.25300 27.21100 24.22500
H  44.99600 25.99800 22.89700
H  45.71100 27.53000 21.41200
H  47.27000 27.54700 22.19100
H  46.04200 28.63600 22.75500
H  48.66900 30.50400 28.06500
H  48.05900 29.87500 26.45300
H  49.74100 29.47300 26.95900
H  46.75900 28.88800 32.43400
H  50.32500 28.64800 34.90400
H  49.54800 27.15700 34.89900
H  48.96400 28.27300 36.07100

