158

Mg 46.92500 25.69900 28.59100
C  47.65000 27.95200 31.23800
C  45.79700 23.53600 30.97500
C  47.11600 23.39600 26.40700
C  48.48800 27.97400 26.45700
N  46.81500 25.72200 30.82100
C  47.04400 26.76400 31.63500
C  46.66300 26.36400 33.09000
C  46.29400 24.91000 33.01000
C  46.30400 24.73500 31.48700
C  47.31100 23.86000 33.57200
C  45.47300 27.27200 33.56700
C  45.63900 28.03300 34.86000
H  44.49400 28.01600 35.83800
N  46.36000 23.76200 28.67000
C  45.90400 23.00800 29.68900
C  45.60900 21.63400 29.29200
C  46.09200 21.51700 27.96600
C  46.62500 22.92900 27.60300
C  44.99200 20.62700 30.18800
C  46.16300 20.32300 26.96900
O  46.65300 20.47400 25.84800
C  45.86200 18.84800 27.35400
N  47.54200 25.80400 26.67300
C  47.56500 24.62300 25.93300
C  48.35300 24.80000 24.56000
C  48.45000 26.36400 24.51000
C  48.06100 26.75500 25.91500
C  49.66700 23.92600 24.50700
C  47.58200 27.00000 23.37800
C  46.05000 26.72500 23.48600
N  47.77600 27.64800 28.68100
C  48.37600 28.46200 27.74300
C  48.98900 29.63000 28.33500
C  48.62300 29.46300 29.71800
C  47.98400 28.25400 29.92300
C  49.64500 30.67400 27.53400
C  48.83400 30.09700 31.00800
O  49.41000 31.07700 31.39800
C  48.34000 28.99500 32.07000
C  49.50200 28.49900 32.90400
O  50.29500 27.61600 32.64200
O  49.55800 29.26400 34.06100
C  50.27800 28.69000 35.15700
H  45.44000 22.99800 31.85600
H  47.15800 22.61500 25.64500
H  49.15400 28.55100 25.81200
H  47.46300 26.34600 33.83000
H  45.33200 24.64800 33.45000
H  48.16600 24.35600 34.03100
H  47.52100 23.12200 32.79800
H  46.62700 23.43300 34.30600
H  44.49700 26.80500 33.69400
H  45.39900 28.09500 32.85600
H  45.80900 29.09000 34.65300
H  46.60700 27.70300 35.23700
H  44.37000 19.87900 29.69800
H  44.46000 21.03500 31.04800
H  45.79800 19.97100 30.51700
H  46.52200 18.13500 26.85900
H  44.82100 18.65000 27.09800
H  45.89100 18.80100 28.44200
H  47.62600 24.39600 23.85600
H  49.50400 26.56100 24.31600
H  49.96600 23.46500 23.56600
H  49.58000 23.11000 25.22400
H  50.54000 24.53000 24.75300
H  47.77600 26.57000 22.39500
H  47.70800 28.08200 23.35700
H  45.79000 26.04600 22.67400
H  45.43700 27.60100 23.26900
H  45.74400 26.12700 24.34400
H  49.74700 31.48800 28.25200
H  49.14500 30.94600 26.60400
H  50.67900 30.36900 27.37300
H  47.60500 29.43200 32.74600
H  49.83200 27.81000 35.62000
H  50.29800 29.46800 35.91900
H  51.28700 28.41200 34.85000
Mg 6.95500 57.12700 42.11300
C  6.12000 53.65300 42.30600
C  10.09500 56.11400 41.12700
C  7.60400 60.24900 41.64900
C  3.65400 57.77400 43.30300
N  7.99900 55.09400 41.72000
C  7.38700 53.85900 41.78600
C  8.42800 52.77000 41.41200
C  9.69500 53.47600 41.56900
C  9.30700 54.96700 41.49800
C  10.38500 53.23000 43.00300
C  8.40400 52.18500 39.97300
C  8.14900 53.15700 38.81800
H  7.07000 52.88000 37.67200
N  8.63500 58.10200 41.38600
C  9.83000 57.48000 40.97100
C  10.68100 58.50400 40.45100
C  10.03000 59.76600 40.57000
C  8.69600 59.41900 41.22800
C  12.02900 58.24300 39.77800
C  10.45600 61.11400 40.14200
O  11.60800 61.36700 39.81100
C  9.57300 62.26700 40.21900
N  5.75700 58.77200 42.29300
C  6.33100 59.96900 42.17700
C  5.43400 61.08100 42.68800
C  4.18900 60.29300 43.32600
C  4.57500 58.79300 43.01900
C  6.04800 62.01300 43.83900
C  2.81900 60.57400 42.59100
C  1.70200 60.77100 43.66200
N  5.18100 56.04000 42.57300
C  3.95200 56.38900 43.06800
C  3.12800 55.24800 43.50900
C  3.92400 54.12400 43.14000
C  5.14100 54.62200 42.64300
C  1.84800 55.25200 44.21100
C  3.87200 52.78800 43.07400
O  3.00300 51.97900 43.32300
C  5.35000 52.31800 42.46800
C  5.05700 51.64400 41.15600
O  5.24000 52.14400 40.08500
O  4.73900 50.34200 41.33300
C  4.88700 49.40100 40.19600
H  11.07600 55.77000 40.79300
H  7.70200 61.33600 41.62500
H  2.75000 58.00000 43.87100
H  8.29400 51.95100 42.11800
H  10.45600 53.35900 40.79800
H  11.35400 52.73700 42.93400
H  9.76200 52.61700 43.65500
H  10.47400 54.20800 43.47800
H  7.69100 51.36100 39.93600
H  9.37400 51.78800 39.67500
H  9.07700 53.29800 38.26300
H  7.85700 54.10900 39.26000
H  12.17800 58.70100 38.80000
H  12.15500 57.17100 39.62100
H  12.80500 58.44300 40.51700
H  9.34400 62.64600 41.21500
H  8.62000 62.04900 39.73600
H  10.06100 63.07600 39.67500
H  5.16300 61.58200 41.75800
H  4.18800 60.31900 44.41600
H  5.56500 61.96500 44.81500
H  5.91900 63.02200 43.44800
H  7.10900 61.77300 43.90500
H  2.53800 59.88500 41.79500
H  2.86700 61.50000 42.01800
H  1.97200 60.54300 44.69300
H  0.88900 60.10800 43.36700
H  1.41000 61.82100 43.63700
H  1.58400 56.21300 44.65100
H  1.68600 54.45700 44.93800
H  1.08000 55.08900 43.45400
H  5.82600 51.69700 43.22700
H  4.14700 49.59600 39.42000
H  4.73200 48.35800 40.47200
H  5.89800 49.51100 39.80300

