158

Mg 16.97300 -0.89500 27.45400
C  16.11600 1.17200 30.16300
C  18.74300 -2.95700 29.75700
C  18.36400 -2.58900 24.95300
C  15.29800 1.23100 25.28300
N  17.46800 -0.75700 29.68100
C  16.95200 0.16800 30.58100
C  17.38300 -0.25500 32.07200
C  18.34300 -1.42400 31.71700
C  18.05200 -1.80600 30.27200
C  19.80000 -1.03600 31.85700
C  16.25200 -0.59000 33.06300
C  16.32000 -0.21500 34.53200
H  17.72500 0.21500 34.99800
N  18.39400 -2.49300 27.37200
C  18.94600 -3.21600 28.36400
C  19.70800 -4.28100 27.78500
C  19.63400 -4.23700 26.34600
C  18.83300 -3.04100 26.13700
C  20.38500 -5.33700 28.68100
C  20.15700 -5.14600 25.23300
O  20.05600 -4.96000 24.01700
C  20.77700 -6.39600 25.65000
N  16.86500 -0.75200 25.48000
C  17.56900 -1.53800 24.57700
C  17.22200 -1.20700 23.11200
C  16.21900 -0.05900 23.25900
C  16.11000 0.17500 24.75600
C  18.52800 -0.82600 22.42600
C  14.86700 -0.31700 22.54400
C  13.75100 -1.01000 23.35800
N  15.81200 0.78600 27.67300
C  15.24400 1.58600 26.70000
C  14.48200 2.63400 27.34600
C  14.82800 2.53400 28.72400
C  15.69800 1.45600 28.82100
C  13.68500 3.69400 26.58200
C  14.60200 3.13200 30.05600
O  14.01500 4.15000 30.37500
C  15.45900 2.22300 31.07400
C  16.48600 3.10000 31.75500
O  17.53600 3.57100 31.25100
O  16.06200 3.45900 33.02300
C  16.68200 4.59300 33.70400
H  19.24300 -3.57500 30.50600
H  18.62500 -3.12800 24.03900
H  14.66900 1.83300 24.62300
H  17.94400 0.63900 32.34300
H  18.07300 -2.25300 32.37000
H  19.85300 -0.01100 32.22300
H  20.37900 -1.01400 30.93400
H  20.28700 -1.68000 32.58900
H  16.21800 -1.67700 33.13500
H  15.33100 -0.29800 32.55700
H  15.96000 -1.03300 35.15700
H  15.63300 0.62300 34.65100
H  19.58200 -5.91500 29.13900
H  20.87800 -4.79500 29.48800
H  21.13200 -5.93200 28.15500
H  21.77900 -6.30300 26.06800
H  20.76600 -7.16800 24.88000
H  20.03000 -6.72500 26.37300
H  16.75100 -2.03000 22.57600
H  16.55300 0.85900 22.77600
H  18.51400 0.18900 22.02700
H  18.75700 -1.47500 21.58100
H  19.41600 -0.86000 23.05600
H  14.95800 -0.82400 21.58300
H  14.41400 0.60500 22.17900
H  12.91300 -1.38500 22.77000
H  13.32700 -0.19800 23.94900
H  14.17900 -1.79200 23.98400
H  14.25000 4.14100 25.76400
H  13.34800 4.53200 27.19200
H  12.81200 3.33300 26.03900
H  14.84400 1.74400 31.83600
H  17.74700 4.61400 33.47200
H  16.59300 4.55800 34.79000
H  16.19500 5.52700 33.42400
Mg 42.64200 41.07900 26.06900
C  41.63300 43.50300 28.54800
C  43.54100 39.09400 28.73500
C  43.53400 39.02800 23.84500
C  41.78300 43.62700 23.57200
N  42.51800 41.26800 28.38300
C  42.01200 42.30600 29.16000
C  42.05200 42.00200 30.67600
C  42.87600 40.64500 30.65100
C  42.99300 40.31600 29.17700
C  44.18100 40.60400 31.43400
C  40.67500 41.93100 31.31800
C  40.75000 41.53900 32.84200
H  40.22500 42.56900 33.80300
N  43.52500 39.28600 26.21800
C  43.70800 38.62800 27.38800
C  44.23300 37.28800 26.95300
C  44.18600 37.25800 25.53200
C  43.79700 38.56300 25.11900
C  44.68400 36.18900 27.97400
C  44.52300 36.16500 24.56200
O  44.42300 36.24900 23.28400
C  44.94300 34.85200 25.12000
N  42.90700 41.39400 23.96200
C  43.09300 40.24500 23.25200
C  42.93100 40.51200 21.73700
C  42.15800 41.93100 21.77000
C  42.15900 42.33800 23.22800
C  44.23100 40.58300 20.80300
C  40.67900 41.78700 21.22900
C  39.79700 40.67000 21.79600
N  41.96300 43.17100 25.99400
C  41.68800 44.03200 24.95800
C  41.22100 45.30300 25.47900
C  41.14400 45.12500 26.86900
C  41.61700 43.80700 27.12300
C  40.88600 46.53400 24.61500
C  40.74500 45.79900 28.14000
O  40.28300 46.91500 28.32300
C  41.02800 44.71800 29.27100
C  41.79100 45.38000 30.38000
O  43.03100 45.56200 30.40700
O  40.93000 45.80200 31.32100
C  41.50400 46.29900 32.61200
H  44.01900 38.43900 29.46600
H  43.67100 38.37800 22.97900
H  41.45200 44.29000 22.77000
H  42.62400 42.72700 31.25500
H  42.16600 39.94500 31.09100
H  44.24400 41.39100 32.18500
H  45.11500 40.68400 30.87900
H  44.16200 39.69800 32.04100
H  39.92100 41.36000 30.77700
H  40.25300 42.93600 31.31000
H  41.78600 41.29500 33.07700
H  40.03800 40.72300 32.96200
H  44.46500 36.42500 29.01500
H  45.76000 36.01900 27.94600
H  44.27700 35.21100 27.71700
H  44.12000 34.21000 25.43600
H  45.69000 34.94200 25.90800
H  45.47900 34.45100 24.26000
H  42.20400 39.75300 21.44800
H  42.71000 42.68800 21.21200
H  43.90500 40.18100 19.84300
H  45.01300 39.86500 21.05100
H  44.65200 41.57900 20.66400
H  40.77400 41.56100 20.16700
H  40.27600 42.79100 21.36200
H  39.48000 39.95000 21.04200
H  38.89900 40.99200 22.32400
H  40.39300 40.12100 22.52500
H  41.82600 46.95700 24.26100
H  40.33500 47.25700 25.21700
H  40.20700 46.23700 23.81600
H  40.12200 44.36800 29.76700
H  42.26800 47.05700 32.43800
H  41.85100 45.52000 33.29000
H  40.71500 46.85200 33.12100

