158

Mg 16.33300 -1.75500 28.65600
C  15.65400 0.15400 31.59000
C  18.58100 -3.53600 30.59400
C  17.46200 -3.43800 25.92600
C  14.57500 0.47300 26.81100
N  17.00700 -1.72400 30.87700
C  16.51000 -0.88400 31.89300
C  17.02300 -1.40200 33.23500
C  18.20000 -2.37700 32.82400
C  17.95600 -2.56000 31.32700
C  19.70500 -1.80700 33.04900
C  16.01400 -2.14100 34.17700
C  15.84100 -1.61200 35.60800
H  17.02800 -0.84200 36.24100
N  17.76700 -3.28300 28.30400
C  18.44500 -3.95900 29.28500
C  19.17100 -5.04300 28.67100
C  19.06600 -4.89000 27.28800
C  18.03500 -3.84500 27.10700
C  20.18000 -6.01900 29.40000
C  19.71000 -5.69300 26.09900
O  19.46500 -5.47600 24.92600
C  20.64400 -6.87300 26.42400
N  15.97300 -1.55800 26.62900
C  16.50800 -2.39700 25.70200
C  16.40100 -1.75600 24.33700
C  15.27000 -0.57000 24.52300
C  15.25300 -0.52700 26.08100
C  17.71500 -1.15100 23.93100
C  13.86500 -0.88800 23.82900
C  13.69700 -0.10900 22.51700
N  15.21700 -0.11200 29.05400
C  14.60500 0.72800 28.18500
C  13.81100 1.70500 28.89400
C  14.21500 1.56900 30.23500
C  15.05500 0.43000 30.29900
C  12.93400 2.79300 28.29700
C  14.04900 2.08200 31.59100
O  13.42600 3.07600 32.00100
C  14.96300 1.19100 32.56600
C  15.82400 2.19400 33.22800
O  16.62400 2.85100 32.57900
O  15.38000 2.43300 34.51700
C  15.86100 3.76800 35.04300
H  19.28700 -4.14700 31.16000
H  17.88800 -3.96100 25.06700
H  14.08100 1.19200 26.15300
H  17.43800 -0.55900 33.78800
H  18.04700 -3.34200 33.30800
H  20.35600 -2.05700 32.21100
H  20.16700 -2.25900 33.92700
H  19.66200 -0.74000 33.26300
H  16.37800 -3.15900 34.31800
H  15.04000 -2.14700 33.68900
H  15.70900 -2.45500 36.28700
H  15.04600 -0.86700 35.59000
H  20.13600 -7.08900 29.19800
H  20.16100 -5.78800 30.46500
H  21.20100 -5.74800 29.12800
H  21.55900 -6.62800 26.96200
H  20.91100 -7.30300 25.45900
H  20.00800 -7.50000 27.05000
H  16.06500 -2.51100 23.62500
H  15.74200 0.36800 24.22800
H  18.16800 -0.57200 24.73500
H  17.57700 -0.43600 23.12100
H  18.27000 -2.04500 23.64600
H  13.11900 -0.55800 24.55200
H  13.70500 -1.95800 23.69600
H  14.57600 0.34100 22.05600
H  13.13100 0.79000 22.75900
H  13.22400 -0.65600 21.70100
H  13.34400 3.11500 27.34000
H  12.83000 3.56900 29.05600
H  11.97300 2.33800 28.05500
H  14.40900 0.61800 33.31000
H  15.68500 3.71400 36.11700
H  15.38400 4.56400 34.47100
H  16.94900 3.81900 35.01900
Mg 40.13200 9.63200 29.71200
C  41.95100 10.61800 32.48800
C  37.97700 7.86500 31.87200
C  38.28900 8.79400 26.93900
C  42.72300 10.81300 27.57700
N  39.99700 9.36600 31.90100
C  40.77900 9.91600 32.85800
C  40.33600 9.45500 34.28000
C  39.38400 8.24200 33.97800
C  39.05600 8.53700 32.50900
C  40.00300 6.82800 34.14400
C  39.80000 10.66200 35.13000
C  40.29800 10.86800 36.64400
H  40.75200 12.17900 37.34200
N  38.36500 8.54100 29.45300
C  37.61100 7.97400 30.48000
C  36.27300 7.49900 29.92000
C  36.41200 7.65500 28.48100
C  37.76400 8.35900 28.24600
C  35.15800 6.86700 30.69300
C  35.49600 7.30300 27.33000
O  35.74900 7.47100 26.16600
C  34.13000 6.72700 27.64800
N  40.58000 9.72800 27.55200
C  39.54800 9.40900 26.62400
C  39.95300 9.82300 25.16400
C  41.31000 10.51600 25.38900
C  41.60100 10.33000 26.91200
C  40.03100 8.63200 24.23900
C  41.50800 11.90500 24.77500
C  40.67400 12.95600 25.31200
N  41.93800 10.55300 29.93600
C  42.92200 10.89200 29.03700
C  44.04400 11.48700 29.69900
C  43.72700 11.43500 31.10300
C  42.40500 10.79700 31.18100
C  45.30900 12.04600 29.09100
C  44.12200 11.78400 32.48600
O  45.11900 12.39200 32.91800
C  42.95500 11.29400 33.40300
C  43.59900 10.37800 34.33200
O  44.22900 9.41000 34.03800
O  43.44600 10.86900 35.64100
C  44.18800 10.12400 36.68100
H  37.42100 7.16100 32.49400
H  37.66200 8.60200 26.06600
H  43.47800 11.30000 26.95700
H  41.19200 9.01600 34.79200
H  38.46700 8.19600 34.56500
H  40.53600 6.75300 35.09200
H  40.61200 6.50800 33.29800
H  39.09600 6.24100 34.28800
H  38.71400 10.57400 35.17000
H  39.91800 11.61100 34.60800
H  41.06100 10.13600 36.90900
H  39.43400 10.56800 37.23800
H  35.39900 6.99600 31.74800
H  35.01400 5.81500 30.44800
H  34.22100 7.41000 30.56900
H  34.34500 5.81100 28.19900
H  33.59700 6.59900 26.70600
H  33.61400 7.48100 28.24200
H  39.10500 10.43400 24.85400
H  42.07000 9.88000 24.93500
H  40.23200 7.70300 24.77300
H  40.90900 8.83900 23.62600
H  39.11100 8.70100 23.65800
H  41.09600 11.75500 23.77700
H  42.54400 12.22600 24.66700
H  40.11400 12.64900 26.19600
H  40.04400 13.35000 24.51400
H  41.41100 13.72700 25.53600
H  46.12900 12.28100 29.76900
H  45.06900 12.91200 28.47300
H  45.70000 11.28400 28.41700
H  42.46000 12.09400 33.95300
H  43.53100 10.22000 37.54500
H  45.17900 10.49000 36.94800
H  44.32100 9.05400 36.51800

