158

Mg 26.13000 0.93900 28.80700
C  28.14200 0.42100 31.71600
C  23.55000 1.64300 30.79500
C  24.21200 0.73000 26.03800
C  28.77600 -0.37800 26.93000
N  25.89700 1.20600 31.07800
C  26.80700 0.95300 32.05200
C  26.30500 1.21300 33.46300
C  24.78600 1.53400 33.11600
C  24.73800 1.53800 31.53100
C  23.75700 0.47900 33.69000
C  27.06800 2.34400 34.24100
C  27.46500 2.06800 35.72900
H  26.68300 2.92500 36.84000
N  24.14900 1.22500 28.50200
C  23.25200 1.55400 29.42100
C  21.95300 1.46100 28.88500
C  22.05500 1.14500 27.48000
C  23.56100 1.07900 27.27300
C  20.69500 1.76500 29.62500
C  20.96700 0.92900 26.47300
O  21.20400 0.74300 25.27400
C  19.54200 1.09900 26.93600
N  26.37000 0.23000 26.82500
C  25.53000 0.44900 25.78700
C  26.07100 0.31000 24.39100
C  27.59900 0.18800 24.75100
C  27.59000 0.02500 26.28700
C  25.46500 -0.66500 23.36600
C  28.52900 1.33900 24.40800
C  29.84600 0.91100 23.85300
N  28.04200 0.15100 29.18400
C  28.93300 -0.36700 28.29800
C  30.21600 -0.60600 29.02600
C  29.98000 -0.31200 30.34600
C  28.65300 0.16000 30.38300
C  31.54100 -1.02700 28.37900
C  30.47700 -0.35000 31.79200
O  31.55000 -0.64400 32.27300
C  29.33300 0.10800 32.68400
C  28.84700 -1.05400 33.48600
O  27.88100 -1.75000 33.18200
O  29.62100 -1.13800 34.64100
C  29.02300 -2.09300 35.60100
H  22.68800 1.82700 31.44000
H  23.78100 0.83000 25.03900
H  29.68700 -0.51800 26.34500
H  26.50600 0.31000 34.03900
H  24.57500 2.51300 33.54600
H  23.77300 -0.52200 33.25900
H  22.74700 0.88400 33.62100
H  24.01000 0.23200 34.72100
H  26.50900 3.27800 34.28700
H  27.97800 2.56500 33.68300
H  28.51200 2.36700 35.74600
H  27.30300 1.00000 35.87800
H  20.06600 2.51300 29.14200
H  20.86200 2.18500 30.61600
H  20.14900 0.86400 29.90600
H  18.95000 0.79400 26.07300
H  19.30800 2.13600 27.17900
H  19.13500 0.28800 27.53900
H  25.98700 1.27600 23.89300
H  28.06400 -0.71800 24.36100
H  26.20600 -1.27900 22.85500
H  24.93000 -0.13800 22.57600
H  24.68100 -1.23100 23.87000
H  28.51800 2.08200 25.20500
H  28.05500 1.83100 23.55900
H  29.95200 1.11400 22.78700
H  30.07700 -0.14600 23.98000
H  30.60300 1.51100 24.35900
H  32.34700 -1.04900 29.11300
H  31.77800 -0.26100 27.64000
H  31.48100 -2.00400 27.90100
H  29.67400 0.88400 33.36900
H  29.14700 -3.15900 35.40700
H  27.94800 -2.02600 35.76500
H  29.31500 -1.89200 36.63100
Mg 52.45000 24.42700 45.67200
C  49.85500 26.59700 44.79700
C  50.78800 21.73000 44.62000
C  55.38900 22.62000 45.99500
C  54.48100 27.31300 46.26500
N  50.57000 24.20400 44.76100
C  49.60100 25.18300 44.51800
C  48.19600 24.54500 44.38100
C  48.52400 23.02000 44.50100
C  50.05700 22.97100 44.61100
C  47.91500 22.34800 45.80800
C  47.43800 24.87100 43.03500
C  48.14200 24.68500 41.70000
H  47.50400 23.73600 40.74300
N  52.95000 22.40500 45.44100
C  52.16000 21.46700 44.97700
C  52.86500 20.15500 45.04900
C  54.11200 20.32000 45.68700
C  54.19400 21.82800 45.77200
C  52.22700 18.85000 44.41600
C  55.05600 19.24300 46.06900
O  54.82600 18.08100 45.78600
C  56.30900 19.55200 46.92100
N  54.63300 24.87800 45.97700
C  55.64000 23.97300 46.05400
C  56.99200 24.55100 46.42500
C  56.72300 26.08600 46.29500
C  55.18100 26.13000 46.25000
C  57.53900 24.01400 47.73600
C  57.33200 26.70100 44.92500
C  57.96000 28.10800 45.18300
N  52.20700 26.55000 45.77500
C  53.07400 27.58100 46.04700
C  52.44300 28.85700 45.99800
C  51.15100 28.49500 45.49100
C  51.09500 27.05800 45.37900
C  53.03500 30.12100 46.34100
C  49.89800 29.09600 45.00300
O  49.45500 30.24600 44.97700
C  48.98800 27.85000 44.44500
C  48.74900 28.03400 43.03100
O  49.40800 27.56300 42.08200
O  47.58300 28.74800 42.88800
C  47.06700 28.95300 41.51800
H  50.20200 20.82500 44.44600
H  56.22800 21.94400 46.17400
H  55.02100 28.25400 46.38800
H  47.47500 24.89000 45.12100
H  48.26700 22.45900 43.60200
H  47.88300 21.26800 45.66300
H  46.92200 22.71100 46.07400
H  48.65800 22.41500 46.60300
H  47.06500 25.89500 43.02000
H  46.57800 24.20200 43.05500
H  49.17100 24.34000 41.80600
H  48.04200 25.65800 41.22000
H  51.37500 19.01000 43.75500
H  51.94700 18.16200 45.21300
H  53.01900 18.40300 43.81500
H  56.69700 18.59200 47.26200
H  55.87600 20.15200 47.72100
H  56.95500 20.07500 46.21500
H  57.71000 24.18600 45.69100
H  57.12700 26.70300 47.09900
H  57.36700 22.95200 47.91300
H  56.99700 24.51500 48.53800
H  58.59600 24.25400 47.84900
H  56.62000 26.85900 44.11500
H  58.09200 26.04500 44.50200
H  59.00400 28.19400 44.87900
H  57.82900 28.47000 46.20300
H  57.58700 28.78900 44.41800
H  52.53800 30.89600 45.75800
H  54.11400 30.18000 46.19600
H  52.96700 30.26400 47.42000
H  48.04000 27.75100 44.97300
H  46.94700 28.02200 40.96500
H  47.80500 29.58100 41.02000
H  46.18400 29.58100 41.63900

