158

Mg 26.83400 50.86500 26.05600
C  24.89500 52.21700 28.73700
C  29.27800 50.15000 28.10500
C  28.41200 49.55100 23.41300
C  24.34400 52.26600 23.81600
N  27.04700 51.13700 28.21100
C  26.12500 51.67400 29.13500
C  26.64000 51.52900 30.57500
C  28.20100 51.13200 30.33400
C  28.20500 50.84700 28.78600
C  29.22000 52.11700 30.81500
C  25.78600 50.41800 31.31900
C  25.06700 50.79800 32.63900
H  25.89500 51.31600 33.83500
N  28.68200 49.98900 25.75700
C  29.47800 49.67600 26.79500
C  30.59900 48.86500 26.30300
C  30.25000 48.51300 24.98000
C  29.09200 49.40200 24.62600
C  31.69400 48.34700 27.19800
C  30.83500 47.35900 24.09100
O  30.45100 47.17500 22.92500
C  31.94400 46.50000 24.54100
N  26.57600 51.15200 23.87300
C  27.26100 50.24300 23.05800
C  26.69000 50.15000 21.63900
C  25.31400 50.96000 21.90300
C  25.42700 51.53400 23.26700
C  27.46800 50.64000 20.40300
C  24.00500 50.05100 21.65400
C  22.95800 50.69500 20.64900
N  24.98500 52.10000 26.22900
C  24.15800 52.52400 25.17900
C  22.96000 53.12000 25.71600
C  23.16000 52.96100 27.16500
C  24.43800 52.35500 27.36000
C  21.80700 53.71300 24.97000
C  22.65400 53.23000 28.53300
O  21.61000 53.77300 28.83400
C  23.70000 52.78600 29.56000
C  24.06200 54.01700 30.38700
O  24.77200 54.96600 29.96400
O  23.43800 53.87400 31.63200
C  23.68900 55.06400 32.52600
H  30.12300 49.79900 28.70100
H  28.70500 48.82800 22.64800
H  23.58200 52.59000 23.10500
H  26.55800 52.47600 31.10700
H  28.41100 50.14400 30.74200
H  29.68700 51.64200 31.67900
H  28.70800 53.01600 31.15600
H  30.01800 52.43600 30.14500
H  26.51600 49.66600 31.61800
H  25.04000 49.89500 30.72000
H  24.39300 50.01800 32.99500
H  24.43000 51.61500 32.30100
H  31.71900 48.73000 28.21800
H  32.68300 48.60000 26.81600
H  31.60400 47.26700 27.31600
H  32.62000 47.03200 25.21000
H  32.56400 46.22100 23.68900
H  31.57800 45.59600 25.02900
H  26.56400 49.07700 21.50000
H  25.41800 51.89900 21.36000
H  26.97800 51.47200 19.89700
H  27.47600 49.86100 19.64000
H  28.44300 51.01900 20.70800
H  23.65300 49.86300 22.66800
H  24.42100 49.18800 21.13500
H  23.35700 51.69200 20.46300
H  21.96100 50.80200 21.07500
H  22.85100 50.23200 19.66800
H  22.12200 54.65800 24.52800
H  21.04700 53.93700 25.71900
H  21.47600 53.12900 24.11200
H  23.24100 51.94500 30.08000
H  24.29500 55.87600 32.12400
H  24.24500 54.53700 33.30100
H  22.71200 55.40100 32.87300
Mg -1.60400 35.25300 27.01800
C  -3.42600 33.62600 29.69800
C  -0.48400 37.40500 29.34900
C  -0.05000 36.91000 24.50300
C  -3.06200 33.15700 24.75700
N  -2.14300 35.53600 29.21900
C  -2.78900 34.78000 30.16500
C  -2.50100 35.20800 31.55800
C  -1.64700 36.47100 31.36700
C  -1.36600 36.43500 29.89000
C  -2.44600 37.69400 31.73200
C  -1.64400 33.99300 32.25000
C  -2.25700 33.38300 33.54700
H  -1.48400 33.47400 34.92200
N  -0.53300 37.05400 26.89100
C  -0.11600 37.73700 27.99700
C  0.69200 38.88000 27.48400
C  0.78900 38.80900 26.05300
C  0.07800 37.56600 25.76300
C  1.35900 39.85600 28.36000
C  1.41500 39.79700 25.01900
O  1.30500 39.60300 23.82600
C  2.32900 40.80500 25.49800
N  -1.57500 35.02900 24.95600
C  -0.76600 35.78800 24.07500
C  -0.60200 35.13100 22.73100
C  -1.53900 33.83800 22.83100
C  -2.09000 34.03200 24.26100
C  -0.90300 35.99600 21.51900
C  -0.83600 32.43700 22.70800
C  0.44400 32.11900 23.51000
N  -2.96200 33.70900 27.13100
C  -3.45500 32.94800 26.10600
C  -4.12700 31.79000 26.67200
C  -4.08500 31.96500 28.07400
C  -3.41800 33.14300 28.30600
C  -4.66300 30.59200 25.81900
C  -4.48000 31.42600 29.38200
O  -5.12200 30.40600 29.65000
C  -4.06500 32.49700 30.47200
C  -5.17100 32.94300 31.32800
O  -5.79600 33.99000 31.29400
O  -5.28700 32.03700 32.33200
C  -6.04000 32.39100 33.54900
H  -0.03500 38.12400 30.03700
H  0.66000 37.33100 23.78700
H  -3.38300 32.44700 23.99100
H  -3.37800 35.18500 32.20600
H  -0.70000 36.42900 31.90500
H  -3.46600 37.42800 31.45500
H  -2.07900 38.51400 31.11500
H  -2.34400 37.94300 32.78800
H  -0.71200 34.48100 32.53700
H  -1.45800 33.16100 31.57100
H  -2.31600 32.31000 33.36400
H  -3.27000 33.72700 33.75700
H  2.41300 39.58300 28.40200
H  1.11600 39.72400 29.41400
H  1.07300 40.83500 27.97500
H  3.08500 40.37500 26.15600
H  1.78000 41.56400 26.05400
H  2.82700 41.24100 24.63100
H  0.44000 34.82600 22.63300
H  -2.28000 33.73400 22.03900
H  -1.45900 35.41400 20.78400
H  -0.06000 36.46300 21.00900
H  -1.55800 36.83000 21.76900
H  -0.54900 32.25900 21.67100
H  -1.64400 31.71000 22.79100
H  0.58000 31.11100 23.90300
H  0.63100 32.86500 24.28200
H  1.25900 32.36700 22.83000
H  -3.96400 30.33100 25.02500
H  -5.62400 30.78600 25.34200
H  -4.84500 29.76000 26.49900
H  -3.42500 31.89700 31.11800
H  -5.68000 33.29700 34.03800
H  -5.81200 31.59200 34.25400
H  -7.10000 32.27900 33.32400

