158

Mg 25.89800 0.82200 29.33800
C  28.01300 0.60100 32.23100
C  23.24500 1.12100 31.43700
C  24.02100 0.95300 26.61100
C  28.70600 -0.02000 27.45800
N  25.72200 0.87200 31.57800
C  26.64900 0.81100 32.55000
C  26.12500 1.05100 33.93200
C  24.56300 1.28700 33.67000
C  24.46600 1.01600 32.11300
C  23.66800 0.37800 34.53900
C  26.78900 2.26000 34.78000
C  27.38500 1.98400 36.15100
H  27.19800 2.97900 37.25300
N  23.93500 0.99900 29.06400
C  22.95300 1.26000 30.02700
C  21.68300 1.25400 29.44100
C  21.86100 1.22600 28.00700
C  23.32800 0.98800 27.85200
C  20.47400 1.45400 30.22900
C  20.84400 1.23700 26.89100
O  21.11400 1.03500 25.67600
C  19.45300 1.50400 27.27800
N  26.25800 0.37300 27.29700
C  25.36600 0.64700 26.31700
C  25.95800 0.38500 24.89100
C  27.48900 0.33800 25.19700
C  27.47000 0.11500 26.73300
C  25.39000 -0.92400 24.30700
C  28.27000 1.58500 24.74200
C  29.44400 1.22900 23.71200
N  27.93800 0.27700 29.68900
C  28.90300 -0.12000 28.82900
C  30.13800 -0.36100 29.59900
C  29.86300 -0.07200 30.95900
C  28.50300 0.36800 30.93300
C  31.51300 -0.74600 29.12300
C  30.41000 0.11800 32.28700
O  31.49800 0.12700 32.71000
C  29.23400 0.48600 33.22800
C  29.07800 -0.66200 34.15700
O  28.62500 -1.80000 33.92900
O  29.46700 -0.29800 35.39200
C  29.16500 -1.34100 36.46000
H  22.35300 1.21500 32.05900
H  23.42700 1.10900 25.70800
H  29.58500 -0.02500 26.81000
H  26.38400 0.19200 34.55100
H  24.30700 2.30700 33.95800
H  23.27400 -0.43000 33.92300
H  22.80700 1.04600 34.56100
H  24.20000 0.00600 35.41400
H  26.17000 3.15700 34.78500
H  27.58600 2.55700 34.09900
H  28.46800 2.01600 36.03300
H  27.22500 0.98600 36.56000
H  20.50000 1.00500 31.22100
H  19.77600 0.79400 29.71300
H  20.05000 2.45800 30.20500
H  19.08700 0.69300 27.90800
H  18.89300 1.48800 26.34300
H  19.40000 2.53900 27.61500
H  25.69500 1.25000 24.28300
H  27.94500 -0.58200 24.83100
H  24.65500 -0.59700 23.57100
H  24.96700 -1.60100 25.04900
H  26.09100 -1.51500 23.71800
H  28.85300 2.06300 25.53000
H  27.58100 2.34200 24.36800
H  30.18300 2.00900 23.89400
H  29.04600 1.42900 22.71700
H  29.85900 0.23700 23.88900
H  32.31000 -0.29000 29.71000
H  31.53500 -0.31900 28.12000
H  31.76200 -1.80500 29.18900
H  29.44500 1.41000 33.76600
H  28.14200 -1.09600 36.74600
H  29.90400 -1.24800 37.25600
H  29.15600 -2.38300 36.14000
Mg 47.42600 16.34100 28.70000
C  45.19800 16.18200 31.59600
C  49.55500 18.25300 30.63400
C  49.06900 17.02700 25.98100
C  44.74400 15.01400 26.82900
N  47.43500 16.98100 30.99400
C  46.39900 16.94500 31.88100
C  46.80600 17.55400 33.27000
C  48.14900 18.35800 32.88400
C  48.44600 17.84600 31.44900
C  47.98400 19.94000 32.99600
C  47.11400 16.45700 34.28500
C  46.65000 16.64800 35.70300
H  46.51300 18.12900 36.22800
N  49.26000 17.26500 28.42000
C  49.94300 18.02600 29.29200
C  51.16000 18.47100 28.67000
C  51.00800 18.09800 27.28500
C  49.75800 17.38500 27.18700
C  52.30400 19.16300 29.41200
C  51.95200 18.28400 26.04200
O  51.73700 17.81800 24.94800
C  53.24900 19.04400 26.30900
N  46.99900 15.95500 26.74200
C  47.82000 16.45300 25.77100
C  47.10700 16.41600 24.39500
C  45.94900 15.37800 24.67000
C  45.86800 15.44800 26.17800
C  46.49300 17.79500 23.92400
C  46.22600 13.86900 24.12100
C  45.00400 13.15400 23.55400
N  45.38600 15.57400 29.07900
C  44.44900 15.06600 28.23000
C  43.37900 14.48200 28.97800
C  43.61400 14.88100 30.29900
C  44.81800 15.65500 30.28300
C  42.37900 13.52500 28.40800
C  43.10100 14.76600 31.61800
O  42.10900 14.18100 32.09700
C  44.12100 15.65700 32.52800
C  43.32800 16.67600 33.38800
O  42.86100 17.71900 32.96500
O  43.34200 16.29000 34.67100
C  42.77700 17.37500 35.60400
H  50.24200 18.89400 31.19100
H  49.59100 17.32200 25.06900
H  44.04000 14.46300 26.20100
H  46.03000 18.21100 33.66400
H  48.99600 18.00700 33.47300
H  48.36700 20.28500 32.03600
H  48.53200 20.31500 33.86100
H  46.97100 20.27600 33.21900
H  48.15400 16.14200 34.18800
H  46.56500 15.64600 33.80600
H  47.12400 15.88400 36.31900
H  45.62000 16.29100 35.71000
H  52.22800 19.08200 30.49600
H  52.19100 20.22500 29.19200
H  53.23400 18.76600 29.00400
H  53.08200 19.89700 26.96700
H  53.51200 19.46800 25.34000
H  54.08400 18.39400 26.57000
H  47.82200 16.06100 23.65300
H  45.01000 15.72500 24.24100
H  46.85700 18.48800 24.68300
H  45.41100 17.77500 23.78800
H  47.03500 18.00700 23.00300
H  46.51700 13.23800 24.96100
H  47.00400 13.99400 23.36800
H  45.19100 12.10800 23.79800
H  45.04900 13.25800 22.47000
H  44.05800 13.47200 23.99100
H  42.72400 12.49300 28.33800
H  42.12100 13.94500 27.43600
H  41.46300 13.58800 28.99700
H  44.53100 14.91800 33.21600
H  41.70800 17.18200 35.69300
H  42.88400 18.36200 35.15300
H  43.31700 17.21900 36.53800

