158

Mg 26.53200 50.07100 26.37300
C  24.41700 51.47200 28.72500
C  28.71600 49.13400 28.73300
C  28.58300 48.78200 23.87200
C  24.35900 51.33000 23.88600
N  26.58600 50.28200 28.46800
C  25.54800 50.75400 29.22800
C  25.82300 50.45600 30.81100
C  27.26800 49.86600 30.74300
C  27.52200 49.68800 29.21700
C  28.34500 50.85300 31.31600
C  24.72200 49.69500 31.49200
C  24.22400 50.13400 32.89700
H  25.12800 50.79200 33.98300
N  28.29000 49.06000 26.33400
C  29.11600 48.82300 27.40400
C  30.24800 48.10100 27.03600
C  30.15800 47.87900 25.62100
C  28.89300 48.53700 25.20000
C  31.31800 47.59100 28.01500
C  31.09300 47.01600 24.75900
O  30.82700 46.63500 23.66100
C  32.46800 46.77600 25.28500
N  26.59300 50.22700 24.13500
C  27.43900 49.49600 23.38900
C  27.16200 49.61900 21.89600
C  25.70300 50.29300 21.86500
C  25.51100 50.67000 23.35000
C  28.29700 50.34000 21.13400
C  24.62700 49.37100 21.22000
C  24.12500 48.15300 21.96500
N  24.69700 51.15000 26.26900
C  23.96000 51.57600 25.22900
C  22.80800 52.29900 25.71700
C  22.97400 52.32700 27.07000
C  24.14500 51.61100 27.38200
C  21.80900 53.03300 24.90500
C  22.36800 52.79800 28.29800
O  21.43300 53.54000 28.55400
C  23.29000 52.23900 29.42300
C  23.68600 53.42000 30.24600
O  24.21200 54.46600 29.87500
O  23.06600 53.36600 31.45400
C  23.19600 54.45200 32.46600
H  29.23500 48.80200 29.63500
H  29.31300 48.35500 23.18100
H  23.55700 51.50500 23.16600
H  25.77100 51.40300 31.34800
H  27.32700 48.88400 31.21200
H  29.15300 50.92700 30.58900
H  28.65400 50.28700 32.19500
H  28.00300 51.85100 31.59000
H  25.03500 48.65600 31.60000
H  23.91100 49.61800 30.76800
H  24.09100 49.16500 33.37800
H  23.31400 50.70500 32.71400
H  31.49400 46.53000 27.84000
H  30.84200 47.75500 28.98200
H  32.23100 48.18000 27.92500
H  32.84300 47.65900 25.80200
H  33.22900 46.57200 24.53100
H  32.54300 45.92800 25.96700
H  27.17600 48.62000 21.46000
H  25.64200 51.25000 21.34800
H  28.17500 51.40800 20.95300
H  28.57700 49.81400 20.22200
H  29.25800 50.33800 21.64900
H  25.07800 49.17800 20.24600
H  23.69400 49.84500 20.91500
H  23.08500 48.39400 22.18600
H  24.77500 48.19900 22.83900
H  24.27400 47.25400 21.36700
H  21.85600 54.07700 25.21600
H  20.80600 52.62000 25.01300
H  22.16700 52.98900 23.87700
H  22.75100 51.50000 30.01800
H  23.70000 55.31500 32.02900
H  23.78100 54.11800 33.32200
H  22.19900 54.75900 32.78200
Mg -9.63300 38.86300 39.80200
C  -8.77500 35.54300 39.30300
C  -6.28600 39.75300 39.06000
C  -10.59700 42.06000 39.21600
C  -13.01300 37.92200 40.15800
N  -7.69100 37.77700 39.35500
C  -7.64800 36.49000 39.13600
C  -6.20100 36.05000 38.89800
C  -5.36600 37.33500 39.15000
C  -6.43600 38.42200 39.22900
C  -4.53500 37.30300 40.44100
C  -5.86700 35.28200 37.58200
C  -6.18300 36.11100 36.30100
H  -7.32500 35.63200 35.44200
N  -8.59900 40.62900 39.30400
C  -7.25400 40.74600 39.04200
C  -6.99700 42.13400 38.67700
C  -8.19300 42.90300 38.68800
C  -9.23200 41.85300 39.01100
C  -5.62400 42.64100 38.38100
C  -8.41100 44.35100 38.32100
O  -7.47200 45.07500 38.14100
C  -9.80600 44.87000 38.08700
N  -11.53600 39.82100 39.73600
C  -11.61700 41.16400 39.53700
C  -13.03600 41.64100 39.37900
C  -13.93500 40.25000 39.74800
C  -12.77500 39.22900 39.90100
C  -13.37600 42.86900 40.36400
C  -15.02000 39.80600 38.73300
C  -16.39800 39.89600 39.41500
N  -10.64800 37.10100 39.94100
C  -12.07900 36.83300 40.05600
C  -12.29900 35.36700 40.11600
C  -11.04400 34.83700 39.75300
C  -10.09200 35.91500 39.67400
C  -13.64200 34.63000 40.44000
C  -10.31100 33.56100 39.42000
O  -10.74300 32.43600 39.38600
C  -8.92800 33.97600 39.00200
C  -7.89300 33.13700 39.75000
O  -7.73400 33.10100 40.95500
O  -7.11700 32.36100 38.88200
C  -5.97300 31.63000 39.50500
H  -5.21800 39.94000 38.92900
H  -11.05500 43.05100 39.24200
H  -14.04000 37.55900 40.23700
H  -5.97800 35.30100 39.65800
H  -4.73000 37.42800 38.26900
H  -3.50500 37.12500 40.13200
H  -4.86500 36.52700 41.13100
H  -4.67800 38.29200 40.87800
H  -6.48500 34.38700 37.49900
H  -4.81600 34.99500 37.53000
H  -5.29300 36.24300 35.68600
H  -6.44100 37.10700 36.66000
H  -5.67700 43.39400 37.59400
H  -4.89800 41.88500 38.08200
H  -5.20000 43.08200 39.28300
H  -10.25700 45.04900 39.06300
H  -10.19700 44.10500 37.41700
H  -9.85500 45.82100 37.55600
H  -13.21000 42.03500 38.37800
H  -14.28900 40.37800 40.77100
H  -13.30400 43.85200 39.89900
H  -12.59800 42.87600 41.12800
H  -14.33800 42.72500 40.85600
H  -14.93800 38.73800 38.53200
H  -15.02900 40.26500 37.74400
H  -17.01800 40.55800 38.81000
H  -16.44300 40.20600 40.45900
H  -16.91300 38.93600 39.37000
H  -13.64500 33.55100 40.28300
H  -14.54600 35.05400 40.00300
H  -13.70900 34.67100 41.52700
H  -8.81600 33.59600 37.98700
H  -4.99500 31.96200 39.15600
H  -5.93600 30.56000 39.30000
H  -5.87000 31.79100 40.57800

