158

Mg 35.61800 2.22100 29.59500
C  33.29300 3.17700 32.24200
C  38.02300 2.46400 31.85300
C  37.69400 1.51800 27.05100
C  33.09500 2.83300 27.32500
N  35.52600 2.57400 31.86400
C  34.60000 3.04500 32.67900
C  35.16800 2.99800 34.13400
C  36.70300 3.07000 33.97000
C  36.77400 2.66700 32.44600
C  37.28100 4.51900 34.20000
C  34.65700 1.85900 34.99100
C  34.89500 1.98900 36.54800
H  35.26800 3.35200 37.16200
N  37.66600 1.91100 29.47700
C  38.48300 2.12800 30.54300
C  39.77200 1.80900 30.07400
C  39.69900 1.40800 28.72900
C  38.32600 1.56300 28.36200
C  40.99100 1.97200 30.98800
C  40.69600 0.86700 27.63100
O  40.34900 0.53800 26.45300
C  42.12400 0.72400 27.94900
N  35.47700 2.29000 27.49600
C  36.39400 1.75300 26.68400
C  35.99900 1.72000 25.16900
C  34.51800 2.06500 25.30700
C  34.34100 2.37700 26.81100
C  36.73100 2.66900 24.17700
C  33.60500 0.82300 24.87500
C  32.10600 0.87800 24.77600
N  33.61300 2.87400 29.71600
C  32.67600 3.07600 28.66400
C  31.40600 3.47100 29.21100
C  31.61500 3.45200 30.64800
C  32.97300 3.13600 30.90300
C  30.17900 3.93100 28.46400
C  31.02600 3.79800 31.92700
O  29.90800 4.29200 32.03600
C  32.03400 3.52300 33.02300
C  32.05300 4.74300 33.86800
O  32.77000 5.70700 33.65400
O  31.19600 4.69200 34.89700
C  30.99300 5.81600 35.82000
H  38.89600 2.58800 32.49800
H  38.24500 1.15900 26.17900
H  32.35600 3.02000 26.54300
H  34.79700 3.92200 34.57700
H  37.34300 2.36100 34.49400
H  36.56700 5.05500 34.82600
H  37.40800 5.17700 33.34100
H  38.24500 4.56500 34.70700
H  34.97100 0.89800 34.58400
H  33.57900 1.84300 34.82800
H  35.72200 1.33300 36.82000
H  34.11600 1.68100 37.24600
H  41.86600 1.52100 30.51900
H  40.77400 1.26200 31.78600
H  41.15200 3.00500 31.29500
H  42.59800 1.69600 27.80800
H  42.50400 0.11000 27.13200
H  42.18000 0.12300 28.85600
H  36.08700 0.71400 24.76100
H  34.13700 2.87700 24.68700
H  37.64000 3.01200 24.67000
H  36.31300 3.58100 23.74900
H  36.97900 2.04100 23.32200
H  33.83400 0.07300 25.63200
H  34.04800 0.39100 23.97800
H  31.81300 0.21500 25.59000
H  31.90800 0.42200 23.80600
H  31.62400 1.85400 24.71700
H  30.29100 3.95600 27.38000
H  29.82200 4.90800 28.79000
H  29.33100 3.24700 28.48100
H  31.78700 2.63200 33.59900
H  31.02400 5.31600 36.78800
H  29.99500 6.20000 35.61100
H  31.77500 6.57200 35.75400
Mg 48.70900 46.89900 42.64400
C  45.33900 47.22000 41.78300
C  48.79800 43.96100 41.05400
C  51.96600 47.06000 42.94300
C  48.51500 50.38600 43.77200
N  47.20500 45.74100 41.48200
C  45.86300 45.97600 41.37400
C  45.15100 44.79500 40.69200
C  46.35000 43.76900 40.52400
C  47.52700 44.51300 41.07700
C  46.12800 42.47800 41.47800
C  44.59200 45.21400 39.27500
C  43.13100 44.76100 39.04600
H  42.84600 43.93700 37.75000
N  50.16200 45.51100 42.26100
C  50.02500 44.34400 41.60700
C  51.32800 43.72900 41.57000
C  52.20600 44.52100 42.34100
C  51.45500 45.73700 42.57100
C  51.68900 42.38900 40.89300
C  53.56200 44.06100 42.76300
O  54.06200 43.01000 42.38500
C  54.43200 44.78800 43.68000
N  50.04000 48.60600 43.07700
C  51.37500 48.29800 43.25900
C  52.21100 49.55400 43.83600
C  51.03000 50.63400 43.96000
C  49.77100 49.86500 43.55800
C  52.94500 49.27600 45.14200
C  51.19400 51.91000 43.01200
C  50.52000 53.17200 43.56500
N  47.25100 48.50400 42.87700
C  47.30500 49.83800 43.33800
C  45.96900 50.37000 43.34600
C  45.15700 49.37500 42.77700
C  46.01600 48.28400 42.44100
C  45.58800 51.72000 43.90400
C  43.77200 49.08500 42.30300
O  42.74600 49.75000 42.39900
C  43.85700 47.59000 41.72100
C  43.08300 46.74600 42.66000
O  43.46300 46.34700 43.72800
O  41.82200 46.26900 42.18100
C  41.07900 45.39800 43.06300
H  48.78300 42.98500 40.56500
H  53.01000 46.98000 43.25500
H  48.58000 51.42600 44.09800
H  44.49000 44.31900 41.41700
H  46.53800 43.40400 39.51400
H  46.05500 41.64100 40.78300
H  45.19300 42.56600 42.03200
H  46.88500 42.37700 42.25500
H  45.20200 44.88700 38.43300
H  44.70800 46.29500 39.19800
H  42.45500 45.58200 38.80600
H  42.67600 44.34500 39.94500
H  52.36600 42.53900 40.05200
H  50.75100 42.14200 40.39700
H  51.98600 41.55200 41.52500
H  54.87400 45.66400 43.20500
H  55.28300 44.13800 43.88200
H  53.94900 45.02400 44.62900
H  52.89700 50.06600 43.16100
H  50.93000 51.03700 44.96700
H  53.82200 48.71000 44.82900
H  52.22100 48.70400 45.72100
H  53.29400 50.09900 45.76600
H  50.74000 51.71200 42.04200
H  52.21100 52.18800 42.73700
H  49.67200 53.57100 43.00700
H  51.28500 53.94900 43.57400
H  50.28300 53.00400 44.61500
H  46.31100 52.46100 43.56200
H  45.46900 51.95900 44.96100
H  44.68700 51.98300 43.34900
H  43.45700 47.57400 40.70800
H  41.18500 45.76600 44.08400
H  41.46800 44.38100 43.00900
H  40.02900 45.33400 42.78100

