158

Mg 35.62500 49.44700 24.40700
C  35.67100 48.06600 27.42000
C  34.45200 52.38800 25.86700
C  35.14700 50.85100 21.28000
C  36.42000 46.48800 22.86700
N  35.02000 50.13900 26.45900
C  35.39100 49.41800 27.54000
C  35.30700 50.23600 28.84300
C  34.92600 51.67000 28.22200
C  34.76800 51.39200 26.77600
C  33.63600 52.42100 28.85500
C  36.62800 50.36600 29.63700
C  36.44100 49.97900 31.10500
H  35.19900 50.58900 31.83000
N  34.99000 51.42500 23.63200
C  34.52800 52.42200 24.43500
C  34.17600 53.50800 23.54000
C  34.23400 53.01500 22.19600
C  34.80300 51.71600 22.30000
C  33.65300 54.89600 24.05000
C  33.73500 53.66000 20.93500
O  34.14400 53.36800 19.83800
C  32.89900 54.83600 20.99600
N  35.55000 48.67700 22.21600
C  35.58200 49.56300 21.17500
C  35.86700 48.77500 19.87100
C  36.24000 47.33800 20.42300
C  36.06200 47.47500 21.87200
C  34.70200 48.68500 18.98500
C  37.61900 46.86800 20.02900
C  38.84100 47.28600 20.99400
N  35.91600 47.61400 25.01000
C  36.26800 46.46800 24.26100
C  36.61700 45.42900 25.24100
C  36.29600 45.99000 26.46700
C  35.88600 47.31400 26.28800
C  37.16000 44.14800 24.82600
C  36.24400 45.76800 27.89400
O  36.61500 44.71900 28.47500
C  35.72000 47.04900 28.55200
C  34.51700 46.84600 29.39900
O  33.38800 46.69100 28.94900
O  34.82400 46.87400 30.74400
C  33.82300 46.52600 31.66500
H  34.06100 53.25700 26.40000
H  35.26800 51.27400 20.28000
H  36.90800 45.64900 22.36700
H  34.48500 49.79900 29.40800
H  35.73400 52.39400 28.31600
H  33.44300 52.16500 29.89700
H  32.75000 52.35600 28.22400
H  33.96200 53.44400 29.04600
H  37.02000 51.38100 29.69600
H  37.37400 49.69700 29.20900
H  37.31500 50.42900 31.57600
H  36.46000 48.89300 31.19300
H  32.58600 54.70700 24.16800
H  33.72000 55.71800 23.33700
H  34.05500 55.10900 25.04100
H  32.17900 54.66900 21.79800
H  32.32200 55.00200 20.08600
H  33.48000 55.75700 20.99900
H  36.67300 49.23100 19.29600
H  35.46300 46.69400 20.01000
H  34.17600 49.61300 18.76200
H  33.87800 48.04700 19.30400
H  34.92600 48.29400 17.99200
H  37.79400 46.98600 18.96000
H  37.56300 45.78700 20.16200
H  38.97900 46.35600 21.54500
H  38.66900 48.12100 21.67300
H  39.74900 47.40700 20.40300
H  37.95900 43.93100 25.53500
H  37.57500 44.16900 23.81900
H  36.26200 43.53100 24.84000
H  36.55700 47.27000 29.21500
H  32.92400 46.01400 31.32300
H  33.61900 47.44100 32.22100
H  34.33800 45.81200 32.30800
Mg -1.01400 34.93200 26.77000
C  -2.53900 32.88700 29.32900
C  -0.09500 37.01700 29.19300
C  -0.16700 37.01900 24.35700
C  -2.52300 32.89700 24.42900
N  -1.36000 34.91200 29.04700
C  -1.79700 33.92200 29.84600
C  -1.41400 34.14800 31.37100
C  -0.63700 35.59000 31.25000
C  -0.69200 35.89000 29.75300
C  -1.24900 36.76900 32.11100
C  -0.65800 33.00200 32.08000
C  -1.43200 32.30300 33.21600
H  -0.74800 31.84400 34.53800
N  -0.17700 36.67700 26.80500
C  0.16600 37.43400 27.89600
C  0.87100 38.63200 27.43800
C  0.82700 38.69900 26.06000
C  0.06400 37.45500 25.65500
C  1.28600 39.70400 28.43700
C  1.34400 39.76400 25.15300
O  1.21200 39.75500 23.93500
C  2.23500 40.83900 25.72200
N  -1.45500 35.00500 24.71200
C  -0.92500 35.97000 23.93800
C  -1.04400 35.60500 22.43600
C  -1.58400 34.14700 22.46900
C  -1.91900 34.02800 23.98000
C  -1.86300 36.61200 21.61700
C  -0.57800 33.05000 22.04400
C  0.86400 32.99900 22.61300
N  -2.22600 33.20300 26.76900
C  -2.77400 32.51500 25.75000
C  -3.60400 31.48100 26.26900
C  -3.57800 31.62800 27.67200
C  -2.66500 32.64200 27.93100
C  -4.34300 30.55600 25.43500
C  -4.14500 31.05700 28.83300
O  -4.97300 30.19000 29.07600
C  -3.47700 31.84300 30.01300
C  -4.45000 32.57600 30.83500
O  -4.79100 33.79300 30.71700
O  -4.74300 31.80900 32.01000
C  -5.44400 32.68200 32.98400
H  0.23600 37.80500 29.87300
H  0.31000 37.58200 23.55200
H  -2.81000 32.20300 23.63500
H  -2.42200 34.32300 31.74500
H  0.39700 35.45800 31.57000
H  -0.54100 37.57900 32.28800
H  -1.64300 36.41200 33.06300
H  -2.13800 37.13400 31.59800
H  0.29100 33.39500 32.44400
H  -0.38700 32.31800 31.27500
H  -1.74700 31.33500 32.82700
H  -2.32700 32.91200 33.34400
H  2.32900 39.44200 28.61700
H  0.64500 39.65600 29.31800
H  1.22700 40.71100 28.02600
H  2.93900 40.34700 26.39300
H  1.61100 41.53000 26.28900
H  2.84900 41.31800 24.96000
H  -0.03600 35.68100 22.02800
H  -2.50300 34.04200 21.89200
H  -2.57500 37.25400 22.13600
H  -2.52600 36.05900 20.95200
H  -1.29400 37.26000 20.95000
H  -0.62100 33.31700 20.98900
H  -1.00400 32.05200 22.14800
H  1.03500 32.02600 23.07400
H  1.10000 33.86800 23.22700
H  1.54200 33.13700 21.77000
H  -3.69800 29.77900 25.02600
H  -4.89700 31.11800 24.68300
H  -5.09600 30.13000 26.09800
H  -3.00000 31.08200 30.63100
H  -6.41400 33.09800 32.71000
H  -4.77600 33.38500 33.48200
H  -5.79200 31.96200 33.72400

