158

Mg -2.42900 17.35700 27.07700
C  -3.11600 15.24000 29.72900
C  -3.09200 20.12800 29.22000
C  -2.19000 19.43400 24.47300
C  -2.50900 14.64900 24.81500
N  -2.93100 17.55500 29.20800
C  -3.03400 16.55200 30.15000
C  -3.36000 17.06300 31.56100
C  -3.36600 18.58700 31.32100
C  -3.09400 18.82500 29.83600
C  -4.76700 19.22500 31.79800
C  -2.51100 16.59500 32.72200
C  -2.29100 17.50800 33.94800
H  -1.66700 16.83600 35.19300
N  -2.53800 19.47500 26.89000
C  -2.84400 20.44200 27.88200
C  -2.66100 21.73200 27.32300
C  -2.29900 21.56500 25.94300
C  -2.35300 20.09700 25.69700
C  -3.00000 23.05300 28.04200
C  -2.09100 22.66000 24.85700
O  -1.81800 22.39900 23.71200
C  -2.09900 24.02400 25.24900
N  -2.59700 17.06000 24.90000
C  -2.27100 18.11800 24.11100
C  -1.98600 17.61000 22.62400
C  -1.97800 16.09400 22.84900
C  -2.31500 15.90800 24.27800
C  -3.05000 18.07500 21.64500
C  -0.73300 15.34000 22.40400
C  0.48600 15.30800 23.30900
N  -2.72500 15.32500 27.18100
C  -2.67700 14.32500 26.19700
C  -2.81400 13.04400 26.84300
C  -3.02000 13.41800 28.19700
C  -2.96200 14.73800 28.34200
C  -2.64600 11.68800 26.38100
C  -3.22000 12.77600 29.39600
O  -3.28100 11.58900 29.60700
C  -3.34300 13.92900 30.48300
C  -2.38600 13.68700 31.58700
O  -1.21300 14.03100 31.49100
O  -3.10300 13.15500 32.58000
C  -2.32200 12.87400 33.84200
H  -3.12800 20.99100 29.88900
H  -1.94000 20.00200 23.57400
H  -2.48300 13.81800 24.10700
H  -4.33000 16.70600 31.90500
H  -2.50700 18.99100 31.85800
H  -4.86100 19.14800 32.88200
H  -5.64900 18.76800 31.35100
H  -4.82100 20.26500 31.47800
H  -1.56400 16.21200 32.34100
H  -3.06200 15.76700 33.16600
H  -3.26000 17.86800 34.29400
H  -1.70200 18.40300 33.74900
H  -3.57800 22.90500 28.95400
H  -3.59400 23.61700 27.32300
H  -2.11200 23.66100 28.21500
H  -1.47800 24.14800 26.13600
H  -3.10900 24.38400 25.44000
H  -1.63200 24.63300 24.47500
H  -1.00300 17.95800 22.30600
H  -2.79300 15.56000 22.36000
H  -3.71100 17.21700 21.52100
H  -2.67000 18.56700 20.75000
H  -3.55000 18.88900 22.16900
H  -0.35300 15.80900 21.49600
H  -0.98400 14.30600 22.17000
H  0.37100 15.66800 24.33100
H  1.33300 15.82000 22.85200
H  0.82200 14.30200 23.56100
H  -1.88200 11.09200 26.88000
H  -2.36900 11.74400 25.32800
H  -3.63700 11.24600 26.48200
H  -4.35100 14.05300 30.87900
H  -2.22500 13.89700 34.20600
H  -1.32300 12.52700 33.57400
H  -2.75500 12.12100 34.50000
Mg -11.33700 38.29500 41.98300
C  -8.88400 35.70400 41.61000
C  -9.29600 40.15000 39.88200
C  -13.89500 40.44100 41.58400
C  -13.41400 35.90900 43.35400
N  -9.30700 37.91200 40.77000
C  -8.44900 36.90900 41.00300
C  -7.12200 37.17100 40.30200
C  -7.23000 38.64400 39.78900
C  -8.69600 38.96000 40.18700
C  -6.31400 39.67700 40.38200
C  -6.76400 36.15100 39.12400
C  -5.29500 35.80800 38.82600
H  -4.50200 36.28200 37.57500
N  -11.52700 40.08900 41.01100
C  -10.56900 40.71600 40.22600
C  -11.06400 42.01700 39.99100
C  -12.35600 42.17300 40.51400
C  -12.67400 40.85200 41.04900
C  -10.31600 43.10900 39.21300
C  -13.24500 43.48500 40.49700
O  -12.81600 44.52400 40.06000
C  -14.66800 43.60600 41.08300
N  -13.37500 38.19300 42.25600
C  -14.25400 39.21400 42.16600
C  -15.65500 38.86000 42.61600
C  -15.55700 37.31200 42.89700
C  -13.99500 37.10900 42.84400
C  -16.16200 39.65200 43.88100
C  -16.34900 36.38300 42.00500
C  -17.74900 35.96100 42.53500
N  -11.20600 36.23500 42.51200
C  -12.10200 35.46600 43.14800
C  -11.50300 34.13500 43.38300
C  -10.21300 34.21200 42.77900
C  -10.09100 35.52100 42.23700
C  -12.18300 33.10400 44.18800
C  -8.99200 33.47200 42.59300
O  -8.64300 32.32600 42.97900
C  -8.09800 34.42100 41.75300
C  -6.77400 34.56500 42.36900
O  -5.95400 33.63000 42.36000
O  -6.66200 35.62400 43.15000
C  -5.45700 35.71600 43.97300
H  -8.80000 40.87800 39.23600
H  -14.76600 41.09700 41.54100
H  -14.14700 35.26400 43.84400
H  -6.44400 37.16600 41.15600
H  -7.13500 38.78700 38.71300
H  -5.56900 39.81700 39.59800
H  -5.76800 39.29400 41.24400
H  -6.72700 40.68400 40.42900
H  -7.01400 36.66400 38.19500
H  -7.50800 35.35600 39.08100
H  -5.23300 34.72500 38.93300
H  -4.81200 36.23200 39.70600
H  -9.55400 42.72000 38.53800
H  -9.78400 43.86300 39.79300
H  -11.01800 43.66000 38.58600
H  -14.69800 43.08200 42.03800
H  -15.16500 42.94400 40.37400
H  -15.11400 44.59300 40.95600
H  -16.37100 39.10600 41.83200
H  -15.93400 37.01200 43.87500
H  -16.84900 40.47900 43.70200
H  -15.26700 40.00500 44.39300
H  -16.58000 38.97900 44.62900
H  -15.71400 35.55300 41.69600
H  -16.59600 36.92000 41.08900
H  -18.33900 36.87200 42.43200
H  -17.84200 35.58700 43.55400
H  -18.04800 35.10200 41.93400
H  -12.32500 32.17400 43.63800
H  -13.12400 33.48300 44.58800
H  -11.71200 32.83700 45.13300
H  -7.95200 33.98500 40.76500
H  -4.71200 35.08100 43.49400
H  -5.67900 35.30600 44.95800
H  -5.25100 36.78100 44.07300

