158

Mg 35.09800 2.85500 29.51100
C  33.00100 3.92600 32.12900
C  37.74300 3.04400 31.69500
C  37.32000 2.59400 26.92600
C  32.48600 3.39700 27.23000
N  35.23900 3.42700 31.70100
C  34.26400 3.72300 32.58800
C  34.81300 3.78500 34.02500
C  36.41700 3.71300 33.80300
C  36.47900 3.31300 32.34900
C  37.15300 5.06400 34.10400
C  34.32000 2.52000 34.86900
C  34.39400 2.54600 36.45000
H  35.15900 3.64400 37.04900
N  37.21400 2.58500 29.39400
C  38.04400 2.61700 30.39500
C  39.34200 2.18200 29.95600
C  39.34900 2.11600 28.54400
C  37.93900 2.39600 28.19200
C  40.52400 2.19100 30.93400
C  40.45500 1.86300 27.54700
O  40.15000 1.71900 26.39500
C  41.98700 1.63100 27.97800
N  34.91500 3.09500 27.37800
C  35.98900 2.93800 26.46400
C  35.46000 2.74200 25.04700
C  33.95700 3.00900 25.17900
C  33.73500 3.15300 26.67000
C  36.12000 3.45500 23.79100
C  32.94900 1.98300 24.51500
C  33.05100 0.53900 25.24600
N  33.18400 3.42400 29.60400
C  32.24300 3.62300 28.56500
C  31.00600 4.05400 29.16600
C  31.26100 4.06600 30.57600
C  32.61200 3.80000 30.79000
C  29.74200 4.37500 28.45700
C  30.59100 4.26800 31.86500
O  29.46600 4.44400 32.17300
C  31.73500 4.19200 32.88900
C  31.76000 5.45800 33.70000
O  32.27100 6.47500 33.32000
O  31.17000 5.26500 34.92700
C  31.20500 6.38400 35.93200
H  38.59100 2.97900 32.38000
H  37.96400 2.35100 26.07800
H  31.62500 3.36400 26.55900
H  34.48900 4.68200 34.55200
H  36.86700 2.88500 34.35000
H  37.76300 5.38000 33.25800
H  37.87900 4.93600 34.90600
H  36.50700 5.89600 34.38300
H  34.88200 1.65800 34.50700
H  33.28000 2.33400 34.60100
H  34.71200 1.57000 36.81700
H  33.39100 2.70800 36.84400
H  40.89700 3.16900 31.23700
H  41.33200 1.59000 30.51700
H  40.32600 1.54200 31.78700
H  42.58300 1.29000 27.13200
H  42.09200 0.88100 28.76200
H  42.40200 2.57700 28.32800
H  35.47500 1.65800 24.93400
H  33.71300 3.99000 24.76900
H  36.19700 2.73300 22.97800
H  37.15400 3.72900 24.00100
H  35.46400 4.31100 23.63300
H  33.19600 1.76400 23.47600
H  31.92000 2.32400 24.62400
H  33.38600 -0.15100 24.47200
H  32.11900 0.23800 25.72400
H  33.89300 0.49200 25.93600
H  29.33500 3.50300 27.94500
H  29.97100 5.12800 27.70300
H  28.96800 4.78500 29.10500
H  31.44900 3.44200 33.62600
H  31.22700 6.04400 36.96800
H  30.35800 7.04900 35.76500
H  32.07200 7.03700 35.84300
Mg -5.88500 24.31200 25.76400
C  -4.78500 25.95700 28.60300
C  -7.48900 22.06800 27.70100
C  -6.41400 22.45300 22.96200
C  -3.62400 26.37400 23.80600
N  -6.19800 24.15200 27.87000
C  -5.67300 24.96000 28.84000
C  -6.01300 24.43200 30.27400
C  -6.85000 23.09600 29.95200
C  -6.83300 23.07200 28.39700
C  -6.10700 21.83100 30.59400
C  -6.85600 25.41800 31.14000
C  -6.84700 25.26000 32.71300
H  -6.19400 23.94900 33.33700
N  -6.97500 22.55100 25.34900
C  -7.57100 21.80500 26.31800
C  -8.33300 20.68300 25.73300
C  -7.98400 20.74800 24.37100
C  -7.04600 21.92400 24.11800
C  -9.31800 19.87600 26.48700
C  -8.41400 19.89100 23.24000
O  -8.10700 20.05600 22.02700
C  -9.40900 18.72200 23.55300
N  -4.86600 24.15100 23.74900
C  -5.40500 23.35000 22.81300
C  -4.69500 23.62200 21.48600
C  -3.88300 24.93300 21.71500
C  -4.14900 25.25300 23.17300
C  -3.85500 22.46400 20.99400
C  -4.17100 26.09400 20.77600
C  -3.13500 26.50400 19.75800
N  -4.56600 25.83500 26.11800
C  -3.77700 26.64200 25.20700
C  -3.16600 27.72000 25.92900
C  -3.49600 27.50300 27.31700
C  -4.34700 26.38000 27.34300
C  -2.29700 28.67300 25.25200
C  -3.23600 27.88900 28.67200
O  -2.54500 28.75900 29.20000
C  -4.06900 26.91600 29.58300
C  -3.18200 26.19100 30.53100
O  -2.24100 25.43600 30.26200
O  -3.45700 26.53000 31.84400
C  -2.58300 25.98600 32.94500
H  -7.94500 21.31300 28.34500
H  -6.57000 21.89700 22.03600
H  -3.05000 27.10400 23.23100
H  -5.10800 24.22400 30.84500
H  -7.89800 23.15500 30.24700
H  -5.19700 22.16400 31.09200
H  -5.84400 21.11800 29.81300
H  -6.70400 21.19500 31.24800
H  -7.89300 25.39900 30.80500
H  -6.54000 26.41700 30.84000
H  -7.84400 25.31100 33.15000
H  -6.14000 25.99900 33.09000
H  -8.98500 18.84400 26.37600
H  -10.34900 19.89800 26.13400
H  -9.22700 20.16900 27.53300
H  -9.54100 18.05800 22.69900
H  -10.41600 19.04300 23.81800
H  -9.03800 18.05800 24.33400
H  -5.44400 23.74200 20.70400
H  -2.82700 24.66500 21.76100
H  -2.79900 22.72300 20.92400
H  -4.18200 22.19200 19.99000
H  -3.95700 21.70100 21.76700
H  -4.67600 26.91000 21.29300
H  -4.86600 25.56800 20.12200
H  -2.13500 26.07500 19.81700
H  -2.89200 27.56500 19.81100
H  -3.52100 26.25600 18.76900
H  -2.86900 29.45800 24.75600
H  -1.49700 28.29000 24.61900
H  -1.76400 29.23700 26.01700
H  -4.70500 27.56300 30.18800
H  -1.69900 25.46200 32.58100
H  -3.07800 25.46600 33.76500
H  -2.13800 26.90200 33.33500

