158

Mg 1.00800 8.50100 26.40700
C  1.82900 10.37300 29.24400
C  1.40300 5.60400 28.11300
C  0.78000 6.76400 23.35400
C  1.17000 11.50400 24.50500
N  1.53500 8.10300 28.51600
C  1.83800 8.96900 29.52200
C  1.95900 8.27100 30.83400
C  2.06400 6.74500 30.39300
C  1.61200 6.79400 28.91900
C  3.41600 6.02000 30.76700
C  0.80600 8.48100 31.83900
C  1.22200 8.95100 33.22200
H  2.28300 8.15400 34.10200
N  0.98800 6.48000 25.82900
C  1.09500 5.40300 26.71200
C  0.84700 4.13900 26.09300
C  0.67800 4.47300 24.69400
C  0.78500 5.96100 24.52700
C  0.95900 2.72800 26.84100
C  0.40200 3.50500 23.56100
O  0.31700 3.96000 22.38600
C  0.13200 2.00900 23.80000
N  0.99900 9.04200 24.25000
C  0.98700 8.15600 23.25200
C  1.00900 8.86400 21.88400
C  0.73400 10.28500 22.22400
C  0.99300 10.26600 23.72800
C  2.29800 8.57800 20.97900
C  -0.60500 10.83500 21.71000
C  -1.72700 10.85200 22.74000
N  1.32800 10.54900 26.76500
C  1.32900 11.65100 25.91200
C  1.58900 12.83800 26.70200
C  1.74100 12.35900 28.02200
C  1.58600 10.98600 28.02300
C  1.66300 14.26200 26.17000
C  2.02800 12.81100 29.32600
O  2.27200 13.95600 29.75600
C  1.91300 11.53100 30.22300
C  3.17200 11.57400 30.99600
O  4.15700 10.88000 30.82100
O  2.89700 12.26300 32.15300
C  3.69400 11.89900 33.32700
H  1.39600 4.74000 28.78100
H  0.72600 6.39600 22.32800
H  1.21900 12.45600 23.97200
H  2.92100 8.63800 31.19300
H  1.30700 6.18200 30.93800
H  3.83000 5.39700 29.97400
H  3.19600 5.33500 31.58600
H  4.08300 6.80800 31.11600
H  0.22500 7.56900 31.97500
H  0.19200 9.34000 31.57000
H  0.36700 9.17600 33.86000
H  1.72100 9.90700 33.06400
H  0.10100 2.06200 26.74900
H  1.21800 2.92800 27.88000
H  1.72800 2.07700 26.42500
H  -0.50800 1.72800 24.63600
H  1.10900 1.53700 23.90700
H  -0.16400 1.67600 22.80600
H  0.18100 8.49700 21.27800
H  1.42800 10.98300 21.75600
H  2.85800 9.49600 20.80100
H  2.05100 8.15800 20.00400
H  2.96300 7.84900 21.44100
H  -0.90400 10.17300 20.89700
H  -0.51400 11.86100 21.35300
H  -2.48900 10.12700 22.45600
H  -2.14900 11.85600 22.78400
H  -1.50700 10.58300 23.77300
H  1.32600 14.34200 25.13700
H  2.67500 14.64700 26.28900
H  1.07200 14.88200 26.84400
H  1.07200 11.73600 30.88500
H  4.47400 11.20900 33.00700
H  3.03900 11.55600 34.12800
H  4.16900 12.84300 33.59400
Mg 0.07400 43.46200 26.34600
C  1.87900 43.41800 29.23800
C  -2.74500 42.86600 28.16400
C  -1.44600 42.65400 23.44500
C  3.04600 43.91400 24.47600
N  -0.33700 43.06100 28.48800
C  0.50800 43.22100 29.47900
C  -0.19600 43.03600 30.80200
C  -1.62700 42.50600 30.44600
C  -1.59700 42.91800 28.97300
C  -2.01300 41.06000 30.73300
C  -0.27100 44.41600 31.50900
C  0.33100 44.52800 32.88400
H  -0.02100 43.43400 33.97300
N  -1.80600 42.92300 25.88400
C  -2.87700 42.81600 26.75500
C  -4.07300 42.51200 25.98600
C  -3.76500 42.50800 24.55800
C  -2.27600 42.66900 24.57400
C  -5.42900 42.46300 26.75600
C  -4.60400 42.33500 23.33700
O  -4.15100 42.28400 22.20100
C  -6.07500 42.49700 23.59300
N  0.68500 43.37700 24.16900
C  -0.11200 42.96900 23.22500
C  0.57800 42.86600 21.93900
C  2.01000 43.52600 22.20800
C  1.95700 43.60700 23.76600
C  0.68800 41.40700 21.38900
C  2.08300 44.96100 21.52100
C  3.47500 45.30300 21.06600
N  2.05500 43.62500 26.72300
C  3.19800 43.82900 25.92400
C  4.36500 43.99500 26.73600
C  3.93600 43.83500 28.03300
C  2.50400 43.64300 27.97200
C  5.78100 44.20800 26.25200
C  4.28300 43.77400 29.40300
O  5.45000 43.88200 29.86900
C  2.95400 43.58400 30.26800
C  3.31300 42.45100 31.07300
O  3.42300 41.32200 30.68400
O  3.65900 42.89100 32.34100
C  3.98900 41.86100 33.30100
H  -3.58900 42.77400 28.85000
H  -1.82700 42.43000 22.44600
H  3.93300 43.97600 23.84200
H  0.32300 42.33400 31.45500
H  -2.37500 43.05800 31.01400
H  -1.16700 40.56800 31.21400
H  -2.29400 40.54800 29.81300
H  -2.77100 41.13900 31.51300
H  -1.29600 44.77300 31.60900
H  0.30100 45.05900 30.83900
H  -0.07800 45.44000 33.31900
H  1.41200 44.63500 32.79400
H  -6.03800 43.32000 26.46900
H  -5.35500 42.64000 27.82900
H  -5.90700 41.50000 26.57800
H  -6.63200 42.45400 22.65700
H  -6.11300 43.44400 24.13100
H  -6.45000 41.79100 24.33400
H  0.04100 43.47200 21.21000
H  2.81700 42.84900 21.93100
H  0.80300 40.66700 22.18100
H  1.67700 41.37900 20.93100
H  -0.23100 41.22800 20.83200
H  1.76500 45.69700 22.26000
H  1.44800 45.07800 20.64300
H  3.60600 44.74600 20.13900
H  4.23600 44.86300 21.71100
H  3.76200 46.35400 21.02600
H  6.36500 43.29100 26.17200
H  6.29200 44.80400 27.00900
H  5.85900 44.71300 25.28900
H  2.75500 44.47500 30.86400
H  4.63700 41.11400 32.84100
H  3.06400 41.37700 33.61300
H  4.39700 42.26700 34.22600

