158

Mg 34.72000 2.79300 29.25000
C  32.46300 3.60700 31.83100
C  37.23600 2.80300 31.66400
C  36.94800 2.40200 26.74200
C  32.04000 3.08300 26.91800
N  34.84400 3.15100 31.48300
C  33.78900 3.50000 32.29500
C  34.16500 3.43200 33.77700
C  35.70400 3.47000 33.68100
C  35.97400 3.10900 32.18700
C  36.33800 4.78300 34.09200
C  33.47100 2.28700 34.62800
C  32.69000 2.69400 35.83200
H  33.34100 3.75000 36.73600
N  36.82500 2.66600 29.21100
C  37.65300 2.60000 30.31900
C  39.08700 2.34100 29.81700
C  38.97700 2.19800 28.38300
C  37.52500 2.44700 28.05300
C  40.32100 2.29700 30.80200
C  40.06500 1.77700 27.36000
O  39.94000 1.82100 26.15700
C  41.44000 1.28000 27.77200
N  34.57000 2.76600 27.16500
C  35.59600 2.52200 26.32900
C  35.17300 2.46700 24.82200
C  33.62600 2.41800 24.99100
C  33.31300 2.84800 26.43400
C  35.67700 3.65500 24.07400
C  32.99000 1.02200 24.73800
C  31.59000 1.10100 24.09000
N  32.67500 3.06600 29.36000
C  31.70800 3.31500 28.29900
C  30.50400 3.61300 28.96200
C  30.79600 3.78500 30.28100
C  32.12700 3.41900 30.52400
C  29.29000 4.01500 28.29800
C  30.15400 4.20100 31.51800
O  29.03800 4.69800 31.70100
C  31.17800 4.09600 32.62100
C  31.30100 5.40100 33.28400
O  32.03100 6.34000 32.93000
O  30.47700 5.49000 34.35200
C  30.50800 6.79400 35.01700
H  37.95900 2.63800 32.46600
H  37.73200 2.33200 25.98500
H  31.17100 3.12100 26.25800
H  33.82400 4.42100 34.08300
H  36.06700 2.58100 34.19700
H  37.20500 4.62600 34.73300
H  35.53400 5.32800 34.58700
H  36.59100 5.29200 33.16200
H  34.11400 1.44200 34.87400
H  32.74100 1.81000 33.97400
H  32.34200 1.81900 36.38200
H  31.70000 3.01400 35.50700
H  40.00600 2.99900 31.57300
H  41.22000 2.78200 30.42100
H  40.52800 1.32700 31.25400
H  41.32900 0.61100 28.62600
H  42.10100 2.08700 28.08800
H  41.87200 0.74700 26.92500
H  35.40700 1.51000 24.35600
H  33.16000 3.18800 24.37600
H  34.94100 4.45700 24.14100
H  35.86200 3.42000 23.02600
H  36.58800 3.98200 24.57500
H  32.86400 0.60700 25.73800
H  33.68200 0.41100 24.15900
H  31.53800 0.72500 23.06800
H  31.16400 2.10400 24.12200
H  30.94400 0.35300 24.55200
H  29.42700 4.44000 27.30300
H  28.68600 4.69800 28.89500
H  28.71100 3.10500 28.14100
H  30.83000 3.33000 33.31300
H  29.56300 6.86200 35.55700
H  30.81400 7.62800 34.38500
H  31.33600 6.70700 35.72000
Mg -12.10800 37.47900 41.94600
C  -9.65100 35.08900 41.62000
C  -9.56800 39.85400 40.63400
C  -14.50200 39.83600 41.63500
C  -14.39600 35.17500 42.92200
N  -9.97200 37.39900 40.98900
C  -9.18100 36.35100 41.15200
C  -7.83100 36.61500 40.57000
C  -7.72300 38.13200 40.54000
C  -9.23900 38.51400 40.64200
C  -6.96000 38.80100 41.66800
C  -7.72700 36.00400 39.12200
C  -6.65000 35.02900 38.73600
H  -5.67900 35.43200 37.64400
N  -12.07300 39.52500 41.13200
C  -10.94700 40.34000 40.81100
C  -11.35400 41.73700 40.73700
C  -12.76700 41.71100 40.82300
C  -13.18200 40.29800 41.25000
C  -10.52400 42.96700 40.43400
C  -13.64300 42.98100 40.70300
O  -13.15300 44.11000 40.55000
C  -15.14500 42.84300 40.66700
N  -14.26800 37.40400 42.01100
C  -14.98200 38.52300 41.98600
C  -16.40900 38.28000 42.52400
C  -16.33900 36.82300 43.07000
C  -14.92000 36.41200 42.64200
C  -16.88600 39.40300 43.55700
C  -17.41400 35.81600 42.58600
C  -18.40800 35.40600 43.78600
N  -12.04900 35.50000 42.12900
C  -13.05200 34.67600 42.69400
C  -12.46400 33.39600 42.95100
C  -11.14300 33.50100 42.48000
C  -10.91900 34.76500 42.07000
C  -13.23800 32.22000 43.60800
C  -9.89200 32.80100 42.33200
O  -9.62900 31.68200 42.66900
C  -8.77900 33.87300 41.92500
C  -7.81500 34.10200 43.05800
O  -6.69900 33.55500 43.11600
O  -8.32900 34.87700 44.15500
C  -7.53400 34.83600 45.39600
H  -8.76600 40.56800 40.43300
H  -15.33400 40.54300 41.65500
H  -15.06000 34.46000 43.41100
H  -7.02300 36.14200 41.12800
H  -7.44800 38.60200 39.59600
H  -7.66200 39.29700 42.33800
H  -6.25700 39.53400 41.27500
H  -6.42000 38.02400 42.20900
H  -7.68900 36.76900 38.34600
H  -8.64300 35.43200 38.97300
H  -7.14000 34.11000 38.41500
H  -6.09100 34.85500 39.65500
H  -10.84900 43.74000 41.13100
H  -10.59600 43.22900 39.37900
H  -9.47700 42.69500 40.56300
H  -15.69500 43.63700 40.16200
H  -15.28800 42.69800 41.73800
H  -15.51800 41.93300 40.19600
H  -17.00400 38.27500 41.61100
H  -16.44900 36.93100 44.14900
H  -15.98400 39.93500 43.85600
H  -17.42400 39.06800 44.44400
H  -17.56300 40.07500 43.02900
H  -16.96100 34.92300 42.15600
H  -17.97700 36.31200 41.79600
H  -18.17100 34.45400 44.26000
H  -19.39000 35.23200 43.34500
H  -18.44900 36.15400 44.57700
H  -13.77400 32.56100 44.49300
H  -12.58900 31.54600 44.16600
H  -13.95500 31.80400 42.89900
H  -8.10800 33.62800 41.10200
H  -7.72100 35.77500 45.91600
H  -6.44800 34.76200 45.33200
H  -7.91300 34.04400 46.04300

