158

Mg 8.65900 3.01300 27.92500
C  10.08700 1.45600 30.85700
C  6.69800 4.85200 30.01900
C  7.02900 4.13000 25.14600
C  10.32300 0.49300 26.01900
N  8.40200 3.08600 30.15700
C  9.15700 2.51400 31.15100
C  8.78700 3.02400 32.61800
C  7.74900 4.14800 32.25100
C  7.59000 4.00400 30.71800
C  6.35400 4.06100 33.01400
C  10.08700 3.61800 33.29800
C  10.64100 2.99400 34.54600
H  10.98000 4.00000 35.65100
N  7.12700 4.37900 27.62600
C  6.40300 4.95300 28.63400
C  5.43300 5.79700 27.96300
C  5.71200 5.80200 26.56300
C  6.66600 4.70800 26.37600
C  4.39800 6.66700 28.72200
C  5.10800 6.75200 25.49400
O  5.47200 6.54000 24.37100
C  4.10500 7.83600 25.78400
N  8.70300 2.45500 25.96000
C  7.98100 3.07800 24.96000
C  8.40800 2.60900 23.58500
C  9.66400 1.70400 23.91700
C  9.56700 1.53300 25.38400
C  7.37400 1.82400 22.73700
C  11.10000 2.17300 23.35300
C  12.08000 3.03200 24.20200
N  10.05000 1.33800 28.29200
C  10.51000 0.40400 27.42300
C  11.20500 -0.53200 28.15000
C  11.07200 -0.12600 29.51500
C  10.38100 1.01800 29.54100
C  11.87600 -1.73600 27.54400
C  11.43400 -0.55000 30.84200
O  12.09100 -1.50000 31.20100
C  10.74500 0.45700 31.81300
C  9.81100 -0.29100 32.77700
O  8.84600 -0.99400 32.43400
O  10.06400 -0.05200 34.06200
C  9.24500 -0.68300 35.11400
H  6.20400 5.55500 30.69300
H  6.47200 4.38000 24.24100
H  10.87600 -0.13700 25.32000
H  8.18000 2.25900 33.10100
H  8.10700 5.15700 32.45900
H  6.60100 3.84700 34.05400
H  5.71900 3.24400 32.67300
H  5.79300 4.98700 32.89000
H  9.78400 4.63700 33.53700
H  10.89000 3.72600 32.56900
H  11.45500 2.34000 34.23400
H  9.93600 2.26700 34.95000
H  4.26900 6.36900 29.76200
H  3.47800 6.58900 28.14200
H  4.65600 7.72600 28.68700
H  3.19700 7.25500 25.94700
H  4.03900 8.57100 24.98200
H  4.28300 8.33100 26.73900
H  8.67100 3.50600 23.02500
H  9.58900 0.67800 23.55700
H  6.53700 1.59700 23.39700
H  7.66700 0.83100 22.39600
H  7.02400 2.42100 21.89400
H  10.92600 2.63600 22.38200
H  11.78100 1.33400 23.20500
H  11.72400 3.03400 25.23300
H  12.24600 4.04800 23.84400
H  13.07100 2.58100 24.16600
H  11.58600 -2.04500 26.54000
H  11.49600 -2.47900 28.24500
H  12.96000 -1.78400 27.64700
H  11.53700 1.02700 32.30000
H  9.22500 -1.77100 35.04900
H  8.18800 -0.43500 35.02100
H  9.51600 -0.39300 36.12900
Mg 9.77500 48.40500 26.48000
C  7.93800 48.21500 29.43100
C  12.41500 49.63100 28.22200
C  11.22000 48.90000 23.55400
C  6.63000 47.59800 24.70800
N  10.10700 48.74400 28.57200
C  9.24100 48.56000 29.59700
C  9.81300 49.11100 30.94000
C  11.19300 49.60000 30.50700
C  11.26700 49.36700 28.96800
C  11.42200 51.09800 30.84000
C  9.79200 48.07500 32.15100
C  10.66600 48.31500 33.38300
H  10.23800 47.85400 34.77100
N  11.59200 49.17800 25.98500
C  12.61000 49.49400 26.83900
C  13.79800 49.70300 26.06900
C  13.46700 49.58700 24.72000
C  12.06100 49.27000 24.68300
C  15.14500 49.94800 26.63300
C  14.41700 49.48900 23.53300
O  13.99800 49.30900 22.39600
C  15.90000 49.49400 23.67300
N  8.97500 48.26900 24.43600
C  9.89200 48.47300 23.39100
C  9.32500 47.84600 22.14300
C  7.88300 47.52100 22.40400
C  7.77600 47.89900 23.92100
C  9.52400 48.61400 20.80500
C  7.53900 46.12000 21.99400
C  8.12600 45.00700 22.83000
N  7.66100 48.11300 26.88000
C  6.56500 47.79300 26.06700
C  5.39600 47.78100 26.87500
C  5.87000 47.76500 28.20200
C  7.23400 48.07500 28.17500
C  4.02500 47.55100 26.34100
C  5.46300 47.67600 29.61000
O  4.34000 47.55200 30.09200
C  6.77500 47.95000 30.45000
C  6.93000 46.74500 31.31200
O  7.52800 45.75100 30.91900
O  6.27200 46.81800 32.60500
C  6.53800 45.69700 33.52200
H  13.21300 49.95300 28.89500
H  11.82000 48.87000 22.64200
H  5.76200 47.21700 24.16600
H  9.08800 49.87100 31.23300
H  12.01600 49.07400 30.99000
H  12.07000 50.96200 31.70700
H  10.54400 51.66500 31.14800
H  11.95200 51.56300 30.00900
H  9.99500 47.09600 31.71500
H  8.74200 48.16700 32.43000
H  10.97800 49.34600 33.21700
H  11.57400 47.77000 33.12500
H  15.04800 50.12400 27.70400
H  15.70100 50.83900 26.34100
H  15.80000 49.08900 26.49100
H  16.34600 49.54700 22.67900
H  16.38700 48.62000 24.10700
H  16.12600 50.38300 24.26200
H  9.96100 46.96300 22.07900
H  7.26500 48.25900 21.89100
H  8.71300 49.11900 20.28000
H  10.06200 48.03100 20.05700
H  10.15200 49.46400 21.07100
H  7.83300 45.96300 20.95600
H  6.45600 46.01700 22.05500
H  8.54700 45.33000 23.78200
H  8.80200 44.39900 22.22900
H  7.33200 44.30500 23.08300
H  3.71300 48.19900 25.52200
H  3.34100 47.67600 27.18100
H  3.95800 46.56300 25.88700
H  6.71000 48.79300 31.13700
H  6.88100 46.06900 34.48800
H  7.14000 44.88100 33.12200
H  5.58400 45.21100 33.73000

