158

Mg 17.52800 -2.28100 27.26500
C  16.68700 -0.40500 30.07400
C  19.47900 -4.23900 29.32800
C  18.93600 -3.79600 24.41800
C  16.02200 0.08700 25.22100
N  18.17100 -2.09800 29.43100
C  17.53000 -1.46200 30.44300
C  17.97900 -1.90200 31.86000
C  18.98900 -3.06800 31.54000
C  18.86300 -3.18300 29.99100
C  20.39500 -2.65200 31.97200
C  16.79700 -2.32100 32.74200
C  16.91100 -1.73900 34.15300
H  18.23100 -1.41800 34.76900
N  18.82500 -3.86600 26.89700
C  19.54000 -4.54100 27.89300
C  20.35900 -5.64500 27.26700
C  20.07700 -5.62200 25.86700
C  19.25300 -4.39000 25.65400
C  21.14700 -6.63200 28.05300
C  20.53700 -6.53500 24.73000
O  20.10200 -6.35900 23.57000
C  21.37500 -7.78700 24.99100
N  17.38700 -1.99700 25.07800
C  18.15300 -2.64500 24.15600
C  17.98000 -1.95200 22.76300
C  17.02200 -0.77900 23.05900
C  16.79600 -0.92600 24.54800
C  19.38200 -1.61200 22.13600
C  15.72200 -0.67000 22.15600
C  14.56100 -1.51500 22.71700
N  16.39300 -0.65000 27.51100
C  15.78200 0.20600 26.61900
C  15.00000 1.21200 27.33800
C  15.39500 0.98300 28.66300
C  16.27500 -0.10400 28.73800
C  14.02900 2.15200 26.67100
C  15.09500 1.47900 30.03200
O  14.25500 2.30500 30.40700
C  15.97600 0.59800 30.98600
C  16.85000 1.42800 31.85500
O  17.88900 1.94900 31.52100
O  16.42100 1.51900 33.14400
C  17.12500 2.61700 33.91500
H  20.08600 -4.92100 29.92600
H  19.43000 -4.22800 23.54600
H  15.68700 0.86300 24.52900
H  18.38900 -0.99800 32.31100
H  18.85700 -4.00100 32.08800
H  21.00700 -2.80900 31.08400
H  20.66900 -3.26600 32.83000
H  20.50300 -1.60400 32.24900
H  16.65200 -3.39700 32.83500
H  15.94200 -1.83100 32.27500
H  16.31600 -2.39800 34.78500
H  16.28100 -0.85500 34.05400
H  20.50400 -7.46100 28.34700
H  21.52400 -6.14600 28.95300
H  21.97300 -7.11500 27.53100
H  20.87400 -8.48200 25.66500
H  22.32500 -7.44100 25.39600
H  21.66600 -8.21300 24.03100
H  17.45600 -2.71800 22.19000
H  17.45600 0.19900 22.85500
H  19.55200 -2.34900 21.35100
H  20.09100 -1.65500 22.96300
H  19.42000 -0.60900 21.71200
H  15.97700 -0.98200 21.14300
H  15.33300 0.34600 22.10700
H  13.86700 -0.79800 23.15700
H  14.84800 -2.29400 23.42300
H  14.00900 -1.92700 21.87300
H  13.56100 1.61500 25.84600
H  14.57900 3.00400 26.27100
H  13.26200 2.41200 27.40100
H  15.27800 0.10900 31.66500
H  16.64400 2.84000 34.86700
H  17.09000 3.52800 33.31700
H  18.17100 2.31700 33.97300
Mg -10.10100 40.63600 42.89700
C  -9.43800 37.28300 41.87500
C  -7.12900 41.60800 41.51600
C  -11.16800 43.93200 42.95300
C  -13.36300 39.56100 43.69000
N  -8.52700 39.54400 41.77800
C  -8.47200 38.19500 41.45400
C  -7.12000 37.80300 40.76000
C  -6.36200 39.26000 40.89800
C  -7.36900 40.18400 41.45900
C  -5.02300 39.08500 41.67700
C  -7.31000 37.40400 39.22800
C  -6.65700 36.06000 38.94900
H  -5.73500 36.08200 37.72000
N  -9.30400 42.54300 42.33600
C  -7.99000 42.68700 41.82100
C  -7.74200 44.12700 41.66500
C  -8.92100 44.85300 42.07400
C  -9.87400 43.79000 42.46900
C  -6.41300 44.71500 41.14100
C  -9.11500 46.33500 42.03400
O  -8.20200 47.11600 41.70900
C  -10.43600 47.02900 42.51000
N  -11.99400 41.57000 43.25300
C  -12.09900 42.95500 43.29300
C  -13.60700 43.31400 43.71100
C  -14.16600 41.99300 44.24100
C  -13.14000 40.98000 43.68300
C  -13.76300 44.55500 44.62000
C  -15.63500 41.76300 43.61700
C  -15.74500 41.32900 42.13200
N  -11.22600 38.78800 42.94700
C  -12.49800 38.54100 43.27600
C  -12.72600 37.10300 43.40600
C  -11.50700 36.57300 42.85600
C  -10.66900 37.68100 42.52300
C  -13.96500 36.51000 43.77900
C  -10.89400 35.29800 42.43500
O  -11.22300 34.12200 42.48700
C  -9.59000 35.82300 41.75300
C  -8.56800 35.03400 42.44400
O  -8.03400 35.25400 43.49100
O  -8.23500 33.95600 41.65300
C  -7.26000 33.05600 42.28200
H  -6.09000 41.82200 41.25500
H  -11.66500 44.90100 42.86800
H  -14.29600 39.27800 44.18200
H  -6.55400 37.04200 41.29600
H  -6.06400 39.58300 39.90000
H  -4.73700 38.05800 41.90300
H  -5.07000 39.58900 42.64200
H  -4.18400 39.59800 41.20700
H  -6.98600 38.07500 38.43200
H  -8.38800 37.25200 39.18300
H  -7.43300 35.35600 38.65000
H  -6.02900 35.77900 39.79400
H  -6.44800 45.49500 40.38100
H  -5.97300 43.81900 40.70400
H  -5.63900 44.85200 41.89600
H  -10.31400 48.09000 42.29100
H  -10.72700 46.79600 43.53400
H  -11.18700 46.58700 41.85400
H  -14.13800 43.52200 42.78200
H  -14.30600 41.97300 45.32200
H  -12.76200 44.91600 44.85400
H  -14.28500 44.36700 45.55900
H  -14.32800 45.33900 44.11600
H  -16.10700 42.73900 43.50100
H  -16.19000 41.22400 44.38500
H  -14.74200 41.28300 41.70700
H  -16.29000 42.05500 41.53000
H  -16.17700 40.33000 42.19200
H  -13.81400 35.55100 44.27500
H  -14.75200 36.40600 43.03200
H  -14.51800 37.14400 44.47200
H  -9.62900 35.61500 40.68400
H  -7.59500 32.61100 43.21900
H  -6.36200 33.61700 42.54000
H  -6.94500 32.32800 41.53400

