158

Mg -2.77800 17.38800 27.19100
C  -3.36600 15.06900 29.76000
C  -3.22300 19.91000 29.54300
C  -2.54400 19.50100 24.79200
C  -3.11700 14.72400 24.86200
N  -3.25000 17.45200 29.34200
C  -3.32800 16.40200 30.16600
C  -3.37300 16.88300 31.67500
C  -3.79000 18.40500 31.48500
C  -3.47400 18.61000 30.02900
C  -5.31900 18.77800 31.75200
C  -2.07000 16.60600 32.41300
C  -1.93600 17.35700 33.70200
H  -1.59700 16.66900 34.95100
N  -2.68000 19.45800 27.17600
C  -2.84300 20.34800 28.24100
C  -2.59600 21.68900 27.72700
C  -2.22400 21.55300 26.37700
C  -2.47800 20.14000 26.04700
C  -2.71400 22.89900 28.51400
C  -1.58200 22.55200 25.42800
O  -1.37000 22.33400 24.24600
C  -1.23200 23.82600 25.95100
N  -2.75700 17.16600 25.11400
C  -2.77100 18.20100 24.32800
C  -2.90700 17.85500 22.83100
C  -3.04600 16.28800 22.90800
C  -2.90500 16.04700 24.38700
C  -3.89700 18.66700 22.04100
C  -2.16300 15.42900 21.99700
C  -0.74900 14.99700 22.32900
N  -3.21400 15.31600 27.20700
C  -3.24000 14.33700 26.27000
C  -3.41300 12.99800 26.87200
C  -3.28600 13.29600 28.19600
C  -3.28100 14.66000 28.38300
C  -3.54500 11.72700 26.11400
C  -3.25900 12.64100 29.47000
O  -3.16500 11.49000 29.85200
C  -3.40600 13.80700 30.48000
C  -2.34400 13.64100 31.49400
O  -1.19800 13.70600 31.14600
O  -2.90600 13.17400 32.68300
C  -1.89600 12.59200 33.59500
H  -3.34800 20.75400 30.22500
H  -2.45300 20.13600 23.90800
H  -3.24000 13.93600 24.11700
H  -4.10700 16.27900 32.20800
H  -3.23500 19.09600 32.11900
H  -5.43600 18.65200 32.82800
H  -6.03700 18.17800 31.19200
H  -5.40700 19.84000 31.52300
H  -1.09700 16.81100 31.96600
H  -2.22500 15.57000 32.71200
H  -2.87300 17.88200 33.89000
H  -1.15500 18.11400 33.65100
H  -1.75300 23.36700 28.72700
H  -3.13800 22.69800 29.49700
H  -3.29600 23.72700 28.10900
H  -0.51500 23.71800 26.76500
H  -2.11500 24.37900 26.27100
H  -0.78200 24.51200 25.23400
H  -1.98700 18.17000 22.34000
H  -4.09700 16.09000 22.69600
H  -3.51200 19.45100 21.38800
H  -4.63800 19.06100 22.73600
H  -4.52300 18.04900 21.39700
H  -2.05100 16.05700 21.11300
H  -2.75600 14.58800 21.63900
H  -0.42900 15.36800 23.30200
H  0.03600 15.28900 21.63100
H  -0.69500 13.91600 22.46400
H  -4.13200 11.02600 26.70700
H  -2.55000 11.43900 25.77500
H  -4.18000 11.89700 25.24400
H  -4.37800 13.73800 30.96900
H  -2.28900 12.91400 34.55900
H  -0.87900 12.84900 33.29600
H  -1.92600 11.50200 33.60000
Mg -12.69000 15.41900 41.55300
C  -9.51400 13.76900 41.34100
C  -11.15800 18.15300 40.03700
C  -15.59700 16.81500 41.25000
C  -14.19600 12.24400 42.11300
N  -10.53300 15.82000 40.70800
C  -9.43200 15.07300 40.89800
C  -8.19000 15.95100 40.46000
C  -8.78200 17.31700 40.16200
C  -10.28200 17.09700 40.28200
C  -8.31300 18.41800 41.15000
C  -7.41200 15.41500 39.34200
C  -5.97600 15.94500 39.18500
H  -5.70600 16.80000 37.96000
N  -13.29100 17.30000 40.88400
C  -12.53600 18.27700 40.37400
C  -13.33200 19.49100 40.12400
C  -14.65700 19.13000 40.49600
C  -14.57400 17.71700 40.94200
C  -12.73100 20.82100 39.68000
C  -15.84400 19.95600 40.27800
O  -15.85400 21.08300 39.81300
C  -17.27600 19.44700 40.57400
N  -14.56200 14.57500 41.61000
C  -15.58800 15.48400 41.61700
C  -16.97100 14.74000 41.94300
C  -16.61800 13.22700 41.76200
C  -15.05900 13.29400 41.83100
C  -17.42600 15.06100 43.46600
C  -17.05800 12.71500 40.41400
C  -18.34400 11.90300 40.42600
N  -12.06100 13.39900 41.65100
C  -12.74400 12.25000 42.10700
C  -11.79100 11.24700 42.51300
C  -10.53600 11.82700 42.08900
C  -10.77300 13.11500 41.63400
C  -12.13900 9.93700 43.24700
C  -9.09800 11.54900 42.10700
O  -8.47600 10.58400 42.45800
C  -8.39700 12.85200 41.53000
C  -7.41800 13.40900 42.50800
O  -7.69200 13.74900 43.65300
O  -6.18900 13.38000 41.93500
C  -5.01800 13.54600 42.80400
H  -10.72600 19.03800 39.56500
H  -16.61100 17.21500 41.31900
H  -14.72200 11.33300 42.40700
H  -7.55300 15.96700 41.34500
H  -8.63500 17.69200 39.14900
H  -9.05200 18.62200 41.92400
H  -8.15100 19.30800 40.54100
H  -7.37200 18.23900 41.67000
H  -7.98900 15.55700 38.42800
H  -7.40200 14.33500 39.49200
H  -5.33800 15.09300 39.42000
H  -5.77400 16.58900 40.04000
H  -11.78400 21.10200 40.14000
H  -13.32600 21.70900 39.89500
H  -12.54000 20.71600 38.61200
H  -17.51300 18.63900 39.88300
H  -17.98300 20.22700 40.28900
H  -17.47000 19.19300 41.61600
H  -17.75400 15.16200 41.31300
H  -16.90400 12.70000 42.67200
H  -16.74700 15.86700 43.74100
H  -17.24700 14.21100 44.12400
H  -18.49100 15.22900 43.62700
H  -16.23700 12.13300 39.99500
H  -17.21100 13.63800 39.85500
H  -18.81700 11.76200 41.39800
H  -18.15200 10.95700 39.92000
H  -19.07300 12.49000 39.86900
H  -11.57100 9.04900 42.97000
H  -13.20100 9.76200 43.07700
H  -12.07700 9.99300 44.33400
H  -7.85100 12.53500 40.64100
H  -4.64500 14.56500 42.69900
H  -4.17300 12.90600 42.55000
H  -5.18500 13.39700 43.87100

