158

Mg 1.76200 -0.97400 44.13000
C  5.17000 -0.25700 43.45300
C  0.96500 1.82500 42.42000
C  -1.45000 -2.01700 43.88900
C  2.84900 -4.13500 45.16200
N  2.99900 0.52100 43.05400
C  4.34300 0.68900 42.89800
C  4.83200 1.84100 42.07700
C  3.40700 2.62100 41.95700
C  2.38100 1.55000 42.49600
C  3.36700 4.02000 42.73800
C  5.27400 1.37200 40.70600
C  6.45300 2.06400 40.08700
H  6.08900 2.85800 38.75200
N  -0.02300 -0.15100 43.34500
C  -0.18400 1.06100 42.71100
C  -1.55700 1.44100 42.61000
C  -2.29800 0.33400 43.09000
C  -1.28300 -0.70800 43.45300
C  -2.08000 2.69900 41.90800
C  -3.77100 0.34100 43.31200
O  -4.50200 1.34900 43.08200
C  -4.50200 -0.84700 43.81800
N  0.91600 -2.79800 44.36800
C  -0.46500 -2.99000 44.22200
C  -0.86500 -4.42700 44.61900
C  0.45700 -4.98800 45.18200
C  1.45900 -3.91500 44.88800
C  -2.10900 -4.58400 45.53600
C  0.79000 -6.44600 44.64800
C  1.62700 -7.47400 45.50000
N  3.59300 -1.94400 44.43300
C  3.87100 -3.20900 44.97000
C  5.25500 -3.40200 45.15700
C  5.84000 -2.25200 44.48100
C  4.74400 -1.40100 44.16500
C  5.82700 -4.66300 45.60200
C  7.06900 -1.64400 44.06700
O  8.26000 -2.00700 44.20700
C  6.75100 -0.23800 43.40600
C  7.29900 0.83400 44.24900
O  7.26000 0.89300 45.51900
O  7.96400 1.71400 43.43000
C  8.68100 2.84400 44.07700
H  0.72400 2.82800 42.06100
H  -2.43800 -2.44000 43.69600
H  3.21400 -5.12400 45.44700
H  5.64000 2.35200 42.60000
H  3.03000 2.81900 40.95400
H  2.64700 4.75300 42.37300
H  4.33900 4.50400 42.64800
H  2.97700 3.74500 43.71800
H  4.41800 1.46400 40.03600
H  5.50600 0.31000 40.62500
H  7.35600 1.50100 39.85000
H  6.74900 2.88900 40.73500
H  -2.75800 2.38300 41.11600
H  -1.32700 3.33500 41.44300
H  -2.65600 3.29500 42.61600
H  -4.74600 -1.35200 42.88400
H  -5.48200 -0.56100 44.19900
H  -3.96800 -1.43000 44.56800
H  -0.95500 -5.02600 43.71200
H  0.29300 -4.90200 46.25600
H  -2.19600 -3.77800 46.26500
H  -2.27300 -5.60600 45.87700
H  -3.01800 -4.50000 44.93900
H  1.26600 -6.43300 43.66800
H  -0.15900 -6.94500 44.45400
H  2.16900 -8.11000 44.80000
H  0.97900 -8.16800 46.03500
H  2.27700 -6.89800 46.15900
H  5.79900 -5.44400 44.84300
H  5.27200 -5.04900 46.45700
H  6.84100 -4.31600 45.79900
H  7.14100 -0.19300 42.38900
H  7.95700 3.65200 44.17900
H  9.43300 3.20800 43.37700
H  9.17400 2.44400 44.96300
Mg 30.59000 60.16600 39.12600
C  27.73200 58.41700 38.07600
C  32.48700 57.37800 38.40600
C  33.41800 62.01900 39.50100
C  28.57800 63.01800 39.36500
N  30.16200 58.13900 38.19400
C  28.94000 57.70400 37.85700
C  29.12500 56.30700 37.32400
C  30.52200 55.91700 37.82700
C  31.10700 57.25600 38.10900
C  30.72800 54.94800 39.06000
C  28.96900 56.14200 35.67800
C  28.42600 54.84200 35.10700
H  27.08200 55.13200 34.40000
N  32.70400 59.70100 38.98000
C  33.26200 58.49200 38.78700
C  34.67500 58.52900 39.03500
C  35.01500 59.95500 39.22500
C  33.70700 60.63400 39.22900
C  35.60200 57.30300 38.87200
C  36.40100 60.51600 39.50100
O  37.36400 59.73400 39.51500
C  36.71200 62.01700 39.87000
N  30.99400 62.20500 39.33100
C  32.24700 62.76300 39.54500
C  32.20600 64.30600 39.77500
C  30.65400 64.50900 39.83100
C  30.00200 63.19400 39.45500
C  32.99300 64.97600 40.96800
C  30.16400 65.77300 39.09400
C  29.19300 66.68000 39.88500
N  28.53600 60.62500 38.99900
C  27.88100 61.79900 39.19400
C  26.48700 61.66300 38.96100
C  26.38100 60.37300 38.52600
C  27.64400 59.78700 38.54700
C  25.36900 62.59900 38.96700
C  25.46300 59.33000 38.10800
O  24.26800 59.34300 37.89800
C  26.30600 58.07200 37.76600
C  25.79500 56.89400 38.55600
O  25.40000 56.87600 39.72100
O  25.68400 55.84700 37.72900
C  25.35100 54.52200 38.22900
H  33.00800 56.44000 38.20400
H  34.23600 62.70400 39.73500
H  27.97900 63.92700 39.45300
H  28.35200 55.67600 37.76300
H  31.01800 55.43800 36.98200
H  31.56500 54.26500 38.92000
H  29.86900 54.27900 39.11300
H  30.88800 55.50500 39.98400
H  29.93300 56.34600 35.21100
H  28.37200 56.96900 35.29400
H  28.09500 54.14900 35.88000
H  29.12100 54.30700 34.45900
H  35.13000 56.56100 38.22700
H  35.75900 56.85900 39.85500
H  36.55600 57.60500 38.44200
H  37.78000 62.05400 40.08500
H  36.18700 62.23100 40.80100
H  36.41000 62.72300 39.09700
H  32.57200 64.68100 38.81900
H  30.45500 64.48600 40.90200
H  33.67800 64.26700 41.43300
H  32.39200 65.43400 41.75400
H  33.73300 65.68700 40.60100
H  29.48700 65.50700 38.28200
H  30.95100 66.40000 38.67600
H  28.68600 66.07300 40.63400
H  28.42100 67.09200 39.23400
H  29.60800 67.60800 40.28000
H  24.39900 62.10300 39.01300
H  25.42600 63.09000 37.99500
H  25.48900 63.27300 39.81400
H  26.20400 57.83600 36.70700
H  25.25000 53.85300 37.37500
H  24.38900 54.51100 38.74300
H  26.02100 54.06500 38.95700

