158

Mg -2.20300 16.96300 27.12200
C  -2.67500 14.64400 29.74000
C  -2.62400 19.43700 29.28600
C  -1.81800 19.04800 24.50900
C  -2.16400 14.27300 24.82100
N  -2.77000 17.03400 29.34900
C  -2.75300 16.00400 30.26000
C  -2.83900 16.50600 31.78500
C  -2.74300 18.08700 31.49300
C  -2.69900 18.21900 29.93400
C  -3.85700 19.02500 32.18200
C  -1.84000 15.85800 32.66700
C  -1.49100 16.71600 33.90600
H  -1.21200 16.00400 35.25100
N  -2.27700 18.90100 26.96500
C  -2.45100 19.81200 27.93800
C  -2.30300 21.15700 27.43200
C  -2.10800 21.03400 26.03500
C  -2.07500 19.57500 25.80500
C  -2.41400 22.44800 28.35600
C  -1.95200 22.14200 24.99200
O  -2.10100 21.96000 23.77900
C  -1.66100 23.58400 25.35600
N  -2.20200 16.73300 24.93600
C  -1.88300 17.71100 24.09300
C  -1.90300 17.31100 22.60600
C  -2.10200 15.84100 22.78800
C  -2.15200 15.58100 24.30300
C  -3.02200 17.98000 21.77300
C  -1.04400 15.00300 21.96400
C  0.23200 14.46300 22.62400
N  -2.38000 14.93900 27.19200
C  -2.34600 14.01900 26.14300
C  -2.47700 12.76900 26.70400
C  -2.64100 12.94300 28.04000
C  -2.55000 14.27600 28.36800
C  -2.61000 11.48900 25.87200
C  -2.86300 12.31300 29.31200
O  -3.08600 11.15100 29.48200
C  -2.91800 13.34700 30.48600
C  -1.73800 13.07900 31.39600
O  -0.49900 13.11900 31.26200
O  -2.19800 12.75500 32.63800
C  -1.25300 12.43500 33.76900
H  -2.59900 20.24000 30.02600
H  -1.64000 19.82600 23.76400
H  -2.24400 13.50300 24.05100
H  -3.86900 16.23100 32.00900
H  -1.80100 18.47100 31.88600
H  -3.37700 19.89300 32.63300
H  -4.34700 18.50700 33.00700
H  -4.61000 19.23800 31.42300
H  -0.91700 15.58300 32.15500
H  -2.42700 15.04400 33.09300
H  -2.37400 17.33500 34.06500
H  -0.60100 17.31700 33.72100
H  -1.45900 22.97100 28.38900
H  -2.53700 22.19000 29.40800
H  -3.17300 23.15900 28.02700
H  -0.69500 23.41200 25.83000
H  -2.44600 24.00800 25.98300
H  -1.33400 24.25400 24.56100
H  -0.92400 17.52800 22.17800
H  -3.08900 15.48300 22.49800
H  -3.92100 17.38000 21.91200
H  -2.80100 18.04600 20.70700
H  -3.34600 18.96800 22.09900
H  -0.68900 15.64800 21.15900
H  -1.63700 14.17300 21.58000
H  0.32500 14.94700 23.59700
H  1.08700 14.81600 22.04800
H  0.20900 13.37500 22.55700
H  -3.55000 11.52600 25.32100
H  -2.65300 10.75400 26.67500
H  -1.79300 11.47200 25.15000
H  -3.89200 13.23300 30.96200
H  -1.62800 12.98500 34.63300
H  -0.23200 12.81100 33.69900
H  -1.20100 11.36400 33.96300
Mg -12.28800 17.22600 42.16400
C  -9.46200 15.39600 41.80100
C  -10.63700 20.04500 40.96900
C  -15.23900 18.79700 41.74300
C  -14.03800 14.19800 42.78600
N  -10.26400 17.66600 41.28900
C  -9.26000 16.72700 41.35700
C  -7.87500 17.39500 40.96900
C  -8.28500 18.94200 41.03700
C  -9.82100 18.93300 41.16000
C  -7.68900 19.82400 42.17600
C  -7.30000 16.96300 39.60400
C  -5.91200 16.29500 39.60200
H  -5.82200 14.99600 38.72200
N  -12.87800 19.07900 41.53900
C  -12.05600 20.12900 41.08600
C  -12.86400 21.31400 40.86900
C  -14.17200 20.98300 41.16800
C  -14.17300 19.60200 41.53700
C  -12.30900 22.67900 40.41300
C  -15.28200 21.95300 40.95900
O  -15.09300 23.08700 40.57200
C  -16.65500 21.71500 41.47700
N  -14.35500 16.59300 42.36000
C  -15.38200 17.43400 42.10200
C  -16.76300 16.72800 42.30100
C  -16.37200 15.24600 42.62100
C  -14.83600 15.30700 42.53800
C  -17.85800 17.31100 43.27200
C  -17.01100 14.21400 41.69300
C  -17.95700 13.18400 42.36500
N  -11.87400 15.22700 42.43800
C  -12.66700 14.11000 42.66600
C  -11.86700 12.92200 42.70100
C  -10.63500 13.38700 42.38500
C  -10.70500 14.75900 42.11400
C  -12.19200 11.47800 43.11100
C  -9.27400 13.02000 42.22100
O  -8.72400 11.95000 42.38700
C  -8.42100 14.27000 41.85100
C  -7.39000 14.28200 42.92000
O  -7.58500 14.30600 44.10400
O  -6.16100 14.25200 42.36900
C  -5.00400 14.35000 43.19400
H  -10.17900 21.01200 40.75200
H  -16.20300 19.23100 41.46800
H  -14.63000 13.28100 42.82300
H  -7.17400 17.09800 41.74900
H  -8.05800 19.47700 40.11500
H  -6.86200 20.46300 41.86500
H  -7.25300 19.11500 42.88000
H  -8.39400 20.46900 42.70100
H  -7.31900 17.88300 39.02000
H  -8.01100 16.34500 39.05600
H  -5.57800 16.05700 40.61200
H  -5.16800 17.02300 39.27800
H  -12.86600 23.04400 39.55100
H  -11.27700 22.55200 40.08700
H  -12.24200 23.38500 41.24100
H  -16.70100 21.11400 42.38500
H  -17.25900 21.19300 40.73500
H  -17.15700 22.65300 41.71700
H  -17.26800 16.76400 41.33500
H  -16.47600 14.94300 43.66300
H  -18.66000 17.69400 42.64200
H  -17.39100 18.16700 43.75900
H  -18.27900 16.53700 43.91500
H  -16.14200 13.67900 41.31100
H  -17.51300 14.75400 40.89100
H  -18.93500 13.66400 42.32100
H  -17.65500 13.01700 43.39900
H  -17.96700 12.30200 41.72500
H  -11.50500 11.00800 43.81400
H  -12.26900 10.90800 42.18600
H  -13.12000 11.57900 43.67500
H  -8.00300 13.96900 40.89100
H  -4.32700 13.58500 42.81500
H  -5.15900 14.27600 44.27000
H  -4.52900 15.30300 42.96200

