158

Mg 24.66500 -5.86500 45.64400
C  26.75300 -3.41700 44.42800
C  22.07200 -4.58800 43.79100
C  23.06900 -8.70500 46.00200
C  27.36700 -7.13700 47.50900
N  24.41800 -4.15900 44.26600
C  25.42800 -3.31300 43.89600
C  24.95800 -2.43500 42.71500
C  23.39100 -2.56700 42.84300
C  23.26100 -3.81900 43.66900
C  22.60500 -1.32300 43.50000
C  25.56300 -2.98900 41.37000
C  25.95700 -1.82900 40.38200
H  25.37000 -1.81800 39.00700
N  22.76700 -6.52100 45.11800
C  21.84900 -5.81000 44.42100
C  20.59200 -6.57500 44.37900
C  20.88900 -7.75600 45.07200
C  22.30800 -7.69200 45.43600
C  19.38500 -6.19200 43.63100
C  19.83400 -8.78500 45.35000
O  18.69200 -8.66900 44.87300
C  20.11800 -9.99700 46.17900
N  25.10200 -7.67700 46.72600
C  24.34800 -8.74400 46.46600
C  24.90500 -9.96900 47.16600
C  26.37900 -9.52800 47.56600
C  26.25800 -7.98600 47.30400
C  24.11700 -10.25400 48.51900
C  27.52100 -10.13100 46.75400
C  28.80700 -10.53000 47.53600
N  26.68700 -5.37500 45.96200
C  27.61500 -5.95900 46.79700
C  28.80700 -5.09400 46.83700
C  28.60900 -4.16400 45.76800
C  27.27300 -4.36000 45.35300
C  30.04100 -5.31400 47.65200
C  29.20500 -3.02100 45.08900
O  30.27300 -2.44300 45.11700
C  28.00700 -2.59100 44.09000
C  27.77700 -1.24100 44.39100
O  27.11000 -0.79200 45.32800
O  28.41900 -0.46700 43.39700
C  27.90900 0.89600 43.36600
H  21.29300 -4.03500 43.26100
H  22.71400 -9.73300 46.09600
H  28.20100 -7.53900 48.08900
H  25.19600 -1.37200 42.77000
H  23.04900 -2.85900 41.85100
H  23.40600 -0.70300 43.90300
H  21.91800 -1.52700 44.32100
H  21.96500 -0.81400 42.78000
H  24.84300 -3.55300 40.77800
H  26.46600 -3.59000 41.48000
H  27.00900 -2.01000 40.16300
H  25.82600 -0.84000 40.82200
H  19.04800 -7.08300 43.10100
H  19.55700 -5.29500 43.03600
H  18.58600 -5.96900 44.33700
H  19.21000 -10.41900 46.61000
H  20.64000 -9.73300 47.09900
H  20.57700 -10.80000 45.60200
H  24.86500 -10.73100 46.38800
H  26.64900 -9.62100 48.61800
H  23.20900 -10.80800 48.27900
H  24.02700 -9.24400 48.91800
H  24.65200 -11.02500 49.07300
H  27.91900 -9.31400 46.15100
H  27.19700 -10.90400 46.05700
H  29.67400 -9.87000 47.56500
H  29.07800 -11.53700 47.21900
H  28.66800 -10.68600 48.60600
H  30.73500 -5.68300 46.89700
H  29.90800 -6.09200 48.40300
H  30.33200 -4.37500 48.12200
H  28.32800 -2.75700 43.06200
H  26.87100 0.91900 43.03400
H  28.55000 1.50400 42.72700
H  27.92200 1.24800 44.39800
Mg 41.09600 9.00900 29.35900
C  42.88500 10.09600 32.20600
C  38.78100 7.57900 31.36900
C  39.54800 7.94800 26.56000
C  43.72100 10.21100 27.39100
N  40.88400 8.84400 31.63100
C  41.68600 9.41400 32.59900
C  41.12600 9.19300 34.02200
C  39.91800 8.25700 33.69500
C  39.86700 8.15000 32.15800
C  40.15000 6.88200 34.34600
C  40.70600 10.54400 34.73700
C  40.33700 10.37700 36.19500
H  41.02700 11.26300 37.25100
N  39.38300 7.89500 28.99200
C  38.52000 7.46200 29.98400
C  37.41600 6.82100 29.31900
C  37.58300 6.90400 27.85200
C  38.88300 7.65400 27.72200
C  36.32400 6.15100 30.09300
C  36.72700 6.44900 26.69600
O  36.93800 6.59000 25.52600
C  35.49300 5.84000 27.01800
N  41.67200 8.96100 27.35300
C  40.82400 8.53000 26.36800
C  41.38400 8.70700 24.90000
C  42.62800 9.64700 25.19600
C  42.70000 9.55200 26.76200
C  41.58100 7.44400 24.04900
C  42.55600 11.06100 24.60000
C  41.61400 11.98400 25.40400
N  42.96600 9.85400 29.74200
C  43.89300 10.41200 28.79200
C  44.85600 11.14000 29.45200
C  44.54900 11.00100 30.83700
C  43.38900 10.23700 30.88900
C  46.10900 11.83000 28.90200
C  45.05700 11.32100 32.12700
O  46.07400 11.91300 32.48900
C  43.89000 10.86400 33.12700
C  44.45300 9.94900 34.18100
O  45.33100 9.17700 34.04500
O  43.76700 10.16300 35.39200
C  44.03200 9.10800 36.42300
H  38.07600 7.19200 32.10800
H  39.05200 7.73500 25.61100
H  44.42300 10.75900 26.75900
H  41.77100 8.54600 34.61700
H  38.96400 8.63400 34.06300
H  40.33100 6.19200 33.52200
H  39.29600 6.55300 34.93800
H  40.95000 6.76700 35.07900
H  39.78000 10.81800 34.23100
H  41.43800 11.34000 34.60500
H  40.56600 9.33500 36.41700
H  39.27500 10.61900 36.23800
H  36.47000 5.09300 29.87700
H  35.32100 6.44800 29.78700
H  36.37100 6.38300 31.15700
H  34.87100 6.59600 27.49800
H  35.70600 4.99100 27.66600
H  35.01200 5.52800 26.09100
H  40.53400 9.22400 24.45400
H  43.59000 9.17800 24.98900
H  42.60500 7.46000 23.67600
H  40.93400 7.46900 23.17200
H  41.27500 6.54600 24.58600
H  42.10200 10.85900 23.63000
H  43.55500 11.44600 24.39500
H  41.63200 11.81600 26.48100
H  40.58100 11.85300 25.08200
H  41.78200 13.01600 25.09300
H  45.87400 12.22900 27.91500
H  46.96800 11.17400 29.04200
H  46.25900 12.66500 29.58500
H  43.28700 11.70800 33.46000
H  45.09800 9.20200 36.62800
H  43.88500 8.06700 36.13700
H  43.54800 9.40800 37.35300

