158

Mg 36.03000 48.80100 24.71900
C  36.39400 47.06500 27.67000
C  34.91200 51.53200 26.56000
C  35.50400 50.60600 21.85100
C  37.20300 46.07100 22.93400
N  35.82000 49.26200 26.93800
C  35.83500 48.30400 27.92900
C  35.49900 48.91100 29.27400
C  34.78500 50.28200 28.89800
C  35.13300 50.36600 27.34400
C  33.31000 50.36200 29.25700
C  36.82800 49.15800 30.03200
C  36.75300 48.78200 31.50200
H  35.37500 48.81900 32.18400
N  35.29500 50.74500 24.28400
C  34.97800 51.72600 25.20300
C  34.55300 52.89000 24.45900
C  34.74400 52.69200 23.05500
C  35.21300 51.27400 22.98400
C  33.97700 54.14600 25.15400
C  34.38600 53.56100 21.83100
O  34.42000 53.16800 20.65400
C  33.93700 54.97200 22.06800
N  36.11300 48.36300 22.73000
C  35.86700 49.18600 21.69500
C  36.26300 48.55400 20.33900
C  37.01000 47.28200 20.78800
C  36.79100 47.26700 22.28600
C  34.99200 48.35000 19.45700
C  38.46300 47.14800 20.33200
C  39.46900 47.94000 21.20500
N  36.62200 46.90000 25.12600
C  37.10400 45.90200 24.32600
C  37.49500 44.82200 25.18900
C  37.31700 45.18000 26.52600
C  36.76900 46.51600 26.44900
C  38.13100 43.53200 24.78000
C  37.43400 44.78700 27.89400
O  37.77600 43.74300 28.45300
C  36.88500 46.03900 28.66100
C  35.84300 45.52800 29.50800
O  34.72200 45.16700 29.03000
O  36.25700 45.30500 30.77100
C  35.27300 44.59700 31.55700
H  34.55200 52.37800 27.15000
H  35.42500 51.03700 20.85000
H  37.60400 45.20800 22.39900
H  34.77000 48.24700 29.73900
H  35.37200 51.09800 29.32000
H  33.08700 51.28800 29.78700
H  32.86600 49.60100 29.89800
H  32.72800 50.30700 28.33700
H  37.27400 50.14100 29.88700
H  37.54900 48.49200 29.55700
H  37.18000 49.64500 32.01300
H  37.20100 47.83300 31.79600
H  33.38000 53.84300 26.01400
H  33.34000 54.69600 24.46200
H  34.75800 54.79900 25.54200
H  32.93300 55.02300 22.48900
H  33.87000 55.51900 21.12800
H  34.63600 55.48800 22.72600
H  36.95800 49.25500 19.87700
H  36.39400 46.53400 20.28800
H  34.39900 47.49700 19.78700
H  35.16200 48.20500 18.39000
H  34.40200 49.26100 19.55800
H  38.62600 47.57300 19.34200
H  38.61900 46.07000 20.32900
H  40.44000 47.46000 21.32800
H  39.05000 48.07600 22.20200
H  39.61000 48.88700 20.68400
H  37.22300 42.93700 24.68100
H  38.84000 43.12700 25.50200
H  38.67000 43.69700 23.84600
H  37.76900 46.34800 29.21800
H  35.72400 43.98100 32.33600
H  34.71600 43.89400 30.93900
H  34.61400 45.35200 31.98700
Mg -1.92000 35.04300 26.80500
C  -3.73800 33.24900 29.44900
C  -0.22100 36.80000 29.18800
C  -0.81200 37.12900 24.43800
C  -3.93000 33.41100 24.55600
N  -2.04100 35.08100 29.03900
C  -2.74900 34.27800 29.90600
C  -2.34300 34.59500 31.32000
C  -1.42700 35.81500 31.22300
C  -1.21000 35.94500 29.72500
C  -1.91100 37.07500 31.96800
C  -1.60900 33.33700 31.99600
C  -2.36700 32.71900 33.19300
H  -1.53100 32.28000 34.44400
N  -0.58600 36.63100 26.77900
C  0.02000 37.19100 27.85900
C  0.95500 38.21600 27.43200
C  0.82700 38.29500 26.07800
C  -0.26800 37.41700 25.71800
C  1.80300 38.98600 28.43100
C  1.50500 39.18700 25.16000
O  1.33400 39.34300 23.96800
C  2.59400 40.04800 25.78700
N  -2.31500 35.27100 24.78200
C  -1.74200 36.22400 23.98500
C  -2.21300 36.15100 22.55500
C  -3.10700 34.88700 22.51100
C  -3.18700 34.49600 24.05500
C  -2.94400 37.42300 22.07200
C  -2.61400 33.71300 21.66900
C  -1.18200 33.32200 21.96500
N  -3.50100 33.60000 26.88800
C  -4.13100 32.98700 25.90800
C  -4.97200 31.91700 26.45000
C  -4.87100 32.00400 27.85000
C  -3.98800 33.01000 28.08700
C  -5.67700 30.95900 25.55500
C  -5.34300 31.46300 29.16900
O  -6.16100 30.59900 29.42300
C  -4.65000 32.36400 30.29000
C  -5.72200 33.08300 30.95600
O  -6.25900 34.07200 30.58600
O  -6.12200 32.40900 32.07200
C  -7.13600 33.12400 32.84800
H  0.33400 37.30500 29.98200
H  -0.37700 37.65700 23.58600
H  -4.43200 32.71400 23.88300
H  -3.21200 34.87100 31.91700
H  -0.40200 35.56400 31.49500
H  -2.62800 36.78100 32.73400
H  -2.53600 37.63000 31.26800
H  -1.17600 37.77100 32.37300
H  -0.55100 33.39900 32.25100
H  -1.53200 32.63000 31.17000
H  -2.81900 31.79700 32.82800
H  -3.21100 33.32900 33.51300
H  2.86800 38.97200 28.19900
H  1.89800 38.41800 29.35700
H  1.51200 40.02600 28.57600
H  2.20800 40.63700 26.61800
H  3.06100 40.69700 25.04700
H  3.46300 39.52100 26.18300
H  -1.31400 36.08100 21.94300
H  -4.15800 35.04000 22.26500
H  -2.87200 38.12800 22.90000
H  -4.00500 37.25800 21.88100
H  -2.41300 37.79700 21.19700
H  -2.68300 33.97600 20.61400
H  -3.28500 32.88000 21.88000
H  -1.00300 32.29800 22.29200
H  -0.87300 34.00300 22.75800
H  -0.62600 33.55600 21.05700
H  -5.94100 30.02500 26.05200
H  -4.99000 30.81500 24.72100
H  -6.56000 31.48000 25.18500
H  -4.05000 31.70300 30.91600
H  -6.77300 33.89400 33.52900
H  -7.64500 32.35900 33.43600
H  -7.93200 33.49600 32.20500

