158

Mg -2.75600 17.18000 25.79400
C  -2.99500 14.94800 28.52200
C  -2.98500 19.75600 28.03500
C  -2.53700 19.32900 23.13900
C  -2.98100 14.53500 23.61200
N  -3.00200 17.30300 28.04000
C  -2.97400 16.26100 28.90200
C  -3.08300 16.85500 30.30900
C  -3.17800 18.40800 30.12400
C  -3.02400 18.56200 28.63200
C  -4.50800 19.03800 30.77500
C  -1.92800 16.40500 31.23200
C  -1.62500 17.17300 32.51700
H  -1.08100 16.37900 33.70800
N  -2.76600 19.24100 25.58600
C  -2.81700 20.15200 26.65400
C  -2.74000 21.53100 26.08400
C  -2.55400 21.37500 24.67000
C  -2.65700 19.96300 24.42700
C  -2.94500 22.73900 26.98400
C  -2.21000 22.40000 23.60400
O  -1.75500 22.19100 22.44000
C  -2.29000 23.85300 24.02000
N  -3.01900 17.01100 23.68400
C  -2.83900 18.01900 22.78700
C  -2.92600 17.48500 21.31200
C  -3.01500 15.88300 21.50300
C  -2.99300 15.78100 23.03600
C  -3.98600 18.07200 20.37400
C  -2.06200 14.98000 20.68100
C  -2.61100 14.36800 19.35100
N  -3.03200 15.21200 25.94100
C  -2.96600 14.25400 24.99100
C  -2.94200 12.88200 25.57200
C  -2.94500 13.15700 26.95100
C  -3.01900 14.56500 27.14600
C  -2.88100 11.53200 24.87900
C  -3.02800 12.48300 28.26500
O  -3.13600 11.28700 28.50000
C  -3.14500 13.61000 29.28700
C  -2.09400 13.36200 30.22700
O  -0.89200 13.71900 30.11900
O  -2.50300 12.58300 31.25200
C  -1.52000 11.94700 32.10600
H  -3.09300 20.57400 28.75000
H  -2.40800 19.94600 22.24700
H  -3.08600 13.78200 22.82800
H  -3.89700 16.34800 30.82700
H  -2.33200 18.89900 30.60600
H  -4.56000 19.53700 31.74300
H  -5.30200 18.29400 30.83900
H  -4.85700 19.89700 30.20100
H  -1.02200 16.65200 30.67900
H  -2.09500 15.38000 31.56300
H  -2.47900 17.70100 32.94100
H  -0.71900 17.76500 32.38800
H  -3.29800 22.49200 27.98500
H  -3.67900 23.44300 26.59300
H  -2.01600 23.27100 27.18900
H  -3.32800 24.07400 24.27100
H  -1.78400 24.50400 23.30700
H  -1.74300 23.83600 24.96300
H  -1.97500 17.62300 20.79800
H  -4.00700 15.60900 21.14400
H  -4.92600 17.52000 20.40800
H  -3.57000 17.87800 19.38600
H  -4.29100 19.11500 20.46300
H  -1.71300 14.15400 21.30100
H  -1.10700 15.45100 20.44700
H  -3.51300 14.97100 19.24700
H  -2.78200 13.31400 19.57400
H  -1.93700 14.42100 18.49600
H  -2.43300 11.50900 23.88600
H  -3.86400 11.07200 24.97800
H  -2.24300 10.85700 25.44900
H  -4.11700 13.46900 29.76100
H  -2.11700 11.47600 32.88700
H  -0.78700 12.66700 32.47000
H  -0.91300 11.14700 31.68200
Mg 10.65700 47.09100 25.95100
C  8.42400 47.49200 28.57500
C  13.03400 48.55200 27.92700
C  12.79600 46.71800 23.43800
C  7.95200 46.18700 23.85700
N  10.66400 47.95100 28.02400
C  9.73500 47.84200 29.01800
C  10.32600 48.28900 30.34200
C  11.60600 49.06000 29.87200
C  11.79100 48.47100 28.50800
C  11.32900 50.54400 29.76000
C  10.54400 47.18100 31.32700
C  9.98300 47.58500 32.68600
H  9.95500 46.55700 33.81200
N  12.59700 47.51100 25.75500
C  13.44400 48.04500 26.67300
C  14.82100 47.92800 26.24300
C  14.77800 47.53700 24.93300
C  13.33000 47.23200 24.66100
C  15.94500 48.35600 27.16800
C  15.90900 47.42400 23.83700
O  15.70200 46.89000 22.76900
C  17.19400 48.00500 24.15400
N  10.32500 46.67500 23.88800
C  11.42100 46.49400 23.06200
C  10.95100 46.08200 21.68700
C  9.40900 45.75400 21.82500
C  9.22100 46.27400 23.26900
C  11.41900 46.99800 20.50800
C  9.05300 44.32700 21.40800
C  9.43100 43.12800 22.31400
N  8.58800 46.99200 26.06900
C  7.63600 46.56500 25.13400
C  6.34500 46.53400 25.75600
C  6.57500 46.82000 27.15900
C  7.98900 47.18100 27.25900
C  5.01200 46.06500 25.09400
C  5.99600 46.89600 28.46400
O  4.87900 46.72600 28.85100
C  7.16300 47.22500 29.47700
C  7.29100 46.08400 30.41300
O  8.04400 45.15600 30.21500
O  6.50400 46.20000 31.53900
C  6.53300 45.09100 32.49900
H  13.80800 49.04900 28.51700
H  13.43500 46.57500 22.56400
H  7.14300 45.91100 23.17800
H  9.66100 49.01900 30.80400
H  12.40400 48.96200 30.60800
H  10.26800 50.79000 29.74400
H  11.76500 50.91200 28.83100
H  11.74200 51.06800 30.62200
H  11.62900 47.10800 31.39500
H  9.98900 46.26300 31.13700
H  8.96300 47.94500 32.55200
H  10.57600 48.44700 32.99300
H  16.76200 47.65200 27.32800
H  15.56300 48.66300 28.14200
H  16.32200 49.24900 26.67000
H  17.77200 47.24800 24.68400
H  17.09900 48.89500 24.77600
H  17.65500 48.30100 23.21100
H  11.43900 45.13400 21.46100
H  8.88100 46.38400 21.10800
H  11.59100 47.99800 20.90700
H  10.57800 47.11300 19.82500
H  12.28000 46.68500 19.91800
H  9.44200 44.10500 20.41500
H  7.96500 44.37300 21.35800
H  9.51900 43.39500 23.36700
H  10.39900 42.78300 21.94900
H  8.68300 42.33900 22.23700
H  5.17000 45.44300 24.21300
H  4.50200 46.98700 24.81700
H  4.37500 45.48700 25.76300
H  7.06600 48.22100 29.90900
H  5.65200 44.48300 32.29400
H  6.51700 45.43600 33.53300
H  7.36300 44.39600 32.37800

