158

Mg -9.37400 39.70400 40.28400
C  -8.06400 36.57200 39.45600
C  -6.37400 41.04700 39.11000
C  -10.97500 42.58200 40.24100
C  -12.35900 38.01800 41.22600
N  -7.47900 38.89600 39.38700
C  -7.27700 37.58600 38.97000
C  -5.98000 37.49100 38.05700
C  -5.27200 38.84300 38.51000
C  -6.42800 39.67900 38.99300
C  -4.04600 38.81400 39.52600
C  -6.28900 37.42900 36.51100
C  -5.54100 36.45800 35.56000
H  -6.44200 35.75300 34.51900
N  -8.74500 41.59500 39.71800
C  -7.43900 41.96600 39.45300
C  -7.45900 43.42200 39.30600
C  -8.74200 43.94100 39.68300
C  -9.55600 42.68400 39.97400
C  -6.27300 44.19300 38.74500
C  -9.07500 45.43300 39.83000
O  -8.16500 46.25300 39.66800
C  -10.47600 45.90400 40.16400
N  -11.38000 40.20900 40.51600
C  -11.81800 41.49700 40.44800
C  -13.24200 41.63600 40.90900
C  -13.68300 40.11600 41.19300
C  -12.45000 39.32800 40.86300
C  -13.50200 42.57200 42.04100
C  -14.88800 39.72400 40.29700
C  -16.21400 39.59000 41.09400
N  -10.10400 37.71800 40.44900
C  -11.24500 37.21000 40.91800
C  -11.03300 35.74900 41.11800
C  -9.85900 35.41800 40.43500
C  -9.31700 36.72200 40.07900
C  -12.10800 34.78500 41.71700
C  -9.03700 34.31700 39.89600
O  -9.09800 33.11200 39.94200
C  -7.81800 35.08400 39.13800
C  -6.59100 34.49000 39.69600
O  -5.96900 34.90700 40.69300
O  -6.30300 33.39400 38.87700
C  -5.21800 32.49100 39.35900
H  -5.41700 41.47800 38.80900
H  -11.58200 43.47200 40.41900
H  -13.24400 37.61000 41.71800
H  -5.42100 36.59900 38.33900
H  -4.79800 39.33900 37.66300
H  -3.10700 39.00900 39.00800
H  -4.10900 37.81300 39.95100
H  -4.15700 39.38300 40.44900
H  -6.16100 38.43200 36.10400
H  -7.33100 37.11300 36.45500
H  -5.16500 35.67000 36.21200
H  -4.73100 36.91800 34.99300
H  -6.05800 45.11800 39.28100
H  -6.13700 44.37100 37.67900
H  -5.36800 43.63000 38.97300
H  -11.16600 45.40900 39.48100
H  -10.49800 46.98500 40.03100
H  -10.69300 45.70900 41.21400
H  -13.87400 41.93500 40.07300
H  -13.68800 39.98500 42.27500
H  -12.59300 42.66200 42.63700
H  -14.29700 42.12300 42.63600
H  -13.89600 43.55800 41.79700
H  -14.54200 38.78700 39.86200
H  -15.12900 40.44700 39.51700
H  -16.88800 40.43500 40.95200
H  -15.95500 39.52300 42.15100
H  -16.70400 38.68600 40.73300
H  -12.00000 34.89600 42.79600
H  -11.88200 33.77700 41.36900
H  -13.11600 35.04100 41.39300
H  -7.83600 34.96000 38.05500
H  -5.38200 31.52000 38.89200
H  -5.37900 32.38600 40.43100
H  -4.26800 32.90700 39.02200
Mg -5.45600 26.01300 25.90900
C  -4.05100 27.44600 28.80900
C  -7.33200 24.01100 27.88500
C  -6.77000 24.68200 23.14800
C  -3.16200 27.95700 24.13600
N  -5.75900 25.92700 28.12200
C  -5.04000 26.49500 29.08100
C  -5.51500 26.05100 30.42000
C  -6.26100 24.70700 30.10400
C  -6.52300 24.93100 28.58200
C  -5.39500 23.41200 30.26500
C  -6.35000 27.12000 31.16400
C  -6.11900 27.28700 32.71300
H  -5.38100 26.25100 33.40500
N  -6.73600 24.43400 25.51600
C  -7.44100 23.75200 26.46800
C  -8.22600 22.76100 25.80900
C  -8.01900 22.96200 24.42600
C  -7.10800 24.07500 24.33200
C  -9.10000 21.80300 26.61900
C  -8.53700 22.12300 23.25400
O  -8.39900 22.42500 22.09000
C  -9.22600 20.78700 23.56500
N  -4.76700 26.05300 23.88200
C  -5.63600 25.49500 22.92400
C  -5.08200 25.83500 21.50900
C  -4.12100 27.05300 21.88700
C  -4.03600 27.09300 23.38900
C  -4.52600 24.52800 20.86800
C  -4.70800 28.36900 21.31600
C  -3.66800 29.29200 20.70200
N  -3.81100 27.35300 26.27500
C  -2.98600 28.11900 25.49400
C  -2.12700 28.97900 26.29400
C  -2.53500 28.72700 27.56400
C  -3.53900 27.77400 27.55700
C  -1.13900 29.97400 25.74200
C  -2.25400 29.19000 28.87600
O  -1.40700 29.95700 29.28500
C  -3.10300 28.22800 29.80200
C  -2.24300 27.43000 30.71400
O  -1.82400 26.28300 30.56500
O  -2.03100 28.14900 31.92100
C  -0.87900 27.72400 32.67300
H  -7.76600 23.27500 28.56600
H  -7.10900 24.29700 22.18400
H  -2.53900 28.51700 23.43600
H  -4.57700 25.87400 30.94500
H  -7.17100 24.76300 30.70200
H  -4.64700 23.47400 31.05500
H  -4.84700 23.24300 29.33700
H  -5.91200 22.50300 30.57200
H  -7.41200 26.98200 30.96300
H  -6.15900 28.05800 30.64200
H  -7.10100 27.42000 33.16800
H  -5.61400 28.24700 32.82400
H  -9.53100 20.94400 26.10500
H  -10.00600 22.32800 26.92100
H  -8.63200 21.52100 27.56300
H  -8.59600 20.29600 24.30600
H  -9.01400 20.28200 22.62300
H  -10.29900 20.77200 23.75500
H  -5.98500 26.20600 21.02500
H  -3.17600 26.85000 21.38300
H  -3.45300 24.42400 21.02800
H  -4.84200 24.34900 19.84000
H  -4.90500 23.61900 21.33600
H  -5.20300 28.86800 22.14900
H  -5.50800 28.29500 20.57900
H  -2.93900 28.72000 20.12700
H  -3.17600 29.90000 21.46100
H  -4.15800 30.02500 20.06100
H  -1.49500 30.64100 24.95600
H  -0.36200 29.34300 25.30900
H  -0.76600 30.61300 26.54300
H  -3.79700 28.79400 30.42300
H  -0.25200 28.57600 32.93500
H  -0.28400 27.05500 32.05200
H  -1.17900 27.12200 33.53100

