158

Mg 26.21900 -0.08900 29.25200
C  28.15600 -0.32700 32.28400
C  23.47300 0.35100 31.28200
C  24.42900 0.05100 26.48700
C  29.00200 -1.12900 27.52600
N  25.87000 0.02300 31.62400
C  26.82900 -0.02300 32.63100
C  26.20500 0.39400 34.00900
C  24.65700 0.61600 33.65600
C  24.66800 0.25000 32.12200
C  23.63100 -0.16700 34.47900
C  26.82700 1.61700 34.73000
C  26.22100 2.08500 36.05200
H  27.04600 2.29900 37.25000
N  24.28500 0.18700 28.93800
C  23.28100 0.31200 29.88400
C  22.04900 0.57200 29.13200
C  22.27700 0.63200 27.74800
C  23.68100 0.26500 27.67900
C  20.73200 1.03300 29.79800
C  21.35700 0.88300 26.55000
O  21.72600 0.79500 25.40800
C  19.92000 1.35800 26.78300
N  26.59800 -0.50400 27.27400
C  25.73300 -0.24000 26.28300
C  26.38600 -0.20800 24.89500
C  27.83000 -0.76400 25.18800
C  27.84400 -0.82100 26.76100
C  25.55100 -0.96100 23.78100
C  28.96800 0.17500 24.66800
C  30.00300 -0.53600 23.79500
N  28.14900 -0.65500 29.75000
C  29.19100 -1.06800 28.87500
C  30.43800 -1.28900 29.66000
C  29.97300 -1.06400 30.95200
C  28.65700 -0.56700 30.94600
C  31.80800 -1.66700 29.17400
C  30.47700 -0.97000 32.27500
O  31.59900 -1.13100 32.73100
C  29.37700 -0.44100 33.21400
C  29.22900 -1.29400 34.37300
O  28.68600 -2.37200 34.35000
O  29.75400 -0.81900 35.51500
C  29.55000 -1.43200 36.86400
H  22.63500 0.69500 31.89200
H  23.98800 0.30200 25.52000
H  29.84100 -1.30700 26.85000
H  26.38500 -0.48500 34.62900
H  24.49600 1.68100 33.82200
H  24.12100 -0.67600 35.30900
H  23.00700 -0.94900 34.04600
H  22.89100 0.44700 34.99100
H  26.95500 2.45900 34.04900
H  27.83600 1.30400 35.00000
H  25.36700 1.44600 36.27300
H  25.87900 3.09600 35.83000
H  20.57500 2.07500 29.51600
H  20.74000 0.92100 30.88200
H  19.92500 0.39700 29.43400
H  19.97200 2.37300 27.17700
H  19.21400 0.71400 27.30600
H  19.32500 1.47800 25.87700
H  26.39100 0.84400 24.61100
H  27.94800 -1.78700 24.83000
H  26.22100 -1.58600 23.19000
H  25.12300 -0.15200 23.19000
H  24.86200 -1.60100 24.33400
H  29.43700 0.53000 25.58600
H  28.67700 1.14300 24.26000
H  30.40700 0.11600 23.02000
H  29.66600 -1.47400 23.35500
H  30.83200 -0.90500 24.39900
H  32.09800 -1.05900 28.31700
H  31.72900 -2.73100 28.95000
H  32.58200 -1.52600 29.92900
H  29.62800 0.56900 33.53800
H  30.40600 -1.06800 37.43200
H  29.52700 -2.52000 36.80400
H  28.61600 -0.95300 37.15900
Mg 53.60900 23.78200 44.44800
C  50.84900 25.90000 44.05200
C  51.65300 20.98800 43.92800
C  56.35500 21.81200 44.28800
C  55.58000 26.58600 44.78200
N  51.54800 23.48900 44.00600
C  50.58900 24.52700 43.88700
C  49.18800 23.91700 43.73200
C  49.45700 22.37400 43.91700
C  50.99500 22.25000 43.99300
C  48.76600 21.81300 45.17800
C  48.46500 24.33900 42.38500
C  49.32000 24.12700 41.10200
H  48.66500 23.19900 40.00800
N  54.00300 21.66700 44.10400
C  53.07300 20.75300 43.87300
C  53.72600 19.46500 43.71100
C  55.11800 19.63000 43.76600
C  55.22300 21.08200 44.02000
C  52.93800 18.15900 43.40500
C  56.16100 18.50300 43.66200
O  55.77400 17.32900 43.63500
C  57.66000 18.77100 43.46800
N  55.63800 24.11900 44.43100
C  56.53100 23.11100 44.47000
C  57.97500 23.67100 44.42500
C  57.75300 25.25000 44.51200
C  56.23100 25.31800 44.65300
C  58.90300 23.04800 45.41700
C  58.35300 26.12200 43.35000
C  58.58800 27.64000 43.74700
N  53.34400 25.88600 44.51500
C  54.25400 26.84600 44.85500
C  53.60400 28.09300 45.07400
C  52.22400 27.79700 44.63600
C  52.12100 26.43000 44.39700
C  54.19300 29.40900 45.48600
C  50.88300 28.29900 44.40600
O  50.52900 29.48000 44.55700
C  49.92200 27.10100 44.04300
C  49.52200 27.47500 42.65000
O  50.24300 27.31300 41.65800
O  48.33600 28.06700 42.71600
C  47.63000 28.61800 41.55900
H  50.88600 20.22700 43.76700
H  57.19000 21.16400 44.56400
H  56.26300 27.38200 45.08700
H  48.66600 24.38800 44.56400
H  49.12800 21.82300 43.03600
H  48.35000 22.56000 45.85400
H  49.53100 21.23000 45.69200
H  47.97200 21.13600 44.86300
H  48.05900 25.34900 42.41800
H  47.53400 23.77600 42.32400
H  50.28200 23.64800 41.28400
H  49.57900 25.09800 40.67900
H  53.44400 17.56400 42.64400
H  51.88100 18.33200 43.20300
H  53.00400 17.38200 44.16600
H  57.95300 17.89300 42.89300
H  58.16100 18.68100 44.43200
H  57.76200 19.70800 42.92000
H  58.35200 23.55700 43.40900
H  58.12400 25.69100 45.43700
H  59.60500 23.78300 45.81200
H  59.53600 22.34200 44.87900
H  58.36400 22.50900 46.19600
H  57.66600 26.13200 42.50400
H  59.31500 25.70800 43.04900
H  59.36600 28.11300 43.14800
H  58.75700 27.71000 44.82200
H  57.69400 28.21300 43.50200
H  53.53900 30.20600 45.13000
H  55.20500 29.42200 45.08300
H  54.29100 29.44100 46.57100
H  49.14600 27.12100 44.80900
H  47.89900 27.89200 40.79100
H  48.04000 29.62300 41.46000
H  46.57400 28.40700 41.72400

