158

Mg 36.15400 3.11400 29.84600
C  33.45600 3.83500 32.04000
C  38.18500 3.11600 32.56000
C  38.47000 2.88600 27.59000
C  33.71800 3.20400 27.18500
N  35.87100 3.40100 32.05300
C  34.65600 3.61800 32.73200
C  34.85000 3.69200 34.23400
C  36.41800 3.64300 34.34300
C  36.87100 3.38500 32.91400
C  37.11300 4.91100 34.90200
C  34.09700 2.51300 34.93300
C  33.71700 2.89500 36.41500
H  34.38000 3.98700 37.36000
N  38.09200 2.91000 30.06500
C  38.79800 2.93300 31.28000
C  40.15800 2.62100 30.96000
C  40.28100 2.54100 29.50900
C  38.90900 2.82500 28.97300
C  41.24100 2.36100 31.95600
C  41.50300 2.24100 28.54300
O  41.39400 2.08200 27.33900
C  42.93000 2.12600 29.15800
N  36.14300 2.88600 27.68800
C  37.24400 2.75100 26.98200
C  36.89400 2.62200 25.41200
C  35.35200 2.32000 25.43100
C  35.03000 2.75500 26.90200
C  37.20100 3.93800 24.64900
C  35.04500 0.82200 25.06300
C  34.04200 0.51600 23.92400
N  34.05300 3.60500 29.58500
C  33.23400 3.58900 28.47400
C  31.83100 3.92300 28.87900
C  31.90800 4.10000 30.30900
C  33.23800 3.83700 30.62800
C  30.65900 4.24900 27.95900
C  31.14500 4.41400 31.48000
O  29.95600 4.69000 31.59300
C  32.12000 4.13400 32.63100
C  32.01200 5.40400 33.38200
O  32.30500 6.50500 32.90600
O  31.45600 5.18000 34.62600
C  31.29900 6.36800 35.41600
H  38.81700 2.93900 33.43300
H  39.22800 2.85300 26.80500
H  33.03900 3.18400 26.33000
H  34.49600 4.68300 34.51900
H  36.78800 2.78000 34.89700
H  37.78700 5.28400 34.13200
H  37.78900 4.49300 35.64800
H  36.42800 5.69800 35.21900
H  34.59900 1.54600 34.89800
H  33.18200 2.33100 34.37000
H  33.75400 1.95100 36.95800
H  32.69800 3.28200 36.45000
H  42.04200 3.09200 31.84400
H  41.74300 1.43100 31.68900
H  40.79900 2.23600 32.94500
H  43.01500 2.80500 30.00700
H  43.61000 2.48200 28.38500
H  43.22700 1.10200 29.38200
H  37.48500 1.77200 25.07200
H  34.88000 2.95100 24.67800
H  36.29100 4.47000 24.37000
H  37.81500 3.73000 23.77300
H  37.79900 4.60000 25.27600
H  34.68000 0.51700 26.04400
H  35.87400 0.15000 24.84000
H  33.55600 1.37300 23.45900
H  33.23300 -0.15500 24.21500
H  34.63700 0.01400 23.16100
H  29.67500 4.23700 28.42700
H  30.55300 3.57700 27.10800
H  30.73700 5.29600 27.66500
H  31.60900 3.36400 33.21000
H  30.90200 7.21900 34.86200
H  32.14100 6.49000 36.09800
H  30.50400 6.13400 36.12400
Mg 54.50600 24.32000 45.36400
C  51.98300 26.63900 44.55700
C  52.51800 21.92800 43.89900
C  57.13000 22.41900 45.28600
C  56.50100 27.06800 46.34400
N  52.44400 24.33600 44.50700
C  51.63300 25.33400 44.21600
C  50.26000 24.85200 43.73000
C  50.40600 23.39600 43.98100
C  51.91400 23.18400 44.07800
C  49.70300 22.76700 45.18300
C  50.05900 25.24000 42.20900
C  48.53800 25.28800 42.01000
H  48.09100 24.71600 40.72900
N  54.79900 22.36900 44.76600
C  53.82800 21.52800 44.26900
C  54.42500 20.28900 44.10300
C  55.83000 20.33800 44.37100
C  55.97600 21.73700 44.84100
C  53.59700 19.04600 43.76400
C  56.87000 19.26600 44.28900
O  56.44300 18.18100 43.85200
C  58.31100 19.35100 44.73300
N  56.50400 24.68200 45.70400
C  57.38800 23.68600 45.73400
C  58.82600 24.08500 46.26300
C  58.59700 25.54300 46.69600
C  57.11500 25.79200 46.21900
C  59.26000 23.17800 47.45600
C  59.65000 26.56200 46.11100
C  60.61900 26.90000 47.20400
N  54.27600 26.35700 45.55000
C  55.16500 27.32600 46.04600
C  54.39700 28.57200 46.28100
C  53.15400 28.33000 45.66000
C  53.17900 27.02300 45.14000
C  54.96400 29.76000 46.97500
C  51.85100 28.94800 45.31600
O  51.41100 30.07700 45.57000
C  51.08300 27.87200 44.55100
C  50.85300 28.30900 43.20600
O  51.74500 28.54000 42.40600
O  49.45200 28.36100 42.93200
C  49.01700 28.89000 41.66100
H  51.78500 21.17800 43.59700
H  57.96600 21.73100 45.43400
H  57.03200 27.89100 46.82700
H  49.56800 25.43500 44.33800
H  49.87700 22.77200 43.26100
H  50.39000 22.20400 45.81600
H  48.94800 22.08700 44.78900
H  49.22600 23.53700 45.78900
H  50.69800 24.51500 41.70500
H  50.43700 26.18900 41.82800
H  48.21200 26.31900 42.14500
H  47.98600 24.73700 42.77100
H  52.60700 19.12900 44.21300
H  54.00100 18.11400 44.16000
H  53.62500 19.04500 42.67400
H  58.73200 20.14800 44.12000
H  58.69900 18.35100 44.54200
H  58.33700 19.55300 45.80400
H  59.45500 24.08800 45.37200
H  58.66200 25.57500 47.78400
H  59.68200 23.78100 48.26000
H  60.05200 22.52900 47.08200
H  58.47300 22.48400 47.75200
H  59.05500 27.42300 45.80500
H  60.27400 26.06100 45.37100
H  60.62200 26.23800 48.07000
H  60.29200 27.90700 47.46100
H  61.62500 26.94000 46.78500
H  54.92700 29.50600 48.03500
H  54.30400 30.60500 46.78100
H  56.01000 29.90100 46.70200
H  50.15200 27.77600 45.11100
H  47.97600 28.57800 41.56600
H  49.66700 28.39900 40.93600
H  48.99700 29.97900 41.64300

