158

Mg 8.48800 3.10700 27.12100
C  10.10800 1.49700 29.75600
C  7.07600 5.23200 29.32200
C  6.92400 4.47400 24.46400
C  9.83000 0.59500 24.95300
N  8.55300 3.31800 29.34200
C  9.40300 2.62900 30.17400
C  9.22800 3.10300 31.68900
C  8.25900 4.33300 31.55100
C  7.92900 4.32300 30.01400
C  7.09400 4.31100 32.47000
C  10.52300 3.30100 32.59000
C  10.44800 4.19400 33.83800
H  10.95600 3.51800 35.15400
N  7.17100 4.52200 26.95700
C  6.79300 5.38500 27.93400
C  5.83700 6.32000 27.39800
C  5.64800 6.02900 25.99000
C  6.65200 4.98300 25.74500
C  5.03300 7.27500 28.31100
C  4.71400 6.65500 24.99500
O  4.62400 6.29400 23.86700
C  3.62800 7.55800 25.45100
N  8.58800 2.69400 25.00600
C  7.72000 3.36700 24.19300
C  7.53900 2.47700 22.94100
C  8.57500 1.38700 23.00800
C  9.13000 1.60300 24.37900
C  6.03000 2.00200 22.74800
C  9.66800 1.37800 21.89200
C  9.69300 0.20800 20.92800
N  9.68300 1.37700 27.28900
C  10.27700 0.56800 26.30200
C  11.20500 -0.29500 26.97600
C  11.21100 0.00400 28.30800
C  10.25700 1.07300 28.46400
C  12.08100 -1.41000 26.42200
C  11.76100 -0.36400 29.68000
O  12.57600 -1.22400 30.04000
C  11.13000 0.71100 30.57300
C  10.57500 0.05100 31.82000
O  9.42900 -0.40100 31.99400
O  11.62600 0.02300 32.71100
C  11.36600 -0.31500 34.11400
H  6.72500 6.01800 29.99300
H  6.39200 4.84700 23.58600
H  10.09100 -0.28400 24.35900
H  8.70100 2.27900 32.16900
H  8.87400 5.20900 31.75900
H  6.68500 5.31900 32.54600
H  7.45500 3.94600 33.43100
H  6.35100 3.56400 32.19100
H  11.37900 3.61900 31.99500
H  10.69200 2.32300 33.04100
H  9.48300 4.62400 34.10400
H  11.11800 5.02700 33.62200
H  4.00000 7.05300 28.04400
H  5.33500 8.30900 28.14500
H  5.09300 7.11700 29.38700
H  3.14300 8.01300 24.58800
H  4.21200 8.38500 25.85600
H  2.97900 7.13100 26.21700
H  7.65700 3.16400 22.10300
H  7.96400 0.48800 22.93200
H  5.51600 2.15700 23.69700
H  5.98800 0.92300 22.60100
H  5.48700 2.49000 21.93800
H  10.63900 1.43300 22.38500
H  9.65100 2.25400 21.24400
H  8.87200 -0.48600 21.11200
H  10.61500 -0.36600 21.02100
H  9.60900 0.50000 19.88100
H  12.34700 -0.98100 25.45600
H  11.45000 -2.27900 26.23700
H  12.95700 -1.60700 27.04100
H  11.93800 1.37900 30.87000
H  11.46700 0.55200 34.76600
H  12.16500 -0.90200 34.56700
H  10.52400 -1.00000 34.21200
Mg 53.50500 23.95300 45.16800
C  50.63600 25.86300 44.49100
C  52.19600 21.28700 43.83500
C  56.71100 22.60300 45.09300
C  54.99500 27.04300 46.09500
N  51.65600 23.68600 44.23900
C  50.62700 24.51400 44.02300
C  49.31400 23.80800 43.75000
C  49.83600 22.27500 43.67900
C  51.33700 22.44000 43.96000
C  49.13900 21.23700 44.66100
C  48.54600 24.23500 42.54200
C  49.35800 24.36400 41.23000
H  48.85600 23.74900 39.99300
N  54.34300 22.14700 44.56500
C  53.59900 21.14100 44.11700
C  54.45900 19.97800 43.90700
C  55.80200 20.33600 44.22300
C  55.69400 21.71700 44.68200
C  53.90700 18.64000 43.28300
C  57.02800 19.47300 44.11400
O  56.92900 18.34700 43.66500
C  58.37900 20.01300 44.47300
N  55.55900 24.75300 45.40700
C  56.61200 23.97400 45.29600
C  57.93900 24.78600 45.58400
C  57.38000 26.16900 45.94400
C  55.84500 26.00400 45.77100
C  58.99800 24.20200 46.62000
C  57.74500 27.37100 45.02500
C  59.23000 27.46100 44.60500
N  52.91500 26.00000 45.45900
C  53.58900 27.06900 45.92300
C  52.74200 28.23700 46.22100
C  51.56600 27.85700 45.58500
C  51.74200 26.47900 45.12200
C  53.17100 29.50500 46.93200
C  50.20500 28.25400 45.22800
O  49.54200 29.30300 45.46100
C  49.59900 26.99800 44.46300
C  49.35400 27.52400 43.12600
O  50.27500 27.79800 42.32400
O  47.99900 27.59400 42.86600
C  47.40700 28.02700 41.54900
H  51.58700 20.39300 43.68400
H  57.69400 22.13300 45.16600
H  55.37400 28.04800 46.29400
H  48.81900 23.93700 44.71300
H  49.77500 21.92100 42.64900
H  48.44800 21.80000 45.28800
H  49.81300 20.62800 45.26300
H  48.59500 20.57600 43.98500
H  48.01300 25.16700 42.72800
H  47.66200 23.60200 42.45700
H  50.33000 23.91900 41.44200
H  49.56200 25.41000 40.99800
H  54.42000 18.39800 42.35200
H  52.83500 18.72400 43.11100
H  54.05500 17.75200 43.89700
H  58.58900 20.82100 43.77300
H  59.04600 19.17400 44.27500
H  58.30300 20.25500 45.53400
H  58.47000 24.81800 44.63300
H  57.53800 26.32900 47.01100
H  59.70400 23.54300 46.11600
H  58.62800 23.60300 47.45300
H  59.62000 24.97300 47.07400
H  57.50900 28.33000 45.48800
H  57.19600 27.18400 44.10200
H  59.87100 26.75500 45.13300
H  59.73200 28.41000 44.79700
H  59.22200 27.17900 43.55300
H  52.29900 30.13000 47.12700
H  53.91600 30.05800 46.36000
H  53.58300 29.28300 47.91600
H  48.64100 26.68800 44.88000
H  46.80500 28.93500 41.54500
H  46.79800 27.23400 41.11300
H  48.23200 28.28700 40.88600

