158

Mg 46.86400 24.80000 28.53800
C  47.24600 27.03100 31.27900
C  45.32200 22.62100 30.60100
C  47.47200 22.31000 26.29600
C  48.83100 27.03100 26.55400
N  46.40700 24.82700 30.70300
C  46.63900 25.84700 31.58500
C  46.11900 25.53700 33.01700
C  45.46700 24.06600 32.76000
C  45.74400 23.78000 31.32100
C  46.15000 22.92200 33.58300
C  45.24900 26.61300 33.69700
C  45.65600 27.02500 35.06100
H  44.65900 26.80100 36.27400
N  46.30100 22.84500 28.35600
C  45.50600 22.15600 29.25300
C  45.06200 20.88400 28.74500
C  45.80100 20.78600 27.48200
C  46.55500 22.00700 27.31600
C  44.32700 19.82200 29.59500
C  45.75100 19.68200 26.57200
O  46.35500 19.63800 25.52500
C  44.85400 18.45600 26.81800
N  47.96700 24.70600 26.70400
C  48.04600 23.54500 25.97000
C  48.73700 23.81000 24.65400
C  49.21100 25.30800 24.71600
C  48.64300 25.74400 26.03800
C  49.79100 22.73600 24.29100
C  48.59200 26.14900 23.52900
C  47.12700 26.67000 23.58500
N  47.78500 26.69300 28.77700
C  48.48800 27.44000 27.87400
C  48.85800 28.70800 28.47500
C  48.36500 28.61900 29.86100
C  47.73200 27.36100 29.96200
C  49.77100 29.76200 27.88200
C  48.30000 29.22100 31.17400
O  48.66400 30.32400 31.60500
C  47.58900 28.13500 32.12400
C  48.56900 27.70100 33.22000
O  49.46100 26.86300 33.09500
O  48.39900 28.54700 34.23600
C  49.23000 28.41400 35.49900
H  44.68000 22.00200 31.23100
H  47.65000 21.55100 25.53100
H  49.20800 27.81100 25.89000
H  46.91000 25.36600 33.74800
H  44.43300 23.96200 33.09000
H  46.45900 23.27700 34.56600
H  47.04700 22.52400 33.10900
H  45.47100 22.11400 33.85700
H  44.28100 26.16900 33.92900
H  45.02400 27.53300 33.15800
H  45.95100 28.07400 35.02100
H  46.57800 26.56100 35.41400
H  43.52000 19.36300 29.02400
H  43.97300 20.26800 30.52400
H  45.06100 19.09500 29.94000
H  45.07300 18.16000 27.84300
H  45.06500 17.65600 26.10800
H  43.80900 18.71800 26.65100
H  48.08300 23.66500 23.79400
H  50.29900 25.28200 24.78200
H  50.11000 22.29100 25.23400
H  50.60300 23.11300 23.66800
H  49.45100 21.87400 23.71800
H  48.69600 25.46000 22.69200
H  49.16400 27.03400 23.24900
H  46.56000 26.05700 22.88400
H  47.04900 27.74900 23.45500
H  46.77400 26.48700 24.60000
H  50.42600 29.45600 27.06700
H  50.40000 30.22900 28.64000
H  49.10700 30.51600 27.46000
H  46.78500 28.71600 32.57600
H  49.83100 29.32100 35.56400
H  49.82500 27.50200 35.55600
H  48.59300 28.42400 36.38400
Mg 41.43900 42.29900 27.20200
C  40.31600 44.23100 29.81800
C  42.50300 39.93900 29.57500
C  42.77500 40.29700 24.76300
C  40.50200 44.63200 24.92800
N  41.31000 42.07300 29.46300
C  40.79800 43.00700 30.29600
C  40.83700 42.52900 31.79900
C  41.62400 41.18500 31.60500
C  41.85100 41.02600 30.11600
C  42.86500 40.97300 32.47800
C  39.44100 42.46800 32.48400
C  39.39500 41.81400 33.85700
H  39.30200 42.76100 35.06900
N  42.47700 40.41300 27.12100
C  42.74500 39.58100 28.21500
C  43.52900 38.46300 27.75800
C  43.52400 38.53000 26.34900
C  42.91000 39.79600 26.02600
C  43.94900 37.29500 28.70700
C  43.95800 37.39700 25.30900
O  43.83500 37.46500 24.08600
C  44.39900 36.14500 25.94300
N  41.58800 42.37400 25.09800
C  42.20700 41.48000 24.30300
C  42.18200 41.96500 22.85200
C  41.36700 43.32100 22.91700
C  41.09800 43.47700 24.41300
C  43.50600 42.05300 22.03100
C  40.11200 43.29800 21.95600
C  38.93700 42.55700 22.44200
N  40.58500 44.13600 27.25600
C  40.22900 44.99400 26.27100
C  39.64900 46.17400 26.82900
C  39.60500 45.95400 28.21300
C  40.22200 44.67600 28.43000
C  39.10800 47.34100 26.13300
C  39.19800 46.46800 29.51500
O  38.56200 47.44300 29.79600
C  39.60700 45.32600 30.51800
C  40.20800 45.94100 31.70700
O  41.42200 46.11300 31.80900
O  39.22800 46.26200 32.63900
C  39.71000 47.03500 33.80600
H  42.89800 39.18400 30.25700
H  43.46800 39.78600 24.09200
H  40.10900 45.37800 24.23300
H  41.48000 43.23200 32.32800
H  40.92400 40.38800 31.85500
H  43.69500 41.05800 31.77700
H  42.85300 39.99200 32.95200
H  42.96800 41.82800 33.14600
H  38.76300 41.91400 31.83500
H  39.10000 43.49800 32.58800
H  40.21000 41.11000 34.02400
H  38.50100 41.19600 33.92500
H  44.02900 37.66400 29.73000
H  44.96500 36.96100 28.49400
H  43.31900 36.40800 28.77100
H  43.51600 35.78300 26.47000
H  45.28400 36.41600 26.51900
H  44.70200 35.35800 25.25300
H  41.65000 41.15700 22.34900
H  41.99500 44.16900 22.64400
H  43.60300 41.37600 21.18200
H  44.28700 41.76000 22.73400
H  43.70100 43.04700 21.62900
H  40.24400 42.99400 20.91700
H  39.93100 44.36500 21.82300
H  38.18000 43.25700 22.79400
H  39.09900 41.90600 23.30200
H  38.51100 42.00600 21.60400
H  39.98500 47.82700 25.70500
H  38.62800 48.05500 26.80200
H  38.43700 47.17700 25.28900
H  38.60300 45.01400 30.80600
H  38.94100 47.69700 34.20300
H  40.52900 47.66600 33.46000
H  40.02400 46.45800 34.67500

