158

Mg 25.09300 0.87000 29.97000
C  27.18200 0.60400 32.77700
C  22.43800 1.36600 32.20900
C  22.88900 0.52800 27.35500
C  27.66000 -0.33500 27.94800
N  24.85600 1.05100 32.19200
C  25.86200 0.89600 33.10300
C  25.40700 1.23500 34.55200
C  23.83800 1.36200 34.33100
C  23.68900 1.27900 32.80800
C  22.98100 0.28400 35.10600
C  26.10200 2.53400 35.09300
C  26.58300 2.33300 36.54000
H  26.02800 3.20100 37.67800
N  22.98100 0.94600 29.81800
C  22.10300 1.23300 30.87400
C  20.76500 1.31300 30.36800
C  20.90200 0.92400 28.97900
C  22.29100 0.75600 28.65700
C  19.55100 1.59800 31.13700
C  19.74500 0.70700 28.00800
O  19.94000 0.19800 26.90000
C  18.38100 0.94900 28.39300
N  25.24900 0.16900 27.98000
C  24.19200 0.23300 27.06400
C  24.71100 0.04400 25.60100
C  26.24200 0.00200 25.76400
C  26.43900 -0.01900 27.31800
C  24.05100 -1.20900 24.88300
C  27.03100 1.20500 25.13000
C  27.45600 2.46700 25.95800
N  27.08200 0.39500 30.18200
C  27.96300 -0.09200 29.33000
C  29.24800 -0.33200 30.01000
C  28.97800 -0.11600 31.33400
C  27.65300 0.28000 31.43600
C  30.58300 -0.71700 29.29900
C  29.52100 -0.19000 32.63600
O  30.61900 -0.49700 33.05100
C  28.46500 0.40100 33.60700
C  28.26500 -0.55200 34.72800
O  27.61600 -1.58700 34.73900
O  28.97600 -0.12400 35.78000
C  28.67000 -0.80400 37.02800
H  21.60800 1.63100 32.86700
H  22.23600 0.64300 26.48700
H  28.44100 -0.59200 27.22900
H  25.58900 0.42500 35.25900
H  23.42800 2.33800 34.59400
H  22.94400 -0.71000 34.66000
H  21.95200 0.64400 35.11500
H  23.30200 0.04500 36.12000
H  25.39600 3.34800 34.92300
H  27.02300 2.71200 34.53800
H  27.67200 2.29200 36.57600
H  26.27100 1.33100 36.83300
H  19.67100 1.81400 32.19900
H  19.06000 0.62500 31.16700
H  18.94000 2.39700 30.71800
H  17.73500 0.62600 27.57700
H  18.24500 1.98900 28.68800
H  18.15000 0.28100 29.22300
H  24.44800 0.89300 24.97000
H  26.65000 -0.93000 25.37400
H  23.09700 -1.07200 24.37400
H  23.81600 -1.94800 25.64900
H  24.79700 -1.59000 24.18600
H  26.42200 1.67700 24.35900
H  27.91100 0.84700 24.59700
H  28.53500 2.61000 26.02300
H  27.16300 2.30100 26.99500
H  26.87300 3.30400 25.57600
H  30.78300 -0.12900 28.40400
H  30.30500 -1.73600 29.03100
H  31.49300 -0.70300 29.90000
H  28.86900 1.33000 34.00900
H  27.63100 -0.55700 37.24500
H  29.35200 -0.44100 37.79700
H  28.78800 -1.88400 36.93500
Mg 9.50600 48.95300 25.43800
C  7.87400 48.76600 28.41600
C  12.26000 50.21600 27.10600
C  11.08500 48.99400 22.51900
C  6.67800 47.72600 23.83700
N  9.88700 49.63200 27.56200
C  9.16100 49.25100 28.60200
C  9.92500 49.62400 29.90800
C  10.99200 50.58800 29.44500
C  11.09700 50.12400 27.95000
C  10.72400 52.14900 29.48400
C  10.43500 48.46900 30.83100
C  9.67400 48.33900 32.12000
H  10.24500 49.24300 33.20400
N  11.40500 49.46700 24.89800
C  12.36500 49.89000 25.68900
C  13.61300 49.95800 24.96400
C  13.37200 49.67900 23.65600
C  11.86900 49.40100 23.60000
C  14.93000 50.48700 25.54200
C  14.29700 49.58900 22.41600
O  13.83100 49.31400 21.29800
C  15.77700 49.77400 22.59200
N  8.85600 48.51400 23.38000
C  9.72300 48.61000 22.36000
C  9.17700 48.20600 20.97300
C  7.83600 47.56200 21.45500
C  7.72900 47.96200 22.93900
C  8.96600 49.27500 19.90100
C  7.82600 46.00000 21.21400
C  7.20900 45.59600 19.86000
N  7.61000 48.39200 25.92400
C  6.59800 48.01400 25.19800
C  5.47900 47.79700 26.05000
C  5.93400 48.06000 27.33200
C  7.24900 48.45900 27.19000
C  4.09300 47.29200 25.58200
C  5.53000 48.10400 28.70300
O  4.43500 47.84500 29.21900
C  6.85400 48.49400 29.51400
C  7.07400 47.27800 30.36500
O  7.65300 46.29900 29.99200
O  6.55500 47.40000 31.66700
C  6.65100 46.24000 32.60600
H  13.04300 50.70500 27.68900
H  11.53900 49.04200 21.52700
H  5.80800 47.26100 23.36900
H  9.32800 50.32600 30.49000
H  11.96900 50.41000 29.89500
H  10.81200 52.62300 28.50600
H  11.34300 52.69400 30.19600
H  9.70500 52.40700 29.77200
H  11.45300 48.61400 31.19200
H  10.44300 47.47700 30.38100
H  9.82200 47.28900 32.37300
H  8.63800 48.63400 31.95100
H  14.74800 50.82000 26.56400
H  15.35700 51.30500 24.96100
H  15.66600 49.68400 25.57300
H  16.00700 50.83900 22.63200
H  16.33700 49.31500 21.77800
H  16.21200 49.28900 23.46500
H  9.89900 47.51900 20.53100
H  6.92100 48.05600 21.12800
H  8.01000 49.79900 19.89300
H  9.16200 48.83800 18.92300
H  9.72800 50.03100 20.09100
H  7.31100 45.49600 22.03300
H  8.87700 45.71300 21.24200
H  6.68300 46.34100 19.26300
H  6.45900 44.81700 19.99500
H  7.98700 45.17700 19.22300
H  4.43300 46.38400 25.08400
H  3.63100 48.07400 24.97900
H  3.36800 47.08600 26.36900
H  6.65200 49.32100 30.19400
H  7.47600 45.54600 32.44300
H  5.72900 45.66100 32.54700
H  6.74200 46.55500 33.64600

