158

Mg 1.08800 7.90700 26.87100
C  2.14000 9.57900 29.66000
C  0.54200 5.15300 28.94900
C  0.82400 5.98500 24.11200
C  1.60700 10.55900 24.90100
N  1.31900 7.43000 29.14600
C  1.66200 8.30400 30.06800
C  1.42300 7.79900 31.50400
C  1.19900 6.18100 31.11800
C  0.98400 6.23600 29.63300
C  2.54100 5.33300 31.44700
C  0.32500 8.44900 32.41100
C  0.69600 8.91400 33.80800
H  1.90700 8.21500 34.56700
N  0.70800 5.86500 26.59300
C  0.45000 4.95100 27.57300
C  0.01200 3.74000 26.98800
C  0.09900 3.86600 25.55400
C  0.63300 5.22600 25.36300
C  -0.42000 2.55400 27.78000
C  -0.38500 2.98500 24.43700
O  -0.39900 3.43000 23.27500
C  -0.84000 1.60900 24.61200
N  0.93300 8.24700 24.75900
C  0.98900 7.35800 23.73900
C  0.86600 8.01700 22.31700
C  0.78000 9.52600 22.78900
C  1.19900 9.44200 24.22900
C  2.12900 7.57600 21.38800
C  -0.59700 10.16900 22.57200
C  -0.70800 11.61200 21.89400
N  1.72700 9.68700 27.17800
C  1.84000 10.74700 26.29900
C  2.28900 11.90800 27.02900
C  2.38800 11.45600 28.37000
C  2.06300 10.11600 28.42300
C  2.46100 13.31800 26.51800
C  2.77800 12.02600 29.67000
O  3.09400 13.14600 30.05800
C  2.65000 10.73100 30.56800
C  3.94100 10.42400 31.30500
O  4.85600 9.75800 30.93500
O  3.97000 11.06900 32.53800
C  5.01600 11.04700 33.57600
H  0.20400 4.33900 29.59400
H  0.67800 5.40900 23.19600
H  1.78800 11.48200 24.34600
H  2.37600 7.82200 32.03300
H  0.31200 5.62000 31.41200
H  2.48200 4.78000 32.38500
H  3.39200 6.01100 31.39200
H  2.82300 4.73700 30.57900
H  -0.40300 7.65100 32.55900
H  -0.04200 9.33700 31.89700
H  -0.11300 8.80300 34.53000
H  1.06900 9.93100 33.68800
H  -1.50300 2.60600 27.89400
H  -0.09800 2.48000 28.81900
H  -0.26400 1.64700 27.19700
H  -1.45400 1.55400 25.51100
H  0.02500 0.96300 24.76100
H  -1.37800 1.17600 23.76800
H  -0.09600 7.70000 21.91500
H  1.58500 10.06800 22.29300
H  2.94100 8.29200 21.52000
H  1.89400 7.64000 20.32600
H  2.48600 6.59600 21.70600
H  -1.17000 10.25000 23.49500
H  -1.22000 9.48800 21.99200
H  -1.01900 12.33200 22.65100
H  -1.39400 11.70700 21.05200
H  0.21700 12.06400 21.53700
H  2.08500 13.35200 25.49600
H  3.52400 13.48500 26.69300
H  1.91100 14.11000 27.02700
H  1.96200 11.06900 31.34300
H  5.36600 12.06800 33.73200
H  5.76000 10.29600 33.31000
H  4.51500 10.74400 34.49500
Mg 26.70700 49.96300 25.73800
C  24.86100 51.58800 28.40000
C  29.03600 49.26600 28.17100
C  28.71000 49.01300 23.31000
C  24.72000 51.79500 23.52800
N  26.70400 50.17800 28.09100
C  25.90400 50.87100 28.93300
C  26.35100 50.71700 30.39600
C  27.79300 50.13200 30.24100
C  27.84700 49.83800 28.73200
C  28.90500 51.09300 30.68000
C  25.36200 49.86500 31.23600
C  24.96200 50.42000 32.60900
H  25.92500 50.49100 33.84300
N  28.49100 49.10800 25.69900
C  29.31700 48.88700 26.84500
C  30.45500 48.07000 26.42200
C  30.27600 47.90000 24.98200
C  29.16100 48.70600 24.58200
C  31.59200 47.56100 27.23800
C  30.86900 46.79300 24.02400
O  30.56100 46.66700 22.83400
C  31.80000 45.75800 24.52900
N  26.57100 50.11100 23.74000
C  27.53300 49.70700 22.92400
C  27.32200 50.01400 21.48200
C  25.89400 50.74600 21.45800
C  25.71600 50.94400 23.00900
C  28.37900 50.93800 20.79400
C  24.76900 49.92100 20.87400
C  24.70500 48.49300 21.41000
N  25.05300 51.33300 25.86800
C  24.37900 51.97500 24.90000
C  23.42100 52.89400 25.39300
C  23.49400 52.75000 26.77500
C  24.56700 51.79500 27.05200
C  22.61400 53.89700 24.65100
C  22.97100 53.10700 28.10200
O  22.03800 53.79400 28.40200
C  23.90700 52.45700 29.19500
C  24.28100 53.55300 30.09500
O  25.22500 54.37300 29.91000
O  23.30500 53.58600 31.11200
C  23.58300 54.70500 32.02300
H  29.72500 49.04300 28.98900
H  29.43100 48.72500 22.54300
H  24.09600 52.35100 22.82400
H  26.44400 51.69300 30.87300
H  27.95900 49.21500 30.80600
H  29.03600 51.75600 29.82400
H  29.80700 50.53000 30.91900
H  28.61200 51.67700 31.55200
H  25.79600 48.87000 31.32800
H  24.47300 49.62700 30.65200
H  24.06900 49.87000 32.90600
H  24.55000 51.41600 32.44400
H  31.46200 47.99000 28.23200
H  32.57100 47.83300 26.84400
H  31.66000 46.47400 27.28700
H  31.21000 45.31600 25.33200
H  32.76200 46.14800 24.86300
H  32.03400 45.15600 23.65100
H  27.34400 49.07900 20.92200
H  25.91100 51.65100 20.85000
H  29.40300 50.96900 21.16800
H  28.13600 52.00000 20.76400
H  28.46600 50.52500 19.78900
H  24.93700 49.88000 19.79700
H  23.83400 50.43800 21.09100
H  25.01900 48.63100 22.44400
H  25.29700 47.81600 20.79500
H  23.66000 48.21000 21.28400
H  23.26200 54.44200 23.96500
H  22.13900 54.68900 25.22900
H  21.87000 53.36000 24.06300
H  23.32700 51.77000 29.81100
H  22.78500 54.79400 32.75900
H  23.68400 55.66500 31.51600
H  24.47900 54.48900 32.60600

