158

Mg 48.37400 34.80000 26.80500
C  46.49100 33.32000 29.49100
C  48.70500 37.60900 28.70800
C  49.87300 36.15800 24.18800
C  47.46900 32.07600 24.99900
N  47.41300 35.40100 28.82200
C  46.90100 34.64600 29.78000
C  47.06400 35.32900 31.17200
C  47.39200 36.77600 30.72900
C  47.88600 36.59400 29.34000
C  46.23700 37.80000 30.99000
C  48.16600 34.47800 31.94000
C  47.98200 34.39800 33.45700
H  46.82000 35.23700 34.02700
N  49.14300 36.65700 26.51700
C  49.27000 37.63500 27.41100
C  50.04300 38.74700 26.80200
C  50.38500 38.29900 25.46800
C  49.77600 36.96800 25.36700
C  50.36200 40.14700 27.49400
C  51.27200 38.97000 24.38200
O  51.51300 38.67100 23.22500
C  52.03000 40.22300 24.82000
N  48.52400 34.30600 24.88100
C  49.24000 34.99700 23.91600
C  49.11100 34.25000 22.60100
C  48.67500 32.85400 22.92900
C  48.17700 33.02700 24.33800
C  48.32700 35.02100 21.59300
C  49.76600 31.75700 22.98700
C  50.53200 31.50700 21.66100
N  47.19900 32.99700 27.08800
C  46.93400 31.96800 26.24200
C  46.15000 30.92000 26.89100
C  45.93800 31.38800 28.13300
C  46.61400 32.67400 28.23500
C  45.74800 29.59000 26.33100
C  45.27700 31.08500 29.40100
O  44.57200 30.15300 29.66000
C  45.61300 32.30000 30.35700
C  46.28800 31.75100 31.51700
O  47.41100 31.28700 31.58200
O  45.31300 31.67900 32.51700
C  45.72600 31.00800 33.74300
H  48.93800 38.55700 29.19700
H  50.35200 36.73500 23.39400
H  47.16400 31.24700 24.35600
H  46.03700 35.23300 31.52300
H  48.13000 37.11000 31.45700
H  45.31000 37.46000 31.45300
H  45.92900 38.15500 30.00700
H  46.63700 38.68800 31.48000
H  49.03900 35.05700 31.63900
H  48.26400 33.46100 31.56000
H  48.92700 34.79100 33.83300
H  47.91400 33.34700 33.73900
H  51.40200 40.45500 27.37800
H  50.22000 40.12700 28.57400
H  49.72600 40.98900 27.22000
H  52.91500 40.40100 24.21000
H  52.59700 40.00400 25.72500
H  51.34900 41.06600 24.93700
H  50.11600 34.16200 22.18800
H  47.82600 32.57800 22.30300
H  47.88800 35.86000 22.13300
H  47.57900 34.35700 21.16000
H  48.80200 35.44700 20.71000
H  49.26900 30.86600 23.37100
H  50.51800 32.00200 23.73800
H  50.65500 30.42800 21.57100
H  51.54100 31.91900 21.64800
H  49.92600 31.90700 20.84900
H  46.47600 29.38300 25.54700
H  44.69600 29.54500 26.05200
H  45.83300 28.92400 27.19000
H  44.72300 32.78800 30.75400
H  45.40400 29.98200 33.56600
H  45.12700 31.45000 34.53900
H  46.79400 31.12600 33.92600
Mg 27.26200 50.46800 25.55400
C  25.25800 51.82700 28.13800
C  29.47500 49.41800 28.05600
C  28.92500 49.07300 23.22600
C  24.90300 51.72300 23.23200
N  27.28100 50.56600 27.85900
C  26.34400 51.16700 28.64900
C  26.75300 50.95400 30.15300
C  28.16700 50.39800 30.13500
C  28.32300 50.11800 28.60500
C  29.24500 51.46500 30.58000
C  25.79800 49.99400 30.99800
C  25.01400 50.67100 32.16300
H  25.80200 51.03000 33.52200
N  29.04100 49.49500 25.60100
C  29.79300 49.12300 26.69800
C  30.94700 48.39300 26.16200
C  30.75700 48.11300 24.78600
C  29.57000 48.94100 24.46300
C  32.02900 47.81300 27.03800
C  31.40600 47.07800 23.87600
O  31.05200 46.91900 22.70100
C  32.36000 46.11400 24.40500
N  27.01500 50.46100 23.52700
C  27.78700 49.84300 22.68200
C  27.35800 49.86500 21.24300
C  25.86800 50.30600 21.32700
C  25.89900 50.88500 22.79100
C  28.22400 50.93600 20.46200
C  24.74200 49.26900 21.22100
C  25.11900 47.77100 21.05200
N  25.48400 51.59000 25.59100
C  24.65700 52.06500 24.59700
C  23.65400 52.90300 25.12400
C  23.78700 52.81900 26.49300
C  24.91700 51.97700 26.78100
C  22.60900 53.67100 24.43300
C  23.19400 53.20400 27.73500
O  22.19800 53.79800 28.03600
C  24.17600 52.63300 28.88200
C  24.73000 53.77000 29.69100
O  25.66000 54.50300 29.28400
O  24.00800 53.92400 30.81200
C  24.42800 54.97900 31.73500
H  30.23500 49.20000 28.81000
H  29.45900 48.73100 22.33600
H  24.14600 51.92100 22.47100
H  26.63600 51.91400 30.65400
H  28.42500 49.50100 30.69700
H  28.82400 52.38900 30.97800
H  29.78400 51.83600 29.70800
H  29.93100 50.99500 31.28400
H  26.29600 49.13500 31.44900
H  25.14900 49.53300 30.25300
H  24.27400 49.91900 32.43700
H  24.44000 51.56400 31.91600
H  33.00800 47.88000 26.56400
H  31.99700 46.73500 27.19900
H  32.11400 48.21200 28.04800
H  32.71300 45.53600 23.55100
H  31.70300 45.50300 25.02500
H  33.28400 46.49700 24.83700
H  27.45400 48.92500 20.70000
H  25.62500 51.17400 20.71300
H  27.70200 51.32100 19.58600
H  29.21200 50.59600 20.15300
H  28.24800 51.77700 21.15600
H  24.05200 49.48400 20.40500
H  24.11700 49.38900 22.10600
H  25.57700 47.55300 22.01600
H  25.78900 47.41500 20.27000
H  24.16500 47.24300 21.05400
H  21.96500 53.14100 23.73100
H  23.04600 54.56200 23.98200
H  22.02700 54.06500 25.26700
H  23.62000 52.14300 29.68200
H  25.39900 54.66200 32.11500
H  23.70100 55.13900 32.53100
H  24.71600 55.89500 31.21800

