158

Mg 41.79500 41.27300 26.68100
C  40.80600 43.50200 29.22800
C  42.85000 39.14200 29.24100
C  42.31600 39.03200 24.35800
C  41.24000 43.88300 24.22300
N  41.83300 41.38900 29.01100
C  41.29300 42.33900 29.80700
C  41.35800 41.96100 31.26200
C  42.22400 40.64800 31.28200
C  42.42000 40.37600 29.72900
C  43.58700 40.66500 32.14000
C  39.92200 41.76600 31.88600
C  39.72200 42.72100 33.07500
H  39.56400 42.11400 34.42800
N  42.69100 39.47600 26.77900
C  42.96100 38.63900 27.85500
C  43.38400 37.31200 27.43600
C  43.29600 37.25600 26.00100
C  42.74100 38.63900 25.64700
C  43.74300 36.19700 28.43300
C  43.70600 36.10700 24.98200
O  43.74200 36.31100 23.76800
C  44.06700 34.70400 25.50800
N  41.86000 41.49200 24.54600
C  42.06300 40.35100 23.86900
C  41.91600 40.68000 22.35700
C  41.73300 42.21600 22.24800
C  41.65500 42.59600 23.75800
C  43.20000 40.18400 21.59300
C  40.54100 42.76400 21.38800
C  41.02500 43.80200 20.36300
N  41.09300 43.21700 26.70100
C  40.84700 44.11200 25.60200
C  40.27600 45.32100 26.14900
C  40.28300 45.13700 27.54000
C  40.73500 43.82500 27.84600
C  39.94300 46.48400 25.28700
C  39.91400 45.81700 28.76700
O  39.49800 46.91900 28.90500
C  40.25200 44.78400 29.87500
C  41.28600 45.49600 30.69200
O  42.46900 45.58300 30.40400
O  40.72800 45.99900 31.88200
C  41.74100 46.37300 32.86100
H  42.87300 38.43900 30.07600
H  42.42000 38.23500 23.61900
H  41.40800 44.58900 23.40700
H  42.01700 42.70100 31.71600
H  41.65600 39.83700 31.73700
H  44.50600 40.39900 31.61800
H  43.47300 39.95000 32.95500
H  43.65200 41.70100 32.47000
H  39.77500 40.76200 32.28600
H  39.18600 41.97200 31.10900
H  38.81200 43.26700 32.82500
H  40.49500 43.48900 33.06800
H  43.54500 36.59400 29.42800
H  44.77300 35.87700 28.26900
H  43.03700 35.36700 28.47700
H  44.06900 33.97800 24.69500
H  43.33500 34.38700 26.25100
H  45.00300 34.69700 26.06600
H  41.03900 40.12300 22.02600
H  42.64700 42.72100 21.93600
H  43.96000 40.05600 22.36400
H  43.37600 40.92200 20.81100
H  42.99100 39.27900 21.02400
H  39.77100 43.24500 21.99100
H  40.07600 41.88700 20.93900
H  40.43100 44.71100 20.46400
H  40.93000 43.50500 19.31900
H  42.04100 44.12600 20.58500
H  39.50900 46.24900 24.31600
H  40.83600 47.03700 24.99600
H  39.28200 47.02300 25.96600
H  39.32400 44.50400 30.37500
H  41.76800 45.59900 33.62700
H  41.28500 47.18800 33.42400
H  42.75600 46.56200 32.51000
Mg 8.73500 48.14300 25.30700
C  6.62100 48.60400 28.06700
C  11.37400 49.15500 27.21000
C  10.62300 47.56000 22.73000
C  5.82900 47.89100 23.19800
N  8.95300 48.75200 27.40800
C  7.95700 48.91100 28.42200
C  8.56700 49.10700 29.78700
C  9.85500 49.86500 29.23600
C  10.11600 49.18600 27.85700
C  9.58100 51.40900 29.15500
C  8.76400 47.88600 30.65000
C  8.31400 48.11000 32.12800
H  8.23000 46.78300 32.99600
N  10.66900 48.32900 24.99700
C  11.62500 48.72400 25.87600
C  12.95000 48.60700 25.32600
C  12.81400 48.04100 24.03000
C  11.32700 47.96800 23.80100
C  14.26800 48.75800 26.15700
C  13.82000 47.65500 22.94500
O  13.53400 47.25000 21.80500
C  15.25900 47.99400 23.11400
N  8.20200 47.90200 23.23300
C  9.26500 47.52500 22.45100
C  8.74700 47.09300 21.04200
C  7.18300 47.00400 21.20200
C  7.02500 47.67800 22.60600
C  9.34900 47.89200 19.83900
C  6.59900 45.52400 21.16600
C  5.43700 45.17900 20.28400
N  6.71800 48.34600 25.54500
C  5.70000 48.19000 24.59200
C  4.44500 48.06800 25.37800
C  4.86200 48.22600 26.72000
C  6.17200 48.45300 26.76000
C  3.07900 47.67700 24.86100
C  4.31900 48.22400 27.98800
O  3.13500 48.07500 28.30800
C  5.43800 48.56300 28.96300
C  5.56000 47.35200 29.86600
O  6.12200 46.27900 29.62900
O  4.94400 47.66700 30.99500
C  4.67400 46.66000 32.05500
H  12.22300 49.35700 27.86700
H  11.23100 47.15600 21.91800
H  4.97900 47.55200 22.60200
H  7.81800 49.74600 30.25500
H  10.70200 49.68100 29.89700
H  9.97200 51.80200 28.21600
H  10.23100 51.79100 29.94200
H  8.55000 51.70000 29.35400
H  9.82700 47.64800 30.70000
H  8.26900 47.05600 30.14600
H  7.33900 48.59300 32.06600
H  8.99400 48.81700 32.60300
H  14.15000 48.49100 27.20800
H  14.62300 49.78800 26.12200
H  15.02300 48.03000 25.86200
H  15.79400 47.26200 23.71900
H  15.23900 48.99500 23.54400
H  15.84400 47.92200 22.19800
H  9.08500 46.06400 20.91900
H  6.72200 47.63600 20.44300
H  10.27500 48.40100 20.10500
H  8.59700 48.61800 19.53100
H  9.55000 47.20800 19.01400
H  6.48900 45.15100 22.18500
H  7.38700 44.95300 20.67500
H  5.65000 44.35200 19.60700
H  5.12200 45.96600 19.59800
H  4.56200 44.93100 20.88400
H  2.88500 47.86200 23.80400
H  2.45400 48.27000 25.52800
H  2.83000 46.68000 25.22600
H  5.34500 49.40900 29.64500
H  4.99700 47.09200 33.00200
H  5.13800 45.69200 31.86700
H  3.58900 46.56800 32.11100

