158

Mg -10.06600 37.32300 42.33600
C  -7.91600 34.81500 41.53100
C  -7.94900 39.71200 41.30100
C  -12.55400 39.79100 42.68700
C  -12.58800 34.96600 42.84000
N  -8.12300 37.24500 41.58300
C  -7.43200 36.10300 41.22900
C  -6.07700 36.47800 40.65900
C  -5.97000 38.04400 40.72800
C  -7.44300 38.38000 41.28300
C  -4.79500 38.67200 41.56700
C  -5.91900 35.95100 39.20000
C  -4.50100 35.57700 38.78600
H  -4.05200 35.99900 37.31800
N  -10.22400 39.48500 42.01700
C  -9.19500 40.24800 41.62500
C  -9.53900 41.57800 41.50500
C  -10.81400 41.67700 42.15000
C  -11.24700 40.24700 42.36000
C  -8.62900 42.62200 40.92500
C  -11.61600 42.94300 42.48000
O  -11.08800 44.04000 42.18800
C  -12.93700 42.96000 43.25400
N  -12.21300 37.40500 42.81500
C  -12.98200 38.47600 42.77100
C  -14.44300 38.13300 42.86100
C  -14.51500 36.61300 42.84600
C  -13.00300 36.31000 42.79600
C  -15.11200 38.67200 44.17800
C  -15.35300 36.01500 41.72800
C  -16.18700 34.74000 42.11800
N  -10.21000 35.29900 42.40100
C  -11.23300 34.46000 42.71100
C  -10.75100 33.10300 42.73700
C  -9.45500 33.21200 42.15000
C  -9.20900 34.57200 42.05900
C  -11.42400 31.86100 43.16000
C  -8.39200 32.47800 41.57700
O  -8.28900 31.30500 41.24400
C  -7.27600 33.47000 41.24000
C  -6.00500 33.21800 42.09400
O  -5.05800 32.49000 41.75000
O  -5.99800 33.96100 43.25100
C  -4.73600 34.07500 44.03800
H  -7.23000 40.47500 40.99700
H  -13.28200 40.60500 42.66900
H  -13.40800 34.24500 42.81300
H  -5.33900 36.10100 41.36700
H  -5.85000 38.56200 39.77700
H  -3.92600 38.01900 41.64800
H  -5.14800 38.96500 42.55600
H  -4.38200 39.49100 40.97800
H  -6.27600 36.76500 38.56800
H  -6.50700 35.04100 39.07800
H  -4.36800 34.49900 38.87200
H  -3.77500 36.04900 39.44800
H  -8.60200 42.75800 39.84400
H  -7.59700 42.38600 41.18400
H  -8.83800 43.62200 41.30500
H  -13.08800 43.92300 43.74000
H  -12.87700 42.30300 44.12200
H  -13.69600 42.63400 42.54300
H  -14.91700 38.46600 41.93800
H  -14.93800 36.21900 43.77000
H  -14.44100 39.17900 44.87100
H  -15.67800 37.90600 44.70900
H  -15.87100 39.38600 43.85900
H  -14.79400 35.72400 40.83900
H  -16.06300 36.77700 41.40800
H  -17.24800 34.89800 41.92800
H  -16.07400 34.48900 43.17300
H  -15.83100 33.98000 41.42300
H  -11.33600 31.75000 44.24100
H  -11.00400 31.05100 42.56300
H  -12.50200 31.99600 43.08000
H  -7.05300 33.43100 40.17400
H  -3.89700 33.78000 43.40700
H  -4.84900 33.49900 44.95600
H  -4.42200 35.10700 44.19300
Mg -5.55900 25.09100 25.84800
C  -3.95800 26.39700 28.78200
C  -7.58300 23.19800 28.01300
C  -6.90900 23.74300 23.16800
C  -3.25400 26.74100 23.93200
N  -5.57900 24.68100 28.06900
C  -4.90600 25.43500 29.03900
C  -5.55200 25.21900 30.39100
C  -6.43400 23.87500 30.18500
C  -6.62400 23.98500 28.67400
C  -5.67600 22.61100 30.66700
C  -6.42000 26.40800 30.94700
C  -6.46700 26.49300 32.50600
H  -6.02800 25.37700 33.48100
N  -7.01200 23.65300 25.65000
C  -7.75700 23.03300 26.67700
C  -8.71300 22.15800 25.98700
C  -8.50900 22.26500 24.56900
C  -7.46600 23.28900 24.38200
C  -9.64600 21.26500 26.76300
C  -9.12500 21.52800 23.42600
O  -8.79700 21.61400 22.23600
C  -10.10600 20.49800 23.76500
N  -5.14100 25.19100 23.81000
C  -5.86600 24.56000 22.91000
C  -5.30400 24.76300 21.55600
C  -4.17400 25.85700 21.76400
C  -4.13400 25.88700 23.21700
C  -4.92000 23.48600 20.84900
C  -4.42200 27.22200 21.07200
C  -4.72600 27.25700 19.56400
N  -4.06800 26.42900 26.24200
C  -3.22900 27.03800 25.32800
C  -2.22700 27.84300 25.95500
C  -2.46000 27.58200 27.36200
C  -3.61400 26.79200 27.46300
C  -0.96200 28.44800 25.29200
C  -1.98000 27.79600 28.72500
O  -0.96300 28.32200 29.13700
C  -3.07600 27.26900 29.68800
C  -2.40300 26.46100 30.72000
O  -1.91300 25.34300 30.48800
O  -2.33300 27.07800 31.91600
C  -1.78600 26.29900 33.02700
H  -8.18800 22.72000 28.78600
H  -7.37600 23.46700 22.22100
H  -2.40700 27.15100 23.37800
H  -4.72200 24.94400 31.04200
H  -7.35200 24.00100 30.75900
H  -4.68400 22.82800 31.06300
H  -5.64200 21.80100 29.93800
H  -6.19000 22.19300 31.53300
H  -7.46100 26.34000 30.62900
H  -5.86500 27.27500 30.59100
H  -7.40800 26.89500 32.88000
H  -5.72700 27.24800 32.77000
H  -9.48800 20.20000 26.59200
H  -10.71200 21.43900 26.61700
H  -9.51500 21.48800 27.82200
H  -10.61100 20.23600 22.83600
H  -10.90600 20.78400 24.44800
H  -9.57200 19.70200 24.28400
H  -6.07800 25.18300 20.91300
H  -3.25400 25.39700 21.40400
H  -5.01300 22.62900 21.51500
H  -3.89400 23.50800 20.48300
H  -5.59400 23.21700 20.03500
H  -3.58800 27.90600 21.23100
H  -5.23300 27.80500 21.50900
H  -4.78800 26.23200 19.19900
H  -3.91200 27.83300 19.12500
H  -5.66300 27.78800 19.39700
H  -1.21000 29.51000 25.27000
H  -0.74800 27.96800 24.33700
H  -0.03900 28.36400 25.86500
H  -3.64000 28.09800 30.11500
H  -0.71900 26.08500 32.96400
H  -2.27900 25.35300 33.25200
H  -1.94500 26.92400 33.90500

