158

Mg 24.39900 -6.39300 46.61300
C  26.40900 -3.77500 45.27300
C  21.81300 -5.34800 44.34700
C  22.58400 -9.20600 47.25600
C  27.14100 -7.73800 48.15600
N  24.18500 -4.73300 45.14800
C  25.11800 -3.80200 44.74200
C  24.62900 -2.91700 43.59100
C  23.11200 -3.27800 43.48100
C  23.04000 -4.58100 44.37700
C  22.14700 -2.08400 43.80000
C  25.48200 -3.04600 42.33400
C  25.77800 -1.79500 41.57000
H  24.83900 -1.65300 40.36100
N  22.41600 -7.07100 45.99600
C  21.59200 -6.50700 45.05100
C  20.31400 -7.21000 45.07500
C  20.49900 -8.37100 45.91500
C  21.82800 -8.20800 46.46900
C  19.09500 -6.82300 44.24500
C  19.47000 -9.43900 46.21900
O  18.41400 -9.50100 45.60100
C  19.66700 -10.32100 47.35200
N  24.83400 -8.21200 47.48000
C  23.85300 -9.16900 47.81400
C  24.49300 -10.38400 48.60100
C  25.93700 -9.89100 48.88700
C  26.01000 -8.53900 48.14000
C  23.76000 -10.86100 49.86800
C  27.03600 -10.84900 48.48500
C  28.04100 -11.19500 49.68300
N  26.34100 -5.81500 46.85100
C  27.31700 -6.43000 47.56700
C  28.50100 -5.68200 47.52300
C  28.24600 -4.60100 46.61600
C  26.88400 -4.72700 46.20200
C  29.70500 -5.92600 48.36500
C  28.84200 -3.48700 45.95000
O  30.02900 -3.08800 45.94300
C  27.61100 -2.83200 45.06100
C  27.33500 -1.42200 45.45900
O  28.01600 -0.42200 45.23900
O  26.13100 -1.36400 46.23200
C  25.76200 0.02200 46.68200
H  21.00000 -5.03800 43.68800
H  22.11000 -10.18400 47.36200
H  27.98400 -8.20100 48.67300
H  24.94300 -1.97600 44.04100
H  22.91300 -3.55900 42.44700
H  22.79500 -1.32800 44.24300
H  21.38100 -2.31800 44.54000
H  21.60700 -1.75900 42.91200
H  25.06400 -3.88300 41.77400
H  26.48800 -3.35600 42.61500
H  26.82700 -1.67100 41.30100
H  25.52500 -0.85900 42.06800
H  18.16700 -7.20700 44.66800
H  19.32100 -7.26100 43.27300
H  18.94100 -5.78600 43.94600
H  20.23900 -11.21300 47.09500
H  18.66100 -10.64000 47.62400
H  20.15400 -9.84400 48.20300
H  24.56200 -11.17900 47.85900
H  26.03200 -9.69100 49.95500
H  22.95900 -11.48600 49.47400
H  23.31500 -9.97500 50.32200
H  24.39600 -11.38900 50.57700
H  27.53500 -10.44100 47.60500
H  26.57300 -11.78400 48.17000
H  27.99900 -12.23600 50.00400
H  28.05900 -10.45500 50.48400
H  29.02200 -11.04500 49.23300
H  29.32100 -6.00400 49.38200
H  30.44900 -5.14300 48.21700
H  30.23400 -6.80100 47.99000
H  28.01400 -2.67100 44.06100
H  25.62500 0.59900 45.76800
H  26.45600 0.44600 47.40800
H  24.78700 -0.10600 47.15300
Mg 47.20100 24.37900 27.59900
C  47.49600 26.56400 30.20100
C  46.59300 21.89000 29.95600
C  46.86200 22.22600 25.11800
C  48.13900 26.79900 25.40200
N  46.94400 24.26400 29.84100
C  47.11000 25.28600 30.66400
C  46.76500 24.84300 32.07100
C  46.51900 23.30000 32.01100
C  46.79300 23.14200 30.52800
C  47.30100 22.24200 32.89900
C  45.66900 25.67300 32.70100
C  45.20000 25.23600 34.05100
H  45.16800 26.30900 35.17200
N  46.65400 22.27800 27.54400
C  46.48100 21.46500 28.61300
C  46.04800 20.15400 28.15700
C  46.18000 20.19300 26.69800
C  46.60900 21.58900 26.37000
C  45.51900 19.11500 29.03100
C  45.89500 19.10100 25.70600
O  46.09100 19.24500 24.49200
C  45.21500 17.74000 26.20300
N  47.37700 24.49900 25.54900
C  47.14800 23.49200 24.71900
C  47.37200 23.92700 23.21200
C  47.51300 25.48600 23.30400
C  47.65800 25.64200 24.84500
C  48.54900 23.31100 22.43000
C  46.21300 26.12700 22.82700
C  44.92300 26.03800 23.63300
N  47.79000 26.28200 27.71300
C  48.20200 27.14700 26.74700
C  48.68400 28.39600 27.38800
C  48.30000 28.23300 28.73700
C  47.83200 26.93500 28.86400
C  49.27700 29.57300 26.76400
C  48.33400 28.85400 29.95200
O  48.70400 29.96900 30.27200
C  47.69800 27.86200 30.93400
C  48.51900 27.64500 32.23400
O  49.61400 27.08400 32.40100
O  47.82400 28.26000 33.18600
C  48.37300 28.31400 34.53200
H  46.21900 21.09800 30.60800
H  46.71600 21.56500 24.26100
H  48.28800 27.58600 24.65900
H  47.60600 24.95300 32.75600
H  45.46300 23.16300 32.24100
H  46.65600 21.45200 33.28200
H  47.69300 22.71800 33.79800
H  48.09100 21.74200 32.33900
H  44.77100 25.45400 32.12400
H  45.79200 26.75600 32.73000
H  45.73500 24.32100 34.30500
H  44.16900 24.92000 33.88600
H  46.38800 18.53300 29.33700
H  44.69200 18.52200 28.64100
H  45.11300 19.44400 29.98700
H  45.82900 17.24900 26.95800
H  45.24800 17.14100 25.29300
H  44.18000 17.83000 26.53100
H  46.39600 23.64300 22.81800
H  48.42900 25.91200 22.89500
H  49.24600 24.11200 22.18400
H  48.33900 22.86500 21.45800
H  49.01500 22.53500 23.03800
H  46.11000 25.79000 21.79600
H  46.38200 27.17300 22.56800
H  44.17200 25.88300 22.85800
H  44.78100 26.96500 24.18900
H  45.02900 25.18500 24.30300
H  48.88300 29.64200 25.75100
H  50.33600 29.32100 26.80700
H  48.94400 30.46700 27.29100
H  46.73800 28.34000 31.12900
H  47.46500 28.31100 35.13500
H  48.86000 29.27100 34.71900
H  48.99000 27.42900 34.68900

