158

Mg 1.86200 -1.87200 43.06700
C  5.33600 -1.21700 42.64400
C  1.26900 0.95600 41.23100
C  -1.33700 -2.95500 42.89900
C  2.80600 -4.97900 44.51500
N  3.15000 -0.30000 42.14800
C  4.51900 -0.22700 42.01400
C  4.98500 0.80200 41.00500
C  3.69000 1.75600 40.91000
C  2.62200 0.80300 41.54700
C  3.68400 3.16600 41.57300
C  5.32000 0.06100 39.69400
C  6.40500 0.76700 38.83000
H  6.25000 1.05100 37.38600
N  0.11800 -1.07300 42.19400
C  0.08400 0.12300 41.51600
C  -1.33000 0.41200 41.15900
C  -2.12400 -0.69900 41.57000
C  -1.12400 -1.70300 42.21000
C  -1.72000 1.64000 40.45100
C  -3.65000 -0.92600 41.46400
O  -4.32400 -0.09100 40.87900
C  -4.31100 -2.30100 41.86600
N  0.94700 -3.78100 43.51500
C  -0.43200 -3.85500 43.49300
C  -0.92800 -5.17400 44.12600
C  0.45000 -5.76400 44.65400
C  1.46100 -4.79100 44.22100
C  -2.07900 -5.11400 45.18900
C  0.66500 -7.37400 44.46300
C  0.76400 -8.22900 45.71500
N  3.76200 -2.86200 43.63400
C  3.90600 -4.11900 44.14400
C  5.32500 -4.36200 44.34100
C  5.96600 -3.21900 43.83400
C  4.93800 -2.33800 43.34500
C  6.02700 -5.59200 44.85000
C  7.24900 -2.55200 43.53200
O  8.37000 -2.83200 43.78800
C  6.86500 -1.17000 42.75900
C  7.35600 -0.01700 43.64900
O  8.39300 0.54600 43.61000
O  6.39500 0.32500 44.55200
C  6.47800 1.56400 45.30900
H  1.13700 1.89500 40.68900
H  -2.36100 -3.33200 42.94400
H  2.99900 -5.98900 44.88400
H  5.85900 1.32600 41.39300
H  3.49100 1.88400 39.84600
H  4.62700 3.49100 42.01400
H  2.80800 3.10500 42.21900
H  3.44600 3.87300 40.77900
H  4.45300 -0.16900 39.07500
H  5.82300 -0.87700 39.92900
H  7.21200 0.03700 38.89600
H  6.76300 1.70400 39.25500
H  -1.68900 1.64800 39.36200
H  -0.98300 2.38800 40.74500
H  -2.69200 2.02100 40.76400
H  -5.31300 -2.38900 41.44400
H  -4.27100 -2.44000 42.94600
H  -3.74000 -3.06200 41.33400
H  -1.27700 -5.82300 43.32300
H  0.53100 -5.66800 45.73700
H  -2.79600 -4.30200 45.06800
H  -1.64000 -5.14600 46.18700
H  -2.64700 -6.04200 45.13600
H  1.63100 -7.47600 43.97000
H  -0.08800 -7.88000 43.85800
H  0.03000 -9.03400 45.66900
H  0.38100 -7.61800 46.53200
H  1.77600 -8.63300 45.69900
H  5.76200 -6.50500 44.31700
H  5.91700 -5.61700 45.93400
H  7.10900 -5.54600 44.72600
H  7.35700 -1.21700 41.78700
H  7.54000 1.74400 45.47600
H  5.95500 1.47300 46.26100
H  6.01900 2.39300 44.76900
Mg -0.87300 34.78200 27.44600
C  -2.55800 32.58800 29.80000
C  0.16700 36.55300 29.99400
C  0.01500 37.15600 25.23200
C  -2.42400 32.88900 25.07900
N  -1.10400 34.53800 29.67600
C  -1.79800 33.57200 30.37800
C  -1.64300 33.75800 31.87100
C  -0.86100 35.14400 31.98900
C  -0.54000 35.46400 30.45800
C  -1.58600 36.29200 32.78200
C  -1.01800 32.54000 32.62600
C  -1.66600 32.26600 33.98700
H  -0.75000 32.21500 35.17900
N  0.04100 36.59700 27.59400
C  0.46600 37.13700 28.73600
C  1.26200 38.31000 28.50400
C  1.25200 38.49100 27.10900
C  0.41300 37.45100 26.54600
C  1.90000 39.10800 29.59200
C  2.09200 39.50700 26.24300
O  1.98800 39.58400 25.02700
C  3.16200 40.34000 26.80500
N  -1.27000 35.12900 25.49700
C  -0.76100 36.12000 24.76900
C  -1.19100 36.02600 23.33000
C  -1.72100 34.54600 23.24900
C  -1.77500 34.11900 24.70000
C  -2.16000 37.13700 22.90600
C  -0.84500 33.53000 22.42400
C  -1.37900 33.37700 20.94900
N  -2.31900 33.16400 27.39200
C  -2.78300 32.48600 26.35400
C  -3.73900 31.48600 26.76800
C  -3.64900 31.42100 28.10900
C  -2.75900 32.45800 28.46200
C  -4.63500 30.69100 25.78700
C  -4.02500 30.72900 29.29600
O  -4.67300 29.66700 29.43400
C  -3.46900 31.53500 30.50000
C  -4.58100 32.01500 31.35300
O  -5.42400 32.79300 31.02200
O  -4.58300 31.35000 32.58700
C  -5.52400 31.65600 33.59100
H  0.56600 37.09700 30.85200
H  0.28500 37.83300 24.41800
H  -2.95300 32.30000 24.32700
H  -2.67700 33.89100 32.18800
H  0.02400 35.05900 32.62000
H  -1.61200 37.23800 32.24100
H  -1.11500 36.40700 33.75900
H  -2.62500 36.08600 33.03800
H  -0.00300 32.74500 32.96700
H  -1.00900 31.66100 31.98100
H  -1.93500 31.21100 34.03400
H  -2.56100 32.86000 34.17000
H  1.40200 39.03000 30.55900
H  1.98400 40.15900 29.31400
H  2.90800 38.70300 29.68200
H  3.70900 39.85500 27.61300
H  2.64800 41.24400 27.13300
H  3.88300 40.56600 26.01900
H  -0.32100 36.08200 22.67600
H  -2.69600 34.51000 22.76400
H  -2.19900 37.78700 23.77900
H  -3.11900 36.71300 22.60700
H  -1.79100 37.62500 22.00400
H  -0.72700 32.56900 22.92500
H  0.19300 33.86300 22.43100
H  -0.39900 33.42300 20.47400
H  -2.10500 34.15200 20.70100
H  -1.86900 32.41600 20.79400
H  -4.04300 29.81500 25.52300
H  -4.88400 31.24300 24.88200
H  -5.50400 30.33300 26.33900
H  -2.77400 30.83700 30.96800
H  -6.40200 32.14800 33.17200
H  -4.92600 32.26800 34.26600
H  -5.92100 30.76600 34.07700

