158

Mg 24.38400 -5.63200 45.52600
C  26.43300 -3.27600 44.02300
C  21.76200 -4.43600 43.72000
C  22.55600 -8.58100 46.28400
C  27.15300 -7.28200 46.82200
N  24.19200 -4.01600 44.11100
C  25.10900 -3.10900 43.64300
C  24.50100 -2.12500 42.62900
C  22.94700 -2.27500 42.78400
C  22.90000 -3.59700 43.62100
C  22.12400 -1.04500 43.34400
C  25.09300 -2.25800 41.16400
C  25.39800 -0.97700 40.29500
H  25.34000 -1.05200 38.78400
N  22.29600 -6.36500 45.11200
C  21.39700 -5.65600 44.37000
C  20.19300 -6.45500 44.32800
C  20.43200 -7.61400 45.20500
C  21.80300 -7.54900 45.61500
C  18.98300 -5.96800 43.60200
C  19.29900 -8.62700 45.52300
O  18.25700 -8.56200 44.96900
C  19.44400 -9.62600 46.58900
N  24.77700 -7.67400 46.26500
C  23.86400 -8.66200 46.63200
C  24.47900 -9.90300 47.33700
C  25.88500 -9.33700 47.71200
C  25.95700 -7.99500 46.92000
C  23.62400 -10.43900 48.56000
C  27.11000 -10.34300 47.39000
C  28.08500 -10.54500 48.67000
N  26.38900 -5.38300 45.52500
C  27.40800 -6.08500 46.14600
C  28.70600 -5.39900 45.93900
C  28.30700 -4.24000 45.14900
C  26.93800 -4.35000 44.82700
C  29.96400 -5.73800 46.60900
C  28.86100 -3.06900 44.56700
O  29.96400 -2.59200 44.68300
C  27.73000 -2.51400 43.62900
C  27.41800 -1.03400 44.01700
O  27.38000 -0.54300 45.15100
O  27.25100 -0.36100 42.82000
C  26.92600 1.11200 42.90300
H  20.93100 -4.01800 43.14800
H  22.01700 -9.50000 46.51900
H  27.94900 -7.82500 47.33600
H  24.74900 -1.11700 42.96300
H  22.54100 -2.41900 41.78300
H  22.79400 -0.18600 43.38700
H  21.86600 -1.25900 44.38100
H  21.19200 -0.87500 42.80600
H  24.48800 -2.90700 40.53100
H  26.07300 -2.73300 41.22000
H  26.45700 -0.83600 40.51100
H  24.88400 -0.05200 40.55600
H  18.01800 -6.34700 43.94100
H  19.05100 -6.12100 42.52500
H  18.86700 -4.89000 43.71600
H  18.47300 -9.75100 47.06600
H  20.03900 -9.15800 47.37300
H  19.84600 -10.53900 46.15000
H  24.60800 -10.63400 46.53900
H  25.78100 -9.13100 48.77700
H  22.99600 -11.21400 48.12100
H  23.07500 -9.62200 49.02900
H  24.28000 -10.95600 49.26100
H  27.72200 -9.93700 46.58400
H  26.73400 -11.25000 46.91600
H  28.03500 -11.62300 48.82900
H  27.85500 -9.93100 49.54000
H  29.07800 -10.24100 48.34000
H  30.61800 -6.24700 45.90100
H  30.02300 -6.44900 47.43300
H  30.53500 -4.84200 46.85100
H  27.91800 -2.53600 42.55600
H  26.35600 1.37100 43.79500
H  26.34400 1.34200 42.01100
H  27.84100 1.70300 42.95000
Mg 48.18900 34.91000 27.81900
C  46.29700 33.28500 30.22900
C  48.34800 37.66800 30.07400
C  49.37100 36.99900 25.39700
C  47.62700 32.44800 25.60800
N  47.39800 35.35200 29.92100
C  46.79400 34.45500 30.74600
C  46.86300 35.02800 32.20600
C  47.06000 36.50600 31.93300
C  47.68100 36.50600 30.55300
C  45.80600 37.41500 32.22300
C  48.14700 34.34800 32.87600
C  48.44700 34.51700 34.36700
H  47.54100 35.48600 35.20300
N  48.84800 36.98100 27.74900
C  48.90000 37.88900 28.81400
C  49.66300 39.02000 28.43500
C  49.91000 38.93600 27.02700
C  49.28500 37.61400 26.63200
C  49.95600 40.16800 29.39200
C  50.65100 39.92300 26.02900
O  50.80500 39.62700 24.86200
C  51.12300 41.29000 26.50800
N  48.22200 34.89100 25.73700
C  48.88300 35.74900 24.94400
C  48.99300 35.21900 23.51400
C  48.63900 33.69600 23.69900
C  48.16500 33.66900 25.12900
C  48.07500 36.07100 22.54600
C  49.83900 32.82700 23.33600
C  49.39400 31.58200 22.52900
N  47.23800 33.09500 27.87700
C  47.04300 32.17500 26.94100
C  46.41100 30.96700 27.43800
C  46.08600 31.36800 28.72900
C  46.58700 32.71900 28.95900
C  45.93600 29.69800 26.76000
C  45.31600 31.07100 29.99100
O  44.61800 30.08700 30.24500
C  45.38500 32.29200 30.93200
C  45.76200 31.74800 32.33100
O  46.66700 31.00500 32.59300
O  44.82400 32.12300 33.21900
C  45.11100 31.79400 34.62700
H  48.48500 38.39600 30.87600
H  49.75300 37.54700 24.53300
H  47.49000 31.71300 24.81100
H  45.98400 34.69200 32.75600
H  47.71000 36.95500 32.68400
H  44.92100 36.87200 32.55400
H  45.40600 38.05900 31.44100
H  45.91900 38.04400 33.10600
H  49.07500 34.66700 32.40100
H  48.18100 33.26400 32.77200
H  49.44700 34.89800 34.57300
H  48.43500 33.58200 34.92800
H  50.97000 40.54500 29.25400
H  49.92700 39.87900 30.44200
H  49.27100 41.00400 29.25300
H  50.43200 41.71800 27.23400
H  51.13300 41.91000 25.61100
H  52.13900 41.23400 26.89900
H  50.04000 35.34900 23.24000
H  47.75000 33.39600 23.14400
H  47.18400 35.44600 22.50300
H  48.47400 36.42300 21.59500
H  47.98200 37.00300 23.10400
H  50.34500 32.48400 24.23800
H  50.62300 33.38200 22.82000
H  48.82100 31.83200 21.63600
H  48.71800 31.02600 23.17800
H  50.18800 30.91400 22.19600
H  44.98200 29.56600 26.25000
H  45.73300 28.92700 27.50300
H  46.71400 29.35600 26.07700
H  44.44100 32.82700 31.03800
H  46.05300 31.28400 34.82800
H  44.25700 31.14100 34.80700
H  45.14400 32.74800 35.15400

