158

Mg 17.65600 -0.88700 28.07000
C  16.13800 0.96500 30.51700
C  19.37200 -2.74000 30.39800
C  19.40700 -2.14600 25.49400
C  15.94300 1.16500 25.68200
N  17.85400 -0.75000 30.23100
C  17.01300 -0.03900 31.01300
C  17.34100 -0.42100 32.43400
C  18.48000 -1.46200 32.38600
C  18.63700 -1.71700 30.91900
C  19.86700 -0.96400 32.98800
C  16.15300 -0.82200 33.30600
C  15.94000 -0.20800 34.72700
H  17.19900 0.45800 35.37500
N  19.12700 -2.31000 27.91000
C  19.56800 -3.02300 28.97600
C  20.47700 -4.07700 28.46500
C  20.49500 -3.93500 27.01200
C  19.63400 -2.76900 26.69500
C  21.26700 -5.01300 29.38200
C  21.30300 -4.73700 26.01900
O  21.17000 -4.53100 24.80900
C  22.26500 -5.71700 26.48500
N  17.72000 -0.48900 25.84900
C  18.70200 -1.09300 25.05000
C  18.68700 -0.54300 23.60300
C  17.32700 0.23000 23.62300
C  16.99500 0.37400 25.12700
C  19.97500 0.04900 23.05400
C  16.22800 -0.44500 22.77700
C  15.88300 0.24900 21.44000
N  16.29200 0.68100 28.02900
C  15.73500 1.43200 27.01400
C  14.87400 2.45600 27.54900
C  15.02900 2.31400 28.89100
C  15.87400 1.22900 29.16700
C  14.06400 3.51100 26.79100
C  14.68600 2.93300 30.17300
O  14.05500 3.91800 30.48400
C  15.38200 1.94900 31.28600
C  16.29100 2.86400 32.12100
O  17.33200 3.23200 31.75700
O  15.65100 3.30500 33.22400
C  16.45400 4.22700 34.08500
H  19.78800 -3.28300 31.25000
H  19.86500 -2.72800 24.69100
H  15.65200 1.90200 24.93000
H  17.72200 0.49400 32.88800
H  18.20200 -2.33500 32.97600
H  20.64700 -0.88900 32.23000
H  20.16900 -1.55100 33.85500
H  19.70600 0.02500 33.41500
H  16.13500 -1.91100 33.28000
H  15.23900 -0.45100 32.84200
H  15.64000 -0.97000 35.44600
H  15.20800 0.59800 34.77200
H  20.64100 -5.87400 29.61800
H  21.40300 -4.50400 30.33600
H  22.18500 -5.29700 28.86700
H  21.93900 -6.58700 27.05400
H  23.21800 -5.25800 26.74700
H  22.59700 -6.19800 25.56400
H  18.46500 -1.41300 22.98600
H  17.44000 1.20700 23.15300
H  20.32200 -0.40800 22.12800
H  20.84200 -0.09900 23.69800
H  19.85400 1.12800 22.95600
H  15.29000 -0.35500 23.32500
H  16.41400 -1.51900 22.77600
H  14.87800 0.66500 21.51600
H  16.01500 -0.51100 20.67000
H  16.56100 1.03500 21.10700
H  13.82900 4.28500 27.52100
H  13.11300 3.13700 26.41000
H  14.56900 3.86100 25.89000
H  14.58400 1.42200 31.80900
H  16.24100 5.24800 33.76700
H  17.50700 3.95400 34.01500
H  16.08900 4.07200 35.10100
Mg -5.40900 25.94000 26.46500
C  -4.27000 27.56100 29.24800
C  -7.28400 23.89500 28.39200
C  -6.28800 24.13600 23.63400
C  -3.32600 27.96900 24.45900
N  -5.69700 25.79400 28.55200
C  -5.19700 26.55600 29.55500
C  -5.74300 26.14800 30.90900
C  -6.46000 24.83200 30.60400
C  -6.42100 24.76000 29.09100
C  -5.89800 23.57400 31.24700
C  -6.66700 27.20900 31.50500
C  -6.72000 27.36000 33.03100
H  -6.22400 26.26600 33.93300
N  -6.68000 24.37000 26.05500
C  -7.33900 23.66400 26.98600
C  -8.20700 22.65400 26.35500
C  -7.93100 22.72600 24.95400
C  -6.84800 23.74900 24.80600
C  -9.17200 21.75000 27.20200
C  -8.46100 21.87100 23.80800
O  -8.11900 22.08000 22.68400
C  -9.48300 20.89600 24.07900
N  -4.78100 25.98900 24.36300
C  -5.31800 25.16400 23.37900
C  -4.79500 25.54900 21.97600
C  -4.14400 26.95600 22.17400
C  -4.09900 27.03000 23.76400
C  -3.85800 24.48600 21.32000
C  -4.83000 28.15300 21.39500
C  -3.86500 29.12500 20.63900
N  -4.05700 27.45500 26.73800
C  -3.25300 28.23300 25.84400
C  -2.51600 29.19900 26.62900
C  -2.95500 29.03300 27.94500
C  -3.84400 27.95900 27.97300
C  -1.52300 30.23700 26.09900
C  -2.74800 29.53100 29.28000
O  -2.02300 30.43700 29.71000
C  -3.56400 28.59400 30.22200
C  -2.65700 27.80100 31.13700
O  -2.05800 26.80000 30.84200
O  -2.63000 28.35300 32.43800
C  -1.72300 27.84900 33.47100
H  -7.93100 23.27200 29.01400
H  -6.52100 23.76200 22.63500
H  -2.75500 28.64600 23.82000
H  -4.92800 25.98800 31.61500
H  -7.48200 24.90100 30.97600
H  -5.16600 23.77900 32.02800
H  -5.49100 22.88600 30.50600
H  -6.63300 23.04300 31.85200
H  -7.66100 26.99300 31.11200
H  -6.32400 28.15600 31.08900
H  -7.77800 27.55700 33.20000
H  -6.17900 28.28900 33.21200
H  -10.20200 22.10800 27.19800
H  -8.79100 21.66500 28.22000
H  -9.19300 20.76600 26.73400
H  -9.15800 19.96800 24.54800
H  -9.90900 20.64500 23.10800
H  -10.27600 21.27100 24.72600
H  -5.71000 25.72200 21.41000
H  -3.12600 26.91800 21.78600
H  -2.83100 24.72300 21.04100
H  -4.40200 24.03400 20.49100
H  -3.69700 23.72800 22.08500
H  -5.42700 28.78200 22.05500
H  -5.53500 27.70000 20.69800
H  -4.24800 30.14500 20.59500
H  -3.55000 28.81100 19.64400
H  -2.96500 29.32800 21.21800
H  -0.97600 30.01000 25.18400
H  -0.86300 30.45400 26.93900
H  -1.97700 31.15500 25.72600
H  -4.16800 29.20500 30.89300
H  -0.81500 27.42700 33.04100
H  -2.17600 27.18800 34.20900
H  -1.29600 28.67900 34.03300

