158

Mg 54.01500 24.21000 45.33600
C  51.36200 26.34300 44.58400
C  51.99600 21.54500 44.38000
C  56.65300 22.06700 45.51300
C  56.03300 26.88800 45.93000
N  51.91100 24.01200 44.52400
C  50.96600 25.00100 44.39900
C  49.68400 24.42100 43.69600
C  49.83600 22.85900 44.12200
C  51.33700 22.79000 44.42400
C  48.81100 22.26000 45.18900
C  49.60900 24.71500 42.15500
C  48.22800 25.14000 41.63700
H  47.94400 24.95400 40.17600
N  54.26600 22.11300 44.96800
C  53.33900 21.19300 44.66500
C  53.87000 19.90100 44.70400
C  55.27100 19.99800 44.83100
C  55.44700 21.48900 45.07700
C  53.15900 18.54100 44.56300
C  56.31000 18.87800 44.79500
O  55.97900 17.72500 44.62600
C  57.80900 19.06700 44.91400
N  56.06100 24.47800 45.55100
C  56.97700 23.43900 45.68000
C  58.38400 23.97400 46.03200
C  58.16800 25.48200 45.85700
C  56.63900 25.66000 45.80100
C  58.99700 23.44100 47.37800
C  58.90700 26.07000 44.72300
C  60.36200 26.42300 44.96600
N  53.80500 26.24700 45.31700
C  54.73300 27.22700 45.69600
C  54.04300 28.56300 45.65800
C  52.71300 28.25900 45.22100
C  52.68200 26.84500 45.00600
C  54.65500 29.87100 46.08600
C  51.48100 28.82300 44.92100
O  51.16000 30.02900 44.85100
C  50.59900 27.64200 44.34800
C  50.39000 27.94900 42.91700
O  51.27800 27.82700 42.06600
O  49.20300 28.47100 42.76000
C  48.86500 29.07000 41.50400
H  51.40900 20.68100 44.06300
H  57.53000 21.41700 45.55500
H  56.66100 27.73200 46.22300
H  48.80700 24.77700 44.23600
H  49.66000 22.18400 43.28400
H  49.33800 22.07000 46.12500
H  48.40400 21.38700 44.68000
H  48.00900 22.98700 45.31100
H  49.86600 23.77900 41.65900
H  50.40700 25.43400 41.97200
H  48.13200 26.18800 41.92100
H  47.37200 24.75700 42.19300
H  53.24500 18.21500 43.52700
H  52.08500 18.54400 44.75100
H  53.52800 17.71300 45.16900
H  58.27300 18.19900 44.44500
H  58.17000 19.25400 45.92500
H  58.13400 19.91700 44.31400
H  59.08200 23.66700 45.25300
H  58.63700 25.89700 46.74900
H  59.71100 24.09600 47.87800
H  59.50900 22.53500 47.05400
H  58.24700 23.15500 48.11500
H  58.42400 26.99900 44.42200
H  58.86200 25.37400 43.88500
H  60.62900 26.37100 46.02200
H  60.54700 27.44600 44.64100
H  60.96900 25.64800 44.49800
H  55.31600 29.75600 46.94500
H  53.84000 30.52200 46.40400
H  55.31200 30.28800 45.32300
H  49.62400 27.60600 44.83600
H  47.85800 29.48000 41.42600
H  48.91800 28.38000 40.66200
H  49.64000 29.81800 41.33900
Mg -1.64400 34.27800 26.78900
C  -3.29600 32.93800 29.58700
C  -0.04100 36.39900 29.00400
C  -0.41300 35.86300 24.15800
C  -3.63200 32.36500 24.70600
N  -1.74100 34.63400 29.02900
C  -2.38900 33.92800 29.96000
C  -1.97600 34.24000 31.41200
C  -1.08900 35.52700 31.18600
C  -0.94800 35.53500 29.62800
C  -1.48900 36.88000 31.91400
C  -1.26100 32.96000 32.01200
C  -2.08300 32.24300 33.14800
H  -1.42700 31.97800 34.54200
N  -0.32100 35.78500 26.57700
C  0.21000 36.55100 27.56200
C  1.19900 37.41600 26.97600
C  1.13300 37.28500 25.59200
C  0.05200 36.34400 25.41500
C  2.14000 38.28700 27.81000
C  1.88800 38.10200 24.55800
O  1.62400 38.02600 23.34100
C  2.98600 39.04500 24.92600
N  -1.99200 34.14300 24.68500
C  -1.32600 34.85600 23.80700
C  -1.63500 34.41700 22.35400
C  -2.70900 33.26900 22.55300
C  -2.76600 33.16200 24.06000
C  -2.13400 35.50500 21.43400
C  -2.29400 31.97900 21.74200
C  -1.21000 31.12900 22.42100
N  -3.12800 32.95700 27.02700
C  -3.85600 32.17200 26.08300
C  -4.73500 31.33000 26.72400
C  -4.50900 31.53600 28.08900
C  -3.61100 32.60000 28.24200
C  -5.75700 30.49200 25.93400
C  -4.94700 31.10000 29.39200
O  -5.82700 30.30300 29.76100
C  -4.20200 31.99600 30.37200
C  -5.23800 32.76700 31.11600
O  -5.72300 33.81900 30.78500
O  -5.50600 32.12000 32.29900
C  -6.62200 32.62800 33.05900
H  0.67700 36.98600 29.57900
H  0.03000 36.43700 23.34200
H  -4.09500 31.58500 24.09900
H  -2.86400 34.44900 32.00900
H  -0.13600 35.30000 31.66400
H  -2.26300 36.67000 32.65200
H  -1.81100 37.66900 31.23400
H  -0.63800 37.34400 32.41300
H  -0.29900 33.17900 32.47500
H  -1.02400 32.16600 31.30400
H  -2.38600 31.25500 32.80100
H  -3.07500 32.65900 33.32700
H  3.16300 38.13100 27.46600
H  2.25800 38.07400 28.87300
H  1.82300 39.32200 27.68200
H  2.57900 39.80400 25.59400
H  3.34100 39.49600 24.00000
H  3.81700 38.42800 25.26800
H  -0.70500 34.14200 21.85700
H  -3.71900 33.57800 22.28400
H  -1.33000 35.70000 20.72400
H  -2.24200 36.47300 21.92400
H  -3.05900 35.19500 20.95000
H  -1.99300 32.18700 20.71500
H  -3.19000 31.37600 21.59300
H  -0.76200 31.63200 23.27900
H  -0.41300 30.77500 21.76800
H  -1.69800 30.26600 22.87300
H  -6.70100 30.51600 26.47700
H  -5.47000 29.44600 25.83300
H  -5.99400 30.95600 24.97700
H  -3.69300 31.39400 31.12400
H  -7.44700 32.78800 32.36500
H  -6.25500 33.62500 33.30400
H  -6.90900 31.97300 33.88100

