158

Mg 8.38900 2.91200 27.95700
C  9.83100 1.66900 30.80100
C  6.27800 4.82500 29.93700
C  6.67000 3.69300 25.12100
C  9.96400 0.22000 26.11400
N  8.10200 3.20700 30.14000
C  8.97500 2.71200 31.08200
C  8.65500 3.36800 32.41400
C  7.33400 4.16300 32.17400
C  7.24200 4.12000 30.63000
C  6.11400 3.58600 32.89000
C  9.97600 4.11700 32.96300
C  10.72600 3.50600 34.24800
H  11.03700 4.48700 35.46200
N  6.71600 4.16600 27.56600
C  6.03200 4.85300 28.51700
C  5.11600 5.79600 27.73900
C  5.29200 5.50400 26.36400
C  6.21500 4.37900 26.29900
C  4.18600 6.82300 28.43300
C  4.74900 6.23500 25.16100
O  4.96100 5.97200 23.96800
C  3.82100 7.37900 25.36100
N  8.35800 2.06700 25.93000
C  7.57900 2.61800 24.94900
C  7.62200 1.90400 23.60000
C  8.78300 0.81400 23.86500
C  9.07300 1.01000 25.39200
C  6.21400 1.25500 23.28600
C  10.09700 0.97000 23.01000
C  10.33200 -0.14600 22.02500
N  9.72600 1.34300 28.27800
C  10.32800 0.38100 27.51300
C  11.23500 -0.40600 28.25200
C  11.07900 0.11700 29.58200
C  10.10600 1.14200 29.49900
C  11.95400 -1.55000 27.84600
C  11.48200 -0.07900 30.95000
O  12.23100 -0.97700 31.36300
C  10.76400 1.01600 31.76500
C  10.02800 0.39400 32.90500
O  8.89600 -0.11500 32.89400
O  10.76200 0.43300 34.07800
C  10.10200 0.03500 35.34900
H  5.70200 5.54200 30.52600
H  6.29200 4.13300 24.19500
H  10.36000 -0.61000 25.52600
H  8.46100 2.57200 33.13200
H  7.50800 5.18600 32.50700
H  6.07100 2.61100 33.37600
H  5.39800 3.58600 32.06800
H  5.80900 4.32600 33.63000
H  9.64300 5.10200 33.29200
H  10.71600 4.16800 32.16500
H  11.53200 2.80500 34.03300
H  10.00300 2.78900 34.63800
H  4.59300 7.82400 28.57300
H  4.12600 6.51000 29.47500
H  3.20700 6.80800 27.95400
H  2.89600 7.03700 25.82500
H  3.60700 7.85100 24.40300
H  4.22100 8.11100 26.06300
H  8.01200 2.66200 22.92000
H  8.41400 -0.19800 23.70000
H  5.75000 1.95700 22.59300
H  5.50000 1.05700 24.08500
H  6.38000 0.33700 22.72300
H  10.99600 1.18300 23.58900
H  10.06600 1.87200 22.39900
H  10.89500 0.17000 21.14700
H  9.34600 -0.49200 21.71600
H  11.03900 -0.89300 22.38700
H  12.21200 -1.51300 26.78800
H  11.49400 -2.47300 28.19800
H  12.93900 -1.65000 28.30300
H  11.42100 1.76200 32.21300
H  9.83600 -1.01700 35.25100
H  9.14700 0.54400 35.47800
H  10.70400 0.19000 36.24500
Mg -1.41000 33.76700 27.26400
C  -3.07500 31.66200 29.61800
C  0.17700 35.21900 29.88400
C  -0.02500 35.92800 25.16900
C  -3.27800 32.33200 24.69000
N  -1.51100 33.42700 29.54500
C  -2.23900 32.55200 30.26900
C  -1.96000 32.75700 31.74700
C  -1.12900 34.07500 31.79600
C  -0.76800 34.30000 30.31100
C  -1.81600 35.30700 32.47800
C  -1.42800 31.47200 32.38500
C  -2.16500 31.04800 33.68100
H  -1.34800 30.92900 35.03800
N  -0.05100 35.32300 27.52600
C  0.54000 35.75400 28.69000
C  1.54900 36.78400 28.39200
C  1.45300 36.99700 26.99500
C  0.47500 36.01700 26.47600
C  2.39300 37.48400 29.44600
C  2.24900 38.00400 26.08000
O  2.11200 38.01900 24.84600
C  3.28500 38.90200 26.61400
N  -1.80800 34.21000 25.27500
C  -1.03100 35.14400 24.61600
C  -1.33900 35.05500 23.06400
C  -2.23400 33.79600 22.96500
C  -2.47100 33.40700 24.39300
C  -1.96000 36.35700 22.45900
C  -1.65900 32.64200 22.07500
C  -0.67900 31.63200 22.75700
N  -2.83000 32.28300 27.08300
C  -3.51600 31.79200 25.98700
C  -4.33600 30.70000 26.42600
C  -4.27000 30.65700 27.82200
C  -3.27400 31.57900 28.18900
C  -5.12300 29.83800 25.46300
C  -4.79500 29.99600 29.03900
O  -5.52900 29.04300 29.16900
C  -4.10400 30.65500 30.27100
C  -5.16100 31.28300 31.09200
O  -5.60000 32.39500 30.96100
O  -5.44500 30.45600 32.12900
C  -6.66000 30.76700 32.87400
H  0.66800 35.78100 30.68100
H  0.46300 36.55900 24.42300
H  -3.89600 31.98700 23.85800
H  -2.95300 32.98500 32.13500
H  -0.21000 34.05000 32.38100
H  -1.55600 35.42000 33.53100
H  -2.90400 35.25400 32.44700
H  -1.53000 36.24300 31.99900
H  -0.44900 31.77800 32.75200
H  -1.23700 30.66200 31.68100
H  -2.45000 30.04300 33.37000
H  -3.02000 31.70900 33.82000
H  3.43200 37.16300 29.51600
H  2.12800 37.23100 30.47300
H  2.25800 38.53600 29.19700
H  2.62400 39.69700 26.95900
H  4.05200 39.26100 25.92700
H  3.90900 38.35000 27.31600
H  -0.35900 35.01600 22.58800
H  -3.21200 34.08500 22.58100
H  -2.53700 36.06400 21.58200
H  -1.25100 37.12900 22.16100
H  -2.66100 36.71400 23.21500
H  -1.18600 33.00500 21.16200
H  -2.50300 32.09200 21.65900
H  -0.55500 32.01100 23.77100
H  0.25000 31.58800 22.18900
H  -1.10900 30.63000 22.74000
H  -6.07100 29.61600 25.95300
H  -4.58200 28.96100 25.10600
H  -5.26900 30.37200 24.52400
H  -3.56100 29.89900 30.84000
H  -7.55300 31.11700 32.35700
H  -6.27700 31.47700 33.60800
H  -6.94000 29.86000 33.41000

