158

Mg 9.44500 47.97500 26.60400
C  7.57000 47.71900 29.51700
C  12.11600 49.28500 28.45700
C  11.20100 48.14800 23.80500
C  6.52900 47.44000 24.69700
N  9.73200 48.48500 28.76800
C  8.91300 48.16300 29.77300
C  9.47600 48.64200 31.21500
C  10.85400 49.32200 30.76500
C  10.89200 49.06600 29.20100
C  10.93800 50.84200 30.90900
C  9.64700 47.47700 32.31100
C  9.12300 47.67100 33.77900
H  9.37100 46.47100 34.80100
N  11.37000 48.57800 26.15700
C  12.33800 49.03300 27.06400
C  13.55900 49.13000 26.34000
C  13.36400 48.75100 24.98700
C  11.94500 48.48800 24.94400
C  14.83400 49.63100 27.09000
C  14.39900 48.57700 23.87300
O  14.04900 48.16100 22.74900
C  15.82600 48.71100 24.19200
N  8.90200 48.00000 24.54000
C  9.84300 47.93200 23.61600
C  9.29500 47.48400 22.24500
C  7.72400 47.41700 22.43400
C  7.68500 47.63600 23.96000
C  9.65000 48.35500 21.04300
C  7.01400 46.14900 21.82800
C  6.81600 44.90300 22.75500
N  7.44100 47.59800 26.97100
C  6.35600 47.49200 26.10500
C  5.16800 47.15500 26.90300
C  5.65200 47.24800 28.26200
C  6.97400 47.57600 28.21900
C  3.81400 46.91900 26.38500
C  5.26100 47.07100 29.62200
O  4.17700 46.86600 30.15400
C  6.48300 47.29000 30.51700
C  6.73900 45.99400 31.21900
O  7.25200 44.99500 30.78300
O  6.36000 46.15700 32.51400
C  6.22900 44.87500 33.17700
H  13.04600 49.58600 28.94400
H  11.81800 47.89600 22.93900
H  5.70000 47.12700 24.05900
H  8.92000 49.46700 31.66000
H  11.73600 48.89600 31.24300
H  11.95000 51.20500 30.72600
H  10.56500 51.08500 31.90400
H  10.12300 51.29900 30.34800
H  10.72500 47.31600 32.33400
H  9.21200 46.59900 31.83300
H  8.03400 47.63800 33.83300
H  9.42100 48.64100 34.17600
H  15.37100 48.73700 27.40800
H  14.63500 50.32300 27.90800
H  15.66000 50.07800 26.53600
H  16.30400 48.50000 23.23500
H  16.21400 47.94100 24.85800
H  16.01200 49.71400 24.57600
H  9.70200 46.48600 22.07800
H  7.20700 48.22500 21.91600
H  9.97600 49.33300 21.39700
H  8.73300 48.45700 20.46300
H  10.51200 47.92600 20.53300
H  7.56800 45.89300 20.92500
H  6.03500 46.54800 21.56200
H  7.45100 44.89000 23.64100
H  6.98600 43.90400 22.35200
H  5.75200 44.88900 22.98800
H  3.25800 47.85400 26.45600
H  3.29000 46.23000 27.04800
H  3.95200 46.65900 25.33500
H  6.24200 48.08200 31.22500
H  6.82800 44.01600 32.87400
H  5.19700 44.52700 33.12800
H  6.54700 45.12400 34.18900
Mg 0.70900 42.34500 26.02900
C  2.28900 42.40200 29.25200
C  -2.18800 41.31800 27.77400
C  -0.61600 41.58300 23.15200
C  3.63400 43.35200 24.67500
N  0.07500 42.16600 28.37900
C  0.93800 42.16900 29.44800
C  0.20400 41.96000 30.79500
C  -1.16200 41.48300 30.28800
C  -1.14200 41.71100 28.70500
C  -1.41400 40.01500 30.73100
C  0.19000 43.35700 31.59000
C  0.40600 43.38400 33.13000
H  0.14800 42.10300 33.88400
N  -1.16300 41.66200 25.46400
C  -2.21300 41.30900 26.35300
C  -3.34700 40.86600 25.56100
C  -2.92200 41.01300 24.21000
C  -1.53900 41.39400 24.23000
C  -4.66000 40.54500 26.26500
C  -3.74400 40.73300 22.96300
O  -3.36100 40.93000 21.80700
C  -5.16800 40.28300 23.12300
N  1.48100 42.18800 24.24400
C  0.74700 41.97000 23.14300
C  1.51300 42.31400 21.80600
C  2.79400 42.98400 22.35400
C  2.59500 42.95500 23.85100
C  1.73200 41.00100 21.10600
C  3.03700 44.45900 21.76600
C  1.84200 45.41800 21.67200
N  2.66600 42.82800 26.70100
C  3.77300 43.19000 26.00900
C  4.88300 43.27200 26.92000
C  4.38200 42.93700 28.17000
C  2.96400 42.72000 28.04900
C  6.30000 43.72600 26.69300
C  4.72400 42.74900 29.57200
O  5.78000 42.68200 30.18900
C  3.29700 42.56700 30.30600
C  3.45100 41.42200 31.25000
O  3.19400 40.26200 30.99500
O  3.93000 41.88200 32.43600
C  4.08000 40.83000 33.47300
H  -3.01800 40.94400 28.37800
H  -1.00200 41.45600 22.13900
H  4.45100 43.80600 24.10800
H  0.76400 41.26500 31.42200
H  -1.97600 42.08200 30.69500
H  -2.39100 39.99300 31.21400
H  -0.66100 39.75700 31.47600
H  -1.32400 39.30500 29.90900
H  -0.79200 43.82200 31.49700
H  0.93800 44.04300 31.19400
H  -0.24000 44.11300 33.61700
H  1.43600 43.69700 33.30300
H  -4.29000 40.02200 27.14700
H  -5.36900 39.94700 25.69200
H  -5.19000 41.42600 26.62500
H  -5.60000 40.11200 22.13700
H  -5.77500 41.08900 23.53500
H  -5.10800 39.41400 23.77900
H  1.01700 42.96500 21.08600
H  3.72700 42.45900 22.14600
H  2.73100 40.98900 20.67000
H  0.95700 40.92200 20.34400
H  1.63200 40.10000 21.71100
H  3.59200 44.46500 20.82700
H  3.69100 45.06200 22.39600
H  0.93000 45.04500 22.13900
H  1.76100 45.64900 20.61000
H  2.10300 46.36000 22.15500
H  6.91700 42.88200 26.38700
H  6.63100 44.18200 27.62700
H  6.26300 44.51100 25.93800
H  3.13600 43.44300 30.93500
H  5.10900 40.47000 33.47300
H  3.47000 39.95300 33.25800
H  3.83300 41.26600 34.44100

