158

Mg 36.30200 48.83400 26.34800
C  36.58700 46.75000 29.23100
C  35.00900 51.25600 28.39500
C  35.95700 50.74300 23.70100
C  37.66800 46.20600 24.45600
N  35.78700 49.01200 28.59200
C  36.00100 48.00700 29.56100
C  35.73000 48.58100 30.96400
C  34.96900 49.94300 30.60200
C  35.34300 50.13700 29.14400
C  33.37400 49.91000 30.94800
C  36.98100 48.73300 31.65600
C  36.93900 48.98900 33.19200
H  35.55200 49.14400 33.82200
N  35.67100 50.76700 26.11800
C  35.10700 51.58700 27.05100
C  34.66600 52.78500 26.47600
C  34.97500 52.69500 25.10500
C  35.57400 51.39300 24.87700
C  34.20000 54.05500 27.24400
C  34.72600 53.73500 23.99100
O  35.06800 53.57400 22.79100
C  33.82300 54.89500 24.20100
N  36.79900 48.49600 24.40100
C  36.47100 49.47800 23.43200
C  36.74200 48.95700 21.96900
C  37.40700 47.65100 22.29500
C  37.28100 47.43000 23.76400
C  35.42300 48.84100 21.11000
C  38.95600 47.45100 21.77000
C  39.93900 47.85500 22.90100
N  36.83800 46.76500 26.65300
C  37.42000 45.84600 25.79900
C  37.67500 44.59600 26.52200
C  37.46700 44.92900 27.90900
C  36.86000 46.20400 27.95800
C  38.08500 43.30300 25.87800
C  37.57300 44.42200 29.25500
O  37.97900 43.29400 29.65400
C  37.02700 45.56400 30.21900
C  35.87800 44.97500 30.96800
O  35.00700 44.29900 30.46600
O  35.95000 45.31400 32.28500
C  34.84500 44.93200 33.17200
H  34.76500 52.15900 28.95800
H  35.65000 51.31500 22.82300
H  38.06000 45.49600 23.72500
H  35.19400 47.80500 31.51100
H  35.41700 50.72100 31.22100
H  33.07500 50.65300 31.68700
H  33.12300 48.89000 31.24100
H  32.81600 50.14900 30.04300
H  37.43800 49.56900 31.12600
H  37.60000 47.84000 31.57200
H  37.51200 49.89000 33.40800
H  37.43600 48.19000 33.74200
H  33.32400 54.45000 26.73000
H  35.03600 54.75400 27.22000
H  33.92600 53.82000 28.27300
H  32.81900 54.53800 24.43400
H  33.88800 55.44500 23.26300
H  34.27400 55.58600 24.91400
H  37.40700 49.58000 21.37100
H  36.84900 46.82000 21.86500
H  34.46500 48.73200 21.61800
H  35.59600 47.91200 20.56700
H  35.34600 49.68500 20.42400
H  39.21600 47.84600 20.78800
H  39.00100 46.38500 21.54700
H  40.77500 48.28700 22.35100
H  40.38600 47.03600 23.46500
H  39.56000 48.62900 23.56900
H  39.02100 42.85800 26.21600
H  37.86500 43.24500 24.81200
H  37.39400 42.56000 26.27700
H  37.82100 45.82600 30.91800
H  34.18800 44.16500 32.76200
H  34.29800 45.84400 33.40900
H  35.29500 44.44000 34.03400
Mg -6.19100 24.96400 26.18200
C  -4.60700 26.59600 28.96200
C  -7.73900 23.01100 28.42300
C  -7.24300 23.04100 23.70300
C  -3.97000 26.61100 24.11300
N  -6.05000 24.85600 28.36800
C  -5.45600 25.58100 29.26800
C  -5.80800 25.26100 30.74800
C  -6.52000 23.93100 30.50100
C  -6.78500 23.90300 29.01200
C  -5.87400 22.58400 31.05800
C  -6.50400 26.38000 31.46600
C  -5.93900 26.78100 32.86600
H  -5.14200 25.75200 33.67600
N  -7.46500 23.36700 26.08500
C  -8.06900 22.75700 27.10700
C  -8.98900 21.81300 26.63900
C  -8.92100 21.82600 25.28300
C  -7.85700 22.78600 24.94600
C  -9.80300 20.91400 27.54000
C  -9.67700 20.99500 24.25400
O  -9.43000 21.03700 23.00900
C  -10.76300 20.13000 24.65000
N  -5.81000 24.96000 24.14600
C  -6.22700 23.91000 23.37500
C  -5.51100 23.87500 22.02100
C  -4.56400 25.19100 22.10000
C  -4.75000 25.60600 23.55300
C  -4.82600 22.50400 21.78000
C  -4.84200 26.29600 21.02700
C  -3.71700 26.59100 20.04500
N  -4.66000 26.48300 26.41300
C  -3.90100 26.98100 25.47900
C  -3.02800 27.96900 25.97100
C  -3.26100 27.87400 27.39600
C  -4.24800 26.92600 27.61600
C  -2.13100 28.92400 25.22300
C  -2.95000 28.38600 28.74100
O  -2.19000 29.29200 29.08100
C  -3.73600 27.49100 29.81100
C  -2.55500 26.86700 30.53600
O  -2.12000 25.69700 30.41200
O  -2.20600 27.63900 31.53500
C  -1.25800 27.09400 32.55000
H  -8.28900 22.41700 29.15600
H  -7.66500 22.68700 22.76000
H  -3.22300 27.12800 23.50800
H  -4.94100 24.93100 31.32000
H  -7.47900 23.95200 31.01800
H  -5.56700 21.91600 30.25400
H  -6.61300 22.03400 31.64200
H  -5.00200 22.78900 31.67900
H  -7.55200 26.13900 31.64500
H  -6.58500 27.26200 30.83000
H  -6.88000 26.91400 33.40000
H  -5.31100 27.66800 32.93800
H  -10.85300 20.94000 27.24700
H  -9.69400 21.09000 28.61000
H  -9.50300 19.88500 27.34200
H  -10.44900 19.34400 25.33700
H  -11.11100 19.60700 23.75900
H  -11.50200 20.83000 25.03900
H  -6.22400 23.90500 21.19700
H  -3.52100 24.87600 22.11900
H  -3.80700 22.81800 21.55200
H  -5.32500 21.97200 20.97000
H  -4.86100 22.01000 22.75000
H  -5.16100 27.13500 21.64600
H  -5.73700 25.88600 20.55800
H  -2.84000 25.94900 20.12900
H  -3.41000 27.63500 19.99400
H  -4.13500 26.41400 19.05400
H  -2.81900 29.65900 24.80400
H  -1.62100 28.42600 24.39900
H  -1.33600 29.32500 25.85200
H  -4.39700 28.08800 30.43900
H  -0.28600 26.98900 32.06800
H  -1.55000 26.10900 32.91300
H  -1.26200 27.82300 33.36000

