158

Mg 1.98800 -0.90600 44.69500
C  5.22800 0.13100 43.79700
C  0.75700 1.83900 43.11800
C  -1.01600 -2.04700 45.40000
C  3.48400 -4.07600 45.66600
N  2.90600 0.67400 43.36500
C  4.25400 0.95700 43.27900
C  4.44700 2.19900 42.34800
C  3.00300 2.86700 42.36300
C  2.15100 1.70200 42.95700
C  2.92000 4.10300 43.25700
C  4.84200 1.71300 40.94100
C  6.12500 2.32800 40.32300
H  6.10400 2.84100 38.83500
N  0.07400 -0.16800 44.34600
C  -0.20300 0.96000 43.68600
C  -1.60800 1.12200 43.64800
C  -2.19800 0.00200 44.29700
C  -1.07200 -0.77000 44.74000
C  -2.33200 2.19900 42.78400
C  -3.67200 -0.32900 44.24800
O  -4.51000 0.36300 43.66600
C  -4.14400 -1.63200 44.94100
N  1.33500 -2.75500 45.38300
C  -0.00800 -2.92300 45.69500
C  -0.29100 -4.31800 46.23100
C  1.10200 -5.02100 46.25300
C  2.09500 -3.92000 45.76400
C  -1.23700 -4.37900 47.45000
C  1.19800 -6.38300 45.37300
C  1.75300 -6.29800 43.93000
N  3.97100 -1.84500 44.74600
C  4.39800 -3.10500 45.18800
C  5.82600 -3.15200 45.04900
C  6.21300 -1.85300 44.55800
C  5.02900 -1.15600 44.32300
C  6.70900 -4.26500 45.37600
C  7.37300 -1.05700 44.23100
O  8.52700 -1.33400 44.17700
C  6.75200 0.26600 43.71400
C  7.16300 1.38100 44.56000
O  6.62900 1.75600 45.60800
O  8.38400 1.94300 43.98200
C  8.89500 3.16900 44.66000
H  0.41500 2.78400 42.69200
H  -1.92200 -2.51900 45.78700
H  3.78000 -5.05000 46.06300
H  5.24700 2.81200 42.76200
H  2.65700 3.20300 41.38500
H  2.93100 4.92000 42.53600
H  3.88000 4.13700 43.77100
H  2.02900 3.96800 43.86900
H  4.04800 1.77700 40.19800
H  5.12200 0.67100 41.10200
H  6.95100 1.62700 40.44000
H  6.17900 3.20200 40.97100
H  -2.93100 1.70100 42.02200
H  -1.59200 2.89100 42.38100
H  -3.13100 2.76000 43.26800
H  -5.18600 -1.76600 44.65200
H  -4.00600 -1.50400 46.01400
H  -3.66100 -2.52300 44.53900
H  -0.81900 -4.74400 45.37800
H  1.34300 -5.30900 47.27600
H  -2.28600 -4.37000 47.15500
H  -0.91000 -3.59100 48.12800
H  -1.05600 -5.37000 47.86600
H  0.20400 -6.82900 45.37600
H  1.81600 -7.09200 45.92300
H  1.14000 -6.91100 43.26900
H  2.82000 -6.50300 43.84200
H  1.61600 -5.30100 43.51100
H  7.71900 -3.93200 45.13900
H  6.54900 -5.18000 44.80600
H  6.60900 -4.56800 46.41800
H  7.20000 0.36300 42.72500
H  8.20500 3.99700 44.49600
H  9.73000 3.51600 44.05200
H  9.26200 3.02500 45.67600
Mg 26.01800 0.95600 28.55400
C  27.80100 0.35700 31.52000
C  23.16500 1.26700 30.40800
C  24.28900 0.81400 25.78300
C  28.91400 0.20500 26.67800
N  25.57900 0.77500 30.83400
C  26.45000 0.68300 31.83900
C  25.83200 0.88400 33.22600
C  24.34000 1.24300 32.81000
C  24.30700 1.07200 31.23100
C  23.27100 0.35500 33.46300
C  26.52700 1.97400 34.10000
C  27.09100 1.50300 35.51300
H  26.76900 2.38400 36.73100
N  24.01500 0.96200 28.14500
C  23.00500 1.21600 29.01200
C  21.72400 1.31500 28.31400
C  22.03000 1.15300 26.92100
C  23.50800 0.98600 26.91500
C  20.39300 1.45100 28.96500
C  21.16700 1.06700 25.68000
O  21.59100 0.93800 24.54300
C  19.62800 0.99400 25.98400
N  26.54100 0.59000 26.50200
C  25.62200 0.61800 25.55500
C  26.16500 0.57000 24.14500
C  27.73500 0.70500 24.41500
C  27.77500 0.41900 25.96300
C  25.62500 -0.58400 23.27900
C  28.25100 2.16200 24.03000
C  28.15000 3.42100 24.91000
N  27.98500 0.55200 28.94200
C  29.03300 0.22200 28.07100
C  30.16800 -0.07900 28.90600
C  29.81100 0.00600 30.20100
C  28.42300 0.35500 30.21400
C  31.61100 -0.51100 28.35800
C  30.23500 -0.15200 31.59000
O  31.28200 -0.53000 32.08300
C  28.94300 0.16800 32.42500
C  28.69700 -0.95700 33.30500
O  27.90900 -1.88900 33.05100
O  29.32700 -0.74400 34.43700
C  29.02000 -1.66300 35.52000
H  22.25900 1.53900 30.95300
H  23.81900 0.84200 24.79800
H  29.82700 -0.01500 26.12200
H  25.79800 -0.09900 33.69500
H  24.19700 2.31600 32.93900
H  23.53100 -0.70100 33.38800
H  22.31900 0.52300 32.96000
H  23.11000 0.62400 34.50700
H  25.78100 2.73000 34.34500
H  27.30100 2.47100 33.51500
H  28.17300 1.63300 35.46700
H  26.75300 0.48800 35.72400
H  20.47000 1.65200 30.03400
H  19.84300 0.52800 28.78000
H  19.73000 2.21700 28.56200
H  19.37300 0.33200 26.81100
H  19.23700 0.37800 25.17400
H  19.27200 2.00600 26.17500
H  25.80100 1.51200 23.73600
H  28.27400 -0.05300 23.84700
H  24.92100 -1.17200 23.87000
H  26.48700 -1.14000 22.91000
H  25.25900 -0.00700 22.43000
H  27.95900 2.53300 23.04700
H  29.32700 2.09600 23.87200
H  28.06900 3.21300 25.97700
H  27.28700 4.02200 24.62400
H  29.02100 4.07600 24.90900
H  32.07700 0.30400 27.80400
H  31.54700 -1.30600 27.61500
H  32.23800 -0.85300 29.18100
H  29.28700 1.04300 32.97800
H  27.94200 -1.60700 35.66800
H  29.60100 -1.41900 36.41000
H  29.09600 -2.72300 35.27400

