158

Mg 1.45000 -1.86200 45.40800
C  4.87300 -0.86000 44.88400
C  0.50000 0.76200 43.45500
C  -1.55600 -3.16300 45.48500
C  2.76300 -4.84800 46.74200
N  2.63700 -0.11900 44.36800
C  3.99300 -0.00200 44.21800
C  4.30000 1.25700 43.36100
C  2.85300 1.92000 43.21800
C  1.93800 0.77600 43.59500
C  2.72900 3.21700 44.07700
C  4.96500 0.81500 41.97400
C  6.45200 1.17200 41.66400
H  6.60100 1.61400 40.21400
N  -0.27500 -1.29100 44.54500
C  -0.49300 -0.13100 43.89000
C  -1.88600 0.01000 43.57000
C  -2.54000 -1.02000 44.28800
C  -1.47200 -1.87800 44.87000
C  -2.36400 1.26100 42.90500
C  -3.99200 -1.17800 44.32600
O  -4.76800 -0.45300 43.67600
C  -4.67800 -2.06400 45.24400
N  0.78700 -3.89200 45.63200
C  -0.56300 -4.08800 45.83000
C  -0.90200 -5.43200 46.52900
C  0.48300 -6.05900 46.71000
C  1.43100 -4.84100 46.29900
C  -1.73300 -5.31000 47.84800
C  0.81200 -7.30000 45.82100
C  1.51600 -8.45200 46.59600
N  3.42400 -2.69300 45.94400
C  3.72300 -3.92000 46.48400
C  5.19800 -3.96700 46.77600
C  5.67200 -2.77800 46.09300
C  4.55000 -2.03400 45.60000
C  6.03300 -5.07500 47.44400
C  6.81300 -2.15100 45.61800
O  8.02400 -2.45600 45.64400
C  6.41200 -0.84100 44.88600
C  6.83600 0.38600 45.67300
O  6.86400 0.52100 46.83100
O  7.22400 1.35300 44.75000
C  7.70500 2.62100 45.23900
H  0.25200 1.64900 42.86700
H  -2.55900 -3.55300 45.67000
H  3.10100 -5.74400 47.26800
H  4.97200 1.88800 43.94200
H  2.67200 2.28700 42.20700
H  3.72700 3.57200 44.33400
H  2.03700 3.18200 44.91900
H  2.21100 3.90500 43.40800
H  4.42700 1.16500 41.09200
H  4.88600 -0.26900 41.90200
H  6.96500 0.22000 41.80000
H  6.97400 1.94500 42.22900
H  -2.56300 1.96100 43.71700
H  -3.28700 1.08600 42.35400
H  -1.61500 1.59200 42.18500
H  -3.99700 -1.99400 46.09300
H  -4.74700 -3.06400 44.81600
H  -5.64400 -1.61600 45.47300
H  -1.46300 -6.01400 45.79800
H  0.56700 -6.26100 47.77800
H  -2.79300 -5.23000 47.60500
H  -1.45200 -4.44800 48.45400
H  -1.70800 -6.23200 48.42900
H  1.47400 -6.90900 45.04800
H  -0.11500 -7.65700 45.37000
H  0.98500 -9.38800 46.41900
H  1.55600 -8.36900 47.68200
H  2.51600 -8.45900 46.16400
H  6.19400 -5.90400 46.75500
H  5.56200 -5.49400 48.33300
H  7.08000 -4.85900 47.65400
H  6.87100 -0.90800 43.89900
H  8.15200 2.61700 46.23300
H  6.80900 3.24200 45.23600
H  8.29800 3.00500 44.40900
Mg -11.74500 16.36300 41.69600
C  -8.78100 14.48700 41.49600
C  -10.20700 18.90300 39.95800
C  -14.87100 17.82500 41.26600
C  -13.32300 13.50100 42.86100
N  -9.74700 16.63600 40.78600
C  -8.70600 15.64900 40.75100
C  -7.53800 16.23900 39.97500
C  -7.92000 17.66400 39.65700
C  -9.32500 17.79500 40.23600
C  -7.01500 18.75500 40.31000
C  -7.14200 15.40700 38.70200
C  -5.63500 15.17100 38.50900
H  -5.02000 15.55000 37.07700
N  -12.39000 18.18600 40.90600
C  -11.59200 19.14100 40.28200
C  -12.40100 20.29500 39.95900
C  -13.74100 20.05700 40.44400
C  -13.72900 18.60500 40.90700
C  -11.91300 21.61600 39.35700
C  -14.81600 21.09800 40.48100
O  -14.48900 22.23000 40.10400
C  -16.24100 20.80800 40.90400
N  -13.87300 15.74900 42.09700
C  -14.96600 16.55600 41.87800
C  -16.22000 15.80100 42.17700
C  -15.71500 14.43000 42.76700
C  -14.19000 14.52300 42.57200
C  -17.29100 16.48400 43.10500
C  -16.34200 13.09700 42.29300
C  -16.98600 12.15800 43.34400
N  -11.20400 14.40900 42.30800
C  -11.93700 13.40300 42.74900
C  -11.13700 12.31200 43.11600
C  -9.81400 12.69600 42.77400
C  -9.90300 14.01600 42.19700
C  -11.67100 10.99100 43.54000
C  -8.45800 12.29800 42.72800
O  -7.83900 11.32800 43.21500
C  -7.72600 13.43600 41.89000
C  -6.79100 14.02900 42.80500
O  -6.80200 14.20300 44.02000
O  -5.67600 14.40500 42.07000
C  -4.65700 15.04400 42.86700
H  -9.81000 19.66300 39.28300
H  -15.84500 18.28100 41.07800
H  -13.87900 12.72600 43.39100
H  -6.78300 16.21600 40.76100
H  -7.95800 17.85900 38.58500
H  -6.46500 18.22700 41.08900
H  -7.64600 19.46100 40.84900
H  -6.42800 19.24900 39.53500
H  -7.38800 15.93600 37.78200
H  -7.66000 14.44900 38.66300
H  -5.58700 14.08700 38.61100
H  -4.98400 15.57800 39.28300
H  -12.54000 21.95900 38.53400
H  -10.90200 21.51200 38.96400
H  -11.87000 22.36000 40.15300
H  -16.20500 20.31600 41.87600
H  -16.54000 20.13700 40.09900
H  -16.93800 21.62800 40.73000
H  -16.56800 15.61700 41.16100
H  -15.68100 14.51800 43.85300
H  -18.25100 16.43200 42.59100
H  -17.07700 17.53600 43.29400
H  -17.37800 15.97500 44.06500
H  -15.52200 12.47700 41.93000
H  -17.16800 13.19900 41.59100
H  -17.18200 12.75100 44.23800
H  -16.40200 11.26800 43.57800
H  -17.99000 11.79500 43.12100
H  -12.18500 10.52700 42.69800
H  -12.29900 11.12300 44.42100
H  -10.84300 10.35400 43.85100
H  -7.30000 12.99900 40.98700
H  -4.85300 16.11100 42.75400
H  -3.72500 14.65300 42.45800
H  -4.57600 14.81400 43.92900

