158

Mg 8.87500 4.45000 27.61200
C  9.72000 2.74100 30.66100
C  6.71300 6.36500 29.56400
C  7.80900 5.88100 24.83300
C  10.49600 1.92200 25.85100
N  8.15700 4.40100 29.76300
C  8.74500 3.73400 30.86200
C  8.25800 4.27900 32.23000
C  7.10100 5.24500 31.77500
C  7.28200 5.28400 30.23100
C  5.71000 4.77600 32.25300
C  9.38300 4.94700 33.18200
C  9.58200 4.27700 34.55500
H  10.79200 4.61500 35.30300
N  7.58200 6.02200 27.26900
C  6.86500 6.73700 28.19300
C  6.17600 7.81600 27.54700
C  6.47700 7.68500 26.13400
C  7.33500 6.49500 26.04300
C  5.29900 8.85300 28.27400
C  5.91300 8.54600 24.98500
O  6.31400 8.33800 23.80200
C  4.90900 9.64400 25.26400
N  9.09200 3.87300 25.63000
C  8.55900 4.65100 24.62600
C  8.78700 4.05800 23.19000
C  9.53400 2.68400 23.56600
C  9.85400 2.86700 25.10500
C  7.51400 3.91900 22.42300
C  10.77100 2.33900 22.59000
C  10.89600 0.87900 22.24700
N  10.04000 2.83500 28.02900
C  10.57600 1.88100 27.25700
C  11.16000 0.84500 28.03000
C  10.98600 1.26000 29.35300
C  10.19100 2.38900 29.33600
C  11.90000 -0.42100 27.55200
C  11.18800 0.89700 30.72800
O  11.85900 -0.06500 31.16200
C  10.41300 1.93500 31.67500
C  9.67700 1.05100 32.55100
O  8.52200 0.72800 32.34800
O  10.47100 0.84000 33.66700
C  9.87300 0.18900 34.86100
H  6.01400 6.91100 30.20100
H  7.42600 6.26300 23.88500
H  10.97200 1.06800 25.36500
H  7.73400 3.50200 32.78600
H  7.19300 6.27900 32.10800
H  4.98400 4.60000 31.46000
H  5.36400 5.61200 32.86100
H  5.80800 3.94300 32.95000
H  9.30700 6.02700 33.30400
H  10.35100 4.77900 32.70900
H  9.62100 3.20500 34.36400
H  8.69700 4.55800 35.12600
H  5.64100 9.06600 29.28700
H  4.29900 8.44000 28.40700
H  5.24900 9.79600 27.73000
H  4.45300 9.91900 24.31300
H  5.37900 10.49400 25.76000
H  4.09800 9.33800 25.92500
H  9.60500 4.68900 22.84500
H  8.74900 1.92900 23.51900
H  7.36100 2.90300 22.05800
H  7.62800 4.56500 21.55200
H  6.58500 4.23100 22.90000
H  11.73200 2.73300 22.92100
H  10.48300 2.86700 21.68200
H  10.10500 0.20900 22.58400
H  11.76500 0.59800 22.84400
H  11.07900 0.83900 21.17400
H  12.95800 -0.18500 27.66600
H  11.71700 -0.81000 26.55000
H  11.57000 -1.19600 28.24300
H  11.07800 2.53900 32.29400
H  9.25400 -0.66400 34.58300
H  9.27800 0.91500 35.41600
H  10.61700 -0.17500 35.57000
Mg 17.16500 -0.78500 28.41000
C  16.25100 1.29900 31.12700
C  18.94700 -2.78700 30.51000
C  18.29200 -2.52200 25.69300
C  15.39800 1.36700 26.37900
N  17.69100 -0.55500 30.51600
C  17.17800 0.26200 31.44400
C  17.57100 -0.14900 32.85700
C  18.71500 -1.19000 32.55400
C  18.56300 -1.56400 31.07500
C  20.15500 -0.63500 32.73700
C  16.39100 -0.83300 33.72800
C  16.15000 -0.06100 35.04900
H  17.32900 0.19900 35.99600
N  18.38900 -2.47500 28.13300
C  18.93000 -3.20900 29.18800
C  19.60300 -4.37500 28.64000
C  19.33300 -4.38400 27.22100
C  18.62400 -3.13200 26.92800
C  20.48300 -5.35500 29.45900
C  19.79000 -5.47900 26.15800
O  19.68400 -5.29300 24.95300
C  20.43300 -6.76500 26.62500
N  16.92200 -0.61200 26.42600
C  17.50300 -1.41000 25.44600
C  17.16300 -0.94300 23.98900
C  16.13900 0.16400 24.31100
C  16.12700 0.33000 25.80200
C  18.47900 -0.44600 23.32100
C  14.65800 -0.09500 23.70300
C  13.62500 -0.89800 24.55900
N  16.12900 0.97800 28.62000
C  15.43800 1.76100 27.70100
C  14.84600 2.88800 28.36900
C  15.07500 2.73900 29.69200
C  15.85800 1.56800 29.79600
C  14.00400 3.99300 27.71500
C  14.83800 3.31900 31.02400
O  14.21700 4.27500 31.39900
C  15.57700 2.35100 32.03700
C  16.53800 3.23900 32.77200
O  17.68100 3.55600 32.45600
O  15.92200 3.65600 33.94000
C  16.58600 4.44100 34.93000
H  19.33700 -3.51900 31.22100
H  18.62200 -3.15100 24.86400
H  14.94000 2.12700 25.74200
H  17.96100 0.74300 33.34800
H  18.70700 -2.15400 33.06300
H  20.21000 0.29100 33.30900
H  20.68100 -0.42800 31.80500
H  20.70800 -1.39400 33.29000
H  16.61600 -1.89400 33.83100
H  15.50900 -0.70200 33.10200
H  15.43200 -0.62900 35.64100
H  15.75400 0.92200 34.79300
H  19.86500 -6.19700 29.77100
H  20.72900 -4.85600 30.39700
H  21.35600 -5.60200 28.85500
H  21.43000 -6.61300 27.03800
H  20.63100 -7.42100 25.77800
H  19.72600 -7.25300 27.29600
H  16.71900 -1.85600 23.59200
H  16.35000 1.13700 23.86700
H  19.31200 -0.59100 24.00900
H  18.43400 0.59600 23.00300
H  18.51600 -1.00700 22.38800
H  14.85700 -0.59100 22.75300
H  14.28800 0.89700 23.44600
H  13.88700 -1.13200 25.59100
H  13.38400 -1.82800 24.04500
H  12.72600 -0.28200 24.55100
H  13.16300 3.61200 27.13600
H  14.57900 4.59100 27.00700
H  13.71200 4.64900 28.53400
H  14.85200 1.86700 32.69300
H  16.03400 5.35500 35.14500
H  17.61100 4.64500 34.61800
H  16.61000 3.84200 35.84000

