158

Mg 7.06600 57.13100 41.37700
C  6.32600 53.80000 41.12600
C  10.23200 56.48200 40.31600
C  7.74900 60.51800 41.09800
C  3.77300 57.83000 42.09800
N  8.06900 55.36900 40.65000
C  7.56900 54.08200 40.60800
C  8.54300 53.11400 39.91300
C  9.89000 53.85100 40.07300
C  9.37700 55.35800 40.39400
C  10.84100 53.24000 41.06400
C  8.11800 52.86100 38.44000
C  8.39600 51.45300 37.78200
H  9.41000 51.14500 36.71800
N  8.78300 58.32100 40.84900
C  10.02000 57.84000 40.55200
C  10.96700 58.96500 40.36200
C  10.23900 60.18900 40.61300
C  8.90100 59.72100 40.85900
C  12.41700 58.83900 40.11000
C  10.80400 61.60600 40.56400
O  12.01200 61.86700 40.36400
C  9.90600 62.89700 40.71700
N  5.90000 58.93700 41.39100
C  6.40900 60.17600 41.38400
C  5.34700 61.24600 41.72000
C  4.07100 60.39300 42.07600
C  4.58600 58.96200 41.81000
C  5.73600 62.28200 42.83000
C  2.85400 60.82600 41.21900
C  1.40100 60.77100 41.85600
N  5.29500 56.04500 41.57700
C  4.02600 56.46200 41.93100
C  3.31100 55.22500 42.33400
C  4.19100 54.16500 42.02100
C  5.28900 54.73800 41.54500
C  1.99900 55.10500 43.11700
C  4.35200 52.72200 41.97100
O  3.73400 51.74200 42.40400
C  5.72800 52.44500 41.24400
C  5.40900 51.76400 39.98800
O  4.69700 52.22000 39.11400
O  6.02400 50.51900 39.87400
C  5.54800 49.73100 38.74500
H  11.26600 56.28800 40.02300
H  7.83400 61.60100 40.98400
H  2.77300 57.99800 42.50100
H  8.50600 52.17200 40.45900
H  10.54300 53.77700 39.20300
H  10.23100 52.78400 41.84400
H  11.43100 53.98700 41.59300
H  11.53700 52.49800 40.67300
H  8.57900 53.65300 37.85100
H  7.03500 52.85100 38.31900
H  7.42900 51.17700 37.36100
H  8.51900 50.63300 38.49100
H  12.58100 59.06400 39.05600
H  12.96100 57.95000 40.43200
H  12.79600 59.63400 40.75300
H  9.44800 62.82900 41.70400
H  9.16100 63.09500 39.94700
H  10.51800 63.79500 40.62900
H  5.29900 61.70400 40.73200
H  3.78800 60.46400 43.12600
H  5.80800 63.31800 42.49900
H  6.70600 61.97400 43.22000
H  4.98500 62.14900 43.60800
H  2.79700 60.21800 40.31600
H  2.89500 61.86100 40.87800
H  0.94100 61.66700 41.44000
H  1.40200 60.77600 42.94600
H  0.83500 59.89600 41.53600
H  1.96000 55.70400 44.02700
H  1.72100 54.08300 43.37800
H  1.20900 55.51300 42.48700
H  6.33100 51.77200 41.85300
H  4.64200 49.19900 39.03600
H  6.22700 48.95600 38.38800
H  5.22400 50.14400 37.79100
Mg -4.57700 24.22300 27.25900
C  -3.18400 26.45400 29.61500
C  -5.21500 22.01700 29.86900
C  -5.47300 21.94900 25.00200
C  -3.56300 26.31500 24.66500
N  -4.32700 24.25800 29.46700
C  -3.88200 25.32700 30.21100
C  -3.92300 25.05800 31.72300
C  -4.27700 23.54500 31.79300
C  -4.69000 23.20000 30.29300
C  -3.07000 22.56800 32.26300
C  -5.04400 25.96600 32.35200
C  -4.67400 26.42900 33.71600
H  -5.00400 25.46200 34.78100
N  -5.40200 22.29100 27.44400
C  -5.54200 21.53000 28.64800
C  -6.16700 20.28000 28.30500
C  -6.10200 20.20800 26.92000
C  -5.64000 21.49000 26.38600
C  -6.72600 19.37000 29.38900
C  -6.59000 19.02100 25.95300
O  -6.62800 19.16500 24.75200
C  -7.24700 17.85200 26.61300
N  -4.71200 24.23800 25.10300
C  -5.21500 23.18700 24.39700
C  -5.19000 23.40500 22.95700
C  -4.64600 24.88700 22.82400
C  -4.22300 25.20500 24.24200
C  -4.39100 22.25900 22.19300
C  -5.52000 25.94800 22.12600
C  -4.81900 26.93000 21.20200
N  -3.68700 26.06700 27.11500
C  -3.29400 26.78500 25.97000
C  -2.60700 27.97600 26.44300
C  -2.51400 27.81200 27.83900
C  -3.18800 26.74500 28.21100
C  -1.95300 29.13800 25.67300
C  -2.05600 28.44100 29.03100
O  -1.44900 29.51900 29.22700
C  -2.54900 27.64900 30.28000
C  -1.30200 27.41300 30.98100
O  -0.49300 26.54400 30.71700
O  -1.17100 28.18500 32.05200
C  -0.23300 27.71000 33.05300
H  -5.24200 21.30600 30.69700
H  -5.75300 21.18000 24.28000
H  -3.32600 27.07800 23.92000
H  -2.92100 25.21500 32.12100
H  -5.16700 23.39300 32.40300
H  -3.45800 21.76000 32.88300
H  -2.35300 23.19100 32.79600
H  -2.46700 22.08600 31.49300
H  -6.03200 25.50800 32.40500
H  -5.17800 26.81800 31.68600
H  -5.01700 27.39700 34.08100
H  -3.58800 26.51600 33.66400
H  -6.11900 18.46400 29.38900
H  -7.76600 19.16700 29.13200
H  -6.68300 19.86300 30.36000
H  -7.36400 17.10100 25.83200
H  -8.28400 18.12600 26.80500
H  -6.62400 17.35700 27.35800
H  -6.19700 23.41100 22.53900
H  -3.76200 24.77800 22.19500
H  -3.82700 21.58600 22.83900
H  -3.72000 22.58700 21.40000
H  -5.17600 21.62700 21.77800
H  -6.13800 26.39500 22.90400
H  -6.16000 25.42400 21.41700
H  -5.19000 27.92600 21.44400
H  -4.98000 26.84400 20.12700
H  -3.77100 26.99200 21.49400
H  -2.64800 29.36200 24.86500
H  -0.95500 28.85800 25.33400
H  -1.80700 30.00500 26.31800
H  -3.25100 28.20200 30.90300
H  -0.52100 28.30200 33.92200
H  0.83900 27.77000 32.86400
H  -0.51700 26.68200 33.28000

