158

Mg 25.89700 0.35000 29.73100
C  27.96300 0.22400 32.42100
C  23.18600 0.66500 31.78000
C  23.88100 0.23000 27.00900
C  28.67400 -0.19300 27.63700
N  25.61900 0.29700 31.81200
C  26.59200 0.32400 32.77900
C  26.06800 0.43000 34.28000
C  24.52300 0.39900 33.95200
C  24.43900 0.44300 32.42500
C  23.85700 -0.76100 34.59900
C  26.57600 1.57100 35.10900
C  25.75900 2.21700 36.19900
H  26.69900 2.54900 37.43000
N  23.83900 0.53600 29.42000
C  22.90000 0.69600 30.40500
C  21.61400 0.79300 29.80900
C  21.79200 0.78100 28.44000
C  23.23600 0.51200 28.22400
C  20.29200 0.83000 30.58800
C  20.78100 1.11100 27.29000
O  21.14800 1.10500 26.09200
C  19.31500 1.38300 27.60400
N  26.23500 0.04100 27.73400
C  25.22800 0.00400 26.77600
C  25.72700 -0.20200 25.35900
C  27.23500 -0.35400 25.54400
C  27.46800 -0.05700 27.01400
C  24.99500 -1.42300 24.72600
C  28.07300 0.65900 24.66800
C  28.29200 2.10500 25.21100
N  27.87900 0.15800 29.90700
C  28.91300 -0.13900 29.02600
C  30.21300 -0.26000 29.77200
C  29.91000 -0.10700 31.13200
C  28.48800 0.11700 31.11500
C  31.57600 -0.48500 29.18100
C  30.39600 -0.04800 32.44300
O  31.53600 -0.15400 32.91000
C  29.16800 0.12100 33.29500
C  29.10000 -1.04500 34.22600
O  28.69100 -2.10300 33.92300
O  29.64600 -0.72600 35.39500
C  29.65700 -1.69300 36.46800
H  22.32000 0.83200 32.42400
H  23.29300 0.20000 26.08900
H  29.52700 -0.47700 27.01700
H  26.44900 -0.53800 34.60700
H  23.97700 1.21200 34.43100
H  24.60500 -1.55400 34.59800
H  23.06600 -1.20200 33.99400
H  23.57400 -0.54000 35.62800
H  26.97900 2.36300 34.47800
H  27.35600 1.05400 35.66900
H  24.99600 1.47200 36.42100
H  25.35700 3.15800 35.82300
H  19.66300 -0.00300 30.27200
H  19.79400 1.76700 30.34200
H  20.48900 0.74300 31.65700
H  18.95600 0.53900 28.19300
H  18.74600 1.40500 26.67500
H  19.23400 2.30100 28.18700
H  25.51700 0.68100 24.75500
H  27.57000 -1.36200 25.30200
H  24.34100 -2.02500 25.35500
H  25.57100 -2.18100 24.19600
H  24.35400 -1.04300 23.93000
H  27.50200 0.68500 23.74000
H  29.05100 0.21700 24.47800
H  28.05300 2.39400 26.23400
H  27.65100 2.76800 24.63000
H  29.31700 2.31200 24.90100
H  31.62700 -0.05600 28.18100
H  31.75900 -1.55900 29.16500
H  32.35300 0.02200 29.75500
H  29.30600 1.04600 33.85400
H  28.81000 -1.54300 37.13700
H  30.64100 -1.65800 36.93600
H  29.62000 -2.73500 36.15200
Mg -4.08500 25.83000 25.51800
C  -3.06200 27.19900 28.49500
C  -6.12300 23.59500 27.38000
C  -4.77100 24.04400 22.67800
C  -1.70600 27.67800 23.85100
N  -4.62600 25.46100 27.70600
C  -4.04800 26.19800 28.67600
C  -4.63700 25.82500 30.06600
C  -5.44300 24.54900 29.71400
C  -5.41000 24.52900 28.15900
C  -5.07200 23.21700 30.46200
C  -5.52500 26.91200 30.73900
C  -5.24100 27.34300 32.22000
H  -4.96800 26.27700 33.31100
N  -5.31500 24.11100 25.07600
C  -6.11700 23.37300 25.96100
C  -6.90900 22.37900 25.25600
C  -6.50900 22.47600 23.83200
C  -5.48300 23.58400 23.78700
C  -7.93100 21.49300 25.92400
C  -7.00100 21.74500 22.62000
O  -6.73000 22.09600 21.47900
C  -8.02000 20.58500 22.70400
N  -3.37500 25.89100 23.56600
C  -3.77700 25.03700 22.57300
C  -3.07000 25.32900 21.26400
C  -2.26500 26.61300 21.54500
C  -2.40100 26.75800 23.07900
C  -2.22200 24.12800 20.75700
C  -2.55800 27.93000 20.69600
C  -3.74900 28.81200 21.03000
N  -2.73300 27.26400 25.96400
C  -1.85500 27.99900 25.19800
C  -1.01400 28.76900 26.03300
C  -1.51900 28.56100 27.37000
C  -2.53400 27.61300 27.25600
C  0.09800 29.74300 25.63100
C  -1.36200 28.88400 28.73000
O  -0.51000 29.55900 29.36000
C  -2.36400 27.95600 29.54900
C  -1.54800 27.26000 30.52200
O  -1.14900 26.16300 30.40800
O  -1.38100 28.07500 31.59700
C  -0.90600 27.43300 32.82300
H  -6.61000 22.80900 27.96100
H  -4.78200 23.43000 21.77600
H  -0.88800 28.24600 23.40300
H  -3.75900 25.62300 30.67900
H  -6.49900 24.68900 29.94700
H  -4.70800 22.38500 29.86000
H  -6.01700 22.81200 30.82300
H  -4.42800 23.31000 31.33700
H  -6.57600 26.64700 30.85100
H  -5.46700 27.80000 30.11000
H  -5.98100 27.98500 32.69700
H  -4.38900 27.99100 32.01600
H  -7.46100 20.98300 26.76500
H  -8.23000 20.72100 25.21500
H  -8.82300 22.05700 26.19400
H  -9.02500 20.97400 22.86900
H  -7.83200 19.82500 23.46200
H  -8.04700 20.17900 21.69200
H  -3.77900 25.51800 20.45800
H  -1.19500 26.44200 21.43300
H  -1.22600 24.52700 20.56300
H  -2.69000 23.66700 19.88700
H  -2.07000 23.37700 21.53200
H  -2.60700 27.48700 19.70200
H  -1.64200 28.52000 20.71600
H  -4.22800 28.26200 21.84000
H  -4.41800 28.94800 20.18100
H  -3.35700 29.77200 21.36500
H  -0.38500 30.52400 25.04500
H  0.76400 29.18700 24.97100
H  0.69300 30.06100 26.48700
H  -3.08900 28.58600 30.06500
H  -1.18100 26.39200 32.99600
H  -1.29200 27.95100 33.70100
H  0.17700 27.36800 32.92700

