158

Mg 43.74200 3.18100 47.44300
C  41.23300 5.37400 46.56800
C  41.31700 0.57700 47.44900
C  46.27700 0.91100 47.62500
C  46.01300 5.68300 47.38500
N  41.48400 2.98500 46.85400
C  40.65900 4.08000 46.66400
C  39.17700 3.67100 46.53300
C  39.28200 2.16900 47.07500
C  40.76900 1.90500 47.19600
C  38.52200 1.89800 48.46400
C  38.67500 3.67900 45.03400
C  37.56600 4.71400 44.60900
H  37.87100 5.63100 43.43900
N  43.75400 1.00100 47.51400
C  42.69000 0.12300 47.45400
C  43.17200 -1.27200 47.57100
C  44.56500 -1.21400 47.81600
C  44.96000 0.29400 47.66900
C  42.25800 -2.43400 47.46900
C  45.46400 -2.40100 48.02100
O  44.95000 -3.51900 47.95700
C  46.98600 -2.25300 48.20200
N  45.90000 3.29200 47.41800
C  46.69100 2.19100 47.45600
C  48.16400 2.60000 47.46100
C  48.10100 4.17200 47.47800
C  46.60500 4.42100 47.45700
C  49.06900 1.98100 48.55400
C  49.01800 4.94200 46.49700
C  50.45800 4.91900 46.89300
N  43.69600 5.24700 47.14100
C  44.68000 6.16300 47.16000
C  44.15800 7.47800 46.84200
C  42.78700 7.23600 46.69200
C  42.55400 5.86600 46.80500
C  44.92100 8.73000 46.69500
C  41.44900 7.81700 46.47200
O  41.12000 8.95400 46.45900
C  40.38800 6.62000 46.33900
C  39.53700 6.81700 47.53700
O  39.86000 6.87000 48.68600
O  38.25800 6.93700 47.11100
C  37.22300 7.13100 48.15800
H  40.53600 -0.18300 47.38800
H  47.17900 0.30300 47.72400
H  46.74700 6.49200 47.39200
H  38.57600 4.28100 47.20900
H  38.92400 1.48200 46.30800
H  37.94700 2.76000 48.80400
H  39.31600 1.76100 49.19800
H  37.84100 1.05400 48.35600
H  38.28200 2.69100 44.79200
H  39.47300 3.99200 44.36200
H  37.26000 5.38400 45.41200
H  36.66300 4.16200 44.34800
H  42.58900 -2.96800 46.57900
H  41.19800 -2.23600 47.31100
H  42.35300 -3.14500 48.28900
H  47.40300 -1.89700 47.26000
H  47.30800 -3.24200 48.52800
H  47.15400 -1.49500 48.96800
H  48.51700 2.30900 46.47200
H  48.51100 4.49100 48.43600
H  49.91200 1.50000 48.05800
H  48.55000 1.28200 49.21100
H  49.41800 2.71500 49.28000
H  48.71100 5.96800 46.29600
H  48.79100 4.46800 45.54200
H  50.63700 4.45900 47.86500
H  50.86400 5.92800 46.96200
H  51.08700 4.46200 46.12900
H  44.37000 9.57000 47.11800
H  45.19500 8.81200 45.64400
H  45.80800 8.69800 47.32800
H  39.87000 6.72300 45.38500
H  37.12800 6.36400 48.92700
H  36.26100 7.22500 47.65300
H  37.40200 8.10000 48.62400
Mg 41.65300 41.08000 26.72500
C  41.18700 43.67900 29.16300
C  42.58800 38.99700 29.33200
C  42.81400 38.86500 24.34000
C  41.51100 43.59000 24.24200
N  41.68300 41.29500 28.88200
C  41.41900 42.38200 29.65700
C  41.48900 42.11700 31.13400
C  42.12500 40.74900 31.22700
C  42.05700 40.23000 29.71700
C  43.50400 40.66900 32.00100
C  40.00600 42.28600 31.70100
C  39.80700 41.79800 33.17900
H  40.18800 42.73000 34.36700
N  42.42400 39.14200 26.81200
C  42.70700 38.46200 27.97800
C  43.12700 37.10800 27.56900
C  43.26200 37.04700 26.17700
C  42.89300 38.44900 25.71600
C  43.37400 36.01300 28.58700
C  43.49900 35.93200 25.19400
O  43.41400 35.95600 23.98600
C  43.83600 34.53800 25.73900
N  42.05000 41.20700 24.61300
C  42.28900 40.05900 23.83900
C  42.12600 40.43800 22.43000
C  41.33400 41.86200 22.41000
C  41.71700 42.27400 23.79600
C  43.46900 40.48400 21.68300
C  39.86300 41.89100 22.10600
C  39.01000 40.96700 22.88600
N  41.25900 43.13800 26.59500
C  41.30300 44.04000 25.54600
C  41.03800 45.35200 26.02200
C  41.01200 45.23900 27.39900
C  41.22700 43.92300 27.71800
C  40.88500 46.59300 25.18400
C  40.88800 45.96600 28.61300
O  40.79500 47.15200 28.73800
C  41.03300 45.02900 29.76700
C  42.13500 45.39900 30.62200
O  43.25300 45.00400 30.52700
O  41.72700 46.35800 31.49600
C  42.68300 46.74800 32.55200
H  42.83200 38.32000 30.15300
H  43.18300 38.18300 23.57100
H  41.33500 44.32600 23.45500
H  42.18100 42.87100 31.51100
H  41.43600 40.06100 31.71500
H  43.56400 41.56400 32.62000
H  44.49400 40.55600 31.55800
H  43.50100 39.82500 32.69100
H  39.25000 41.76000 31.11700
H  39.87500 43.35700 31.85800
H  40.43200 40.90800 33.25000
H  38.78000 41.43600 33.24200
H  42.98700 35.02800 28.32800
H  43.09600 36.30800 29.59900
H  44.46100 35.96000 28.51600
H  43.12200 34.06100 26.41100
H  44.80900 34.50100 26.22800
H  44.01800 33.92100 24.85900
H  41.37100 39.82400 21.93900
H  41.83000 42.56800 21.74300
H  44.20100 40.83200 22.41200
H  43.55700 41.13800 20.81500
H  43.74100 39.50100 21.29700
H  39.77000 41.74300 21.03000
H  39.43500 42.87800 22.28100
H  39.60600 40.21900 23.41000
H  38.36200 40.47000 22.16400
H  38.31800 41.50700 23.53300
H  39.90500 46.70700 24.72200
H  41.55300 46.45800 24.33400
H  41.13800 47.47300 25.77500
H  40.11200 45.15700 30.33600
H  42.46500 46.21600 33.47900
H  42.66000 47.82600 32.70800
H  43.75000 46.61900 32.37000

