158

Mg -0.01800 7.42100 26.14400
C  1.00900 9.10700 28.91800
C  -0.45400 4.69000 27.87700
C  -0.74700 5.90300 23.18300
C  0.86300 10.34200 24.23900
N  0.44200 6.91900 28.17300
C  0.64600 7.77000 29.17700
C  0.53800 7.06300 30.54900
C  0.40400 5.55300 30.16200
C  0.12500 5.71100 28.63500
C  1.68400 4.71100 30.44600
C  -0.68600 7.56400 31.42900
C  -0.49600 7.62800 32.90300
H  0.62800 6.79700 33.57800
N  -0.57400 5.53100 25.60200
C  -0.68400 4.52600 26.46800
C  -1.25100 3.37400 25.76500
C  -1.34800 3.77900 24.35300
C  -0.84200 5.09200 24.33200
C  -1.69500 2.11100 26.55700
C  -1.77500 2.87900 23.22400
O  -1.88900 3.16300 22.02700
C  -2.11900 1.37500 23.54800
N  0.10000 8.03100 24.05600
C  -0.19500 7.18000 23.07000
C  0.11600 7.76300 21.62800
C  0.32200 9.26600 21.92600
C  0.41400 9.24700 23.52700
C  1.26600 7.03300 20.87300
C  -0.69800 10.17400 21.34800
C  -2.17600 10.08700 21.93700
N  0.70600 9.37200 26.45200
C  1.03700 10.39900 25.61200
C  1.42900 11.60000 26.36400
C  1.51900 11.18300 27.65100
C  1.01200 9.79900 27.67600
C  1.73000 12.98200 25.88000
C  1.84800 11.52600 29.01200
O  2.38000 12.54300 29.54900
C  1.44700 10.22200 29.86500
C  2.60300 9.85300 30.77700
O  3.54600 9.14500 30.45600
O  2.51300 10.60600 31.88800
C  3.68300 10.87300 32.74300
H  -0.61500 3.75800 28.42200
H  -1.24600 5.37500 22.36800
H  0.99700 11.25400 23.65300
H  1.51500 7.23000 31.00200
H  -0.48300 5.13000 30.63400
H  2.28600 4.70000 29.53700
H  1.55700 3.67900 30.77100
H  2.30800 5.26200 31.15000
H  -1.59400 7.01700 31.17500
H  -0.89000 8.57200 31.06900
H  -1.34800 7.15100 33.38600
H  -0.46500 8.61700 33.36100
H  -2.66600 1.78100 26.18700
H  -1.79000 2.06000 27.64100
H  -1.03000 1.27300 26.34700
H  -1.19300 0.94600 23.93200
H  -2.37500 0.79600 22.66100
H  -2.95300 1.51400 24.23600
H  -0.77800 7.61600 21.02200
H  1.27800 9.56600 21.49600
H  1.25200 5.97300 21.12700
H  2.18700 7.44000 21.29100
H  1.22200 7.10000 19.78600
H  -0.72700 10.07200 20.26300
H  -0.35300 11.17300 21.61600
H  -2.42700 11.09100 22.28000
H  -2.20100 9.45200 22.82300
H  -2.97500 9.63200 21.35000
H  1.58400 13.70300 26.68500
H  1.13900 13.20800 24.99200
H  2.77100 13.05200 25.56300
H  0.53900 10.51800 30.38900
H  3.59500 10.28500 33.65700
H  3.56700 11.94400 32.90600
H  4.66400 10.64700 32.32500
Mg 9.97900 47.62400 25.97000
C  8.23900 47.90500 28.96900
C  12.65500 49.17600 27.56200
C  11.71000 47.58000 23.09500
C  7.06800 46.63600 24.40600
N  10.25400 48.59900 28.00400
C  9.48600 48.45500 29.07400
C  10.12500 48.98400 30.41800
C  11.37600 49.74700 29.82200
C  11.45700 49.12700 28.38400
C  11.11600 51.27900 29.79100
C  10.57700 47.84100 31.40600
C  9.96500 47.87200 32.82200
H  10.19100 46.62000 33.76000
N  11.90900 48.18100 25.44700
C  12.86100 48.76800 26.25700
C  14.12800 48.83600 25.56700
C  13.94900 48.37700 24.23100
C  12.44700 48.01200 24.21700
C  15.28400 49.50900 26.25500
C  14.90900 48.13500 23.14100
O  14.69900 47.58800 22.04400
C  16.27500 48.61100 23.36100
N  9.42300 47.39400 24.05000
C  10.37200 47.28500 22.95300
C  9.69400 46.85200 21.69000
C  8.40700 46.33500 22.22100
C  8.23200 46.87300 23.63800
C  9.53700 47.82700 20.43400
C  8.21900 44.81400 21.96200
C  9.18600 44.08400 22.90600
N  8.00100 47.50700 26.44900
C  6.93700 46.99300 25.78800
C  5.73800 46.98800 26.61700
C  6.28400 47.26400 27.87800
C  7.64500 47.58700 27.77000
C  4.37700 46.62700 26.22400
C  5.90800 47.29700 29.28200
O  4.82000 47.11800 29.77000
C  7.17700 47.67300 30.06500
C  7.45400 46.41500 30.83800
O  8.03800 45.41500 30.41600
O  6.93400 46.43200 32.17500
C  7.11500 45.17800 32.95200
H  13.47200 49.49900 28.21000
H  12.34800 47.69000 22.21500
H  6.29400 46.07400 23.87800
H  9.45600 49.68000 30.92300
H  12.19600 49.54500 30.51100
H  11.89200 51.79800 30.35400
H  10.19000 51.50100 30.32200
H  11.13600 51.55100 28.73600
H  11.65700 47.82800 31.55100
H  10.22100 46.89400 31.00200
H  8.90100 48.07600 32.70100
H  10.31900 48.81900 33.22800
H  15.90900 49.92300 25.46300
H  15.77600 48.96900 27.06400
H  15.10500 50.43600 26.79900
H  16.69500 48.15400 24.25600
H  16.25900 49.69800 23.29000
H  17.02200 48.33500 22.61700
H  10.31400 46.00600 21.39500
H  7.58000 46.71500 21.62200
H  9.95300 48.78300 20.75000
H  8.49400 47.88700 20.12300
H  10.11600 47.41400 19.60800
H  8.36200 44.59400 20.90400
H  7.19300 44.58100 22.24600
H  8.62400 43.73100 23.77000
H  10.03700 44.62500 23.31800
H  9.46500 43.19000 22.34800
H  3.97800 47.44900 25.63000
H  3.75700 46.40600 27.09300
H  4.34500 45.79900 25.51700
H  7.00200 48.45200 30.80700
H  7.51400 45.36300 33.95000
H  7.78400 44.47900 32.45100
H  6.18300 44.63400 33.10300

