158

Mg 26.16100 1.37600 29.37800
C  27.98700 0.94700 32.35800
C  23.24400 1.80900 31.26800
C  24.47500 1.51900 26.59100
C  29.22900 0.69100 27.67500
N  25.72300 1.37500 31.56300
C  26.63700 1.30700 32.58700
C  25.93100 1.55700 33.92900
C  24.40700 1.64500 33.56600
C  24.43300 1.57400 32.04400
C  23.55900 0.53100 34.15400
C  26.48900 2.83100 34.74200
C  26.72500 2.54400 36.22500
H  26.47600 3.53600 37.35300
N  24.13300 1.53900 29.00000
C  23.13200 1.78000 29.88800
C  21.87300 1.99200 29.12400
C  22.19300 1.89800 27.70600
C  23.67800 1.65800 27.70200
C  20.52300 2.11100 29.76400
C  21.31500 1.91900 26.45800
O  21.76700 2.02300 25.30600
C  19.71000 1.91300 26.46500
N  26.78300 1.27300 27.46500
C  25.84100 1.28100 26.44300
C  26.55000 1.03600 25.00800
C  28.07000 1.10500 25.39500
C  28.03800 0.97700 26.91500
C  26.16100 -0.36900 24.38700
C  28.86400 2.41700 24.95900
C  30.01100 2.37900 23.94700
N  28.14900 0.87000 29.83700
C  29.33200 0.62900 29.05700
C  30.46100 0.31700 29.96700
C  29.95000 0.46600 31.27800
C  28.53500 0.74700 31.15600
C  31.81400 0.05000 29.51200
C  30.41600 0.39200 32.64300
O  31.51200 0.09500 33.10700
C  29.16500 0.82300 33.36400
C  28.82800 -0.34400 34.25000
O  28.14600 -1.34500 33.96800
O  29.42100 -0.10100 35.50300
C  29.43400 -1.31100 36.39900
H  22.43000 2.00300 31.97000
H  23.99300 1.43600 25.61400
H  30.09200 0.64500 27.00800
H  26.17200 0.68700 34.54000
H  23.84000 2.54100 33.82100
H  23.21000 -0.23400 33.46000
H  22.74000 0.98300 34.71300
H  24.10100 -0.03900 34.90800
H  25.80300 3.67700 34.70900
H  27.39800 3.21100 34.27500
H  27.76600 2.22000 36.22000
H  26.20900 1.60400 36.41800
H  19.99000 1.16700 29.65300
H  19.94800 2.96300 29.40300
H  20.71000 2.26900 30.82600
H  19.19200 1.25700 27.16500
H  19.32900 1.64000 25.48100
H  19.32600 2.93100 26.53000
H  26.21700 1.69600 24.20700
H  28.54500 0.17600 25.08100
H  25.57200 -0.93800 25.10600
H  27.06700 -0.92800 24.15500
H  25.55300 -0.28900 23.48600
H  29.20700 2.73700 25.94300
H  28.09500 3.14200 24.69400
H  30.90500 2.84900 24.35600
H  29.68800 2.82000 23.00400
H  30.25700 1.32200 23.84200
H  32.01400 0.47800 28.52900
H  31.98100 -1.02700 29.46400
H  32.54100 0.44300 30.22200
H  29.35400 1.60900 34.09500
H  29.80400 -2.22800 35.94100
H  28.46500 -1.38600 36.89300
H  30.13700 -0.98600 37.16600
Mg 6.60000 53.61000 41.81800
C  6.02400 50.14800 41.44800
C  9.58300 53.17900 40.26100
C  6.87700 56.96000 41.80900
C  3.27500 53.84700 43.16700
N  7.51300 51.93800 40.74400
C  7.24600 50.62000 40.87200
C  8.27300 49.70700 40.11300
C  9.53000 50.53900 40.08200
C  8.86900 52.02200 40.36600
C  10.69600 50.22000 41.18500
C  7.86700 49.31500 38.62100
C  6.89600 50.18800 37.92600
H  6.24300 49.51000 36.72500
N  8.08200 54.89000 41.11700
C  9.24900 54.52900 40.45100
C  10.00800 55.79100 40.16200
C  9.22200 56.89400 40.54300
C  8.00800 56.27500 41.22700
C  11.39900 55.74800 39.60400
C  9.52400 58.35600 40.36000
O  10.54800 58.71800 39.83400
C  8.68100 59.46600 40.92000
N  5.30700 55.15800 42.43100
C  5.71700 56.47300 42.43700
C  4.54700 57.31000 42.94300
C  3.53700 56.35600 43.51400
C  4.02200 55.00900 43.00000
C  4.92900 58.58200 43.79700
C  2.11200 56.65200 43.18900
C  1.02400 56.48200 44.29400
N  5.00000 52.37200 42.37900
C  3.72900 52.58900 42.91600
C  3.00200 51.32200 43.11100
C  3.96000 50.34100 42.66500
C  5.08200 50.99600 42.14200
C  1.61100 51.09400 43.52700
C  4.06200 48.92900 42.45900
O  3.30600 48.01300 42.85000
C  5.40100 48.68200 41.62400
C  5.04700 48.03200 40.39200
O  4.40600 48.53600 39.45500
O  5.43900 46.67400 40.42200
C  5.33300 45.90500 39.14000
H  10.63900 53.00200 40.04600
H  6.96000 58.02700 42.02600
H  2.35000 53.86600 43.74700
H  8.41200 48.82300 40.73600
H  10.14900 50.46600 39.18700
H  10.53200 50.90000 42.02100
H  11.58900 50.49000 40.62100
H  10.80100 49.16100 41.41900
H  7.38000 48.35200 38.77600
H  8.76300 49.28400 38.00200
H  7.33100 51.16500 37.71400
H  6.15600 50.41500 38.69300
H  11.55300 56.32200 38.69100
H  11.73900 54.71400 39.54300
H  12.01300 56.23300 40.36300
H  7.73700 59.39200 40.38000
H  9.21100 60.41500 40.83800
H  8.53500 59.35500 41.99400
H  4.13500 57.66000 41.99600
H  3.75100 56.21500 44.57400
H  4.33400 58.48000 44.70400
H  4.65200 59.51800 43.31100
H  5.95700 58.66400 44.15200
H  1.75900 56.16900 42.27700
H  2.14900 57.73800 43.10000
H  1.44700 56.31600 45.28500
H  0.34000 55.64000 44.19300
H  0.47800 57.41800 44.41000
H  1.32700 51.99400 44.07300
H  1.51800 50.21300 44.16200
H  1.09000 51.01300 42.57300
H  6.05900 48.03300 42.20200
H  5.72800 44.90300 39.30600
H  5.99300 46.31700 38.37600
H  4.31500 45.89000 38.75100

