158

Mg 49.00400 36.40900 27.52300
C  47.00200 34.79200 29.86400
C  49.17600 39.10700 29.78200
C  50.58100 38.28900 25.14800
C  48.37900 33.91500 25.22600
N  48.33100 36.83800 29.73800
C  47.48600 35.97400 30.41100
C  47.29600 36.46600 31.81900
C  47.63700 38.07800 31.60800
C  48.42500 38.06900 30.26200
C  46.46000 39.13300 31.41100
C  48.30100 35.78000 32.80200
C  47.76100 35.49500 34.19200
H  47.99500 36.52300 35.33300
N  49.79800 38.41000 27.50800
C  49.85100 39.30400 28.54200
C  50.70600 40.39600 28.12700
C  51.09800 40.22900 26.77900
C  50.50400 38.92200 26.41400
C  50.93200 41.42600 29.13300
C  51.90800 41.11700 26.00800
O  52.33000 40.73300 24.90000
C  52.25800 42.50300 26.40500
N  49.44800 36.11900 25.55100
C  50.01500 37.10200 24.77600
C  50.12700 36.64700 23.33500
C  49.53600 35.13800 23.33900
C  49.11000 35.00800 24.78500
C  49.49300 37.60300 22.30800
C  50.61200 34.06600 22.91500
C  50.26800 32.82500 22.10200
N  48.04900 34.68400 27.56000
C  47.90500 33.72000 26.53400
C  47.11900 32.61600 27.01800
C  46.66900 32.98900 28.31600
C  47.30600 34.26100 28.55400
C  46.85500 31.30100 26.31000
C  45.79900 32.69400 29.48500
O  45.17600 31.66500 29.75900
C  45.97300 33.87400 30.47900
C  46.27300 33.16400 31.72600
O  47.16400 32.37300 31.85900
O  45.38800 33.60500 32.71100
C  45.44800 32.91500 34.02100
H  48.97500 39.95500 30.44100
H  51.12100 38.84500 24.37800
H  48.06200 33.17100 24.49100
H  46.24800 36.27500 32.05200
H  48.39500 38.45700 32.29400
H  45.49300 38.73500 31.71800
H  46.39300 39.44300 30.36800
H  46.71600 39.98800 32.03800
H  49.24800 36.31900 32.82200
H  48.51000 34.79800 32.37900
H  48.31400 34.63400 34.56900
H  46.70900 35.21200 34.23400
H  50.90200 41.16000 30.18900
H  50.15100 42.17400 29.00500
H  51.88700 41.92500 28.96700
H  51.34300 42.98200 26.75300
H  52.67400 43.07600 25.57700
H  53.01800 42.45500 27.18500
H  51.19300 36.67600 23.10800
H  48.61500 35.09000 22.75900
H  48.92900 36.98900 21.60600
H  50.32600 38.08500 21.79600
H  48.98800 38.49700 22.67400
H  51.14900 33.76400 23.81300
H  51.41000 34.56300 22.36200
H  50.40600 31.87100 22.61000
H  50.82200 32.88900 21.16600
H  49.22100 32.76700 21.80600
H  45.89500 31.38000 25.79900
H  46.68600 30.48500 27.01300
H  47.57400 31.06500 25.52600
H  45.06900 34.48300 30.46600
H  45.28200 33.63800 34.82000
H  46.36300 32.35700 34.21700
H  44.59400 32.23900 34.06400
Mg 42.68400 42.03100 26.46500
C  41.48300 44.21100 28.88700
C  43.74500 39.87200 28.88100
C  43.86500 39.99700 24.01900
C  41.92200 44.47100 24.04700
N  42.73800 42.15000 28.74800
C  42.09500 43.06700 29.50300
C  41.97900 42.59000 31.01900
C  42.98500 41.33400 30.93600
C  43.23800 41.10000 29.44000
C  44.31700 41.38300 31.80500
C  40.52500 42.27700 31.50700
C  39.85900 43.33600 32.41900
H  39.31700 42.95000 33.72500
N  43.58200 40.14600 26.49700
C  43.91900 39.43000 27.52400
C  44.47900 38.18100 27.14100
C  44.35300 38.05800 25.72300
C  43.97300 39.43800 25.36900
C  45.03500 37.12000 28.08900
C  44.56000 36.91500 24.78400
O  44.33000 37.02700 23.56600
C  44.91300 35.48300 25.25800
N  42.79300 42.14100 24.35700
C  43.34000 41.19700 23.59000
C  43.24800 41.50700 22.12000
C  42.48000 42.89300 22.06600
C  42.37100 43.21400 23.59200
C  44.64800 41.60300 21.48200
C  41.09300 42.76800 21.40200
C  40.24700 41.69900 22.07000
N  41.93000 43.96300 26.44200
C  41.69200 44.79200 25.36900
C  41.20400 46.12500 25.86600
C  41.08700 45.94400 27.26800
C  41.50100 44.60200 27.50900
C  41.03100 47.35100 25.05800
C  40.69800 46.60200 28.54000
O  40.18700 47.67600 28.73100
C  40.94600 45.50400 29.64100
C  42.00100 46.09100 30.55800
O  43.19000 46.26800 30.30800
O  41.40900 46.22900 31.79000
C  42.29200 46.82900 32.83600
H  44.03400 39.11500 29.61300
H  44.34200 39.32200 23.30600
H  41.69400 45.21300 23.27900
H  42.48300 43.33400 31.63700
H  42.39300 40.48500 31.27800
H  44.23000 42.34400 32.31200
H  45.10900 41.47100 31.06000
H  44.46200 40.69300 32.63600
H  40.38100 41.26600 31.88700
H  40.01000 42.19400 30.55000
H  39.02800 43.78200 31.87400
H  40.62100 44.08400 32.64000
H  46.02200 36.72900 27.83900
H  44.32400 36.31300 28.26900
H  45.18700 37.66500 29.02100
H  45.03100 34.93000 24.32700
H  44.09000 35.01900 25.80100
H  45.83300 35.64700 25.82100
H  42.67400 40.74500 21.59200
H  42.99300 43.70400 21.54900
H  44.86200 40.62500 21.05000
H  45.41800 41.80400 22.22700
H  44.60600 42.35000 20.69000
H  41.24300 42.50700 20.35400
H  40.50500 43.68500 21.37600
H  39.89600 41.02400 21.28900
H  39.29300 42.14800 22.34600
H  40.69500 41.23500 22.94900
H  40.88100 48.21700 25.70300
H  40.10200 47.24800 24.49900
H  41.85200 47.59800 24.38500
H  40.05500 45.28100 30.22800
H  42.15600 46.13600 33.66600
H  41.88400 47.77000 33.20700
H  43.36300 46.86800 32.63700

