158

Mg 26.05400 1.21600 28.88400
C  27.95100 0.94000 31.77000
C  23.24300 1.50500 30.87200
C  24.12700 1.54500 26.05800
C  28.83800 0.63400 26.91200
N  25.67100 1.33300 31.10500
C  26.65200 1.19400 32.08600
C  26.07200 1.38300 33.48500
C  24.48000 1.32300 33.14400
C  24.44400 1.33300 31.60800
C  23.68300 0.13600 33.76800
C  26.63500 2.64100 34.17500
C  26.94700 2.41300 35.71900
H  26.47700 3.38500 36.82300
N  23.91200 1.38200 28.51600
C  22.98000 1.64300 29.50400
C  21.71000 1.83700 28.83800
C  21.95100 1.83600 27.41300
C  23.37900 1.62800 27.23100
C  20.38300 2.05600 29.64200
C  20.92200 2.04400 26.28500
O  21.21000 1.98700 25.10100
C  19.44600 2.16100 26.61700
N  26.39300 0.72100 26.71700
C  25.45000 1.14500 25.80500
C  26.06600 1.35900 24.41100
C  27.69400 1.14400 24.67500
C  27.65900 0.82000 26.15400
C  25.47200 0.37600 23.35300
C  28.58000 2.34200 24.35000
C  29.88300 2.07600 23.67500
N  28.05400 0.98000 29.22300
C  29.02600 0.62600 28.29800
C  30.28300 0.43900 29.07400
C  29.87500 0.57500 30.40200
C  28.55900 0.83900 30.43300
C  31.62200 0.20700 28.58000
C  30.36500 0.63200 31.77600
O  31.52100 0.58100 32.16900
C  29.12800 0.60900 32.69300
C  28.96000 -0.75400 33.31200
O  28.52300 -1.71900 32.81400
O  29.45800 -0.78600 34.58300
C  28.99300 -1.90900 35.44800
H  22.40400 1.46700 31.57000
H  23.49800 1.83800 25.21500
H  29.76100 0.39800 26.37800
H  26.33300 0.55500 34.14400
H  24.00800 2.28100 33.36100
H  23.44300 -0.56400 32.96800
H  22.81000 0.49900 34.31100
H  24.16800 -0.33500 34.62300
H  25.88500 3.42200 34.04900
H  27.50300 3.00800 33.62700
H  28.03500 2.36900 35.77800
H  26.58500 1.43000 36.02100
H  20.26500 3.13800 29.57400
H  20.35700 1.64900 30.65200
H  19.62100 1.46400 29.13400
H  18.85200 2.17500 25.70400
H  19.34700 3.13600 27.09400
H  19.00800 1.38900 27.25100
H  25.81400 2.37900 24.11700
H  28.00100 0.24500 24.14200
H  25.01400 -0.53500 23.73900
H  26.33500 0.15500 22.72600
H  24.69600 0.86900 22.76600
H  28.83200 2.78300 25.31400
H  27.88300 3.01700 23.85400
H  29.63600 2.21400 22.62300
H  30.19400 1.07100 23.96100
H  30.65800 2.76200 24.01800
H  31.57200 0.04400 27.50300
H  32.01400 -0.68700 29.06600
H  32.28700 1.04200 28.79900
H  29.35000 1.36100 33.45100
H  29.78000 -2.62400 35.21000
H  28.00700 -2.25100 35.13000
H  29.02400 -1.80300 36.53200
Mg 42.18800 40.96800 26.79700
C  41.45000 43.48000 29.13400
C  43.13300 38.97500 29.41600
C  43.03800 38.58300 24.46900
C  41.38700 43.21500 24.23400
N  42.35100 41.27500 29.04800
C  41.87500 42.35000 29.78300
C  42.02200 42.07400 31.26400
C  42.76200 40.73200 31.28100
C  42.73000 40.28400 29.84300
C  44.19500 40.81900 31.93000
C  40.59700 41.96100 31.91200
C  40.48900 42.70300 33.21300
H  39.85000 41.91800 34.41900
N  42.74600 38.96900 26.93900
C  43.19600 38.38000 28.14200
C  43.53400 37.00100 27.81000
C  43.48700 36.81500 26.39600
C  43.00600 38.10800 25.81100
C  43.86900 35.92000 28.87200
C  43.85600 35.57500 25.57800
O  43.55800 35.51100 24.38100
C  44.42700 34.37100 26.21500
N  42.36900 40.95700 24.62600
C  42.63800 39.82200 23.87500
C  42.44100 40.17400 22.33800
C  41.68400 41.53400 22.32300
C  41.82300 41.92500 23.85700
C  43.87100 40.28400 21.74000
C  40.13600 41.40800 21.96400
C  39.38400 40.20100 22.57700
N  41.74300 42.99800 26.61700
C  41.31800 43.71300 25.53100
C  40.93900 45.03400 25.98900
C  40.94200 45.03800 27.41700
C  41.37500 43.72600 27.74500
C  40.53100 46.19400 25.21100
C  40.76400 45.84000 28.66000
O  40.46900 46.99600 28.81800
C  40.88500 44.73500 29.73200
C  41.73600 45.35000 30.81600
O  42.90800 45.49400 30.81100
O  40.88900 45.89200 31.74100
C  41.59800 46.34000 33.02600
H  43.38700 38.31700 30.25000
H  43.09700 37.89900 23.62000
H  41.21700 43.95000 23.44600
H  42.59200 42.87000 31.74300
H  42.09400 40.06900 31.83000
H  44.33800 40.08500 32.72300
H  44.54300 41.82600 32.15900
H  44.93900 40.48100 31.20800
H  40.33300 40.92700 32.13200
H  39.89400 42.41300 31.21200
H  39.91100 43.60500 33.01000
H  41.48900 43.03100 33.49700
H  44.93100 35.73900 28.70500
H  43.34300 34.96600 28.86400
H  43.75900 36.36000 29.86300
H  43.94300 34.05800 27.14000
H  45.49600 34.51600 26.36900
H  44.42600 33.50800 25.54900
H  41.97400 39.38000 21.75400
H  42.11200 42.32700 21.70800
H  43.94600 39.46400 21.02600
H  44.65700 40.30800 22.49400
H  44.05300 41.18200 21.15100
H  40.16000 41.44800 20.87500
H  39.61400 42.35300 22.11300
H  38.86800 39.66000 21.78400
H  38.54700 40.55700 23.17900
H  39.96300 39.69100 23.34600
H  39.79600 46.69100 25.84400
H  40.03600 45.88300 24.29100
H  41.39600 46.83000 25.02300
H  39.90800 44.52500 30.16700
H  41.91600 45.61900 33.77900
H  40.97200 46.98400 33.64400
H  42.43800 46.97900 32.75300

