158

Mg -2.12500 17.60300 25.68300
C  -2.39300 15.20800 28.43000
C  -2.56700 20.02100 27.94500
C  -1.87200 19.71300 23.19300
C  -1.94900 14.82200 23.51900
N  -2.45400 17.52900 27.93100
C  -2.52900 16.51900 28.91800
C  -2.97100 16.98600 30.28200
C  -3.05200 18.54100 29.99000
C  -2.63000 18.72800 28.56300
C  -4.47300 19.25500 30.33500
C  -2.14100 16.52100 31.59100
C  -2.95100 16.09800 32.82300
H  -2.25300 15.28300 33.99900
N  -2.15400 19.62400 25.57800
C  -2.37500 20.42400 26.60400
C  -2.37700 21.79200 26.16800
C  -2.25000 21.75100 24.74100
C  -2.09600 20.34500 24.41700
C  -2.61500 22.91900 26.97400
C  -2.32900 22.86600 23.67900
O  -2.38500 22.64200 22.47500
C  -2.24600 24.27200 24.12300
N  -1.83200 17.26000 23.66500
C  -1.69300 18.30600 22.84100
C  -1.50200 17.80900 21.37000
C  -1.35900 16.23700 21.54300
C  -1.66800 16.06700 23.01000
C  -2.60100 18.29600 20.40600
C  0.05800 15.68500 21.22800
C  -0.00800 14.39100 20.42800
N  -2.18500 15.45200 25.82600
C  -2.16600 14.46700 24.86600
C  -2.50500 13.17600 25.47700
C  -2.50800 13.43600 26.87300
C  -2.33900 14.81400 27.03200
C  -2.74700 11.88700 24.77600
C  -2.50500 12.82500 28.19800
O  -2.57500 11.64400 28.48600
C  -2.36900 13.91600 29.20500
C  -1.17400 13.66000 29.96600
O  -0.06900 14.07600 29.66400
O  -1.41700 12.86700 31.07000
C  -0.29300 12.56700 31.85300
H  -2.88800 20.86300 28.56200
H  -1.76800 20.33000 22.29800
H  -1.81700 14.11300 22.69900
H  -3.98000 16.66500 30.54100
H  -2.26700 19.07700 30.52500
H  -4.37800 19.87100 31.22900
H  -5.26200 18.53300 30.54500
H  -4.80600 19.79100 29.44700
H  -1.68200 17.46100 31.89700
H  -1.40700 15.76300 31.31800
H  -3.80800 15.52500 32.46800
H  -3.26900 17.02100 33.30700
H  -3.47400 23.37700 26.48300
H  -1.71800 23.51800 27.12600
H  -3.04900 22.58100 27.91500
H  -1.33900 24.32700 24.72600
H  -3.11800 24.69600 24.62000
H  -2.07700 24.88800 23.24000
H  -0.59900 18.28700 20.98900
H  -2.18100 15.80300 20.97300
H  -2.23600 19.21400 19.94400
H  -3.48900 18.49300 21.00700
H  -2.80200 17.59100 19.60000
H  0.59200 15.30900 22.10100
H  0.73900 16.43600 20.82600
H  0.36400 14.55600 19.41600
H  -1.03300 14.02100 20.40700
H  0.64600 13.67800 20.93200
H  -2.31800 11.98300 23.77800
H  -3.82400 11.72800 24.82100
H  -2.17800 11.10600 25.27900
H  -3.20500 13.93400 29.90500
H  -0.64700 11.78100 32.52000
H  -0.02700 13.41900 32.48000
H  0.46700 11.98700 31.32900
Mg 44.61200 3.59100 48.12600
C  42.51600 6.44600 47.66500
C  41.90500 1.57100 47.86200
C  46.66300 0.92600 47.46100
C  47.35200 5.75500 48.01100
N  42.44000 4.01200 47.55100
C  41.80900 5.24500 47.57200
C  40.24100 5.04600 47.29200
C  40.07600 3.48800 47.70100
C  41.62700 2.96500 47.74800
C  39.30900 3.28000 49.03900
C  39.86400 5.41000 45.78600
C  38.57600 6.08900 45.63800
H  38.02200 5.96700 44.26600
N  44.28500 1.52800 47.81800
C  43.12300 0.84900 47.84400
C  43.38200 -0.56600 47.60200
C  44.73500 -0.74900 47.45400
C  45.28300 0.60500 47.46600
C  42.25600 -1.60400 47.72700
C  45.39600 -2.13400 47.16400
O  44.77400 -3.20700 47.14700
C  46.89700 -2.22600 46.89700
N  46.61900 3.39400 47.67900
C  47.25300 2.16800 47.64500
C  48.81700 2.31400 47.71500
C  48.99000 3.82400 47.78800
C  47.57000 4.36700 47.93800
C  49.31000 1.47600 48.90700
C  49.76100 4.37000 46.49000
C  51.28800 4.08600 46.51200
N  44.87900 5.68000 47.92700
C  46.09200 6.36100 47.95300
C  45.75400 7.85000 47.87500
C  44.39800 7.88200 47.74200
C  43.92200 6.55600 47.74900
C  46.80800 8.95600 48.00000
C  43.22000 8.79400 47.66300
O  43.18200 9.98700 47.63600
C  41.98800 7.85600 47.56900
C  41.15900 8.06400 48.72100
O  41.29100 7.50400 49.83400
O  40.24800 9.02900 48.36800
C  39.22600 9.47200 49.40200
H  40.96600 1.02300 47.96900
H  47.42700 0.14600 47.45100
H  48.19800 6.43100 48.15000
H  39.67100 5.65200 47.99700
H  39.54000 2.92600 46.93700
H  38.77800 4.18800 49.32700
H  40.02500 2.86100 49.74600
H  38.55600 2.51700 48.84300
H  39.88500 4.43800 45.29500
H  40.65700 5.99800 45.32400
H  38.94500 7.10600 45.76900
H  37.86500 5.86400 46.43300
H  42.44500 -2.38300 46.98800
H  41.33100 -1.13700 47.38800
H  42.29900 -2.08900 48.70200
H  47.47600 -1.91900 47.76800
H  47.19000 -1.52600 46.11600
H  47.31200 -3.21000 46.67900
H  49.19000 1.78300 46.83900
H  49.55900 4.14700 48.65900
H  49.67300 2.13500 49.69600
H  50.06600 0.75300 48.60000
H  48.51100 1.02000 49.49100
H  49.55100 5.39600 46.18700
H  49.36300 3.82500 45.63400
H  51.79400 4.73000 45.79200
H  51.60000 3.08700 46.20700
H  51.60300 4.38500 47.51200
H  46.60000 9.67500 47.20800
H  47.82000 8.55400 48.02800
H  46.72500 9.40000 48.99200
H  41.56400 8.12300 46.60100
H  38.25000 9.01900 49.22900
H  39.15400 10.55100 49.27000
H  39.45600 9.29000 50.45200

