158

Mg 30.15100 58.60100 41.67600
C  27.39200 56.68600 40.69600
C  32.20300 56.30800 40.11100
C  32.82900 60.65400 42.08100
C  28.00500 61.10800 42.66600
N  29.85700 56.71800 40.59000
C  28.62500 56.16200 40.24700
C  28.80300 54.96700 39.33800
C  30.34700 54.79700 39.38100
C  30.83600 55.95900 40.12100
C  30.94400 53.39200 39.80900
C  28.16100 55.17900 37.94600
C  27.26700 54.04500 37.41600
H  27.41900 53.68700 35.94200
N  32.21800 58.49400 41.23400
C  32.84600 57.39800 40.71200
C  34.20900 57.63100 40.58600
C  34.50600 58.84100 41.26600
C  33.18600 59.37800 41.54600
C  35.21400 56.57100 40.07300
C  35.82900 59.36200 41.71100
O  36.88300 58.81700 41.41900
C  35.90000 60.49600 42.59200
N  30.45400 60.63200 42.30400
C  31.60200 61.29100 42.34500
C  31.39900 62.65400 42.78700
C  29.95200 62.85600 43.11800
C  29.36800 61.44300 42.63100
C  32.37400 63.21600 43.86900
C  29.28100 64.12300 42.42900
C  28.91000 64.01700 40.99100
N  28.07300 58.88300 41.67000
C  27.36900 59.99300 42.15100
C  25.96300 59.66700 41.90800
C  25.91900 58.39000 41.37600
C  27.22600 57.93200 41.29600
C  24.78300 60.68900 42.09100
C  25.04600 57.39000 40.82900
O  23.81300 57.43300 40.68500
C  25.97700 56.23900 40.32100
C  25.55800 55.06800 40.99800
O  25.66700 54.88800 42.19800
O  24.97800 54.22500 40.12800
C  24.21100 53.20500 40.77600
H  32.88500 55.55600 39.71000
H  33.68700 61.31900 42.20700
H  27.32600 61.90600 42.97300
H  28.27600 54.17100 39.86300
H  30.82100 54.86400 38.40100
H  30.17100 52.64000 39.64700
H  31.25700 53.44400 40.85200
H  31.78800 53.15100 39.16300
H  28.92000 55.47200 37.22000
H  27.62700 56.13000 37.95800
H  26.31900 54.58300 37.46000
H  27.24600 53.13000 38.00700
H  36.09400 57.11300 39.72600
H  34.81400 55.90200 39.31200
H  35.41300 55.86000 40.87500
H  35.93400 61.47300 42.11000
H  36.86200 60.43300 43.10000
H  35.13100 60.33500 43.34700
H  31.65900 63.27000 41.92600
H  29.78900 62.92900 44.19400
H  32.76000 62.34600 44.40000
H  31.73700 63.84200 44.49600
H  33.15700 63.86200 43.47200
H  30.00500 64.93600 42.45700
H  28.43400 64.37400 43.06700
H  27.87300 64.33100 40.86600
H  29.11800 63.04100 40.55200
H  29.49400 64.75000 40.43600
H  24.92800 61.55000 41.43900
H  24.89400 61.24400 43.02300
H  23.82900 60.18100 41.94900
H  25.81900 56.16600 39.24500
H  23.67700 53.72500 41.57200
H  24.90300 52.46300 41.17300
H  23.51500 52.79500 40.04500
Mg 26.83700 49.23300 26.60400
C  24.83100 50.57500 29.22300
C  29.17800 48.38300 28.97000
C  28.81700 48.49800 24.00900
C  24.46800 50.33000 24.36400
N  26.91100 49.47100 28.89900
C  25.93900 49.95500 29.72100
C  26.26000 49.57500 31.19800
C  27.67500 48.94600 31.05800
C  27.94000 48.85900 29.54200
C  28.90200 49.65900 31.76500
C  25.22000 48.59800 31.77000
C  24.70400 48.78800 33.17200
H  25.47400 49.64200 34.12800
N  28.75400 48.63000 26.54000
C  29.55600 48.25600 27.59600
C  30.83400 47.75100 27.13400
C  30.73200 47.81500 25.72700
C  29.39500 48.35400 25.37600
C  31.97900 47.19400 28.01200
C  31.74200 47.51900 24.71300
O  31.67000 47.74400 23.52500
C  33.04300 46.84200 25.09700
N  26.60200 49.33600 24.47900
C  27.53600 48.87400 23.62800
C  27.02400 48.91800 22.20200
C  25.47900 49.28800 22.42600
C  25.50600 49.67300 23.84000
C  27.74000 49.97200 21.31000
C  24.44500 48.25500 22.04600
C  23.16900 48.80800 21.41200
N  25.13600 50.45700 26.70800
C  24.30800 50.82600 25.67900
C  23.19000 51.56800 26.18800
C  23.34600 51.48800 27.61600
C  24.55700 50.85400 27.85000
C  21.95000 52.15000 25.38200
C  22.75600 51.87900 28.88700
O  21.66500 52.38200 29.21400
C  23.73500 51.23100 29.98500
C  24.22600 52.25100 30.95800
O  25.04800 53.09300 30.78400
O  23.38500 52.28700 32.05200
C  23.66800 53.26400 33.11200
H  29.88200 47.97500 29.69900
H  29.40900 47.99800 23.24000
H  23.55600 50.44000 23.77300
H  26.25600 50.48500 31.79800
H  27.52000 47.96600 31.51000
H  29.29800 49.12300 32.62800
H  28.53900 50.60800 32.15900
H  29.65000 49.92800 31.01900
H  25.40700 47.53500 31.61900
H  24.34300 48.72600 31.13600
H  24.30700 47.84900 33.55800
H  23.78600 49.37500 33.15500
H  32.26000 46.22900 27.59200
H  31.60600 47.11300 29.03400
H  32.81400 47.88600 27.90400
H  33.56200 47.57800 25.71100
H  33.64400 46.72800 24.19500
H  32.81400 45.85900 25.50800
H  27.19200 47.92900 21.77600
H  25.24100 50.22000 21.91300
H  27.06700 50.76500 20.98500
H  28.20300 49.41900 20.49300
H  28.55800 50.45300 21.84600
H  24.26400 47.62800 22.91900
H  24.97100 47.59500 21.35500
H  22.28500 48.76500 22.04800
H  22.94500 48.20500 20.53200
H  23.30300 49.84600 21.10600
H  22.27800 52.64400 24.46700
H  21.35100 52.79100 26.02900
H  21.24400 51.41400 24.99800
H  23.20600 50.59800 30.69800
H  22.65100 53.54500 33.38800
H  24.28300 54.10300 32.78500
H  24.09100 52.78800 33.99700

