158

Mg 40.53000 9.71500 28.88600
C  42.40300 10.80500 31.78000
C  38.38300 8.22400 30.89400
C  38.91200 8.74300 26.19000
C  43.24200 10.79800 26.86100
N  40.44400 9.38400 30.99600
C  41.23400 10.02300 31.97500
C  40.51300 10.00600 33.33800
C  39.47400 8.83500 33.13800
C  39.45700 8.70700 31.59900
C  39.91200 7.46000 33.85300
C  39.89100 11.29500 33.82000
C  39.83300 11.48200 35.37400
H  40.49800 12.64300 36.06500
N  38.87200 8.59700 28.58500
C  38.01800 8.10800 29.55500
C  36.87500 7.38800 28.96400
C  36.95700 7.58500 27.50300
C  38.29200 8.32900 27.39200
C  35.85400 6.53800 29.75500
C  36.10400 6.99300 26.32700
O  36.33100 7.25300 25.18300
C  34.82300 6.28300 26.63100
N  41.16300 9.60800 26.81400
C  40.23800 9.26700 25.91100
C  40.83600 9.23300 24.51800
C  42.26200 9.91200 24.67800
C  42.25300 10.13300 26.13100
C  40.77400 7.88500 23.78000
C  42.40900 11.17000 23.88100
C  41.40600 12.29800 24.09700
N  42.41700 10.74900 29.21500
C  43.36700 11.09800 28.25100
C  44.48900 11.76500 28.96500
C  44.09800 11.76400 30.33600
C  42.86400 11.06600 30.44600
C  45.85200 12.16300 28.40800
C  44.41200 12.14600 31.68500
O  45.44500 12.67200 32.06000
C  43.28200 11.53200 32.66900
C  43.91300 10.49700 33.56200
O  44.61800 9.57400 33.18300
O  43.41600 10.65400 34.78500
C  43.85800 9.79500 35.92000
H  37.51900 7.87500 31.46200
H  38.35300 8.52900 25.27700
H  44.04900 11.21200 26.25300
H  41.17300 9.62900 34.11900
H  38.45000 8.98700 33.48100
H  40.86600 7.45900 34.38100
H  40.13500 6.73000 33.07500
H  39.04300 7.14000 34.42700
H  38.89000 11.52100 33.45300
H  40.49500 12.10600 33.41400
H  40.17800 10.60800 35.92800
H  38.80700 11.73700 35.63700
H  36.17500 6.44500 30.79300
H  35.94000 5.53100 29.34700
H  34.84000 6.91100 29.60900
H  34.22000 6.14900 25.73200
H  34.27200 6.82500 27.39900
H  35.22300 5.31100 26.92200
H  40.07800 9.80500 23.98200
H  43.06200 9.18400 24.55000
H  41.64200 7.25000 23.95800
H  40.69800 8.13400 22.72200
H  39.86200 7.32200 23.98000
H  42.34500 10.95200 22.81500
H  43.39400 11.57500 24.10900
H  40.66400 12.06300 24.85900
H  40.92700 12.42300 23.12600
H  41.84300 13.25800 24.37200
H  46.14000 11.70600 27.46100
H  46.52800 11.95500 29.23800
H  45.95500 13.24800 28.43800
H  43.04000 12.39300 33.29200
H  44.57900 9.11700 35.46200
H  42.94500 9.55500 36.46500
H  44.35900 10.55800 36.51600
Mg -6.03100 25.57800 24.59100
C  -4.31800 26.44800 27.41400
C  -7.74000 23.13900 26.59100
C  -7.23800 24.00900 21.73700
C  -4.01500 27.49900 22.60700
N  -6.14100 24.89700 26.72700
C  -5.27600 25.46700 27.68100
C  -5.71900 25.09300 29.06200
C  -6.61100 23.82500 28.87500
C  -6.88400 23.95400 27.33000
C  -5.91600 22.45800 29.27200
C  -6.53200 26.28000 29.73900
C  -6.27600 26.55600 31.25000
H  -5.66900 25.45700 32.14200
N  -7.41600 23.86400 24.22300
C  -8.03200 23.06100 25.21000
C  -8.82100 22.06400 24.53100
C  -8.71500 22.28100 23.10200
C  -7.71900 23.35600 22.94100
C  -9.75300 21.08900 25.22600
C  -9.46400 21.64600 21.93400
O  -9.19200 21.86800 20.74700
C  -10.61300 20.60900 22.16800
N  -5.73200 25.69600 22.46600
C  -6.34200 25.05000 21.51800
C  -6.08100 25.66500 20.10700
C  -5.16700 26.85600 20.42700
C  -4.95500 26.71800 21.93800
C  -5.47900 24.63300 19.06700
C  -5.73900 28.34100 20.08200
C  -6.36200 28.47400 18.64400
N  -4.44000 26.79500 24.88900
C  -3.74800 27.54400 24.03200
C  -2.77100 28.30500 24.80100
C  -3.01600 27.98600 26.09400
C  -3.94900 26.95800 26.11800
C  -1.85900 29.38800 24.29400
C  -2.65300 28.28500 27.50900
O  -1.92200 29.13200 28.01200
C  -3.60800 27.32800 28.35300
C  -2.67700 26.57600 29.28400
O  -2.15500 25.48100 29.06500
O  -2.48500 27.36300 30.39900
C  -1.63400 26.91400 31.49700
H  -8.29600 22.42700 27.20400
H  -7.61100 23.69600 20.76000
H  -3.48400 28.15300 21.91200
H  -4.85000 24.79000 29.64600
H  -7.56800 23.90200 29.39100
H  -5.74600 21.75600 28.45500
H  -6.48100 21.95700 30.05800
H  -4.94800 22.74200 29.68600
H  -7.61800 26.18400 29.72600
H  -6.41600 27.16000 29.10600
H  -7.20600 26.88500 31.71400
H  -5.57700 27.38900 31.31600
H  -9.45700 21.07900 26.27500
H  -9.67700 20.08000 24.81900
H  -10.78800 21.42900 25.20700
H  -11.30800 20.59400 21.32900
H  -11.17300 21.01000 23.01300
H  -10.15800 19.62300 22.25700
H  -7.03300 26.09000 19.78800
H  -4.32800 26.83800 19.73200
H  -4.98600 23.77800 19.53000
H  -4.74200 25.17400 18.47400
H  -6.31800 24.35900 18.42700
H  -4.96400 29.10100 20.17600
H  -6.48400 28.58400 20.83900
H  -6.06700 29.38700 18.12700
H  -7.44400 28.58000 18.71600
H  -6.04200 27.64600 18.01200
H  -2.39100 30.33700 24.35800
H  -1.52200 29.20700 23.27300
H  -0.99600 29.26900 24.94900
H  -4.30500 27.88000 28.98300
H  -1.16600 25.94200 31.34500
H  -2.36400 26.78800 32.29700
H  -0.88600 27.69500 31.63400

