158

Mg 1.24900 7.28000 26.57700
C  1.95600 9.38300 29.43300
C  0.99200 4.68600 28.90600
C  0.85700 5.33700 24.04500
C  1.86700 10.05200 24.62400
N  1.36400 7.11000 28.97500
C  1.66000 8.05100 29.88600
C  1.68200 7.45800 31.35500
C  1.57700 5.92400 31.05200
C  1.30500 5.91200 29.54200
C  2.82600 5.05000 31.35500
C  0.52300 8.06400 32.16000
C  0.69300 8.40800 33.62900
H  1.75900 7.62100 34.36900
N  0.79600 5.32800 26.48600
C  0.76100 4.40700 27.55300
C  0.35000 3.18100 26.98700
C  0.30000 3.30400 25.56700
C  0.66100 4.68100 25.29900
C  0.25700 1.92800 27.80000
C  -0.10200 2.36600 24.52100
O  -0.30800 2.68100 23.33300
C  -0.42400 0.95300 24.79700
N  1.67900 7.56500 24.61300
C  1.28100 6.58100 23.71100
C  1.39200 7.16400 22.22900
C  1.48800 8.66800 22.55200
C  1.66700 8.81800 24.09200
C  2.63100 6.70200 21.36300
C  0.14900 9.44200 22.15200
C  0.42300 10.69200 21.26200
N  1.84300 9.32000 26.89700
C  1.87900 10.34200 25.98700
C  2.14000 11.61900 26.63800
C  2.17000 11.27900 28.01000
C  2.02900 9.84900 28.08600
C  2.14700 12.97300 25.98200
C  2.27400 11.86100 29.35200
O  2.34500 13.04300 29.63600
C  2.17500 10.53900 30.33400
C  3.28600 10.49200 31.31100
O  4.29300 9.76100 31.28600
O  2.93900 11.36000 32.35300
C  3.92400 11.44100 33.41900
H  0.99300 3.79800 29.54100
H  0.54800 4.77800 23.15900
H  1.97900 10.95100 24.01500
H  2.60900 7.74800 31.85000
H  0.75000 5.51000 31.62900
H  2.64600 4.20500 32.02000
H  3.64900 5.60700 31.80400
H  3.28500 4.63700 30.45700
H  -0.32600 7.38700 32.06200
H  0.16000 8.95200 31.64300
H  -0.22900 8.26100 34.19200
H  1.07900 9.42100 33.51700
H  -0.75600 1.52500 27.79600
H  0.51100 1.89400 28.86000
H  0.83400 1.19600 27.23500
H  -0.71500 0.34900 23.93900
H  -1.32000 0.95400 25.41700
H  0.44700 0.42900 25.19100
H  0.54400 6.82900 21.63300
H  2.37400 9.19200 22.19400
H  3.05100 7.58000 20.87200
H  2.41100 5.86700 20.69800
H  3.43300 6.52700 22.08000
H  -0.38500 9.79700 23.03300
H  -0.49400 8.77700 21.57600
H  0.07300 10.41300 20.26800
H  1.42000 11.12000 21.16400
H  -0.25000 11.49700 21.55800
H  2.08000 12.92400 24.89500
H  3.03700 13.47000 26.36900
H  1.20300 13.39000 26.33100
H  1.25000 10.69800 30.88900
H  4.86000 11.66300 32.90500
H  4.20300 10.51500 33.92100
H  3.53300 12.20700 34.08900
Mg -4.36500 24.65100 26.15700
C  -3.37100 26.23000 28.98100
C  -6.13500 22.39000 28.12400
C  -5.32500 22.96600 23.37200
C  -2.66000 26.93100 24.17700
N  -4.99000 24.56900 28.32200
C  -4.37800 25.28100 29.23900
C  -4.91800 24.88000 30.66700
C  -5.57800 23.48100 30.39600
C  -5.56800 23.45200 28.82300
C  -5.01900 22.26800 31.15500
C  -5.87900 25.98500 31.19300
C  -5.60300 26.37300 32.70000
H  -4.83700 25.58200 33.73200
N  -5.57200 22.94300 25.81000
C  -6.21400 22.17700 26.76000
C  -6.84200 21.02800 26.12800
C  -6.64800 21.18500 24.72500
C  -5.75700 22.38500 24.57300
C  -7.51700 19.91400 26.95000
C  -7.15200 20.30700 23.51300
O  -6.65100 20.48100 22.40700
C  -8.08200 19.13900 23.77700
N  -4.05400 24.91900 24.07400
C  -4.58700 24.17100 23.11600
C  -4.43100 24.79000 21.72900
C  -3.48900 25.99300 22.01100
C  -3.42700 25.98800 23.49100
C  -3.78900 23.92300 20.61400
C  -3.97700 27.29600 21.44200
C  -2.90700 28.26300 20.89200
N  -3.21200 26.27200 26.41200
C  -2.56900 27.08500 25.56400
C  -1.76500 28.08400 26.27500
C  -2.00900 27.74600 27.68600
C  -2.98000 26.71100 27.70000
C  -0.84000 29.17700 25.67700
C  -1.70800 28.10600 29.02800
O  -0.95200 28.86600 29.52100
C  -2.55300 27.19700 29.86300
C  -1.56500 26.34800 30.70700
O  -1.02400 25.31100 30.34600
O  -1.31900 27.08600 31.79400
C  -0.48100 26.42600 32.81300
H  -6.42900 21.64800 28.87000
H  -5.78500 22.62200 22.44400
H  -2.32900 27.80200 23.60700
H  -4.04800 24.80700 31.32000
H  -6.64300 23.51600 30.62400
H  -4.06800 21.95900 30.72100
H  -5.75500 21.46700 31.22500
H  -4.76300 22.57800 32.16800
H  -6.91700 25.67000 31.09000
H  -5.77100 26.80400 30.48200
H  -6.60900 26.53600 33.08700
H  -5.10700 27.33700 32.58600
H  -7.01400 19.73200 27.90000
H  -7.51900 18.98000 26.38800
H  -8.54900 20.16800 27.18800
H  -8.84200 19.49400 24.47400
H  -7.52200 18.29800 24.18600
H  -8.64300 18.84500 22.89000
H  -5.37500 25.22000 21.39300
H  -2.50400 25.87800 21.55800
H  -4.59500 23.51200 20.00500
H  -3.03900 23.22800 20.99300
H  -3.10100 24.48900 19.98700
H  -4.56900 27.68900 22.26800
H  -4.65600 27.12000 20.60700
H  -1.89900 27.86500 21.00700
H  -3.02600 29.27000 21.29300
H  -3.09600 28.33900 19.82100
H  -1.27000 30.15700 25.88200
H  -0.68800 29.17500 24.59800
H  0.12800 29.11800 26.17600
H  -3.11000 27.90900 30.47200
H  0.52000 26.61600 32.42500
H  -0.62900 25.35100 32.92000
H  -0.56600 27.08600 33.67700

