158

Mg 41.36800 41.18200 26.65400
C  40.82700 43.71100 28.89300
C  42.11200 39.09000 29.14700
C  42.41300 38.86200 24.26900
C  41.05700 43.45100 24.00800
N  41.46400 41.42500 28.85700
C  41.04700 42.47700 29.57800
C  40.92700 42.12300 31.10600
C  41.61500 40.63900 31.06300
C  41.70100 40.37600 29.58800
C  42.91000 40.48700 31.87700
C  39.45300 42.22300 31.57900
C  39.13000 43.21100 32.73900
H  38.49500 42.58100 33.99900
N  42.01700 39.15600 26.68400
C  42.26000 38.52600 27.84800
C  42.74700 37.20100 27.61400
C  42.82100 37.09300 26.21100
C  42.42500 38.39700 25.60600
C  43.19800 36.24600 28.67300
C  43.24100 35.97400 25.31000
O  43.30500 36.04200 24.10400
C  43.62600 34.66100 25.95500
N  41.77700 41.11500 24.51300
C  42.14400 40.08900 23.75800
C  41.91600 40.35400 22.21100
C  41.24900 41.72800 22.21800
C  41.29300 42.14800 23.69000
C  43.31500 40.37800 21.44300
C  39.86400 41.62200 21.47800
C  38.78700 40.79600 22.16400
N  41.03000 43.21100 26.44200
C  40.93000 44.02300 25.32300
C  40.64500 45.36800 25.61900
C  40.51300 45.35600 27.06900
C  40.84000 43.94700 27.45000
C  40.50800 46.58800 24.70300
C  40.15700 46.05800 28.24600
O  39.83500 47.26800 28.41400
C  40.19300 45.06000 29.47800
C  41.03600 45.72500 30.52700
O  42.25700 45.70000 30.68400
O  40.13500 46.36700 31.34200
C  40.77800 46.98100 32.52400
H  42.39600 38.37600 29.92300
H  42.46000 38.16600 23.42900
H  40.87000 44.03200 23.10200
H  41.53200 42.87100 31.61700
H  40.95100 39.86500 31.45000
H  43.26800 41.39800 32.35700
H  43.63500 40.19100 31.11900
H  42.74600 39.64700 32.55200
H  39.13100 41.18700 31.68700
H  38.90100 42.54200 30.69500
H  38.39900 43.94400 32.39600
H  40.05800 43.67700 33.07200
H  42.53300 35.39300 28.54000
H  43.10800 36.58100 29.70600
H  44.25600 36.05300 28.50000
H  44.56700 34.61900 26.50500
H  43.72400 33.99000 25.10200
H  42.84100 34.19700 26.55200
H  41.16700 39.64800 21.85400
H  41.76400 42.44700 21.58100
H  43.47500 41.27000 20.83700
H  43.22100 39.61200 20.67300
H  44.16400 40.04000 22.03800
H  40.04400 41.34200 20.44000
H  39.44700 42.59900 21.23400
H  38.49600 40.14400 21.34000
H  37.86200 41.31200 22.41800
H  39.09800 40.14800 22.98300
H  39.70300 47.24700 25.02800
H  40.28400 46.41800 23.65000
H  41.40500 47.17800 24.89200
H  39.22500 44.66100 29.78000
H  40.03000 47.52300 33.10100
H  41.56900 47.68800 32.27200
H  41.12700 46.29100 33.29300
Mg -0.54500 43.49500 25.99900
C  1.60000 43.37600 28.86500
C  -3.11400 42.38900 28.10500
C  -2.47500 43.50900 23.29100
C  2.32000 44.16800 24.08400
N  -0.69700 43.00100 28.27100
C  0.26400 43.10400 29.23100
C  -0.28700 42.74800 30.60300
C  -1.70700 42.14100 30.26700
C  -1.89100 42.57000 28.83500
C  -1.83400 40.60800 30.58600
C  -0.17300 44.00700 31.51200
C  0.53600 43.72600 32.93400
H  0.43400 42.33000 33.66800
N  -2.54100 43.00800 25.74800
C  -3.45300 42.56200 26.71300
C  -4.76400 42.45800 26.04300
C  -4.52500 42.79500 24.65700
C  -3.10500 43.09300 24.54500
C  -5.99300 41.90800 26.68900
C  -5.55500 42.76200 23.52600
O  -5.33000 43.31100 22.43100
C  -6.85400 42.07900 23.77000
N  -0.12700 43.68200 23.84700
C  -1.17600 43.78600 22.96800
C  -0.66600 44.41900 21.64200
C  0.87100 44.60000 21.86900
C  1.07600 44.13100 23.32900
C  -1.11700 43.48600 20.47200
C  1.33700 46.04100 21.70700
C  1.84700 46.51200 20.34700
N  1.52200 43.62500 26.29300
C  2.55900 43.88600 25.40200
C  3.85900 43.76300 26.07600
C  3.52400 43.67000 27.35800
C  2.12300 43.54300 27.51100
C  5.21600 43.75300 25.45800
C  4.07700 43.65400 28.72100
O  5.29000 43.68700 29.05200
C  2.86600 43.46800 29.73900
C  3.10200 42.23800 30.44600
O  2.96900 41.05400 30.00500
O  3.60500 42.66700 31.70600
C  4.07400 41.55600 32.53600
H  -3.84100 41.76200 28.62500
H  -3.20300 43.59800 22.48200
H  3.17500 44.36400 23.43400
H  0.36200 42.02900 31.10400
H  -2.55100 42.47000 30.87300
H  -2.70900 40.49300 31.22600
H  -1.03200 40.25600 31.23500
H  -1.90000 39.97600 29.70000
H  -1.21000 44.32300 31.63400
H  0.45000 44.81300 31.12400
H  0.24600 44.46200 33.68400
H  1.61200 43.86900 32.83200
H  -5.82500 41.87700 27.76500
H  -6.41900 40.94300 26.41500
H  -6.82400 42.60200 26.55600
H  -6.46800 41.10300 24.06400
H  -7.30500 42.03800 22.77800
H  -7.40200 42.53000 24.59700
H  -1.27800 45.31500 21.53200
H  1.42400 43.97300 21.16900
H  -0.71500 43.82900 19.51800
H  -2.20400 43.40000 20.45300
H  -0.67200 42.49800 20.59000
H  1.99600 46.43600 22.48000
H  0.48100 46.66400 21.96500
H  2.27200 45.80200 19.63700
H  2.55000 47.29400 20.63200
H  1.05800 47.04800 19.81900
H  5.88600 44.04800 26.26600
H  5.16300 44.56300 24.73100
H  5.44800 42.80200 24.97800
H  2.91100 44.34900 30.38100
H  5.10100 41.30100 32.27600
H  3.55500 40.61200 32.37100
H  4.17700 41.77900 33.59800

