158

Mg 2.11100 -1.98500 44.39300
C  5.46200 -1.27000 43.72600
C  1.29400 0.75800 42.33300
C  -1.08000 -3.02200 44.42000
C  3.20000 -4.90000 46.06600
N  3.22100 -0.43900 43.16400
C  4.58400 -0.40700 43.00400
C  5.00700 0.73300 42.08200
C  3.62900 1.46200 41.75700
C  2.63500 0.54300 42.50400
C  3.55900 2.91200 42.07400
C  5.75800 0.32500 40.80500
C  7.11000 1.07600 40.59800
H  7.08600 1.99100 39.36400
N  0.32900 -1.23500 43.41400
C  0.18300 -0.07100 42.70800
C  -1.20500 0.08700 42.42900
C  -1.95600 -0.94600 43.09800
C  -0.87600 -1.78400 43.64600
C  -1.77300 1.19600 41.55800
C  -3.44600 -1.15300 43.10300
O  -4.14200 -0.45500 42.39600
C  -4.11800 -2.27700 43.82700
N  1.17000 -3.69300 45.19100
C  -0.11500 -3.91900 45.02700
C  -0.42600 -5.26100 45.62900
C  0.96800 -5.89600 45.97900
C  1.85100 -4.74700 45.73100
C  -1.33700 -5.14400 46.84000
C  1.35200 -7.10100 45.01600
C  1.07600 -8.54900 45.42600
N  3.98500 -2.91100 44.92300
C  4.31900 -4.07200 45.61900
C  5.72900 -4.16100 45.88600
C  6.23800 -3.04400 45.17100
C  5.09500 -2.36100 44.50400
C  6.46900 -5.34200 46.58200
C  7.43600 -2.33500 44.81600
O  8.55000 -2.63500 45.12400
C  6.99400 -1.21100 43.81500
C  7.58100 0.15200 44.28500
O  7.35300 0.68400 45.37400
O  8.42200 0.67000 43.32700
C  9.09000 1.91400 43.82100
H  0.88100 1.65900 41.87400
H  -2.05800 -3.43800 44.67100
H  3.51600 -5.78100 46.62700
H  5.60200 1.45500 42.64300
H  3.36700 1.36600 40.70400
H  2.57300 3.00600 42.52900
H  3.65500 3.53100 41.18200
H  4.36300 3.19600 42.75200
H  5.15800 0.43300 39.90200
H  5.82800 -0.75000 40.97400
H  7.89900 0.32700 40.53400
H  7.41300 1.81600 41.33900
H  -0.92500 1.63500 41.03300
H  -2.38300 1.94600 42.06200
H  -2.33900 0.75000 40.74000
H  -3.82800 -2.31500 44.87700
H  -3.77700 -3.20100 43.35900
H  -5.20500 -2.34500 43.77900
H  -0.90000 -5.86800 44.85700
H  1.13500 -6.22300 47.00500
H  -1.65300 -4.10100 46.87400
H  -0.80500 -5.46900 47.73400
H  -2.21000 -5.78000 46.68900
H  2.40600 -7.18600 44.75300
H  0.78200 -6.86100 44.11900
H  2.04100 -9.03200 45.58400
H  0.66000 -9.18600 44.64500
H  0.53000 -8.48400 46.36700
H  5.93800 -5.46500 47.52500
H  7.47200 -5.00700 46.84900
H  6.37100 -6.19800 45.91400
H  7.37100 -1.47100 42.82600
H  10.02100 2.11400 43.29000
H  9.17400 2.01400 44.90300
H  8.39600 2.70100 43.52600
Mg 42.17800 41.89200 26.23600
C  41.88700 44.27600 28.80100
C  43.32500 39.68600 28.64400
C  42.71000 39.72000 23.84200
C  41.72700 44.48800 23.82000
N  42.58300 41.95500 28.53000
C  42.26900 43.00800 29.34600
C  42.36900 42.61000 30.80600
C  42.89900 41.06700 30.74400
C  42.99200 40.85900 29.21400
C  44.23100 40.79100 31.44300
C  41.02800 42.74100 31.56900
C  41.20800 43.52700 32.94200
H  39.96100 43.46900 33.85400
N  42.86300 39.86600 26.27800
C  43.28600 39.20400 27.36100
C  43.78300 37.95500 26.87900
C  43.53300 37.89500 25.46200
C  43.03300 39.17500 25.09100
C  44.37500 36.85400 27.78200
C  43.83300 36.70800 24.40200
O  43.65400 36.80000 23.18600
C  44.45900 35.41400 24.95200
N  42.26600 42.11500 24.15000
C  42.34200 41.01800 23.43400
C  42.34100 41.37100 21.91500
C  41.81400 42.89900 21.89900
C  41.91000 43.20700 23.37500
C  43.80400 41.17200 21.32000
C  40.35500 42.98700 21.45700
C  39.33900 42.25000 22.36600
N  41.99300 43.91900 26.24600
C  41.80900 44.82600 25.21500
C  41.42800 46.14500 25.78600
C  41.53000 45.93400 27.16500
C  41.84300 44.58100 27.38700
C  41.12900 47.44600 25.13500
C  41.23300 46.58700 28.44600
O  40.89500 47.74000 28.70300
C  41.50700 45.62600 29.55800
C  42.62200 46.21400 30.45500
O  43.82100 46.15700 30.12700
O  42.16900 46.68300 31.62600
C  43.15400 47.05500 32.65600
H  43.54100 38.82500 29.28000
H  42.80600 39.04300 22.99100
H  41.41100 45.18900 23.04400
H  43.08900 43.32100 31.21000
H  42.27300 40.25900 31.12300
H  44.96500 40.12700 30.98800
H  44.00400 40.27500 32.37600
H  44.71800 41.74500 31.64900
H  40.66400 41.74600 31.82500
H  40.32800 43.18200 30.86000
H  41.29600 44.58300 32.69000
H  42.17000 43.18800 33.32700
H  43.83600 35.91400 27.66200
H  44.45900 36.95700 28.86300
H  45.29700 36.44500 27.36900
H  44.62600 34.71400 24.13400
H  43.94900 34.88800 25.75900
H  45.39700 35.81400 25.33800
H  41.52200 40.75600 21.54300
H  42.39200 43.55800 21.25100
H  44.22800 40.37200 21.92700
H  44.25500 42.16300 21.36900
H  43.81200 40.94800 20.25400
H  40.23900 42.52000 20.47900
H  39.93700 43.98000 21.28800
H  39.79200 41.76800 23.23300
H  38.80700 41.49800 21.78300
H  38.57500 43.00700 22.54600
H  42.09300 47.95400 25.12700
H  40.40000 48.04100 25.68600
H  40.74200 47.41000 24.11700
H  40.62600 45.48000 30.18300
H  43.98100 47.67100 32.30400
H  43.53200 46.08400 32.97800
H  42.55100 47.52500 33.43300

