158

Mg 24.80600 -7.50900 48.55200
C  27.24200 -5.26700 46.91900
C  22.56600 -6.28100 46.24700
C  22.81000 -9.72000 49.83000
C  27.57900 -9.08000 50.07600
N  24.94300 -5.85700 46.77200
C  25.98500 -5.03500 46.39700
C  25.49600 -4.02800 45.32900
C  23.93400 -4.39200 45.25800
C  23.73500 -5.50800 46.24500
C  23.07200 -3.09100 45.40400
C  26.22700 -4.06800 43.94300
C  26.64600 -2.70700 43.34900
H  26.53900 -2.51000 41.86800
N  22.94500 -7.93300 48.12800
C  22.26700 -7.32000 47.08500
C  20.95100 -7.96700 47.09900
C  20.92600 -8.88200 48.20000
C  22.23800 -8.83600 48.81600
C  19.75600 -7.62100 46.11000
C  19.78800 -9.78600 48.55100
O  18.63700 -9.62200 48.07100
C  19.93100 -10.90500 49.54500
N  25.17300 -9.19100 49.76200
C  24.12600 -9.91800 50.21600
C  24.57200 -10.97600 51.18700
C  26.11500 -10.87900 51.14200
C  26.28800 -9.62600 50.29300
C  24.04500 -10.88600 52.67300
C  26.90900 -12.08300 50.56800
C  28.04600 -12.69200 51.47500
N  26.96600 -7.26800 48.62000
C  27.93300 -7.93800 49.35000
C  29.21200 -7.40000 49.10300
C  28.99300 -6.26200 48.34700
C  27.57000 -6.31600 47.91500
C  30.50300 -8.03800 49.62600
C  29.70500 -5.13900 47.67600
O  30.85800 -4.83100 47.71500
C  28.49800 -4.39200 46.74800
C  28.26800 -3.02200 47.26600
O  27.86500 -2.65500 48.36400
O  28.64600 -2.15700 46.35700
C  28.21600 -0.80700 46.56100
H  21.77200 -5.93300 45.58300
H  22.24600 -10.54300 50.27500
H  28.34300 -9.69600 50.55600
H  25.63100 -3.02400 45.73100
H  23.50200 -4.79000 44.34000
H  22.73700 -2.85700 46.41400
H  22.13900 -3.32300 44.88900
H  23.51100 -2.24700 44.87200
H  25.49500 -4.43100 43.22200
H  27.09600 -4.72600 43.91800
H  27.67000 -2.45200 43.62300
H  25.95300 -1.96800 43.75400
H  19.88800 -8.22100 45.21000
H  19.82400 -6.60000 45.73500
H  18.76200 -7.87300 46.47800
H  20.57700 -11.63400 49.05500
H  18.95000 -11.33700 49.74100
H  20.29500 -10.57300 50.51800
H  24.21500 -11.97200 50.92500
H  26.52700 -10.69000 52.13400
H  23.99500 -9.86100 53.04100
H  24.68500 -11.50300 53.30400
H  23.05100 -11.32300 52.76100
H  27.35500 -11.89300 49.59100
H  26.22000 -12.92700 50.56800
H  29.06500 -12.61700 51.09500
H  27.79900 -13.72600 51.71500
H  27.92300 -12.18200 52.43100
H  30.31800 -9.09300 49.42700
H  30.46500 -7.89700 50.70700
H  31.42400 -7.65700 49.18600
H  28.81700 -4.26700 45.71300
H  28.65200 -0.29300 47.41700
H  27.13000 -0.71500 46.53500
H  28.45500 -0.23800 45.66300
Mg 25.99200 50.62200 26.59000
C  24.09300 51.83500 29.26600
C  28.53500 49.81200 28.86500
C  28.14900 49.81400 24.00100
C  23.65100 51.77300 24.37900
N  26.27800 50.90300 28.80900
C  25.33000 51.28500 29.75200
C  25.76900 50.91200 31.20500
C  27.23200 50.51700 30.99400
C  27.37500 50.36300 29.47300
C  28.29700 51.28600 31.83800
C  24.81300 49.76300 31.73600
C  24.05900 50.15900 32.97400
H  24.39100 49.56500 34.28900
N  27.96900 49.81900 26.47600
C  28.84200 49.51000 27.51100
C  30.03800 48.87300 27.03100
C  29.88400 48.80400 25.64400
C  28.64100 49.51000 25.29900
C  31.16700 48.45400 27.93900
C  30.88200 48.17200 24.57500
O  30.62900 48.12600 23.37400
C  32.19900 47.58800 25.07600
N  25.98800 50.95400 24.46600
C  26.92700 50.40000 23.59400
C  26.43500 50.33200 22.15400
C  24.99700 50.94600 22.33700
C  24.83800 51.24400 23.83900
C  27.23100 51.23000 21.05100
C  23.85300 50.12000 21.66800
C  23.70800 50.28900 20.12700
N  24.31800 51.75200 26.76800
C  23.42800 52.07100 25.75600
C  22.24800 52.65400 26.36300
C  22.44300 52.55200 27.71700
C  23.70200 52.02900 27.91000
C  21.05100 53.16100 25.66700
C  21.79500 52.70300 29.04500
O  20.65600 53.01800 29.38100
C  22.88900 52.22400 30.10400
C  23.15500 53.40000 31.03500
O  23.90200 54.33000 30.79200
O  22.64500 53.17000 32.32000
C  22.98400 54.20400 33.36400
H  29.20200 49.62600 29.71000
H  28.74300 49.32900 23.22400
H  22.85200 52.01500 23.67500
H  25.64500 51.74100 31.90200
H  27.27900 49.49300 31.36400
H  28.93700 50.52300 32.27900
H  27.82500 51.94900 32.56300
H  28.99900 51.85600 31.23000
H  25.37000 48.83800 31.88400
H  24.12900 49.47500 30.93800
H  23.06600 49.76100 32.76500
H  23.99900 51.23400 33.14300
H  31.29600 47.37400 28.01300
H  30.97100 48.75700 28.96700
H  32.10400 48.89400 27.59500
H  32.88600 48.39800 25.32200
H  32.58900 46.99800 24.24600
H  31.99100 46.96900 25.94800
H  26.41900 49.26300 21.93900
H  24.97300 51.90800 21.82500
H  28.01800 51.73300 21.61200
H  26.54500 51.98600 20.66800
H  27.61200 50.63700 20.21900
H  22.88800 50.28800 22.14700
H  24.08300 49.05700 21.73500
H  24.72300 50.35000 19.73300
H  23.01800 51.09800 19.89000
H  23.37000 49.35000 19.69000
H  21.01300 52.72800 24.66800
H  21.07100 54.24900 25.60500
H  20.21200 52.79500 26.26000
H  22.51700 51.47500 30.80200
H  23.77300 54.91100 33.10800
H  23.38100 53.59800 34.17800
H  22.06400 54.66500 33.72100

