158

Mg -2.20900 18.09300 26.90200
C  -2.47200 16.02100 29.68200
C  -2.90300 20.90300 28.91800
C  -1.84200 19.97600 24.28000
C  -1.68700 15.15100 24.91600
N  -2.55400 18.39400 29.06900
C  -2.61100 17.35000 29.99700
C  -2.88200 17.91800 31.44400
C  -3.08900 19.49100 31.13400
C  -2.83500 19.62900 29.58400
C  -4.56000 20.03600 31.58900
C  -1.79200 17.82100 32.52100
C  -2.07400 17.08000 33.83000
H  -1.10200 17.29700 34.97300
N  -2.36800 20.15700 26.57400
C  -2.64200 21.16300 27.52600
C  -2.59900 22.42600 26.90500
C  -2.30100 22.16100 25.56000
C  -2.19400 20.73300 25.42700
C  -2.71600 23.80000 27.53900
C  -2.13700 23.11700 24.38600
O  -2.14700 22.81100 23.22300
C  -2.10200 24.64100 24.68800
N  -1.63800 17.57500 24.93900
C  -1.64600 18.62800 24.06700
C  -1.40300 17.97500 22.61700
C  -0.86500 16.53600 22.90400
C  -1.42500 16.39800 24.32800
C  -2.68200 18.05100 21.66800
C  0.65400 16.29000 22.71900
C  1.73800 16.79300 23.73900
N  -2.28900 15.97900 27.18100
C  -2.04700 14.92600 26.25600
C  -2.23800 13.63700 26.94200
C  -2.45700 14.01500 28.27900
C  -2.41000 15.47000 28.36700
C  -2.27200 12.24100 26.32800
C  -2.79900 13.52400 29.58000
O  -2.98000 12.38300 29.98100
C  -2.77300 14.77800 30.57200
C  -1.68100 14.46400 31.59300
O  -0.50300 14.74300 31.55700
O  -2.24000 13.73900 32.60600
C  -1.40700 13.19200 33.75200
H  -2.96600 21.79400 29.54600
H  -1.85200 20.47800 23.31000
H  -1.53600 14.23800 24.33600
H  -3.81200 17.40600 31.69100
H  -2.32200 20.15500 31.53300
H  -4.50300 20.75900 32.40300
H  -5.05800 19.12500 31.92000
H  -5.11200 20.48100 30.76100
H  -1.42700 18.80000 32.83100
H  -1.02100 17.19700 32.06900
H  -2.15900 15.99700 33.74000
H  -3.08800 17.39900 34.07400
H  -3.49100 24.38500 27.04500
H  -1.75900 24.32000 27.48300
H  -2.84100 23.68600 28.61600
H  -3.08100 24.96900 25.03800
H  -1.90200 25.10000 23.72100
H  -1.23000 24.89100 25.29300
H  -0.53800 18.50500 22.21900
H  -1.24200 15.81000 22.18400
H  -3.60300 18.12000 22.24600
H  -2.63300 17.17500 21.02100
H  -2.53900 18.91800 21.02300
H  1.04800 16.90600 21.91000
H  1.00100 15.31200 22.38500
H  2.14700 15.85800 24.12100
H  1.30200 17.31600 24.59000
H  2.55000 17.32700 23.24500
H  -1.84000 11.53400 27.03700
H  -1.63000 12.11000 25.45600
H  -3.27600 11.85300 26.15700
H  -3.73600 14.73700 31.08100
H  -0.41800 12.88100 33.41600
H  -1.82800 12.26200 34.13400
H  -1.26300 13.95100 34.52000
Mg 6.06200 54.43700 41.10900
C  5.22700 51.11500 40.77700
C  9.10400 53.88800 39.47200
C  6.45800 57.79600 40.46700
C  2.77800 55.14400 42.00800
N  6.96700 52.73500 40.01200
C  6.48600 51.44400 40.13600
C  7.58300 50.40200 39.57200
C  8.80500 51.34100 39.54400
C  8.29800 52.75100 39.62600
C  9.87200 51.21300 40.63200
C  7.26400 49.82500 38.09000
C  6.57400 50.80500 37.07000
H  7.14100 50.89600 35.67100
N  7.73400 55.68300 40.24300
C  8.85100 55.25300 39.63600
C  9.66800 56.34200 39.27700
C  8.98300 57.58400 39.62800
C  7.67500 57.08400 40.15200
C  11.13200 56.11000 38.81200
C  9.44600 59.00700 39.54400
O  10.55200 59.32800 39.01200
C  8.64800 60.16000 40.06700
N  4.79600 56.20900 41.13600
C  5.17700 57.46100 40.88400
C  4.04400 58.44800 40.93500
C  2.86600 57.60300 41.40000
C  3.48700 56.24800 41.52300
C  4.31500 59.79900 41.57800
C  1.61800 57.60900 40.49200
C  0.34200 58.09900 41.16500
N  4.42700 53.38700 41.62100
C  3.15400 53.77300 42.00600
C  2.34600 52.57100 42.30400
C  3.17600 51.52800 41.83300
C  4.37600 52.04300 41.38700
C  0.92300 52.45100 42.83400
C  3.15900 50.10700 41.64000
O  2.31700 49.22200 41.88000
C  4.64100 49.76600 41.16800
C  4.53800 48.88600 40.02100
O  4.03000 49.16400 38.94100
O  5.09400 47.66500 40.34000
C  4.93500 46.68100 39.26600
H  10.14600 53.69900 39.20500
H  6.46800 58.86300 40.23200
H  1.80100 55.42300 42.40700
H  7.75600 49.53700 40.21300
H  9.32100 51.22700 38.59100
H  9.76500 50.31400 41.23900
H  9.76900 52.04200 41.33200
H  10.86300 51.28300 40.18200
H  6.62700 48.94000 38.08800
H  8.17200 49.49800 37.58400
H  6.62800 51.78900 37.53800
H  5.53400 50.58400 36.83200
H  11.78900 56.97800 38.86900
H  11.20600 55.77000 37.77900
H  11.57800 55.34400 39.44600
H  7.84400 60.50800 39.41800
H  9.34200 60.96900 40.29300
H  8.31400 59.78200 41.03300
H  3.92900 58.51000 39.85300
H  2.51100 57.81400 42.40900
H  3.72700 60.50700 40.99400
H  5.33500 60.18000 41.62700
H  4.03700 59.79100 42.63200
H  1.49600 56.61500 40.06000
H  1.78200 58.31700 39.67900
H  -0.50000 57.51400 40.79500
H  0.24600 59.15700 40.92200
H  0.31100 57.96700 42.24700
H  0.99400 51.91600 43.78100
H  0.35000 51.90200 42.08700
H  0.36700 53.38600 42.90000
H  5.23500 49.21400 41.89600
H  5.53600 45.78800 39.43600
H  5.09400 47.07700 38.26300
H  3.89000 46.37800 39.19200

