158

Mg 9.32600 3.45900 28.25800
C  11.00900 2.14200 31.12700
C  7.59700 5.61800 30.42900
C  7.70000 4.71000 25.66300
C  10.66000 0.87400 26.40500
N  9.33800 3.84900 30.54000
C  10.11800 3.19400 31.49800
C  9.84000 3.71500 32.90200
C  8.49200 4.59100 32.62000
C  8.38400 4.61500 31.11800
C  7.21700 4.13000 33.39300
C  11.02800 4.54600 33.41100
C  11.62900 4.07300 34.76100
H  10.64100 4.01200 35.97500
N  7.96900 5.00300 28.06600
C  7.42200 5.82800 29.02900
C  6.77400 6.96700 28.37500
C  6.76700 6.63300 26.99500
C  7.48300 5.41200 26.82200
C  6.05300 8.08400 29.19400
C  6.21500 7.48100 25.74100
O  6.36200 7.20100 24.52100
C  5.51600 8.81600 25.98500
N  9.09400 2.79700 26.27500
C  8.50500 3.55500 25.36200
C  8.52600 2.80900 23.96700
C  9.56000 1.70700 24.19900
C  9.71200 1.72800 25.68400
C  7.10600 2.35700 23.45500
C  10.89900 1.83600 23.26700
C  10.80200 1.20800 21.94900
N  10.55500 1.90000 28.63300
C  11.01700 0.91900 27.79500
C  11.83700 -0.03600 28.51900
C  11.92700 0.52800 29.78600
C  11.09300 1.64700 29.87500
C  12.51900 -1.21900 27.97400
C  12.58700 0.33500 31.10000
O  13.38300 -0.52500 31.48300
C  11.89000 1.31500 32.07800
C  11.13200 0.41700 33.03600
O  10.39900 -0.50200 32.74700
O  11.47800 0.77300 34.31700
C  10.65600 0.09000 35.36800
H  7.03100 6.36200 30.99300
H  7.15900 4.99100 24.75700
H  11.02900 -0.02100 25.90100
H  9.56100 2.86300 33.52200
H  8.86700 5.55700 32.95700
H  7.55900 3.52800 34.23500
H  6.60100 3.44200 32.81500
H  6.59500 4.99100 33.63800
H  10.88000 5.61900 33.29000
H  11.81500 4.31300 32.69400
H  12.36800 4.84600 34.97100
H  12.29300 3.21100 34.72100
H  5.02700 8.03700 28.83000
H  6.48900 9.03100 28.87500
H  6.19000 8.07200 30.27600
H  6.31000 9.44900 26.38200
H  4.77800 8.67200 26.77400
H  5.01200 9.25100 25.12200
H  8.98500 3.49400 23.25500
H  9.15500 0.70000 24.10000
H  6.82600 2.83600 22.51700
H  6.41900 2.70100 24.22800
H  7.02400 1.28000 23.30700
H  11.66600 1.37400 23.88900
H  11.15700 2.87900 23.08200
H  11.26800 0.22400 21.89000
H  11.19900 1.83200 21.14900
H  9.73100 1.08700 21.78800
H  13.29700 -0.80000 27.33500
H  11.83600 -1.82400 27.37800
H  12.91600 -1.85200 28.76800
H  12.68000 1.75600 32.68600
H  11.31400 -0.71300 35.69900
H  9.71900 -0.33700 35.01300
H  10.41600 0.79900 36.16100
Mg 17.92700 -1.78600 27.70700
C  16.92000 0.28700 30.33300
C  19.98200 -3.55500 29.72400
C  18.94000 -3.55700 24.89200
C  16.26100 0.44800 25.60600
N  18.49500 -1.51800 29.74400
C  17.82900 -0.80700 30.70700
C  18.23000 -1.17300 32.14300
C  19.40600 -2.22900 31.88800
C  19.37900 -2.42300 30.35400
C  20.75900 -1.80700 32.32500
C  17.02700 -1.62500 32.97000
C  16.92500 -1.25200 34.46800
H  18.11000 -0.49100 35.02000
N  19.21400 -3.42600 27.37600
C  19.85000 -4.09200 28.43000
C  20.44300 -5.29000 27.86200
C  20.23500 -5.30300 26.43000
C  19.41200 -4.04700 26.18000
C  21.20700 -6.23300 28.68700
C  20.72600 -6.22700 25.28300
O  20.42800 -6.03400 24.09300
C  21.59300 -7.35100 25.58000
N  17.74500 -1.48100 25.52900
C  18.18200 -2.39000 24.61800
C  17.91600 -1.94600 23.12300
C  16.84300 -0.81100 23.43700
C  16.98200 -0.54900 24.93000
C  19.18400 -1.45000 22.41400
C  15.45700 -1.30100 23.15500
C  14.50300 -0.28300 22.47200
N  16.84600 -0.08500 27.92500
C  16.13300 0.65600 27.01700
C  15.40500 1.77600 27.63100
C  15.73000 1.65700 28.97900
C  16.55800 0.51300 29.06600
C  14.58900 2.82300 27.03000
C  15.60800 2.26100 30.30300
O  15.01500 3.29700 30.67400
C  16.32700 1.32200 31.28700
C  17.31800 2.03200 32.11500
O  18.54500 2.18900 31.89900
O  16.64500 2.67000 33.13400
C  17.29400 3.53600 34.19400
H  20.50100 -4.14200 30.48500
H  19.28600 -4.08200 23.99900
H  15.62700 1.11300 25.01500
H  18.71900 -0.35800 32.67800
H  19.13100 -3.21100 32.27200
H  20.76200 -0.81600 32.77900
H  21.41800 -1.71800 31.46200
H  21.19200 -2.46700 33.07700
H  16.95800 -2.71000 32.89100
H  16.08100 -1.36200 32.49600
H  16.74200 -2.16600 35.03200
H  15.98600 -0.72000 34.62400
H  22.25600 -6.30500 28.40000
H  20.72600 -7.20300 28.56100
H  21.20800 -5.98200 29.74800
H  22.04500 -7.77700 24.68500
H  20.87400 -8.05800 25.99400
H  22.27200 -7.27500 26.42900
H  17.47600 -2.75100 22.53300
H  17.10600 0.03000 22.79600
H  19.14700 -2.01100 21.48100
H  20.05900 -1.72000 23.00500
H  19.06500 -0.40600 22.12500
H  14.92000 -1.62100 24.04800
H  15.38400 -2.14300 22.46700
H  14.54300 -0.27600 21.38300
H  14.47800 0.75300 22.81100
H  13.49600 -0.66800 22.62600
H  14.38300 2.50400 26.00900
H  15.19600 3.72700 26.99500
H  13.75300 3.14800 27.65000
H  15.57500 0.79100 31.87000
H  17.13300 4.58400 33.94000
H  18.37700 3.41100 34.17400
H  16.98300 3.32100 35.21700

