158

Mg 1.44100 8.17500 26.71200
C  1.88800 9.62800 29.83500
C  1.60100 5.15800 28.23800
C  1.23100 6.93700 23.61400
C  1.74500 11.36300 25.31800
N  1.81500 7.55300 28.80200
C  1.68900 8.26400 29.90500
C  1.61400 7.40600 31.17900
C  1.91000 6.00400 30.66000
C  1.75800 6.23700 29.10400
C  3.25200 5.30400 30.94500
C  0.26400 7.61100 31.91500
C  0.45400 8.08400 33.38600
H  1.59700 7.48800 34.22500
N  1.43700 6.31600 26.01900
C  1.41800 5.14400 26.80300
C  1.28500 4.02800 25.88700
C  1.21600 4.54400 24.56800
C  1.25600 5.97900 24.66100
C  1.22200 2.58700 26.46900
C  1.09600 3.75300 23.33000
O  0.87500 4.28700 22.21100
C  1.13300 2.28100 23.40600
N  1.35500 9.04800 24.73200
C  1.31500 8.30100 23.61800
C  1.53500 9.07600 22.36500
C  1.23900 10.47400 22.84100
C  1.48100 10.30300 24.38900
C  2.85500 8.96600 21.56400
C  -0.11600 11.03700 22.45000
C  -1.43500 10.57500 23.12200
N  1.79800 10.15000 27.34900
C  1.92000 11.33800 26.67700
C  2.08300 12.41700 27.59500
C  2.06400 11.77200 28.88700
C  1.94800 10.40300 28.67400
C  2.07700 13.90200 27.28500
C  2.23600 12.03900 30.29700
O  2.47800 13.04800 30.89600
C  2.01900 10.64300 31.01500
C  3.08600 10.41400 32.05600
O  4.17400 9.85100 31.88000
O  2.79300 11.22400 33.15500
C  3.81000 11.53300 34.19100
H  1.64500 4.15600 28.66900
H  1.43200 6.52900 22.62100
H  1.75100 12.35200 24.85500
H  2.48000 7.76100 31.73800
H  1.13400 5.29000 30.93700
H  4.15300 5.88600 31.13700
H  3.58300 4.77900 30.04900
H  3.12800 4.49000 31.65900
H  -0.31100 6.68800 31.84000
H  -0.24700 8.41000 31.37700
H  -0.50300 7.93500 33.88700
H  0.53900 9.17000 33.40800
H  0.42900 2.09500 25.90600
H  0.85500 2.56500 27.49500
H  2.14700 2.01500 26.38900
H  0.11800 1.89000 23.48200
H  1.76900 1.78800 24.14200
H  1.57600 2.10600 22.42600
H  0.61800 8.73400 21.88500
H  1.93500 11.23400 22.48600
H  3.37500 8.02700 21.75500
H  3.60200 9.73500 21.75900
H  2.55200 9.09600 20.52500
H  -0.26000 11.20600 21.38300
H  -0.02000 12.02200 22.90700
H  -1.88400 11.28300 23.81900
H  -1.19400 9.69600 23.72000
H  -2.17500 10.29400 22.37300
H  2.37400 14.05100 26.24700
H  2.87700 14.34300 27.88000
H  1.09400 14.20000 27.65000
H  1.07700 10.62500 31.56300
H  4.77000 11.07100 33.96100
H  3.47100 11.01200 35.08600
H  3.77600 12.62300 34.20700
Mg 9.96100 48.14300 25.52100
C  7.66900 48.29500 28.09300
C  12.33000 49.63400 27.69000
C  12.24400 48.15100 22.92100
C  7.41900 47.37000 23.36600
N  10.01100 48.77700 27.71900
C  8.93800 48.67000 28.55700
C  9.40600 49.17700 29.97300
C  10.90100 49.69900 29.85800
C  11.14000 49.35000 28.34000
C  11.18400 51.20200 30.21800
C  9.22700 48.05000 31.05500
C  10.08200 48.00500 32.37900
H  9.48600 47.99200 33.74000
N  12.00100 48.67500 25.34600
C  12.77400 49.15400 26.36700
C  14.15100 49.33600 25.87200
C  14.08000 48.88700 24.51600
C  12.74800 48.53300 24.18000
C  15.26900 49.97700 26.61200
C  15.25200 48.86100 23.47000
O  15.05900 48.49100 22.30100
C  16.64500 49.25400 23.90400
N  9.88500 47.59900 23.44900
C  10.89900 47.73600 22.58500
C  10.49300 47.43900 21.15100
C  8.93900 47.28900 21.26800
C  8.69800 47.39500 22.81200
C  10.81100 48.58900 20.11000
C  8.56900 45.92000 20.73100
C  9.10200 44.75900 21.55400
N  7.97200 47.86000 25.58700
C  7.01900 47.48200 24.65600
C  5.72700 47.30200 25.29900
C  5.96500 47.64400 26.61600
C  7.26600 47.99500 26.76000
C  4.40300 46.99700 24.61100
C  5.28800 47.66500 27.88900
O  4.12200 47.43200 28.22100
C  6.42700 48.08000 28.91600
C  6.45200 46.86800 29.79600
O  7.10500 45.86400 29.60600
O  5.75200 47.06300 30.98900
C  6.05200 46.13500 32.10500
H  12.95900 50.27500 28.31100
H  12.89300 48.01100 22.05400
H  6.66300 47.16300 22.60500
H  8.77500 50.04300 30.17600
H  11.59000 49.03900 30.38500
H  10.45000 51.52400 30.95700
H  11.21500 51.81400 29.31700
H  12.14300 51.29600 30.72800
H  9.36100 47.12400 30.49600
H  8.21500 48.18000 31.44000
H  10.85000 48.77400 32.46200
H  10.51300 47.00600 32.30500
H  15.07800 49.94500 27.68500
H  15.40000 50.97700 26.19900
H  16.22600 49.47000 26.48500
H  16.72400 50.21700 24.40800
H  17.28100 49.37300 23.02700
H  16.95800 48.45200 24.57300
H  10.95800 46.49700 20.85800
H  8.38800 48.07000 20.74500
H  11.23300 49.49400 20.54700
H  9.90800 49.02600 19.68400
H  11.60200 48.31200 19.41300
H  9.10200 45.82200 19.78600
H  7.48500 45.83400 20.65000
H  9.70700 44.10600 20.92400
H  8.26000 44.14800 21.87900
H  9.73600 44.94600 22.42000
H  4.28600 45.91600 24.53100
H  4.48700 47.37900 23.59400
H  3.56400 47.43500 25.15100
H  5.99700 48.97600 29.36200
H  5.99000 45.16400 31.61300
H  5.34500 46.16900 32.93400
H  7.08100 46.32400 32.41100

