158

Mg -1.30400 17.76000 26.76600
C  -1.74000 15.43900 29.37400
C  -1.88000 20.26200 29.11300
C  -0.88800 19.90300 24.37300
C  -1.07100 15.05700 24.54800
N  -1.81300 17.80100 28.95400
C  -1.84600 16.75100 29.87900
C  -2.16300 17.26000 31.34600
C  -2.41700 18.77400 31.12400
C  -2.06700 18.95300 29.60500
C  -3.94100 19.07500 31.39500
C  -0.94500 16.96000 32.36100
C  -1.32100 16.14600 33.61700
H  -0.46600 16.34800 34.93700
N  -1.38000 19.77900 26.76400
C  -1.58100 20.67300 27.80700
C  -1.53400 22.05500 27.23600
C  -1.07300 21.94000 25.87600
C  -1.04500 20.44800 25.62500
C  -1.74200 23.22900 28.08500
C  -0.74700 23.08300 24.77000
O  -0.30500 22.87100 23.62600
C  -0.94700 24.50800 25.24000
N  -1.23900 17.52600 24.67000
C  -1.13700 18.60200 23.84400
C  -0.91800 18.25300 22.38700
C  -0.83800 16.67700 22.47100
C  -1.16600 16.35600 23.92100
C  -2.14100 18.78300 21.50000
C  0.48100 16.04800 21.99300
C  1.58000 15.99600 23.04400
N  -1.52100 15.70100 26.84100
C  -1.35900 14.69900 25.88200
C  -1.50000 13.35400 26.43500
C  -1.70900 13.70000 27.79600
C  -1.64800 15.05800 28.00400
C  -1.54600 11.95900 25.77200
C  -2.03700 13.06600 29.07600
O  -2.25400 11.88700 29.40400
C  -1.99100 14.16000 30.19100
C  -0.83300 13.68600 31.04600
O  0.34300 14.04400 31.01100
O  -1.41100 12.83700 32.02500
C  -0.41400 12.33000 33.04600
H  -2.08300 21.05700 29.83400
H  -0.81500 20.63400 23.56500
H  -0.85600 14.26100 23.83300
H  -3.06100 16.72200 31.64900
H  -1.72000 19.33200 31.74800
H  -4.10000 19.59200 32.34100
H  -4.54400 18.18700 31.20900
H  -4.27400 19.67300 30.54700
H  -0.58500 17.90600 32.76600
H  -0.13100 16.61500 31.72400
H  -1.14600 15.10900 33.33200
H  -2.37800 16.29900 33.83300
H  -0.84900 23.81400 28.30300
H  -2.08400 22.98600 29.09100
H  -2.46900 23.89300 27.61700
H  -2.02200 24.57000 25.41100
H  -0.60100 25.16100 24.43800
H  -0.37300 24.64200 26.15700
H  -0.00000 18.79100 22.14700
H  -1.56600 16.21500 21.80400
H  -2.61900 19.46500 22.20300
H  -2.83500 17.97300 21.27300
H  -1.91000 19.23600 20.53600
H  0.88400 16.55300 21.11500
H  0.26600 15.03300 21.65900
H  1.51200 16.71400 23.86100
H  2.53200 16.25200 22.57800
H  1.62900 14.97800 23.43200
H  -2.57300 11.61400 25.65600
H  -1.01700 11.22000 26.37300
H  -1.09800 11.91900 24.77900
H  -2.89100 14.34600 30.77600
H  -0.72000 11.35400 33.42200
H  -0.39200 12.98400 33.91700
H  0.56100 12.15400 32.59200
Mg 48.19300 16.28700 28.88000
C  45.85200 16.29300 31.50600
C  50.29100 18.07600 30.86000
C  50.30600 16.57700 26.20300
C  45.64100 15.17500 26.80400
N  48.07600 16.97200 30.95400
C  47.10200 16.71400 31.87100
C  47.58500 17.10000 33.25500
C  48.87300 18.02100 32.95400
C  49.10000 17.64300 31.48800
C  48.60000 19.53000 33.22500
C  47.93400 15.80200 34.06500
C  47.78600 15.83400 35.57500
H  47.75200 17.26100 36.14900
N  50.09000 17.11100 28.60900
C  50.71500 17.85300 29.60600
C  52.00800 18.25300 29.04500
C  52.06400 17.80100 27.71200
C  50.71200 17.16500 27.42500
C  52.99100 19.09900 29.78300
C  53.21900 17.82300 26.68900
O  53.15600 17.43000 25.52900
C  54.47600 18.57000 27.03200
N  47.90800 16.17400 26.76100
C  48.96600 16.04400 25.95100
C  48.55400 15.43400 24.64800
C  47.03500 15.06100 24.76400
C  46.80100 15.58600 26.24800
C  48.89500 16.23400 23.40100
C  46.71000 13.57900 24.49900
C  46.87000 13.16800 23.08100
N  46.14600 15.87500 29.04900
C  45.24000 15.35700 28.12100
C  44.02700 14.94900 28.72700
C  44.24100 15.26200 30.11400
C  45.48200 15.91400 30.17900
C  42.94800 14.14600 28.26300
C  43.58000 15.24700 31.41700
O  42.40200 14.89400 31.70700
C  44.66000 15.88700 32.43400
C  44.08800 17.03300 33.11000
O  43.98900 18.16200 32.66600
O  43.64400 16.60100 34.37000
C  43.15900 17.59700 35.28300
H  50.88700 18.67800 31.54900
H  50.99800 16.59800 25.35800
H  44.87800 14.82000 26.10700
H  46.83200 17.62000 33.84800
H  49.62000 17.69600 33.67800
H  47.57000 19.62700 33.56600
H  48.65400 19.90800 32.20500
H  49.42900 19.90600 33.82500
H  49.01500 15.66200 34.05200
H  47.47000 14.88100 33.71200
H  48.70300 15.39100 35.96400
H  46.93400 15.28400 35.97300
H  53.30300 19.94500 29.17100
H  53.92200 18.53200 29.79100
H  52.85800 19.42100 30.81600
H  54.29100 19.61800 27.26500
H  55.09100 18.68000 26.13900
H  54.92000 17.99200 27.84300
H  49.07700 14.49100 24.48200
H  46.33500 15.62600 24.14900
H  48.65100 15.62100 22.53400
H  49.96900 16.39000 23.29700
H  48.42200 17.21300 23.32600
H  45.66200 13.38200 24.72500
H  47.26700 12.91200 25.15700
H  46.96200 14.02800 22.41800
H  46.03900 12.57900 22.69300
H  47.72300 12.49200 23.03600
H  43.24500 13.15400 27.92300
H  42.35300 14.54900 27.44300
H  42.25200 13.79400 29.02500
H  44.87100 15.01700 33.05700
H  42.44400 18.24500 34.77600
H  43.95000 18.28900 35.57400
H  42.68100 17.10800 36.13100

