158

Mg 26.06800 1.18900 29.18300
C  28.04000 0.70600 32.07500
C  23.27500 1.71800 31.12100
C  24.06900 1.51900 26.31300
C  28.71200 0.42900 27.27500
N  25.72800 1.17500 31.30700
C  26.67300 1.01300 32.34200
C  26.05400 1.30000 33.69600
C  24.52700 1.48200 33.33600
C  24.53000 1.50200 31.82400
C  23.52000 0.49200 33.97600
C  26.76500 2.58200 34.29900
C  27.31700 2.23700 35.74800
H  26.91600 3.11400 36.88500
N  23.92200 1.34900 28.80800
C  22.94700 1.58800 29.78400
C  21.69400 1.57000 29.06000
C  21.93900 1.53800 27.69900
C  23.32500 1.53600 27.55200
C  20.38100 1.75200 29.77600
C  20.94600 1.46700 26.44400
O  21.36000 1.38400 25.29100
C  19.52300 1.26800 26.74100
N  26.29700 0.89800 27.09200
C  25.38300 1.13800 26.06400
C  26.01900 0.79400 24.62000
C  27.53600 0.90500 25.02700
C  27.56300 0.81200 26.57300
C  25.80300 -0.57200 24.12400
C  28.26700 2.23600 24.63200
C  29.58800 2.07600 23.79900
N  28.00300 0.52600 29.51700
C  28.98900 0.23300 28.65300
C  30.12300 -0.31400 29.37600
C  29.82200 -0.02300 30.68100
C  28.52100 0.43900 30.79300
C  31.39000 -0.52500 28.60200
C  30.36000 0.09000 32.09100
O  31.50500 -0.08700 32.50100
C  29.17500 0.51100 33.05400
C  28.98900 -0.55800 34.02100
O  28.05100 -1.32900 33.97100
O  29.83600 -0.46800 35.05600
C  29.52500 -1.19000 36.29800
H  22.50500 2.07200 31.80900
H  23.58600 1.72300 25.35500
H  29.56700 0.15300 26.65400
H  26.23000 0.42500 34.32200
H  24.18100 2.48700 33.57800
H  23.26900 -0.34800 33.32800
H  22.61700 1.05800 34.20900
H  23.93700 0.06800 34.88900
H  26.10000 3.44300 34.36400
H  27.60400 2.84800 33.65700
H  28.39900 2.37000 35.71400
H  27.11000 1.20700 36.03700
H  19.85500 0.81900 29.97800
H  19.85400 2.58400 29.30900
H  20.51400 2.15000 30.78200
H  19.13100 2.20200 27.14500
H  19.40400 0.37700 27.35700
H  18.99200 1.19100 25.79300
H  25.66600 1.52100 23.88800
H  28.16100 0.10800 24.62400
H  25.03500 -0.44300 23.36100
H  25.41400 -1.27900 24.85600
H  26.66900 -0.98400 23.60500
H  28.51600 2.79800 25.53200
H  27.66600 2.90500 24.01600
H  29.32800 2.17300 22.74500
H  29.87900 1.03400 23.93000
H  30.35500 2.83600 23.95100
H  32.17800 0.07300 29.05900
H  31.20600 -0.24200 27.56500
H  31.69800 -1.56900 28.64400
H  29.39300 1.42700 33.60400
H  28.59600 -0.79100 36.70500
H  30.18600 -1.13800 37.16300
H  29.33600 -2.24100 36.07800
Mg 36.12600 49.25000 25.48300
C  35.96700 47.41500 28.53900
C  35.38300 52.08100 27.33500
C  35.98600 50.93200 22.59300
C  36.33000 46.22600 23.73000
N  35.77400 49.70700 27.71900
C  35.73600 48.78600 28.75300
C  35.64300 49.56600 30.15300
C  35.20400 50.99400 29.60600
C  35.46900 50.95900 28.14500
C  33.72000 51.35500 29.83900
C  36.89900 49.42500 31.05200
C  36.64300 48.95500 32.50900
H  35.24300 49.29200 33.14400
N  35.83500 51.25600 25.06600
C  35.56600 52.26200 25.93700
C  35.54200 53.54000 25.16600
C  35.79700 53.23100 23.80000
C  35.92300 51.78400 23.76700
C  35.41700 54.85700 25.83400
C  36.00400 54.17200 22.61700
O  36.33700 53.83300 21.49300
C  35.64500 55.55400 22.72700
N  35.85600 48.65100 23.48900
C  35.84800 49.58900 22.53600
C  35.92500 48.86400 21.16100
C  36.38000 47.38200 21.53100
C  36.09900 47.40700 23.00900
C  34.59900 48.98900 20.43000
C  37.97800 47.16400 21.33700
C  38.26300 46.29800 20.11900
N  36.08100 47.28900 25.97200
C  36.22500 46.16300 25.14300
C  36.27600 44.97700 25.94500
C  36.12000 45.42100 27.28800
C  36.13300 46.82400 27.27300
C  36.31000 43.54200 25.43600
C  36.08000 45.04200 28.68600
O  36.15100 43.91400 29.21800
C  35.99900 46.30700 29.56000
C  34.69100 46.14200 30.33200
O  33.56500 46.25400 29.84200
O  34.89600 45.80500 31.63300
C  33.56600 45.54100 32.30200
H  35.15200 52.96200 27.93700
H  36.00100 51.38900 21.60200
H  36.45200 45.31400 23.14200
H  34.79900 49.12300 30.68200
H  35.82800 51.74400 30.09200
H  33.28200 50.68300 30.57800
H  33.00900 51.30900 29.01500
H  33.67900 52.38100 30.20500
H  37.45700 50.36100 31.08700
H  37.51400 48.68700 30.53800
H  37.39700 49.50200 33.07500
H  36.79800 47.89600 32.71600
H  36.31500 55.45400 25.67200
H  35.54300 54.77800 26.91300
H  34.50500 55.35000 25.49900
H  34.56300 55.61300 22.84000
H  35.86900 56.08900 21.80300
H  36.13500 56.04200 23.56900
H  36.68000 49.31500 20.51800
H  35.71000 46.76000 20.93700
H  34.24900 48.00900 20.10500
H  34.63400 49.74200 19.64300
H  33.82600 49.21700 21.16500
H  38.50800 46.73400 22.18700
H  38.47000 48.11600 21.13900
H  38.81200 45.38100 20.33400
H  38.82700 46.89800 19.40400
H  37.35000 45.98500 19.61300
H  37.17400 43.51800 24.77100
H  35.44100 43.33400 24.81200
H  36.37300 42.82600 26.25500
H  36.88800 46.35200 30.18900
H  32.80300 46.29000 32.09300
H  33.80200 45.47800 33.36500
H  33.27700 44.51800 32.06000

