158

Mg 1.06900 -0.98500 45.68100
C  4.30300 0.47900 45.31300
C  -0.24300 1.59300 44.01900
C  -1.82300 -2.79800 45.54500
C  2.78900 -3.87200 46.85800
N  1.99500 0.80100 44.73200
C  3.22600 1.28700 44.86600
C  3.36600 2.69800 44.20400
C  1.83600 3.07100 44.07300
C  1.10000 1.78300 44.33700
C  1.28500 4.26400 45.01800
C  4.15100 2.85100 42.80700
C  4.29400 4.33800 42.40100
H  3.60400 4.87300 41.14100
N  -0.80400 -0.65400 44.90500
C  -1.15000 0.46400 44.26400
C  -2.58900 0.44100 43.90100
C  -3.04000 -0.84700 44.28800
C  -1.87400 -1.51700 44.93600
C  -3.36800 1.56000 43.17200
C  -4.48200 -1.38700 44.07300
O  -5.28000 -0.72600 43.38000
C  -4.89600 -2.75600 44.62700
N  0.54500 -2.97500 46.15900
C  -0.71900 -3.41100 46.15800
C  -0.93400 -4.81700 46.75100
C  0.56300 -5.25000 46.99900
C  1.39300 -3.93600 46.70000
C  -1.79600 -4.81300 48.06300
C  0.87600 -6.50700 46.05100
C  1.35400 -7.74900 46.95800
N  3.08000 -1.56100 46.24300
C  3.67600 -2.72500 46.75500
C  5.10400 -2.60900 46.73200
C  5.40600 -1.38700 46.23400
C  4.17300 -0.79200 45.92200
C  6.06900 -3.56500 47.32900
C  6.43500 -0.52000 45.81500
O  7.62900 -0.77300 45.81300
C  5.80600 0.75700 45.21000
C  6.30200 1.90300 46.03400
O  6.06600 2.05600 47.22800
O  7.10300 2.75400 45.25300
C  7.52800 4.02500 45.84900
H  -0.73600 2.45100 43.55700
H  -2.66200 -3.48100 45.39700
H  3.18600 -4.85600 47.11800
H  3.88700 3.25700 44.98100
H  1.54400 3.37600 43.06800
H  2.11900 4.92300 45.25600
H  0.76500 3.92400 45.91300
H  0.61900 4.85700 44.39100
H  3.67100 2.31500 41.98800
H  5.17300 2.56000 43.04700
H  5.36200 4.51700 42.27200
H  4.06700 4.98100 43.25100
H  -2.95000 2.47000 43.60200
H  -4.45100 1.55400 43.29000
H  -3.20200 1.61700 42.09600
H  -4.30200 -3.47600 44.06500
H  -5.91300 -3.01200 44.32800
H  -4.88800 -2.87500 45.71100
H  -1.43000 -5.47300 46.03500
H  0.77400 -5.52700 48.03200
H  -2.43700 -3.95100 48.25100
H  -1.09500 -4.90500 48.89200
H  -2.37500 -5.73500 48.00800
H  1.61100 -6.25900 45.28600
H  0.02600 -6.89200 45.48800
H  1.05500 -8.69100 46.50000
H  1.09100 -7.80500 48.01400
H  2.43800 -7.83700 46.87900
H  6.93500 -3.64000 46.67200
H  5.74100 -4.60400 47.31800
H  6.47700 -3.27200 48.29700
H  6.08500 0.75600 44.15600
H  8.20600 3.84500 46.68400
H  6.70700 4.70900 46.06400
H  8.14100 4.60400 45.15900
Mg 43.49000 42.13800 27.00900
C  42.33400 44.26000 29.50600
C  45.22100 40.36900 29.42500
C  44.88600 40.17000 24.47500
C  42.42600 44.31400 24.54600
N  43.64700 42.28200 29.07000
C  42.96200 43.09600 29.93100
C  43.22200 42.75700 31.42700
C  44.35700 41.75600 31.32400
C  44.43600 41.44900 29.81400
C  45.75500 42.23300 31.87200
C  41.91400 42.19700 32.05100
C  42.03400 41.94000 33.53000
H  41.32800 42.86100 34.51600
N  44.80000 40.50700 26.91600
C  45.37800 39.92200 28.05500
C  46.13000 38.72700 27.66600
C  46.10100 38.70100 26.25800
C  45.19800 39.76200 25.83800
C  46.79500 37.94300 28.78200
C  46.76600 37.83400 25.28300
O  46.69100 37.99000 24.06200
C  47.63500 36.73200 25.73700
N  43.60800 42.18000 24.84700
C  44.19200 41.31700 24.02400
C  44.04800 41.61100 22.51200
C  43.18700 42.90900 22.58300
C  43.03100 43.12100 24.13500
C  45.32600 41.61000 21.65200
C  41.88800 42.88600 21.75700
C  40.71400 41.96700 22.35800
N  42.50100 43.94000 26.97600
C  42.10800 44.66800 25.93800
C  41.57600 45.89600 26.40700
C  41.52400 45.70900 27.82200
C  42.14500 44.53200 28.09900
C  41.11900 47.09000 25.57100
C  41.17500 46.33400 29.10900
O  40.77100 47.48300 29.40400
C  41.50700 45.33000 30.28300
C  42.38500 45.91700 31.33900
O  43.42500 46.48600 31.10800
O  41.82300 45.86100 32.59200
C  42.58800 46.59000 33.57900
H  45.57400 39.76600 30.26400
H  45.24100 39.60200 23.61200
H  41.92300 44.94800 23.81300
H  43.49500 43.58800 32.07700
H  44.21300 40.83800 31.89400
H  45.65300 43.12000 32.49700
H  46.50300 42.42400 31.10200
H  46.09600 41.43300 32.52900
H  41.65400 41.31100 31.47300
H  41.19000 42.96400 31.77700
H  43.08800 41.89000 33.80400
H  41.73800 40.89400 33.61900
H  46.09500 37.54800 29.51900
H  47.45700 38.62400 29.31600
H  47.39700 37.12200 28.39300
H  48.48100 37.03300 26.35400
H  48.02600 36.32000 24.80600
H  47.09300 35.97800 26.30700
H  43.44500 40.87900 21.97400
H  43.76000 43.80300 22.33400
H  46.13300 41.49700 22.37600
H  45.58900 42.39100 20.93800
H  45.30900 40.67700 21.09000
H  42.23600 42.56300 20.77600
H  41.60100 43.91400 21.53700
H  40.33600 41.29300 21.58900
H  39.88900 42.49400 22.83600
H  41.06900 41.25900 23.10700
H  40.39400 46.61100 24.91300
H  41.98100 47.48300 25.03300
H  40.75500 47.83400 26.28000
H  40.61900 44.83900 30.67900
H  43.64500 46.33200 33.51300
H  42.21000 46.39300 34.58200
H  42.49700 47.65200 33.35100

