158

Mg -1.98300 17.14900 27.32100
C  -2.58700 14.98900 29.94100
C  -2.54200 19.80600 29.37900
C  -1.98700 19.19900 24.56400
C  -1.94600 14.37300 25.07500
N  -2.53300 17.25800 29.42300
C  -2.67700 16.27800 30.32900
C  -2.99100 16.84400 31.73700
C  -3.11800 18.40200 31.41900
C  -2.69700 18.56000 29.94400
C  -4.45200 19.07600 31.79900
C  -2.11100 16.41400 32.96900
C  -2.71800 15.77900 34.27000
H  -1.90100 15.78100 35.51400
N  -2.00600 19.16900 27.00000
C  -2.23500 20.09300 27.99300
C  -2.16900 21.44800 27.45000
C  -1.89800 21.34300 26.04400
C  -1.97700 19.84700 25.81000
C  -2.36900 22.70700 28.26800
C  -1.66100 22.39800 25.02100
O  -1.55800 22.25600 23.82700
C  -1.36800 23.83200 25.57000
N  -2.17800 16.85500 25.11500
C  -2.05000 17.83100 24.20500
C  -1.73800 17.41500 22.80100
C  -1.53700 15.89100 23.01100
C  -1.97300 15.67000 24.48600
C  -2.82500 17.83200 21.73800
C  -0.05800 15.48300 22.68300
C  0.93100 15.11600 23.75100
N  -2.26900 15.16900 27.40100
C  -2.15700 14.15900 26.43900
C  -2.26900 12.87000 27.09100
C  -2.45700 13.16900 28.43700
C  -2.52400 14.60000 28.57600
C  -2.13400 11.53900 26.48200
C  -2.62100 12.51900 29.68800
O  -2.61200 11.32700 29.99300
C  -2.68000 13.66400 30.69600
C  -1.64700 13.35700 31.65900
O  -0.40600 13.53100 31.45400
O  -2.14900 12.73200 32.75100
C  -1.11900 12.16600 33.63500
H  -2.65100 20.66900 30.04000
H  -1.96600 19.89900 23.72700
H  -1.68000 13.55700 24.39900
H  -3.96500 16.38700 31.91200
H  -2.36300 18.94000 31.99200
H  -4.32500 19.79300 32.61000
H  -5.18800 18.29100 31.97100
H  -4.85300 19.55400 30.90500
H  -1.71000 17.31100 33.44100
H  -1.15800 15.98100 32.66700
H  -2.92600 14.75300 33.96800
H  -3.71000 16.17600 34.48600
H  -2.69700 22.48700 29.28400
H  -3.15500 23.22800 27.72100
H  -1.49100 23.34600 28.35600
H  -0.93400 24.43200 24.77000
H  -0.59900 23.63600 26.31700
H  -2.28000 24.27300 25.97200
H  -0.86500 17.98800 22.48700
H  -2.16000 15.26100 22.37600
H  -3.20100 16.95700 21.20900
H  -2.25900 18.46600 21.05600
H  -3.51300 18.52400 22.22600
H  0.41700 16.26000 22.08300
H  -0.18000 14.64700 21.99400
H  0.46700 14.71300 24.65100
H  1.70600 15.84700 23.98300
H  1.39600 14.27700 23.23200
H  -1.11100 11.16700 26.44400
H  -2.58500 11.53800 25.49000
H  -2.76100 10.91300 27.11600
H  -3.63300 13.47500 31.19100
H  -0.79500 12.97700 34.28800
H  -0.29000 11.76300 33.05400
H  -1.63800 11.45300 34.27500
Mg 41.98900 42.62900 27.44500
C  40.64100 44.82400 29.78900
C  42.34500 40.32100 29.74600
C  43.49600 40.76600 25.06700
C  41.72900 45.24900 24.97700
N  41.56400 42.64800 29.55700
C  40.94400 43.53400 30.30700
C  40.69000 43.00500 31.72600
C  41.39000 41.59800 31.79500
C  41.81200 41.51500 30.24900
C  42.55300 41.48000 32.79700
C  39.27500 43.19300 32.32300
C  39.16200 43.88700 33.70400
H  38.69700 43.02000 34.90100
N  42.82000 40.69100 27.46800
C  42.80300 39.90200 28.50200
C  43.48900 38.63300 28.22400
C  43.92200 38.84800 26.83000
C  43.43700 40.17000 26.37000
C  43.65700 37.57900 29.20600
C  44.70600 37.89500 25.97800
O  45.11500 38.16700 24.83900
C  44.97900 36.57000 26.47200
N  42.74100 43.03400 25.44400
C  43.23100 42.06100 24.64700
C  43.53600 42.58000 23.25300
C  42.69400 43.84100 23.18400
C  42.32100 44.03800 24.60400
C  45.04700 42.74100 22.87200
C  41.51900 43.90300 22.15200
C  40.06900 43.86000 22.74000
N  41.36200 44.59600 27.31200
C  41.39600 45.57400 26.31600
C  40.75700 46.78000 26.76100
C  40.50500 46.60100 28.15900
C  40.82900 45.21300 28.42900
C  40.65600 48.04000 25.91500
C  39.98400 47.15500 29.34700
O  39.47800 48.25900 29.52200
C  40.11800 46.02300 30.47400
C  41.06500 46.63700 31.47600
O  42.28000 46.76700 31.33000
O  40.43500 46.88600 32.66100
C  41.25500 47.56200 33.69200
H  42.32400 39.61500 30.57900
H  43.86700 40.11400 24.27300
H  41.53500 46.10700 24.33000
H  41.29000 43.66800 32.35000
H  40.64100 40.82500 31.97100
H  42.75400 40.42000 32.95400
H  42.15100 41.99500 33.67000
H  43.45400 41.94000 32.39200
H  38.91200 42.19400 32.56600
H  38.58900 43.49200 31.53000
H  38.30600 44.54400 33.55000
H  40.06300 44.48400 33.84400
H  43.13000 37.78200 30.13900
H  44.72600 37.59000 29.42000
H  43.42100 36.55100 28.92900
H  45.29400 36.37100 27.49600
H  45.66200 36.16400 25.72600
H  44.07900 35.95700 26.44700
H  43.17700 41.77700 22.60900
H  43.43600 44.59200 22.91600
H  45.17900 42.45900 21.82800
H  45.64400 42.02600 23.43700
H  45.28700 43.79400 23.02200
H  41.56100 43.03500 21.49300
H  41.72000 44.80800 21.57700
H  39.43400 43.30100 22.05400
H  39.62500 44.85100 22.83500
H  39.98200 43.35100 23.70000
H  40.07500 47.81300 25.02200
H  41.68300 48.29200 25.65200
H  40.12500 48.76400 26.53300
H  39.25800 45.81200 31.10900
H  42.11800 48.11000 33.31600
H  41.60400 46.80100 34.39000
H  40.60300 48.22500 34.26200

