158

Mg 17.49500 -1.04300 26.89500
C  16.57200 0.82000 29.77000
C  19.69900 -2.91700 29.04400
C  18.92300 -2.44100 24.20500
C  15.52100 0.86400 24.99400
N  18.13000 -0.97600 29.16100
C  17.54500 -0.17600 30.11500
C  17.91900 -0.61600 31.53700
C  19.04300 -1.75100 31.22800
C  18.95000 -1.92400 29.71500
C  20.42500 -1.32100 31.79400
C  16.70000 -1.12800 32.32800
C  16.30900 -0.42300 33.69200
H  17.39100 0.22700 34.50700
N  19.10000 -2.41200 26.62600
C  19.81900 -3.05900 27.63900
C  20.73200 -3.99400 26.98300
C  20.39400 -4.04100 25.59700
C  19.46400 -2.89500 25.38000
C  21.66900 -4.91000 27.63000
C  20.85700 -5.04800 24.46000
O  20.22000 -5.09000 23.41400
C  22.07400 -6.01600 24.62500
N  17.20000 -0.97500 24.93700
C  17.87500 -1.60600 23.99100
C  17.30600 -1.33500 22.59600
C  16.16600 -0.32700 22.90700
C  16.25100 -0.12900 24.39200
C  18.34900 -0.97900 21.42900
C  14.72400 -0.81100 22.45300
C  13.83000 -1.64100 23.35000
N  16.35800 0.57700 27.22500
C  15.58600 1.28100 26.31500
C  14.85500 2.32900 26.98100
C  15.23400 2.14100 28.36700
C  16.13700 1.06800 28.41700
C  14.00700 3.47900 26.31400
C  14.97100 2.61800 29.66200
O  14.25700 3.53400 30.06600
C  15.86300 1.82400 30.71100
C  16.69800 2.87300 31.40500
O  17.87000 3.19800 31.21000
O  15.87900 3.35400 32.44900
C  16.44700 4.37600 33.35500
H  20.33800 -3.55100 29.66300
H  19.25500 -2.98900 23.32100
H  14.86400 1.25200 24.21200
H  18.40700 0.24400 31.99700
H  18.81100 -2.75200 31.59000
H  20.53500 -2.01700 32.62600
H  20.46100 -0.27000 32.08300
H  21.14500 -1.52300 31.00200
H  16.79100 -2.19100 32.55300
H  15.81500 -0.94400 31.71900
H  15.73500 -1.09300 34.33300
H  15.60600 0.39800 33.55200
H  21.39600 -5.86600 27.18300
H  21.61000 -4.95100 28.71700
H  22.69600 -4.69000 27.34000
H  22.49000 -6.17200 23.63000
H  21.85200 -6.93500 25.16700
H  22.83600 -5.45700 25.16900
H  16.81700 -2.25200 22.26800
H  16.24700 0.65600 22.44400
H  19.35800 -0.80500 21.80100
H  17.93400 -0.21700 20.77000
H  18.52000 -1.81800 20.75500
H  14.94300 -1.45400 21.60000
H  14.30500 0.13500 22.11000
H  12.99300 -0.97700 23.56600
H  14.31200 -1.96100 24.27400
H  13.34900 -2.48100 22.85000
H  14.53800 3.91700 25.46900
H  13.82700 4.17000 27.13700
H  13.05300 3.00400 26.08200
H  15.36000 1.27700 31.50900
H  16.42100 4.24600 34.43700
H  15.72400 5.17400 33.18500
H  17.42200 4.73300 33.02300
Mg 49.89000 44.22200 43.00500
C  46.55900 44.66200 41.85500
C  49.66700 40.88400 42.40800
C  53.21900 44.09600 43.30800
C  50.19800 47.84800 42.90400
N  48.31400 42.95800 42.13000
C  46.97200 43.28400 41.82400
C  46.17800 42.04400 41.36000
C  47.21000 40.85400 41.55200
C  48.45200 41.56000 42.19700
C  46.78800 39.59200 42.40200
C  45.84900 42.23400 39.82700
C  44.32500 42.33500 39.61100
H  44.01400 43.19700 38.37900
N  51.20300 42.71000 43.00700
C  50.95300 41.38700 42.73800
C  52.19800 40.59300 42.80700
C  53.24500 41.52600 43.07500
C  52.59800 42.83900 43.11700
C  52.33900 39.06300 42.49800
C  54.73200 41.12400 43.21000
O  55.01600 39.94900 43.25900
C  55.83700 42.15600 43.34100
N  51.44200 45.82600 42.99600
C  52.74200 45.44600 43.21600
C  53.67500 46.65500 43.42900
C  52.72500 47.83900 43.38700
C  51.38400 47.18200 42.98200
C  54.66100 46.57000 44.59600
C  53.15300 49.05700 42.51300
C  53.22600 50.34200 43.32500
N  48.66600 45.95300 42.58500
C  48.89500 47.28300 42.68400
C  47.71900 47.94600 42.39000
C  46.76200 46.99400 42.14500
C  47.38200 45.75600 42.23500
C  47.56000 49.45500 42.59300
C  45.34500 46.81800 41.76400
O  44.37900 47.57200 41.70500
C  45.18600 45.23200 41.60300
C  44.13800 44.73300 42.56100
O  44.33500 44.34000 43.71800
O  42.92800 45.12200 42.09000
C  41.86000 44.84200 43.01300
H  49.71400 39.84200 42.08400
H  54.29300 44.10400 43.50500
H  50.12900 48.89500 42.60100
H  45.32400 41.87900 42.01600
H  47.57400 40.51600 40.58200
H  45.70600 39.60000 42.53300
H  47.22500 39.59900 43.40100
H  47.14200 38.73100 41.83600
H  46.17300 41.37600 39.23700
H  46.30700 43.14900 39.45300
H  43.88600 42.72700 40.52800
H  43.90300 41.33100 39.55100
H  53.31500 38.68600 42.19100
H  51.61800 38.91300 41.69500
H  51.93500 38.55200 43.37200
H  55.64100 42.75800 42.45400
H  56.82900 41.71000 43.42200
H  55.59300 42.63000 44.29200
H  54.28200 46.67600 42.52400
H  52.52500 48.23500 44.38300
H  54.83000 45.53200 44.88100
H  54.44600 47.17300 45.47800
H  55.57400 46.93100 44.12200
H  52.54500 49.16400 41.61400
H  54.17400 48.87300 42.18200
H  54.22600 50.72800 43.12600
H  53.12400 50.24400 44.40600
H  52.43600 51.04800 43.07100
H  48.13000 49.91400 43.40100
H  46.51400 49.69500 42.78200
H  47.97600 49.99100 41.73900
H  44.88800 45.00600 40.57900
H  41.84800 43.76000 43.14400
H  40.95800 45.12100 42.46700
H  41.93800 45.52200 43.86100

