158

Mg 26.39400 50.11900 26.71100
C  24.36500 51.38700 29.29100
C  28.58500 48.98700 29.13500
C  28.62900 49.22600 24.21900
C  24.38900 51.55100 24.39100
N  26.40800 50.26800 29.00200
C  25.34400 50.60600 29.81300
C  25.57100 50.06400 31.23200
C  27.04200 49.50800 31.17300
C  27.38300 49.58400 29.69300
C  28.06400 50.22800 32.02900
C  24.54800 49.09600 31.68000
C  24.02900 49.29500 33.10900
H  24.94500 49.01000 34.28000
N  28.33100 49.33800 26.68600
C  29.05000 48.91900 27.77600
C  30.35800 48.44700 27.35700
C  30.39000 48.42300 25.94900
C  29.06900 48.97400 25.57900
C  31.45500 48.19100 28.32000
C  31.50700 48.00300 25.00600
O  31.49100 48.18400 23.78900
C  32.68100 47.35900 25.54700
N  26.53200 50.35400 24.61800
C  27.48100 49.92400 23.80100
C  27.12700 50.17300 22.31500
C  25.72600 50.74500 22.41200
C  25.49200 50.86100 23.91000
C  28.19100 51.04900 21.61400
C  24.58500 49.97700 21.58600
C  23.94500 50.79500 20.48400
N  24.79500 51.22400 26.76500
C  24.11200 51.83000 25.75400
C  23.04700 52.64400 26.29100
C  23.09200 52.43300 27.66300
C  24.17100 51.60200 27.93000
C  22.17000 53.43100 25.36500
C  22.44200 52.75100 28.93100
O  21.41000 53.38700 29.17600
C  23.26800 52.06200 30.05300
C  23.57300 53.16800 31.03700
O  24.60200 53.79100 31.05200
O  22.56500 53.23500 31.92300
C  22.91800 54.13500 33.04000
H  29.24900 48.50300 29.85400
H  29.22200 48.97100 23.33900
H  23.65900 52.01100 23.72200
H  25.51200 50.97400 31.82900
H  26.99400 48.48800 31.55500
H  28.85600 50.75200 31.49300
H  28.61300 49.48200 32.60400
H  27.55800 50.85900 32.76000
H  25.01300 48.11000 31.69300
H  23.63100 49.17800 31.09700
H  23.18600 48.61900 33.25200
H  23.74800 50.34800 33.14000
H  31.62300 47.11800 28.41200
H  31.18600 48.40900 29.35400
H  32.27300 48.81800 27.96600
H  33.41900 48.13800 25.73800
H  33.02100 46.65600 24.78600
H  32.32800 46.70400 26.34400
H  27.00000 49.26400 21.72700
H  25.80200 51.80600 22.17400
H  28.97100 51.16400 22.36700
H  27.84600 52.02400 21.26900
H  28.55600 50.42500 20.79800
H  23.85700 49.71200 22.35200
H  24.98600 49.11300 21.05700
H  22.91900 50.82700 20.85100
H  24.11200 50.34100 19.50700
H  24.35300 51.80500 20.44500
H  21.51400 52.74900 24.82500
H  22.66900 54.09200 24.65600
H  21.58500 54.00800 26.08200
H  22.65100 51.34800 30.59800
H  22.86600 55.16400 32.68500
H  23.92800 54.00100 33.42800
H  22.25800 53.82000 33.84900
Mg -11.76800 38.44900 41.11400
C  -9.68800 35.72200 40.21200
C  -9.60200 40.56600 39.60700
C  -14.08100 40.84800 41.32400
C  -14.05500 36.14100 42.34600
N  -10.00600 38.10800 39.93900
C  -9.27800 36.97400 39.73700
C  -8.06600 37.19000 38.81300
C  -7.95600 38.79200 38.69800
C  -9.32300 39.18500 39.42600
C  -6.72400 39.40300 39.45200
C  -8.18600 36.35100 37.46500
C  -6.78700 35.67400 37.08500
H  -6.10500 36.00600 35.74000
N  -11.80400 40.45600 40.55000
C  -10.81700 41.17200 40.06800
C  -11.16300 42.58800 39.94600
C  -12.57300 42.63100 40.34000
C  -12.89000 41.29300 40.74600
C  -10.28000 43.62600 39.27400
C  -13.40500 43.87600 40.25500
O  -12.88300 44.93700 39.82300
C  -14.90700 43.91000 40.67400
N  -13.79300 38.41600 41.47200
C  -14.50700 39.56600 41.68800
C  -15.94100 39.34700 42.28200
C  -15.84000 37.85900 42.61500
C  -14.51900 37.46200 42.08200
C  -16.41600 40.38300 43.48500
C  -16.99200 36.99700 42.04700
C  -17.75900 36.22300 43.08500
N  -11.84500 36.32200 41.29800
C  -12.82600 35.54000 41.90800
C  -12.31600 34.14800 42.10100
C  -11.08100 34.18600 41.35500
C  -10.89600 35.48600 40.87700
C  -12.95600 33.08700 42.89500
C  -9.96600 33.40900 40.76800
O  -9.75200 32.23300 40.71100
C  -8.93300 34.40900 40.08300
C  -7.62400 34.33700 40.84400
O  -6.87300 33.38700 40.80700
O  -7.41900 35.41500 41.67200
C  -6.22400 35.66400 42.46400
H  -8.86200 41.31800 39.32500
H  -14.83100 41.62600 41.48000
H  -14.70800 35.55600 42.99700
H  -7.16900 36.79500 39.28900
H  -7.98600 39.18100 37.68000
H  -6.21700 38.70700 40.12000
H  -7.04600 40.24800 40.06000
H  -6.03500 39.84300 38.73100
H  -8.66800 36.88800 36.64800
H  -8.82600 35.49300 37.67400
H  -6.81600 34.59400 37.23200
H  -6.01500 35.92100 37.81400
H  -10.60500 43.86800 38.26200
H  -9.21200 43.41300 39.30200
H  -10.21200 44.61700 39.72400
H  -15.42500 44.82000 40.37100
H  -14.93500 43.87700 41.76300
H  -15.45500 43.05300 40.28300
H  -16.59900 39.53600 41.43300
H  -15.76800 37.70800 43.69300
H  -17.29900 40.90500 43.11600
H  -15.64300 41.13600 43.63200
H  -16.79400 39.99700 44.43200
H  -16.63700 36.19900 41.39500
H  -17.74800 37.53500 41.47600
H  -17.62300 36.59700 44.10000
H  -17.39500 35.19700 43.13700
H  -18.81400 36.24300 42.81400
H  -12.08400 32.55800 43.28100
H  -13.55200 32.44400 42.24800
H  -13.51600 33.48100 43.74400
H  -8.75600 34.03200 39.07600
H  -6.16300 35.04300 43.35800
H  -6.15800 36.70600 42.78000
H  -5.43100 35.41500 41.76000

