158

Mg 35.73500 1.25100 30.25400
C  33.48800 2.19100 32.74600
C  38.24100 1.10500 32.52600
C  37.83500 0.43600 27.67600
C  33.07100 1.48900 27.85200
N  35.82900 1.77200 32.38200
C  34.78600 2.02000 33.27200
C  35.31200 2.12900 34.71400
C  36.86800 2.00200 34.56600
C  37.01000 1.56700 33.07200
C  37.66000 3.26300 34.90200
C  34.72500 0.96900 35.56500
C  34.16300 1.25800 37.00800
H  34.45900 2.55500 37.59700
N  37.84400 1.05200 30.07800
C  38.65900 0.84600 31.14000
C  39.89700 0.28700 30.70500
C  39.88700 0.31000 29.29500
C  38.46400 0.63700 28.91400
C  41.01500 -0.02700 31.73200
C  40.93200 -0.05000 28.36400
O  40.77700 0.01100 27.15800
C  42.32500 -0.41600 28.90500
N  35.54400 1.10500 28.09100
C  36.59100 0.68300 27.24600
C  36.15000 0.41800 25.85100
C  34.55300 0.63400 25.95400
C  34.28600 0.95600 27.41300
C  36.73000 1.39800 24.85400
C  33.71900 -0.62400 25.50800
C  33.08600 -0.59000 24.10300
N  33.71000 1.80300 30.20200
C  32.84300 1.95200 29.18400
C  31.56700 2.37600 29.78400
C  31.75900 2.48700 31.14100
C  33.08200 2.14000 31.36000
C  30.28700 2.57200 29.02500
C  31.17000 2.87300 32.37500
O  30.02500 3.17500 32.64200
C  32.19400 2.71500 33.48900
C  32.37400 4.07600 34.00900
O  33.30900 4.83900 33.72900
O  31.32700 4.31300 34.92500
C  31.29000 5.69700 35.34900
H  38.88800 0.95700 33.39400
H  38.48600 0.27200 26.81400
H  32.28500 1.46300 27.09400
H  35.09800 3.08700 35.18900
H  37.26600 1.16000 35.13100
H  37.01000 4.06400 35.25700
H  38.21700 3.59700 34.02600
H  38.41600 2.89700 35.59600
H  35.49000 0.21500 35.75000
H  33.90100 0.44300 35.08200
H  34.51800 0.43300 37.62700
H  33.09300 1.12800 36.84700
H  41.97900 0.45100 31.55600
H  41.14100 -1.09900 31.88600
H  40.79200 0.35900 32.72700
H  42.15000 -1.32000 29.48900
H  42.58600 0.44500 29.52000
H  43.09100 -0.52700 28.13800
H  36.30800 -0.62700 25.58400
H  34.25600 1.43100 25.27200
H  37.53300 0.77500 24.46100
H  37.07700 2.33100 25.29900
H  36.03800 1.48200 24.01600
H  32.95500 -0.88700 26.24000
H  34.28900 -1.55000 25.43100
H  33.33700 0.35800 23.62600
H  32.01600 -0.74700 24.24000
H  33.49500 -1.41400 23.51800
H  30.03600 3.61800 29.20700
H  29.64000 1.77700 29.39300
H  30.46200 2.33700 27.97500
H  31.66600 2.11700 34.23200
H  30.31900 5.89300 35.80400
H  31.33700 6.28300 34.43100
H  32.14700 6.05000 35.92300
Mg -9.55400 39.30700 42.11900
C  -8.96700 35.87800 41.74800
C  -6.55700 39.92000 40.71800
C  -10.58900 42.51600 41.71000
C  -12.79700 38.60100 43.48100
N  -8.08400 38.06100 41.25800
C  -7.94100 36.66900 41.22900
C  -6.70400 36.17800 40.48200
C  -5.84500 37.41400 40.65900
C  -6.90100 38.61000 40.93200
C  -4.89700 37.44000 41.90500
C  -7.00900 35.71800 39.01000
C  -5.77600 35.18800 38.28000
H  -4.99500 36.02500 37.29200
N  -8.73700 40.98300 41.24200
C  -7.46700 41.06000 40.75800
C  -7.20600 42.41500 40.53400
C  -8.43000 43.08900 40.54800
C  -9.31600 42.17100 41.21900
C  -5.81600 42.88300 40.12800
C  -8.70100 44.50000 40.00300
O  -7.78200 45.08600 39.51100
C  -10.10500 45.12100 39.80300
N  -11.46200 40.40400 42.54200
C  -11.54500 41.75800 42.30100
C  -12.88100 42.33500 42.77300
C  -13.65500 41.00800 43.16200
C  -12.53900 39.94300 43.16100
C  -12.90900 43.34400 44.01000
C  -14.75300 40.65000 42.13100
C  -16.18400 40.77100 42.63000
N  -10.71200 37.63200 42.58900
C  -11.96100 37.50900 43.17200
C  -12.25900 36.09700 43.19600
C  -11.09700 35.42300 42.70400
C  -10.16300 36.41600 42.30700
C  -13.49500 35.44300 43.60900
C  -10.50500 34.13700 42.45600
O  -10.90200 33.03900 42.67900
C  -9.12300 34.38300 41.79200
C  -8.11500 33.65400 42.58600
O  -8.16400 33.29900 43.76300
O  -7.06700 33.32100 41.74800
C  -5.87300 32.68500 42.33300
H  -5.58500 40.09100 40.25100
H  -10.90800 43.55800 41.77600
H  -13.79400 38.45800 43.90300
H  -6.18300 35.42000 41.06700
H  -5.30600 37.74100 39.77100
H  -5.35600 37.87200 42.79400
H  -4.09400 38.11900 41.61900
H  -4.59600 36.40200 42.04800
H  -7.48000 36.51100 38.43100
H  -7.69000 34.87000 38.92300
H  -6.05400 34.25300 37.79400
H  -5.02800 35.00700 39.05200
H  -5.60600 42.61400 39.09300
H  -5.00700 42.64400 40.81800
H  -5.73200 43.96600 40.03700
H  -10.45000 45.55700 40.74000
H  -10.84600 44.36400 39.54600
H  -10.10300 45.95400 39.10000
H  -13.35600 42.89600 41.96800
H  -14.10400 41.07400 44.15300
H  -13.14500 42.72100 44.87300
H  -13.75700 44.01900 43.89700
H  -11.87900 43.70000 43.99500
H  -14.55000 39.64700 41.75300
H  -14.53700 41.28600 41.27300
H  -16.65100 41.66800 42.22400
H  -16.32900 40.80500 43.71000
H  -16.65700 39.88400 42.21000
H  -13.67900 35.76300 44.63400
H  -13.34600 34.36400 43.57000
H  -14.35800 35.78600 43.03800
H  -9.06600 34.14700 40.72900
H  -5.23200 32.21400 41.58800
H  -6.14100 31.91700 43.05900
H  -5.40700 33.49000 42.90100

