158

Mg 47.98400 15.44700 28.18700
C  45.81000 15.38900 30.87100
C  50.03700 17.50000 29.79700
C  49.86600 15.53900 25.29900
C  45.42900 13.89800 26.16200
N  47.87300 16.36700 30.09100
C  46.96400 16.16700 31.09100
C  47.50400 16.74300 32.42000
C  48.50600 17.79200 31.89500
C  48.84200 17.26500 30.49700
C  47.99300 19.29700 31.88500
C  48.02300 15.73700 33.46400
C  47.81100 15.98000 35.03000
H  49.09800 16.12200 35.80400
N  49.79000 16.27000 27.68800
C  50.49700 17.11600 28.47100
C  51.68800 17.43300 27.80700
C  51.67900 16.82500 26.52600
C  50.44000 16.08600 26.44600
C  52.68600 18.38300 28.40900
C  52.79100 16.82500 25.41700
O  52.63700 16.17600 24.35200
C  54.10400 17.55000 25.65200
N  47.63000 14.98900 25.91400
C  48.66600 14.95100 25.04100
C  48.31100 14.25100 23.70900
C  46.81500 13.85300 24.00100
C  46.59100 14.24300 25.44200
C  48.41200 15.16800 22.46000
C  46.51700 12.33800 23.61500
C  46.92600 11.29700 24.64300
N  46.06800 14.71400 28.33200
C  45.18400 14.08300 27.49200
C  43.94900 13.79800 28.28200
C  44.19000 14.27500 29.57200
C  45.48300 14.85800 29.58800
C  42.72700 13.07900 27.75100
C  43.56600 14.40300 30.87200
O  42.48800 14.09400 31.27800
C  44.65000 15.10200 31.80700
C  44.01000 16.22800 32.50000
O  43.46200 17.15200 31.91200
O  43.85600 15.86700 33.76900
C  42.98100 16.74100 34.60800
H  50.63600 18.12800 30.46000
H  50.52100 15.49900 24.42600
H  44.73300 13.19300 25.70300
H  46.65500 17.27900 32.84400
H  49.40300 17.79700 32.51400
H  48.02300 19.62500 30.84600
H  48.74100 19.90500 32.39500
H  46.96300 19.37100 32.23500
H  49.08700 15.51700 33.37700
H  47.56500 14.77700 33.22400
H  47.17800 15.19500 35.44400
H  47.20900 16.85800 35.26500
H  52.51500 18.36800 29.48500
H  52.67600 19.32300 27.85900
H  53.70500 18.05500 28.20200
H  53.98900 18.59400 25.94300
H  54.57100 17.56200 24.66700
H  54.65800 17.00000 26.41300
H  48.90300 13.37900 23.43100
H  46.09100 14.39300 23.39000
H  48.77000 16.14900 22.77400
H  47.45500 15.22000 21.94100
H  49.15100 14.73200 21.78700
H  46.83200 12.06700 22.60700
H  45.43100 12.27500 23.55400
H  47.67400 11.72600 25.31100
H  47.42000 10.46700 24.13800
H  46.09500 11.03300 25.29600
H  42.59800 13.06100 26.66800
H  41.91900 13.49500 28.35300
H  42.70600 12.02400 28.02600
H  45.04100 14.36500 32.50800
H  42.53500 16.05700 35.33000
H  42.15000 17.20800 34.07900
H  43.46100 17.50000 35.22600
Mg -5.30100 24.38500 26.24900
C  -3.84200 26.60600 28.65400
C  -6.33100 22.41200 28.90600
C  -6.72800 22.48200 23.99300
C  -4.16600 26.64100 23.67100
N  -5.31200 24.62200 28.50700
C  -4.55100 25.53200 29.20100
C  -4.55700 25.20900 30.74500
C  -4.97200 23.66500 30.73500
C  -5.59400 23.58100 29.28900
C  -3.90800 22.53300 30.84700
C  -5.53200 26.12600 31.54300
C  -5.16600 26.20500 33.01400
H  -6.32700 26.21300 33.95300
N  -6.42100 22.68700 26.41500
C  -6.81700 22.00000 27.60800
C  -7.56900 20.87000 27.20500
C  -7.62000 20.85300 25.77600
C  -6.84300 21.99800 25.33200
C  -8.13600 19.86700 28.29100
C  -8.39400 19.89400 24.86000
O  -8.38000 19.96800 23.62700
C  -9.31100 18.80300 25.40900
N  -5.21200 24.52900 24.14300
C  -6.04600 23.62200 23.50500
C  -6.21800 24.06800 22.01300
C  -5.22300 25.26100 21.83600
C  -4.82100 25.50900 23.27300
C  -6.11800 22.96600 20.92500
C  -5.68800 26.57900 21.08000
C  -6.18100 26.51400 19.60300
N  -4.21700 26.21200 26.08400
C  -3.72400 26.93300 25.00400
C  -2.94200 28.08300 25.49200
C  -2.93400 27.94300 26.84000
C  -3.76200 26.82800 27.22600
C  -2.25400 29.13700 24.66300
C  -2.47700 28.60800 28.11400
O  -1.83100 29.61000 28.28500
C  -2.99300 27.69700 29.26400
C  -1.84500 27.20700 30.03200
O  -0.86900 26.51900 29.61000
O  -2.04800 27.53600 31.35400
C  -1.00400 27.02900 32.32800
H  -6.61200 21.70900 29.69300
H  -7.07800 21.76100 23.25000
H  -3.71000 27.28700 22.91800
H  -3.57400 25.34300 31.19700
H  -5.76000 23.51600 31.47300
H  -3.84000 22.04600 31.82000
H  -2.91600 22.96600 30.71600
H  -3.97700 21.81200 30.03200
H  -6.55100 25.74000 31.52100
H  -5.60400 27.15500 31.19100
H  -4.68300 27.14800 33.27300
H  -4.38500 25.48300 33.25000
H  -9.21400 19.73300 28.19600
H  -8.03900 20.17500 29.33200
H  -7.42300 19.04200 28.28700
H  -9.11000 17.92000 24.80100
H  -10.28200 19.29400 25.35200
H  -9.09500 18.55600 26.44800
H  -7.23300 24.46200 21.95200
H  -4.31700 25.02100 21.28000
H  -5.62500 22.12200 21.40700
H  -5.57100 23.31600 20.04900
H  -7.10700 22.68100 20.56700
H  -4.80800 27.21900 21.01600
H  -6.39600 27.14100 21.68800
H  -6.26700 25.48200 19.26400
H  -5.44400 26.89400 18.89500
H  -7.05800 27.14000 19.43800
H  -1.45500 29.52300 25.29500
H  -2.91100 29.98200 24.45900
H  -1.74200 28.75200 23.78000
H  -3.59700 28.33500 29.90900
H  -1.22100 26.01200 32.65600
H  -0.95700 27.77000 33.12600
H  -0.00200 26.98400 31.90000

