158

Mg 47.94100 15.30100 28.53100
C  45.91900 14.94800 31.31200
C  49.88400 17.49700 30.35200
C  49.66500 16.06600 25.74400
C  45.67100 13.31400 26.75600
N  47.86400 16.10500 30.66200
C  46.98200 15.74300 31.61000
C  47.26500 16.54300 32.92700
C  48.54000 17.39200 32.56700
C  48.76200 17.00100 31.05200
C  48.46700 18.81100 32.90000
C  47.36300 15.61800 34.18200
C  46.87800 16.24500 35.49300
H  47.87500 16.15500 36.69200
N  49.57600 16.59600 28.10900
C  50.23300 17.38700 29.01700
C  51.35400 17.93200 28.37500
C  51.43600 17.48900 27.04000
C  50.20900 16.65700 26.89700
C  52.46500 18.70300 29.15800
C  52.52500 17.54400 25.98200
O  52.38500 16.95400 24.89300
C  53.88000 18.14100 26.22900
N  47.63100 14.84900 26.51500
C  48.57000 15.12600 25.56700
C  48.33800 14.30500 24.26800
C  47.19000 13.35700 24.71300
C  46.77300 13.86200 26.07400
C  48.00100 15.25800 23.09300
C  47.62600 11.83500 24.48900
C  48.11700 11.05900 25.72300
N  46.20000 14.21800 28.89700
C  45.30700 13.52500 28.10600
C  44.06000 13.17100 28.84800
C  44.29700 13.70000 30.10600
C  45.59300 14.31000 30.06200
C  42.89700 12.42200 28.32100
C  43.80200 13.71900 31.43500
O  42.83200 13.15300 31.85600
C  44.73500 14.53500 32.26300
C  43.92200 15.71000 32.66300
O  43.74500 16.77600 32.11200
O  43.47300 15.44400 33.91700
C  42.47600 16.39700 34.43100
H  50.51600 18.01500 31.07600
H  50.17800 16.28000 24.80400
H  44.98800 12.72400 26.14000
H  46.46800 17.26400 33.11400
H  49.40000 16.93900 33.06100
H  47.62200 18.86600 33.58600
H  48.17700 19.44300 32.06100
H  49.43200 19.13500 33.29000
H  48.42400 15.40100 34.30000
H  46.84100 14.69100 33.94700
H  45.95000 15.70900 35.69200
H  46.57400 17.29100 35.44200
H  52.41200 18.69500 30.24700
H  52.50600 19.75200 28.86200
H  53.39200 18.18600 28.91300
H  54.29800 17.47100 26.98000
H  53.60600 19.12800 26.60400
H  54.48600 18.15400 25.32300
H  49.27500 13.80300 24.02500
H  46.30700 13.50200 24.08900
H  47.39600 14.76100 22.33500
H  48.90900 15.50500 22.54400
H  47.42400 16.12000 23.42700
H  48.45000 11.77800 23.77800
H  46.87800 11.25100 23.95200
H  47.80300 11.67700 26.56400
H  49.18800 10.87600 25.64600
H  47.55600 10.15100 25.94800
H  42.92000 11.46400 28.84100
H  42.89200 12.27500 27.24100
H  41.99900 12.97900 28.58600
H  44.96900 13.87500 33.09800
H  43.02900 17.12900 35.01900
H  41.91400 15.72100 35.07600
H  41.70400 16.79300 33.77000
Mg 47.32000 24.59100 28.78000
C  48.04700 26.89400 31.32800
C  46.43900 22.31600 31.13300
C  47.05800 22.39100 26.30300
C  48.55200 26.96600 26.44100
N  47.28800 24.69900 30.97300
C  47.47300 25.72000 31.82300
C  47.09200 25.33600 33.23000
C  46.95000 23.79700 33.18400
C  47.01700 23.54400 31.66100
C  48.12200 23.01800 33.95000
C  45.80800 26.10000 33.82500
C  45.98100 26.61400 35.33600
H  44.77100 26.51000 36.18200
N  46.71400 22.56800 28.72400
C  46.35600 21.88100 29.83900
C  45.89100 20.59400 29.30400
C  46.16400 20.56000 27.89700
C  46.63800 21.89200 27.58300
C  45.39000 19.53500 30.22700
C  45.93300 19.48400 26.81600
O  46.39600 19.47500 25.68200
C  45.45800 18.10400 27.28300
N  47.87500 24.67200 26.66800
C  47.54900 23.64600 25.86700
C  47.70800 24.05300 24.37900
C  47.84500 25.58500 24.41600
C  48.14300 25.75600 25.93100
C  48.94200 23.36100 23.73900
C  46.52900 26.34100 24.05100
C  45.24700 26.02200 24.83000
N  48.15600 26.46800 28.83000
C  48.49500 27.32900 27.81700
C  48.87900 28.60300 28.24300
C  48.70400 28.52400 29.66500
C  48.32000 27.14000 29.97500
C  49.32800 29.79200 27.46500
C  48.86700 29.21300 30.92200
O  49.16000 30.38300 31.22100
C  48.29400 28.20500 32.03300
C  49.40600 28.04400 33.05700
O  50.63300 27.90700 32.87100
O  48.97900 28.33600 34.30400
C  49.87400 28.39300 35.41200
H  46.21200 21.58000 31.90600
H  47.00000 21.73500 25.43200
H  48.81800 27.79700 25.78400
H  47.97100 25.49500 33.85500
H  45.96900 23.50700 33.56100
H  47.91500 22.89400 35.01300
H  48.92600 23.74500 33.83600
H  48.33000 22.12600 33.35900
H  45.02600 25.34600 33.92200
H  45.45000 26.94900 33.24200
H  46.30600 27.65300 35.28800
H  46.85100 26.05500 35.68100
H  44.68000 18.83100 29.79300
H  44.92600 20.06400 31.05900
H  46.21600 18.90500 30.55700
H  45.64300 17.30800 26.56200
H  44.38100 18.19900 27.42100
H  46.01300 17.92200 28.20400
H  46.78500 23.78800 23.86300
H  48.58000 25.94000 23.69400
H  48.75500 22.90800 22.76600
H  49.27600 22.50900 24.33200
H  49.72200 24.10500 23.58200
H  46.30600 26.12200 23.00700
H  46.78300 27.40100 24.06500
H  45.25600 25.16000 25.49700
H  44.39400 25.96800 24.15400
H  45.04500 26.86700 25.48900
H  49.67800 30.62900 28.06800
H  48.49100 30.16200 26.87300
H  50.15100 29.40300 26.86400
H  47.36500 28.62700 32.41400
H  50.75400 27.76000 35.29900
H  49.42900 28.10500 36.36500
H  50.12800 29.44800 35.51400

