158

Mg 1.90400 7.71800 26.55100
C  2.49100 9.51000 29.45900
C  2.01200 4.85100 28.37700
C  2.07100 6.20800 23.67400
C  2.39400 10.83100 24.71600
N  2.03000 7.25900 28.82000
C  2.35200 8.13700 29.81100
C  2.35200 7.39700 31.18900
C  2.27600 5.91100 30.68500
C  2.08900 5.99700 29.18600
C  3.49800 5.00900 31.02900
C  1.09900 7.88600 32.05900
C  1.39800 7.97900 33.57600
H  2.36000 7.06100 34.09700
N  1.94400 5.77600 26.09200
C  1.89300 4.72200 26.96000
C  1.98800 3.54600 26.15100
C  1.86200 3.90500 24.81600
C  1.98900 5.38400 24.79500
C  2.06400 2.17700 26.77300
C  1.77100 2.99900 23.64400
O  1.71200 3.46600 22.53500
C  1.91800 1.45500 23.78800
N  1.89900 8.42100 24.40400
C  2.00900 7.53100 23.45200
C  2.34700 8.21500 22.08100
C  2.08800 9.69700 22.39900
C  2.10600 9.69500 23.93400
C  3.76300 7.86600 21.60900
C  0.71900 10.36000 21.95300
C  0.93800 11.76200 21.33600
N  2.38200 9.68500 26.89200
C  2.50200 10.86900 26.11000
C  2.80800 11.99800 26.94600
C  2.88500 11.53700 28.22700
C  2.54400 10.14700 28.20000
C  2.83000 13.54400 26.57500
C  3.10000 11.92800 29.59700
O  3.56600 12.98400 30.04800
C  2.68800 10.66100 30.47800
C  3.81100 10.40300 31.37600
O  4.63800 9.55500 31.17700
O  3.79500 11.36800 32.40400
C  4.94500 11.40500 33.36300
H  2.07400 3.88600 28.88400
H  2.27600 5.62000 22.77700
H  2.54200 11.74400 24.13400
H  3.29300 7.61400 31.69400
H  1.47400 5.39000 31.20900
H  4.30500 5.58900 31.47600
H  3.92200 4.37400 30.25100
H  3.18500 4.37100 31.85600
H  0.22400 7.28800 31.80700
H  0.82100 8.89200 31.74500
H  0.48600 7.88400 34.16500
H  1.77500 8.96400 33.85000
H  2.23400 2.23400 27.84800
H  2.80300 1.47300 26.38900
H  1.04700 1.78900 26.71900
H  2.89400 1.12700 24.14500
H  1.71200 1.09200 22.78100
H  1.02500 1.14400 24.33000
H  1.66600 7.96300 21.26800
H  2.87400 10.24100 21.87500
H  3.97600 6.79800 21.57200
H  4.47300 8.32400 22.29800
H  3.84900 8.30900 20.61700
H  0.00800 10.55500 22.75600
H  0.22400 9.79500 21.16300
H  1.12500 11.60500 20.27400
H  1.83700 12.26800 21.68700
H  0.10600 12.45100 21.48000
H  3.01300 13.57600 25.50100
H  3.72700 13.95300 27.04100
H  1.94600 14.13600 26.81100
H  1.73300 10.82200 30.97900
H  4.79900 10.85400 34.29300
H  5.03900 12.45700 33.63400
H  5.83800 11.08000 32.83000
Mg 46.16700 24.99500 28.77400
C  47.11200 27.44100 31.28800
C  45.18100 22.89000 31.19500
C  46.08900 22.64400 26.46200
C  47.38900 27.28000 26.39800
N  46.25500 25.16300 30.99300
C  46.51900 26.25400 31.80900
C  45.92800 26.02400 33.23200
C  45.71000 24.41400 33.22400
C  45.68700 24.11700 31.69100
C  46.66700 23.35500 33.88400
C  44.65800 26.83700 33.57500
C  44.87900 27.92400 34.69500
H  43.93500 27.89000 35.88600
N  45.68200 23.09300 28.80200
C  45.15600 22.40200 29.88000
C  44.75200 21.11100 29.43100
C  45.03000 20.97200 28.04800
C  45.68900 22.24900 27.76300
C  44.23800 20.07600 30.52800
C  44.69700 19.85700 27.06500
O  45.08100 19.86400 25.86500
C  43.96900 18.62400 27.49300
N  46.47200 25.02900 26.68400
C  46.49700 23.88800 26.00000
C  46.96700 24.10700 24.51600
C  46.89100 25.68700 24.43100
C  46.88000 26.06200 25.91500
C  48.29500 23.47400 24.13000
C  45.64600 26.25500 23.68200
C  44.27100 25.91800 24.29600
N  47.11700 26.97100 28.75900
C  47.47400 27.76700 27.68800
C  48.08000 29.05300 28.20500
C  47.92000 28.97400 29.61200
C  47.34800 27.67200 29.91500
C  48.68500 30.08300 27.31300
C  48.09800 29.60900 30.90100
O  48.43700 30.76800 31.06700
C  47.59000 28.66600 31.98900
C  48.65600 28.31700 32.89000
O  49.48500 27.39900 32.65600
O  48.59000 29.02100 34.07400
C  49.62400 28.76100 35.04900
H  44.76600 22.17400 31.90700
H  46.12200 22.00100 25.58000
H  47.74400 28.06000 25.72200
H  46.68800 26.30600 33.96000
H  44.75800 24.15500 33.68800
H  46.98600 22.61500 33.14900
H  46.11600 22.80600 34.64700
H  47.55700 23.73800 34.38500
H  43.75900 26.28900 33.85500
H  44.39100 27.35900 32.65600
H  44.66700 28.85700 34.17200
H  45.90700 27.97800 35.05300
H  43.16500 20.08100 30.72300
H  44.80800 20.23900 31.44200
H  44.54300 19.09700 30.16000
H  43.30700 18.86900 28.32300
H  44.65700 17.81500 27.73900
H  43.37200 18.31000 26.63700
H  46.16600 23.69500 23.90300
H  47.79900 26.06400 23.96000
H  48.38000 22.58800 24.75800
H  49.08800 24.21100 24.25600
H  48.17600 23.11600 23.10700
H  45.69800 25.92500 22.64400
H  45.65900 27.33400 23.53100
H  43.63400 25.39300 23.58400
H  43.67600 26.80500 24.51500
H  44.26000 25.28600 25.18500
H  48.84700 29.70300 26.30400
H  49.59800 30.53700 27.69800
H  48.05100 30.96700 27.24400
H  46.74800 29.07500 32.54700
H  50.63400 28.58400 34.68100
H  49.37400 27.85500 35.60000
H  49.68500 29.62700 35.70900

