158

Mg 16.52400 -1.67100 28.04800
C  15.51100 0.22100 30.72700
C  18.60300 -3.36900 30.03400
C  17.59900 -3.34500 25.26500
C  14.44500 0.19800 25.93300
N  16.97800 -1.52500 30.14500
C  16.44300 -0.73800 31.02500
C  16.95700 -0.99700 32.44400
C  18.17300 -2.00100 32.15800
C  17.93800 -2.34300 30.68300
C  19.64200 -1.46000 32.41600
C  15.85900 -1.66600 33.35700
C  15.78500 -1.26100 34.90900
H  17.04700 -0.63000 35.46700
N  17.73600 -3.33100 27.69600
C  18.51600 -3.82700 28.70600
C  19.39100 -4.77200 28.04600
C  19.03800 -4.83200 26.57600
C  18.04800 -3.84800 26.46400
C  20.35700 -5.59800 28.74100
C  19.65100 -5.70300 25.50500
O  19.24800 -5.73700 24.35100
C  20.90500 -6.39800 25.71500
N  16.25400 -1.46700 25.93100
C  16.85700 -2.26300 25.02800
C  16.46000 -1.91000 23.53700
C  15.27200 -0.92200 23.73300
C  15.29700 -0.73900 25.29400
C  17.63600 -1.43000 22.59400
C  13.85900 -1.28000 23.23700
C  13.18900 -0.29100 22.34300
N  15.22300 -0.09300 28.23000
C  14.44500 0.52600 27.28300
C  13.61100 1.49200 28.06900
C  13.95300 1.36100 29.36200
C  15.00800 0.44300 29.42500
C  12.64500 2.44800 27.59000
C  13.79200 1.92500 30.66200
O  12.95800 2.74900 31.01900
C  14.72700 1.17300 31.64900
C  15.63200 2.16600 32.25400
O  16.45900 2.86900 31.65000
O  15.31800 2.19900 33.58900
C  16.12300 3.16000 34.30700
H  19.29800 -3.87600 30.70700
H  18.15800 -3.81400 24.45300
H  13.73100 0.78700 25.35400
H  17.33700 -0.02700 32.76500
H  18.11400 -2.94100 32.70600
H  20.16600 -1.30600 31.47300
H  20.22800 -2.11600 33.06000
H  19.47300 -0.46100 32.81800
H  16.05300 -2.73600 33.28500
H  14.89600 -1.52100 32.86700
H  15.57200 -2.14700 35.50700
H  14.98900 -0.62400 35.29300
H  21.35800 -5.17200 28.68100
H  20.47700 -6.67900 28.66800
H  19.98700 -5.55100 29.76600
H  21.32000 -6.57700 24.72300
H  20.75800 -7.36800 26.18900
H  21.55400 -5.75800 26.31300
H  16.10300 -2.86000 23.13800
H  15.51800 0.03200 23.26600
H  17.35500 -0.48900 22.12200
H  17.74400 -2.25100 21.88500
H  18.49900 -1.48600 23.25800
H  13.21600 -1.49100 24.09200
H  14.04500 -2.19800 22.68000
H  12.45800 -0.82200 21.73200
H  13.96400 -0.07200 21.60900
H  12.69600 0.56900 22.79700
H  12.08000 1.83100 26.89100
H  13.01200 3.23900 26.93600
H  12.03300 2.88400 28.38000
H  14.13500 0.47500 32.24200
H  15.55700 4.08600 34.19800
H  17.07000 3.38200 33.81600
H  16.23400 2.95000 35.37100
Mg 55.12500 25.23100 44.15200
C  52.35000 27.54400 43.55600
C  53.21600 22.86700 42.46700
C  57.83200 23.60300 43.62000
C  56.91000 28.11500 45.02900
N  53.16000 25.32400 42.97300
C  52.16800 26.32000 42.94000
C  50.85300 25.83000 42.28600
C  51.11100 24.27000 42.47100
C  52.60000 24.10800 42.62300
C  50.30400 23.47000 43.51700
C  50.57900 26.48300 40.83700
C  50.77900 25.64600 39.60900
H  52.20400 25.29700 39.21800
N  55.45800 23.37700 43.34800
C  54.58700 22.53300 42.64700
C  55.29100 21.31100 42.45500
C  56.66900 21.54600 42.80000
C  56.75800 22.91500 43.23600
C  54.57700 20.12200 41.84400
C  57.68500 20.49000 42.71700
O  57.46000 19.35600 42.17000
C  59.12600 20.59400 43.21900
N  57.10000 25.82200 44.17300
C  58.04600 24.89500 44.04300
C  59.46100 25.53300 44.13400
C  59.16900 26.99900 44.56700
C  57.64100 26.99300 44.63400
C  60.37200 24.71100 45.11800
C  59.62900 28.11400 43.53000
C  58.65900 28.64400 42.43100
N  54.67800 27.42600 44.56400
C  55.51200 28.41800 44.97400
C  54.72700 29.58000 45.10000
C  53.44500 29.27200 44.60800
C  53.53800 27.95800 44.18700
C  55.12900 30.92700 45.60800
C  52.11900 29.83300 44.40600
O  51.58700 30.89400 44.71400
C  51.40100 28.77300 43.64400
C  51.13500 29.35900 42.37700
O  51.98800 29.70600 41.58800
O  49.76200 29.51700 42.16300
C  49.26500 30.26700 40.98500
H  52.59600 22.05200 42.08800
H  58.77100 23.05300 43.52000
H  57.64300 28.86700 45.32700
H  50.15800 26.18500 43.04700
H  50.82700 23.70400 41.58400
H  49.73900 24.24000 44.04300
H  50.89400 22.88200 44.22000
H  49.52700 22.81100 43.13200
H  51.36200 27.24100 40.83700
H  49.56200 26.87200 40.78300
H  50.43200 26.18900 38.72900
H  50.15200 24.75400 39.59500
H  55.21700 19.41700 41.31200
H  53.70100 20.36100 41.24100
H  54.04000 19.62500 42.65200
H  59.41000 19.58100 43.50300
H  59.01000 21.10800 44.17300
H  59.77700 21.03000 42.46000
H  60.00800 25.60700 43.19400
H  59.52500 27.27000 45.56100
H  61.17800 25.35400 45.47100
H  60.98500 23.91000 44.70300
H  59.80200 24.20600 45.89800
H  60.46300 27.76000 42.92400
H  59.90500 28.94500 44.18000
H  58.06900 27.79200 42.09300
H  59.25400 28.91500 41.56000
H  58.04400 29.42400 42.88000
H  54.26400 31.20600 46.21000
H  55.13800 31.65000 44.79300
H  56.03600 30.92900 46.21400
H  50.45300 28.56200 44.13900
H  49.43100 29.57200 40.16200
H  49.78600 31.20500 40.79500
H  48.29900 30.77300 40.97200

