158

Mg 2.09500 -1.64400 43.71400
C  5.50400 -1.41200 43.18500
C  1.68100 1.18000 41.75500
C  -1.19500 -2.53300 43.30600
C  2.67600 -4.76700 45.13300
N  3.45600 -0.41400 42.39200
C  4.77400 -0.42700 42.49300
C  5.34300 0.72000 41.59100
C  4.13600 1.76200 41.55700
C  3.05200 0.76500 41.82700
C  4.24800 3.04700 42.44400
C  5.77800 0.15400 40.17300
C  6.44600 1.07300 39.14700
H  5.83600 1.22700 37.72000
N  0.42300 -0.70800 42.81300
C  0.48500 0.46300 42.06800
C  -0.88900 0.90600 41.87700
C  -1.77200 -0.14200 42.26900
C  -0.86900 -1.19000 42.88500
C  -1.18500 2.17600 41.20500
C  -3.36600 -0.21900 42.23200
O  -3.97000 0.71800 41.74300
C  -4.15300 -1.24200 42.75800
N  0.98200 -3.38500 44.08200
C  -0.28900 -3.53800 43.82200
C  -0.84500 -4.92100 44.22400
C  0.26300 -5.42200 45.17500
C  1.41600 -4.50000 44.74400
C  -2.28500 -4.82700 45.00300
C  0.57900 -6.94600 45.14200
C  1.02300 -7.64900 46.48700
N  3.76900 -2.97000 44.16300
C  3.80700 -4.08500 44.83900
C  5.25000 -4.48500 44.94900
C  5.96500 -3.36500 44.34400
C  4.97700 -2.51500 43.89700
C  5.82800 -5.78800 45.56500
C  7.26000 -2.68900 44.16100
O  8.35300 -2.99000 44.59600
C  6.97100 -1.42900 43.31600
C  7.72600 -0.31800 43.86600
O  8.91700 -0.36400 44.02400
O  6.96900 0.61300 44.41900
C  7.63900 1.45600 45.47600
H  1.52700 2.20900 41.42400
H  -2.22600 -2.88600 43.24800
H  2.95600 -5.68100 45.66100
H  6.26000 1.21900 41.90200
H  3.97600 2.07000 40.52400
H  5.29200 3.11000 42.74900
H  3.52900 2.94800 43.25700
H  3.86300 3.94000 41.95100
H  4.94600 -0.44500 39.80300
H  6.52700 -0.61200 40.37700
H  7.40000 0.57000 38.99200
H  6.47200 2.08800 39.54200
H  -2.23400 2.42900 41.35900
H  -1.05700 2.06300 40.12900
H  -0.61100 2.91300 41.76600
H  -5.23500 -1.13300 42.68200
H  -3.90400 -1.43800 43.80100
H  -4.08100 -2.19000 42.22400
H  -1.04600 -5.45200 43.29400
H  0.05700 -5.11500 46.20000
H  -2.60600 -3.81300 45.24200
H  -2.25000 -5.41900 45.91700
H  -3.04000 -5.26300 44.34800
H  1.38400 -7.02500 44.41300
H  -0.34600 -7.45500 44.87000
H  0.17500 -8.11700 46.98800
H  1.38700 -6.95900 47.24900
H  1.82800 -8.32300 46.19600
H  6.90300 -5.61000 45.58200
H  5.58300 -6.60700 44.88900
H  5.46200 -6.01600 46.56600
H  7.33000 -1.67600 42.31700
H  7.00800 1.83900 46.27800
H  8.00900 2.38100 45.03400
H  8.50000 1.04000 45.99900
Mg 16.69700 52.21900 25.83300
C  18.38500 51.00600 28.59500
C  13.98600 52.85000 27.95300
C  14.88100 53.35300 23.15800
C  19.06000 51.01800 23.73700
N  16.28500 52.06800 28.00400
C  17.16000 51.69500 28.93700
C  16.65200 51.88800 30.36700
C  15.15600 52.13100 30.13100
C  15.11300 52.44700 28.65800
C  14.31800 50.89600 30.60100
C  17.42300 53.02100 31.12400
C  17.29800 52.95600 32.60400
H  16.18400 52.13000 33.31000
N  14.77100 53.06500 25.57300
C  13.75800 53.19100 26.58700
C  12.49800 53.62300 25.96700
C  12.85300 53.93300 24.61300
C  14.21900 53.42100 24.36300
C  11.23900 53.83100 26.79100
C  11.91700 54.49500 23.49900
O  12.38700 54.80600 22.43800
C  10.51800 54.83600 23.83800
N  16.77600 51.93600 23.66500
C  16.05100 52.64800 22.75700
C  16.65000 52.62600 21.37000
C  18.00300 52.05400 21.64000
C  17.99000 51.65900 23.08700
C  15.77900 51.81500 20.36700
C  19.22200 52.95600 21.38400
C  20.29100 52.21300 20.67600
N  18.38300 51.24600 26.10400
C  19.30200 50.82300 25.07900
C  20.35200 50.03500 25.70400
C  20.09800 50.13900 27.10300
C  18.82700 50.83500 27.25100
C  21.40700 49.28600 24.98300
C  20.56800 49.82400 28.42400
O  21.57800 49.17900 28.71600
C  19.49500 50.31200 29.38800
C  18.85200 49.17500 30.10900
O  18.00300 48.40000 29.63300
O  19.16700 49.21100 31.48100
C  18.37700 48.41000 32.50400
H  13.12200 53.09500 28.57400
H  14.51100 53.97500 22.34000
H  19.88200 50.65300 23.11900
H  16.92100 51.00000 30.94000
H  14.76200 53.01400 30.63500
H  14.80600 49.95700 30.86300
H  13.67400 50.57700 29.78100
H  13.66400 51.22100 31.41000
H  17.03000 53.96700 30.75300
H  18.46900 52.96400 30.82400
H  17.08000 53.94800 32.99900
H  18.26300 52.70200 33.04200
H  10.35000 53.30200 26.44600
H  11.21200 54.92000 26.83500
H  11.43900 53.63000 27.84300
H  10.02800 53.92700 24.18500
H  10.07200 55.14200 22.89100
H  10.50900 55.54800 24.66300
H  16.71600 53.67300 21.07100
H  18.04700 51.13500 21.05600
H  15.30200 51.01900 20.93900
H  16.33800 51.37700 19.53900
H  14.97500 52.37300 19.88600
H  19.77900 53.14800 22.30100
H  19.06300 53.89600 20.85500
H  20.60300 52.76800 19.79100
H  20.03800 51.20400 20.35000
H  21.14100 52.22300 21.35900
H  21.11000 48.91100 24.00400
H  21.65600 48.37800 25.53200
H  22.27100 49.94200 24.87500
H  19.98200 51.03100 30.04600
H  18.53300 47.34700 32.32000
H  17.34200 48.61700 32.23200
H  18.78200 48.67500 33.48000

