158

Mg 17.47500 -1.87700 27.03400
C  16.50400 0.15600 29.83400
C  19.44600 -3.69500 29.31800
C  18.66300 -3.53800 24.43100
C  15.81500 0.31600 24.99400
N  17.98400 -1.73800 29.33600
C  17.35100 -0.92300 30.23100
C  17.77800 -1.24900 31.64300
C  18.84600 -2.40000 31.46800
C  18.73000 -2.63900 29.97300
C  20.29700 -2.09100 31.78800
C  16.54300 -1.57400 32.50800
C  16.43500 -0.85900 33.81500
H  17.78400 -0.69500 34.48700
N  18.84100 -3.37700 26.92000
C  19.46900 -4.08100 27.94200
C  20.20600 -5.12700 27.30400
C  20.02800 -5.11100 25.91600
C  19.12400 -3.94500 25.68500
C  21.03900 -6.10200 28.14200
C  20.63900 -6.05000 24.87800
O  20.32900 -6.03300 23.71000
C  21.61700 -7.10300 25.25700
N  17.28900 -1.65400 25.03100
C  17.88500 -2.37300 24.07500
C  17.56400 -2.03200 22.65100
C  16.47100 -0.96700 22.91300
C  16.49700 -0.73800 24.40400
C  18.71800 -1.51400 21.74100
C  15.03800 -1.27200 22.34500
C  13.95600 -1.64100 23.34800
N  16.30600 -0.15700 27.32900
C  15.63200 0.55800 26.45800
C  14.84100 1.59500 26.97300
C  15.12800 1.47700 28.37100
C  16.01200 0.41700 28.51500
C  13.91000 2.48100 26.28500
C  14.86400 2.00600 29.72200
O  14.21700 3.01000 30.02900
C  15.76900 1.16500 30.69900
C  16.57300 2.14400 31.41100
O  17.71000 2.49100 31.14000
O  15.78600 2.67200 32.41500
C  16.35300 3.72900 33.26600
H  19.99500 -4.31400 30.03100
H  19.09300 -4.16500 23.64700
H  15.27200 0.99700 24.33500
H  18.15600 -0.31600 32.06000
H  18.49200 -3.29600 31.97800
H  20.44500 -1.18300 32.37300
H  20.93800 -1.87000 30.93400
H  20.74400 -2.95600 32.27700
H  16.57500 -2.64400 32.71000
H  15.65400 -1.48400 31.88400
H  15.89800 -1.54300 34.47300
H  15.85100 0.05900 33.74600
H  21.19000 -7.12100 27.78500
H  20.56000 -6.28100 29.10500
H  22.01300 -5.63800 28.29300
H  22.32400 -6.86400 26.05100
H  22.19000 -7.51200 24.42500
H  20.96500 -7.88900 25.63700
H  17.23200 -2.98300 22.23400
H  16.79600 0.01500 22.57000
H  19.60800 -1.48500 22.36900
H  18.44800 -0.56900 21.27100
H  18.84500 -2.19500 20.90000
H  15.11000 -2.10400 21.64500
H  14.66500 -0.37900 21.84200
H  13.38600 -0.74300 23.58700
H  14.45500 -2.09300 24.20500
H  13.40300 -2.43900 22.85300
H  13.44400 1.76100 25.61200
H  14.64400 3.05800 25.72300
H  13.17200 3.06000 26.84100
H  15.17200 0.65700 31.45600
H  15.70500 4.57300 33.03000
H  17.37100 4.04000 33.03100
H  16.20800 3.58800 34.33700
Mg 44.01700 4.00200 47.49500
C  41.77600 6.75700 47.14000
C  41.25400 1.89600 46.80400
C  46.09000 1.48600 47.21600
C  46.62800 6.37300 47.73600
N  41.81400 4.25400 47.04400
C  41.12000 5.46800 46.97600
C  39.61600 5.14100 46.73500
C  39.53600 3.65000 46.92300
C  40.95900 3.21800 46.84700
C  38.75900 3.19200 48.22500
C  39.23600 5.51800 45.26600
C  37.75000 5.99000 45.11100
H  37.22200 5.93900 43.68600
N  43.77200 1.96900 47.13700
C  42.52700 1.27600 46.91300
C  42.71700 -0.10400 46.70000
C  44.19300 -0.21800 46.78500
C  44.76900 1.08000 47.10900
C  41.63500 -1.11700 46.38700
C  44.84300 -1.54100 46.54500
O  44.16100 -2.56100 46.30400
C  46.22500 -1.65900 46.66900
N  46.08700 3.93600 47.28100
C  46.72200 2.76100 47.39200
C  48.25700 2.95200 47.32300
C  48.39700 4.55700 47.59300
C  46.93700 5.00100 47.52900
C  49.11000 2.12300 48.28800
C  49.41800 5.20700 46.64100
C  50.36000 6.20900 47.36500
N  44.25400 6.11700 47.44300
C  45.33000 6.89300 47.64900
C  44.95900 8.29000 47.66800
C  43.58200 8.23400 47.48700
C  43.19100 6.92000 47.44000
C  45.81900 9.45000 47.83700
C  42.38400 9.09000 47.39500
O  42.31700 10.31800 47.60900
C  41.14600 8.13200 47.07200
C  40.19100 8.18600 48.19900
O  40.39300 7.69100 49.32800
O  39.11100 8.89900 47.72000
C  37.96300 9.02800 48.62300
H  40.38300 1.23900 46.76300
H  46.76300 0.62900 47.28300
H  47.46300 7.07100 47.82300
H  39.08800 5.74200 47.47400
H  39.17300 3.06600 46.07700
H  38.55300 4.07500 48.82900
H  39.30700 2.46200 48.82200
H  37.73500 2.83800 48.10600
H  39.27000 4.62400 44.64400
H  39.86700 6.30900 44.86100
H  37.63500 7.05500 45.30900
H  37.03900 5.51400 45.78600
H  40.68100 -0.90000 46.86900
H  41.83600 -2.16500 46.60700
H  41.59700 -0.90500 45.31800
H  46.40000 -1.25500 47.66700
H  46.76200 -1.15700 45.86400
H  46.49700 -2.71400 46.68600
H  48.44700 2.70000 46.28000
H  48.65500 4.58300 48.65200
H  48.45700 1.40900 48.79200
H  49.68600 2.75200 48.96600
H  49.90400 1.56800 47.79000
H  48.88900 5.68300 45.81500
H  50.14500 4.50400 46.23500
H  50.07200 7.25600 47.27800
H  51.37200 6.18700 46.96000
H  50.50600 5.98600 48.42200
H  46.47000 9.57300 46.97200
H  46.32700 9.51300 48.79900
H  45.22400 10.36200 47.88100
H  40.70800 8.37600 46.10400
H  37.12800 8.58500 48.08200
H  37.72000 10.08400 48.73700
H  38.05300 8.54600 49.59700

