158

Mg 53.59300 22.68000 44.78700
C  51.61400 25.34900 43.62800
C  51.53900 20.63300 43.17600
C  55.93900 20.35400 44.88300
C  55.93400 25.15500 45.90900
N  51.76400 22.99600 43.39700
C  51.10400 24.13800 43.20300
C  49.71000 23.89400 42.49400
C  49.52500 22.32400 42.91600
C  51.00700 21.95100 43.10900
C  48.72800 22.17200 44.21900
C  49.71400 24.01300 40.92500
C  51.09400 24.07000 40.28900
H  51.06700 24.61600 38.91300
N  53.62500 20.75300 44.27500
C  52.69400 20.03900 43.60000
C  53.04600 18.61300 43.48700
C  54.36000 18.50800 44.00800
C  54.73500 19.96300 44.36600
C  52.17000 17.48600 42.89400
C  55.07700 17.23000 44.36600
O  54.65500 16.14100 44.06300
C  56.39600 17.21700 45.04700
N  55.69500 22.78100 45.23600
C  56.41700 21.64400 45.20700
C  57.83800 21.93300 45.65000
C  57.79000 23.44500 46.00900
C  56.41300 23.85800 45.69300
C  58.41600 20.99300 46.75400
C  58.70100 24.28900 45.07800
C  59.14500 25.68400 45.65600
N  53.68700 24.78700 44.93700
C  54.67600 25.61500 45.45200
C  54.09600 26.93700 45.57800
C  52.93900 26.91000 44.78300
C  52.78700 25.57200 44.36900
C  54.71800 28.10300 46.39600
C  51.80700 27.70000 44.21700
O  51.58800 28.88100 44.22400
C  50.90100 26.70400 43.55300
C  50.68100 27.14400 42.15000
O  51.50700 27.38400 41.30100
O  49.32100 27.08600 41.99600
C  48.81000 27.80600 40.86600
H  50.74500 20.00900 42.76200
H  56.78100 19.66200 44.95600
H  56.59500 25.84400 46.43900
H  48.88700 24.50400 42.86600
H  48.86300 21.80700 42.22200
H  47.81100 21.64900 43.94700
H  48.38600 23.18600 44.42400
H  49.28500 21.66100 45.00500
H  49.20700 24.93500 40.63900
H  49.27800 23.12000 40.47600
H  51.40400 23.02500 40.26400
H  51.83000 24.62600 40.87000
H  52.39000 17.24400 41.85400
H  51.14400 17.78500 43.11200
H  52.29600 16.49900 43.34000
H  56.31700 17.90600 45.88800
H  57.14300 17.50800 44.30700
H  56.86100 16.26300 45.29300
H  58.42700 21.78900 44.74400
H  57.93600 23.74600 47.04700
H  58.69100 21.60500 47.61200
H  59.35200 20.53700 46.43100
H  57.73400 20.16200 46.93600
H  58.19000 24.44400 44.12700
H  59.58200 23.69900 44.82700
H  60.23500 25.69800 45.66700
H  58.79500 25.85000 46.67500
H  58.78300 26.40300 44.92100
H  54.21900 29.02800 46.10400
H  55.77200 28.20400 46.13900
H  54.54400 27.77100 47.42000
H  49.96800 26.82400 44.10300
H  47.99100 27.32900 40.32900
H  49.49300 27.91300 40.02300
H  48.44000 28.78200 41.18100
Mg 47.01400 16.57500 28.21100
C  44.95900 16.07500 31.16900
C  49.10400 18.41900 30.12000
C  48.54600 17.56000 25.46100
C  44.45700 15.19700 26.32100
N  46.89700 17.23800 30.43200
C  46.06300 16.85800 31.42000
C  46.67500 17.18000 32.78800
C  47.83900 18.17800 32.39100
C  47.95000 18.02600 30.86900
C  47.54700 19.67000 32.81300
C  47.12200 15.98400 33.61900
C  47.54800 16.21200 35.09500
H  46.89700 17.37600 35.80700
N  48.79100 17.63500 27.86500
C  49.55100 18.26200 28.82000
C  50.73800 18.71900 28.20400
C  50.52100 18.66200 26.78500
C  49.24200 17.93700 26.62500
C  51.93600 19.04300 29.07100
C  51.29300 19.14900 25.64400
O  50.94800 18.99400 24.46000
C  52.49500 19.86400 25.89300
N  46.59800 16.30000 26.23700
C  47.41100 16.81300 25.31300
C  46.78100 16.70400 23.88900
C  45.56800 15.63500 24.13300
C  45.46900 15.71900 25.64200
C  46.31600 17.94800 23.18900
C  45.91500 14.25400 23.66100
C  45.31800 13.97300 22.26800
N  45.12900 15.75500 28.60800
C  44.21400 15.21300 27.70900
C  43.09000 14.64900 28.42800
C  43.38300 14.90500 29.80300
C  44.59500 15.65300 29.83900
C  41.88200 14.04100 27.75800
C  42.82500 14.83900 31.15200
O  41.79000 14.25300 31.48200
C  43.87600 15.57100 32.14500
C  43.10800 16.70400 32.83800
O  42.47500 17.55400 32.26200
O  43.33100 16.66900 34.19700
C  42.65200 17.66300 34.98100
H  49.78300 18.93500 30.80200
H  48.82600 18.09300 24.55000
H  43.71900 14.76800 25.63900
H  45.89300 17.70000 33.34200
H  48.81600 17.94100 32.81200
H  46.76100 19.73100 33.56600
H  47.27700 20.26000 31.93800
H  48.41500 20.13400 33.28100
H  47.83100 15.47100 32.96800
H  46.27800 15.29300 33.62500
H  48.63500 16.26500 35.03600
H  47.44800 15.38500 35.79800
H  51.97100 18.51300 30.02200
H  52.04600 20.11300 29.25000
H  52.82100 18.63700 28.58200
H  53.37100 19.29200 26.19900
H  52.21300 20.49800 26.73300
H  52.86100 20.43700 25.04100
H  47.56600 16.27600 23.26400
H  44.60400 16.00400 23.78400
H  45.33900 17.71300 22.76700
H  47.05500 18.14000 22.41100
H  46.37200 18.79500 23.87300
H  45.60500 13.46300 24.34400
H  47.00300 14.23400 23.60600
H  46.01000 14.10500 21.43700
H  44.58700 14.74600 22.03100
H  44.83100 13.00100 22.18000
H  41.70400 14.66800 26.88500
H  40.94000 14.20800 28.28100
H  42.05100 12.99900 27.48300
H  44.28200 14.87100 32.87500
H  43.10900 17.49700 35.95700
H  41.63600 17.27700 35.06700
H  42.65300 18.67100 34.56500

