158

Mg 26.05400 50.13100 25.85600
C  24.46500 51.67300 28.55400
C  28.59000 49.39300 27.85400
C  27.59300 49.04100 23.15100
C  23.62200 51.70100 23.65600
N  26.39200 50.42500 27.95800
C  25.58300 51.03700 28.90300
C  26.09700 50.85000 30.34800
C  27.53700 50.23100 30.04100
C  27.51000 49.94600 28.55700
C  28.74700 51.11900 30.46100
C  25.26400 49.89600 31.20400
C  24.76200 50.32000 32.64000
H  25.67300 50.99000 33.73600
N  27.79400 49.27700 25.57600
C  28.71800 49.06200 26.50800
C  29.85300 48.35300 25.89900
C  29.54900 48.09800 24.53900
C  28.20200 48.74600 24.36500
C  31.11000 47.92900 26.57400
C  30.34800 47.36600 23.48300
O  29.91000 47.05400 22.40800
C  31.66900 46.74300 23.90100
N  25.51900 50.21900 23.73500
C  26.38500 49.59800 22.84000
C  26.02200 49.98500 21.38100
C  24.60600 50.63900 21.52500
C  24.54100 50.90300 23.06800
C  26.99800 50.95200 20.64200
C  23.52400 49.78100 21.00200
C  22.72600 50.30900 19.75600
N  24.35300 51.42200 25.96800
C  23.51500 51.94200 25.02100
C  22.49200 52.71100 25.70100
C  22.82100 52.61800 27.09200
C  23.94800 51.83500 27.20700
C  21.30200 53.45200 25.12400
C  22.39500 52.98900 28.47500
O  21.45700 53.73300 28.82000
C  23.45100 52.37300 29.47200
C  23.95100 53.42600 30.39400
O  24.86700 54.20000 30.31400
O  23.12900 53.40000 31.50100
C  23.59300 54.05900 32.71900
H  29.39300 49.09500 28.53200
H  28.18800 48.73600 22.28800
H  22.86900 51.99100 22.92000
H  26.12300 51.80800 30.86700
H  27.67600 49.30400 30.59600
H  28.50300 51.87600 31.20600
H  29.24800 51.59200 29.61600
H  29.50600 50.44000 30.85000
H  25.66900 48.89600 31.05100
H  24.34100 49.85400 30.62600
H  24.40600 49.39700 33.09700
H  23.99900 51.09500 32.57400
H  31.20300 48.22800 27.61800
H  31.92100 48.35700 25.98500
H  31.20300 46.84600 26.50100
H  32.01900 46.20800 23.01800
H  31.22200 46.00800 24.57000
H  32.36100 47.54700 24.15100
H  25.94700 49.07500 20.78700
H  24.55700 51.64800 21.11700
H  26.42700 51.65200 20.03200
H  27.61700 50.39200 19.94200
H  27.68900 51.34700 21.38600
H  22.72600 49.64700 21.73300
H  23.89900 48.78100 20.78600
H  22.80000 49.64700 18.89300
H  23.01200 51.30200 19.40900
H  21.71100 50.46700 20.12200
H  20.81200 53.91900 25.97800
H  20.62400 52.88300 24.48800
H  21.69400 54.24800 24.49000
H  22.97700 51.63500 30.11900
H  22.83300 54.13600 33.49500
H  24.03000 55.02900 32.48300
H  24.40700 53.45500 33.12100
Mg 9.29200 48.78900 26.00100
C  7.31000 49.00500 28.97400
C  12.07300 49.54600 27.99200
C  11.23300 48.55200 23.36700
C  6.45100 48.17200 24.22800
N  9.57600 49.29900 28.18800
C  8.66000 49.21200 29.21800
C  9.30800 49.55700 30.50700
C  10.65100 50.20900 30.01600
C  10.83500 49.64300 28.61600
C  10.74300 51.79800 29.96900
C  9.53800 48.38000 31.40400
C  8.98200 48.60000 32.84200
H  8.89900 47.44500 33.83500
N  11.41000 49.00400 25.74800
C  12.41200 49.34700 26.65200
C  13.71500 49.21100 26.08100
C  13.45900 48.77200 24.71100
C  11.98700 48.73800 24.54400
C  15.05500 49.48000 26.82600
C  14.50400 48.36900 23.56200
O  14.07100 47.93900 22.46900
C  15.97900 48.44500 23.84600
N  8.91700 48.47100 24.08300
C  9.85900 48.39100 23.10400
C  9.27500 48.03600 21.73600
C  7.76700 47.76500 22.03400
C  7.68700 48.20100 23.54000
C  9.47500 48.97300 20.60700
C  7.25400 46.29700 21.79500
C  8.11600 45.19100 22.41200
N  7.31600 48.53800 26.47200
C  6.25300 48.28700 25.59900
C  5.04200 48.21300 26.38100
C  5.40800 48.53400 27.65800
C  6.80600 48.71400 27.68600
C  3.56300 47.97000 25.85600
C  4.86500 48.72200 28.98000
O  3.72500 48.69100 29.34200
C  6.09200 49.12800 29.89900
C  5.91600 48.14100 31.01300
O  6.36500 47.03700 31.04000
O  5.03800 48.66900 31.98700
C  4.56400 47.67800 32.96900
H  12.86300 49.86200 28.67700
H  11.85700 48.47300 22.47400
H  5.58500 47.91000 23.61700
H  8.69100 50.30400 31.00500
H  11.53400 49.99700 30.61900
H  9.75500 52.25800 29.97700
H  11.17200 52.06800 29.00400
H  11.22800 52.20500 30.85600
H  10.60200 48.14300 31.42000
H  9.16200 47.45200 30.97200
H  8.00200 49.07600 32.80700
H  9.54700 49.39300 33.33200
H  15.57500 48.52500 26.91000
H  14.92700 49.76700 27.87000
H  15.61400 50.24400 26.28600
H  16.26100 47.84200 24.70900
H  16.11900 49.50500 24.05600
H  16.48100 48.12700 22.93200
H  9.73600 47.07400 21.50900
H  7.19100 48.43900 21.40000
H  9.13600 49.98300 20.83800
H  9.09500 48.49200 19.70600
H  10.55100 48.91100 20.44600
H  7.23700 46.24300 20.70700
H  6.20100 46.21100 22.06300
H  7.56800 44.36500 22.86500
H  8.78900 45.60200 23.16500
H  8.76200 44.79400 21.62900
H  3.40300 48.25800 24.81700
H  2.84100 48.49400 26.48100
H  3.32000 46.91900 26.01200
H  5.91900 50.14500 30.25100
H  5.41200 47.11200 33.35300
H  3.92100 46.96100 32.45800
H  3.96000 48.13400 33.75400

