158

Mg -0.23700 7.04100 25.97100
C  0.68300 8.88800 28.87600
C  -0.74000 4.25800 27.95600
C  -0.69300 5.25200 23.26100
C  0.08600 9.87700 24.17500
N  -0.08300 6.62200 28.16500
C  0.33900 7.50200 29.09000
C  0.22000 6.78500 30.56400
C  -0.21000 5.32400 30.20100
C  -0.37100 5.42400 28.66600
C  0.68600 4.19100 30.74700
C  -0.71300 7.54800 31.56500
C  -0.14400 7.80600 32.96500
H  1.04800 6.97500 33.53200
N  -0.57300 5.03200 25.65200
C  -0.78100 4.03100 26.56700
C  -1.06900 2.72700 25.88500
C  -0.90300 3.03800 24.48100
C  -0.70300 4.46900 24.40900
C  -1.26700 1.38600 26.61800
C  -0.89200 2.08400 23.27300
O  -0.68800 2.47200 22.12100
C  -1.02600 0.48900 23.46500
N  -0.32900 7.53600 24.00400
C  -0.44700 6.61000 23.06300
C  -0.38600 7.20400 21.64100
C  -0.52300 8.72700 21.97100
C  -0.28700 8.70100 23.48000
C  0.93400 6.90700 20.89400
C  -1.89400 9.38000 21.65500
C  -1.78700 10.82800 21.14000
N  0.39600 8.95000 26.29400
C  0.48500 10.00700 25.52400
C  1.01200 11.15000 26.17900
C  1.15200 10.76200 27.48600
C  0.72500 9.43000 27.56200
C  1.30900 12.51300 25.57400
C  1.49300 11.22200 28.77200
O  1.87800 12.32300 29.20400
C  1.18100 10.02000 29.75600
C  2.43100 9.46700 30.40700
O  3.18200 8.56600 30.05500
O  2.76400 10.33200 31.41900
C  3.93000 10.08800 32.24200
H  -1.11600 3.39000 28.50200
H  -0.95000 4.77200 22.31400
H  0.15600 10.77900 23.56300
H  1.23300 6.66500 30.94800
H  -1.22900 5.16500 30.55400
H  0.13200 3.54100 31.42500
H  1.56400 4.53900 31.29100
H  0.88100 3.65200 29.82000
H  -1.60600 6.94300 31.72500
H  -0.94800 8.52000 31.13300
H  -1.01800 7.59200 33.58000
H  0.10800 8.82800 33.24700
H  -2.33200 1.18200 26.73200
H  -0.82300 1.38100 27.61300
H  -0.78700 0.62200 26.00600
H  -1.18800 0.06100 22.47500
H  -1.92300 0.13700 23.97600
H  -0.15300 0.02300 23.92100
H  -1.19500 6.75100 21.06900
H  0.32400 9.21200 21.48700
H  0.64500 6.15900 20.15500
H  1.67600 6.59100 21.62800
H  1.35500 7.75400 20.35200
H  -2.54500 9.39000 22.53000
H  -2.35600 8.76900 20.88000
H  -0.73900 11.12100 21.09300
H  -2.28500 11.50500 21.83500
H  -2.23900 10.82100 20.14900
H  2.26600 12.91400 25.90600
H  0.46000 13.19200 25.65800
H  1.30400 12.28700 24.50800
H  0.59600 10.24100 30.64900
H  4.44800 10.99100 32.56400
H  4.64800 9.57100 31.60600
H  3.72200 9.30500 32.97100
Mg 17.17000 52.28900 26.52400
C  19.09100 50.83300 29.28200
C  14.63300 52.66600 28.80800
C  15.25800 53.10800 23.94900
C  19.57100 50.70900 24.27000
N  16.92400 51.72800 28.79400
C  17.90600 51.36500 29.69100
C  17.40300 51.49600 31.12700
C  15.82300 51.80800 30.91100
C  15.76600 52.10900 29.43300
C  14.95800 50.55300 31.27900
C  18.23000 52.58100 31.81500
C  18.56300 52.47100 33.34600
H  17.69000 51.59500 34.25400
N  15.33900 53.04700 26.46000
C  14.41100 53.16800 27.51300
C  13.23800 53.86200 26.98200
C  13.40000 54.01400 25.52500
C  14.68000 53.39000 25.28000
C  12.10300 54.31800 27.90000
C  12.55200 54.76500 24.50000
O  12.94200 54.98700 23.35000
C  11.21900 55.27900 24.85700
N  17.37800 51.93900 24.43900
C  16.53100 52.56500 23.57900
C  16.97100 52.38900 22.08400
C  18.45600 51.90300 22.26500
C  18.46900 51.42100 23.71000
C  16.09100 51.47600 21.19100
C  19.52700 52.91800 21.94700
C  20.63500 52.47500 20.97700
N  18.99500 51.06500 26.74300
C  19.79200 50.47900 25.66300
C  20.84700 49.82900 26.28000
C  20.69600 49.99100 27.67100
C  19.49700 50.66100 27.90800
C  21.99400 49.16200 25.56100
C  21.24200 49.67300 29.04200
O  22.21600 48.97500 29.36700
C  20.14800 50.18200 30.06900
C  19.61200 48.95100 30.74500
O  18.81100 48.13000 30.28400
O  19.96000 49.02500 32.11000
C  19.58000 47.85500 32.94300
H  13.76900 52.67200 29.47500
H  14.70800 53.41500 23.05700
H  20.29700 50.38700 23.52000
H  17.46300 50.52400 31.61600
H  15.45900 52.60300 31.56200
H  15.08100 50.26900 32.32400
H  15.31200 49.69300 30.71100
H  13.93100 50.89500 31.15200
H  17.65700 53.50000 31.69100
H  19.21100 52.76700 31.37700
H  18.71000 53.47900 33.73400
H  19.53200 52.01000 33.53800
H  12.20400 53.79200 28.84900
H  11.09300 54.15300 27.52400
H  12.15000 55.38200 28.13100
H  11.25700 56.24600 25.35900
H  10.72100 54.44400 25.35000
H  10.66400 55.55000 23.95900
H  16.95200 53.35800 21.58500
H  18.51700 50.98000 21.69000
H  15.02100 51.64600 21.31200
H  16.34900 50.45100 21.46000
H  16.35000 51.74900 20.16900
H  19.95100 53.06400 22.94100
H  19.09900 53.88600 21.68700
H  20.91900 53.25100 20.26600
H  20.35600 51.56900 20.43800
H  21.53100 52.29400 21.57100
H  22.82800 49.07300 26.25700
H  22.26300 49.82500 24.73900
H  21.64300 48.25000 25.07700
H  20.69200 50.80000 30.78200
H  20.45900 47.21100 32.95900
H  18.73300 47.34900 32.47900
H  19.36300 48.06400 33.99000

