158

Mg 42.33200 41.18100 25.62700
C  41.58500 43.44500 28.10800
C  43.47500 39.12400 28.02200
C  43.31300 39.09400 23.25000
C  41.73900 43.58300 23.20200
N  42.53800 41.38400 27.89700
C  41.90300 42.20700 28.64500
C  41.94000 41.81000 30.16600
C  42.66900 40.42100 30.12600
C  42.91200 40.27600 28.59300
C  44.03600 40.29800 31.04100
C  40.56300 41.83600 30.91400
C  40.41200 41.31100 32.26600
H  39.79900 42.08100 33.34600
N  43.26600 39.24100 25.63500
C  43.75800 38.62100 26.69800
C  44.24100 37.34900 26.28700
C  44.25400 37.37200 24.93400
C  43.59900 38.55500 24.54000
C  44.68500 36.27600 27.32600
C  44.76800 36.24600 23.97500
O  44.68000 36.31500 22.74800
C  45.35600 35.07300 24.59900
N  42.32800 41.26500 23.57100
C  42.78500 40.23300 22.78700
C  42.57500 40.49500 21.33100
C  42.12700 41.98200 21.29800
C  42.04900 42.28100 22.76200
C  43.83400 40.27600 20.48100
C  40.84900 42.31100 20.49600
C  40.95300 43.41200 19.45000
N  41.77300 43.13300 25.60300
C  41.59300 44.00600 24.53400
C  41.22800 45.26100 25.09200
C  41.18700 45.13600 26.49800
C  41.51600 43.75000 26.74800
C  40.73400 46.37000 24.24300
C  40.83000 45.80300 27.71300
O  40.47900 46.95500 27.95100
C  41.14000 44.75100 28.88500
C  42.25100 45.27000 29.76800
O  43.40300 45.25200 29.40600
O  41.78400 45.51800 31.04700
C  42.86900 45.65200 32.10900
H  43.73400 38.33700 28.73200
H  43.54100 38.36100 22.47300
H  41.42600 44.31100 22.45100
H  42.52700 42.54500 30.71500
H  42.02600 39.69200 30.62000
H  44.03000 41.15800 31.71200
H  44.92800 40.19900 30.42300
H  43.94100 39.42700 31.68900
H  39.89600 41.19300 30.34100
H  40.15100 42.84500 30.93400
H  41.40000 40.99000 32.59700
H  39.91600 40.36800 32.03900
H  44.22700 35.32100 27.06800
H  44.42000 36.49900 28.36000
H  45.77000 36.27100 27.22400
H  44.57800 34.49100 25.09400
H  46.05600 35.39200 25.37000
H  45.86800 34.56300 23.78300
H  41.74200 39.94900 20.88900
H  42.95400 42.55000 20.87100
H  43.96000 39.24400 20.15300
H  44.68600 40.54500 21.10500
H  43.80400 40.82400 19.54000
H  40.00800 42.50300 21.16200
H  40.53200 41.46100 19.89200
H  40.27000 44.23600 19.65600
H  40.58000 43.11500 18.47000
H  41.99600 43.68800 19.29100
H  40.49400 45.94800 23.26700
H  41.58900 47.03200 24.10400
H  39.88600 46.80900 24.76800
H  40.19300 44.61100 29.40700
H  43.11700 44.62600 32.38100
H  42.46900 46.14700 32.99400
H  43.69500 46.20600 31.66400
Mg 27.34600 49.97200 26.34500
C  25.28300 51.06700 29.01300
C  29.56600 48.84600 28.56100
C  29.36700 49.32600 23.62400
C  25.23200 51.79700 24.17200
N  27.41000 50.05400 28.56100
C  26.44300 50.44500 29.41500
C  26.75500 50.01400 30.85800
C  28.30300 49.56300 30.78200
C  28.46500 49.44400 29.21300
C  29.39400 50.50300 31.50000
C  25.71900 48.93000 31.34000
C  25.26500 48.91400 32.83300
H  26.19000 49.66700 33.79400
N  29.11000 49.14900 26.13800
C  29.93700 48.75100 27.20700
C  31.07700 48.09300 26.68400
C  31.05500 48.25200 25.25200
C  29.83900 49.01100 24.95000
C  32.15500 47.44600 27.53600
C  32.23700 47.90100 24.33200
O  32.12000 48.04600 23.10000
C  33.55700 47.44300 24.86400
N  27.33400 50.57500 24.20600
C  28.22100 50.07400 23.30100
C  27.73600 50.27000 21.88700
C  26.23200 50.80500 22.13800
C  26.25000 51.09900 23.59900
C  28.66000 51.18800 21.05300
C  25.20500 49.80400 21.67900
C  24.24800 50.30900 20.55500
N  25.61900 51.23200 26.53000
C  24.87000 51.93200 25.51300
C  23.75200 52.49400 26.08900
C  23.88900 52.21800 27.48700
C  25.01200 51.44800 27.68500
C  22.59000 53.15100 25.33200
C  23.27100 52.44900 28.75600
O  22.22400 53.05500 29.09300
C  24.17500 51.66200 29.90100
C  24.73300 52.72800 30.78400
O  25.80100 53.27200 30.65200
O  23.80400 53.12500 31.71200
C  24.13400 54.33000 32.43900
H  30.28400 48.56800 29.33500
H  30.03600 49.15800 22.77800
H  24.51500 52.27500 23.50000
H  26.69200 50.91300 31.47200
H  28.38800 48.57200 31.22700
H  29.91500 49.90100 32.24500
H  28.82000 51.25600 32.04000
H  30.05800 50.89000 30.72700
H  26.12000 47.94900 31.08400
H  24.83100 49.01200 30.71400
H  25.31700 47.88900 33.20300
H  24.21800 49.21600 32.86300
H  33.05000 48.06200 27.62400
H  32.39100 46.49600 27.05700
H  31.94700 47.31200 28.59800
H  34.20400 47.31100 23.99600
H  33.55000 46.49800 25.40700
H  33.89600 48.31400 25.42400
H  27.76000 49.28200 21.42800
H  26.17500 51.74900 21.59600
H  29.49200 51.61200 21.61500
H  28.09600 52.05900 20.71900
H  29.05000 50.65700 20.18400
H  24.59200 49.52700 22.53600
H  25.59100 48.81100 21.45000
H  24.25500 49.53200 19.79000
H  24.48900 51.23300 20.03000
H  23.25400 50.47600 20.97100
H  21.70700 53.32800 25.94800
H  22.29200 52.34500 24.66300
H  23.01700 53.98200 24.77100
H  23.72200 50.93600 30.57500
H  24.62800 55.07300 31.81300
H  24.76600 54.06800 33.28800
H  23.28100 54.77900 32.94800

