158

Mg 8.67000 5.34500 27.31800
C  9.58100 3.58200 30.07500
C  6.03600 6.87400 29.08500
C  7.45900 6.94300 24.46800
C  10.42200 3.16800 25.23800
N  8.01400 5.32400 29.35200
C  8.55600 4.49400 30.32900
C  7.90700 4.80500 31.77200
C  6.58900 5.53200 31.18900
C  6.89800 5.97000 29.82400
C  5.33300 4.53200 31.09900
C  8.77000 5.75500 32.58500
C  9.08600 5.37200 34.02000
H  10.14400 6.02700 34.85900
N  7.08100 6.83400 26.87100
C  6.14700 7.27900 27.73600
C  5.28000 8.30400 27.10100
C  5.79800 8.53600 25.79200
C  6.80900 7.42000 25.64900
C  4.34700 9.14100 27.90000
C  5.39200 9.50400 24.69800
O  5.97500 9.55900 23.57000
C  4.32200 10.45800 24.97200
N  8.74300 4.97800 25.13100
C  8.26600 5.85300 24.19400
C  8.78900 5.49200 22.71900
C  9.64700 4.19600 23.08400
C  9.65400 4.10400 24.59100
C  7.62000 5.27100 21.63300
C  11.08300 4.15700 22.56500
C  11.44300 2.84500 21.89000
N  9.86000 3.79600 27.51100
C  10.54400 2.96600 26.63100
C  11.31200 1.98400 27.34700
C  11.04100 2.23800 28.70800
C  10.08700 3.31500 28.74800
C  12.20300 0.83200 26.74100
C  11.47400 1.88500 30.01700
O  12.41800 1.17100 30.32600
C  10.51400 2.69300 30.95800
C  9.69300 1.79400 31.75700
O  8.84300 1.02600 31.33800
O  10.08900 2.02500 33.08700
C  9.50600 1.02400 33.99100
H  5.12300 7.05300 29.65700
H  7.16300 7.39000 23.51700
H  11.15900 2.59800 24.66800
H  7.70800 3.89100 32.33000
H  6.37000 6.35400 31.87100
H  4.61900 4.77300 31.88600
H  5.56300 3.46700 31.09700
H  4.72200 4.63800 30.20300
H  8.36100 6.76300 32.52300
H  9.80300 5.82500 32.24500
H  9.30400 4.30800 34.10800
H  8.13900 5.36800 34.56000
H  4.31600 8.83000 28.94400
H  3.37300 9.09600 27.41200
H  4.62700 10.19500 27.87600
H  3.42100 9.92500 25.27400
H  4.31100 11.03800 24.04900
H  4.59500 11.09400 25.81500
H  9.42700 6.33700 22.45800
H  9.03500 3.41400 22.63500
H  6.73000 5.77500 22.00900
H  7.38800 4.20600 21.64300
H  7.80600 5.70000 20.64800
H  11.75100 4.38100 23.39700
H  11.33500 4.99100 21.91000
H  12.13000 3.07200 21.07400
H  10.61800 2.22900 21.53400
H  12.07800 2.25600 22.55200
H  13.26500 1.07400 26.70400
H  11.84100 0.62700 25.73300
H  12.05900 -0.04600 27.37000
H  11.18600 3.27000 31.59300
H  8.45800 0.82100 33.77100
H  9.34900 1.55600 34.92900
H  10.13200 0.14600 34.15500
Mg 41.58000 8.99500 29.88000
C  43.51400 10.04900 32.51300
C  39.36600 7.48800 31.98700
C  39.78500 7.69300 27.22000
C  44.11000 9.76700 27.66400
N  41.52400 8.71100 31.98900
C  42.32000 9.40900 32.93400
C  41.67800 9.21400 34.35800
C  40.44500 8.25700 34.08900
C  40.38400 8.27100 32.63100
C  40.54500 6.88000 34.73300
C  41.33400 10.51000 35.16300
C  41.43200 10.28400 36.75300
H  41.38600 11.50800 37.67600
N  39.73300 7.81300 29.61100
C  39.07000 7.25600 30.68200
C  38.02200 6.51200 30.17200
C  37.93600 6.69300 28.78700
C  39.17100 7.42900 28.46700
C  37.03000 5.74800 31.04200
C  36.86400 6.33100 27.75700
O  37.10300 6.44400 26.54500
C  35.46500 5.96500 28.19200
N  41.89400 8.72800 27.75700
C  41.05900 8.21500 26.92800
C  41.62900 8.06000 25.52500
C  43.00500 8.83900 25.61200
C  42.97400 9.15200 27.06600
C  41.66400 6.59200 25.03000
C  43.19700 9.95700 24.60000
C  42.65700 11.30200 25.08500
N  43.33300 9.87900 30.00300
C  44.33200 10.02500 29.05100
C  45.52600 10.65900 29.61900
C  45.17900 10.73900 30.99500
C  43.90400 10.15300 31.16800
C  46.84000 10.96100 28.89200
C  45.74700 10.98200 32.33900
O  46.88800 11.33900 32.64300
C  44.58600 10.70500 33.37600
C  45.10900 9.78300 34.41000
O  45.82600 8.77900 34.18200
O  44.78300 10.23900 35.68700
C  45.15800 9.27900 36.74900
H  38.47000 7.21900 32.55000
H  39.36600 7.29800 26.29200
H  44.91500 9.94600 26.94800
H  42.37300 8.61500 34.94600
H  39.52500 8.68300 34.49000
H  41.33000 6.78400 35.48200
H  40.80600 6.15000 33.96700
H  39.56100 6.59600 35.10600
H  40.34900 10.85100 34.84300
H  41.94400 11.37000 34.88600
H  42.41600 9.85000 36.93100
H  40.72900 9.52600 37.09900
H  37.41700 5.41400 32.00500
H  36.68600 4.82700 30.57200
H  36.17400 6.34400 31.35900
H  35.02800 6.67900 28.88900
H  35.51100 4.96500 28.62500
H  34.81900 6.03500 27.31700
H  40.97600 8.64600 24.87800
H  43.78100 8.10000 25.41300
H  42.67100 6.23000 24.82100
H  41.05500 6.48100 24.13300
H  41.29100 5.95200 25.83000
H  42.78300 9.74900 23.61300
H  44.28300 10.03900 24.57100
H  43.46200 11.94500 25.44300
H  41.86500 11.11000 25.80800
H  42.16600 11.68200 24.18900
H  47.36000 11.55100 29.64700
H  46.65600 11.54800 27.99200
H  47.43400 10.05400 28.77500
H  44.27700 11.67200 33.77300
H  46.22800 9.07200 36.76800
H  44.65600 8.32000 36.61800
H  44.71400 9.69300 37.65400

