158

Mg 7.61000 2.40600 28.34300
C  9.32100 0.95400 31.09600
C  5.69000 4.10800 30.49400
C  5.92400 3.37900 25.74800
C  9.35700 0.01600 26.31000
N  7.52900 2.46700 30.60600
C  8.35400 1.89800 31.51100
C  8.07300 2.36300 32.94900
C  6.78400 3.28000 32.72600
C  6.64400 3.32500 31.20500
C  5.54600 3.00100 33.51300
C  9.38600 2.97000 33.47600
C  9.84300 2.47100 34.85300
H  10.36500 3.54400 35.81800
N  6.12900 3.71100 28.14300
C  5.40100 4.27800 29.11200
C  4.33200 5.12600 28.54600
C  4.48400 5.07300 27.19700
C  5.54100 3.95600 26.94100
C  3.48300 6.03200 29.34800
C  3.85300 5.89300 26.10100
O  4.18600 5.67100 24.94300
C  2.79900 6.92600 26.43900
N  7.54300 1.69000 26.31000
C  6.83800 2.42000 25.39600
C  7.07800 1.86900 23.98200
C  8.28000 0.88900 24.20200
C  8.43000 0.80600 25.68600
C  5.77500 1.16500 23.20000
C  9.66500 1.30100 23.54800
C  10.70600 2.08700 24.34700
N  8.90000 0.70300 28.65800
C  9.54600 -0.11100 27.72800
C  10.47300 -1.01600 28.35100
C  10.40600 -0.64200 29.71500
C  9.47000 0.42600 29.83300
C  11.39900 -1.96000 27.65500
C  10.94500 -0.88900 31.01500
O  11.80700 -1.68600 31.41600
C  10.23000 0.03600 32.02200
C  9.54700 -0.78100 33.10800
O  8.42100 -1.22100 33.06800
O  10.31200 -0.85000 34.21600
C  9.60200 -1.08800 35.49400
H  5.10400 4.59800 31.27500
H  5.27000 3.67500 24.92500
H  9.92600 -0.60900 25.61900
H  7.69500 1.45700 33.42300
H  7.04800 4.25500 33.13800
H  5.47900 3.70200 34.34500
H  5.49100 2.02500 33.99600
H  4.68600 3.16000 32.86300
H  9.24200 4.05000 33.51400
H  10.13500 2.87400 32.69100
H  10.64200 1.75800 34.65000
H  9.03600 1.98000 35.39800
H  2.44300 6.01300 29.02200
H  3.77000 7.08000 29.26500
H  3.45800 5.71900 30.39200
H  3.23600 7.54800 27.22000
H  1.85200 6.48100 26.74300
H  2.68000 7.62400 25.61000
H  7.32900 2.65200 23.26700
H  7.95000 -0.07600 23.81800
H  4.84400 1.37000 23.72900
H  5.86900 0.09100 23.35500
H  5.70600 1.41000 22.14000
H  9.38100 1.93400 22.70700
H  10.07700 0.39500 23.10400
H  11.64200 1.53100 24.39200
H  10.22800 2.35100 25.29100
H  11.04200 2.88400 23.68500
H  11.59800 -1.50000 26.68700
H  10.89700 -2.91100 27.47800
H  12.29900 -2.14800 28.24100
H  10.92400 0.65400 32.59100
H  10.18300 -0.96900 36.40800
H  9.23900 -2.11300 35.57800
H  8.70300 -0.47800 35.57700
Mg 36.27900 49.45300 26.84300
C  36.63000 47.42000 29.52600
C  35.46600 52.03900 28.96700
C  36.01100 51.42600 24.15300
C  36.97100 46.69600 24.73600
N  36.19500 49.71300 29.01900
C  36.45700 48.74900 29.93700
C  36.29200 49.25500 31.39200
C  35.49300 50.61200 31.08500
C  35.73800 50.88000 29.61300
C  34.03800 50.59200 31.56700
C  37.65700 49.41200 32.23200
C  37.55900 49.35400 33.74300
H  36.23700 49.66900 34.40900
N  35.84200 51.48900 26.63200
C  35.51500 52.39400 27.58800
C  35.06200 53.62700 26.96200
C  35.38000 53.48500 25.58400
C  35.70800 52.08800 25.39900
C  34.60600 54.86400 27.78100
C  35.39600 54.60000 24.50400
O  35.77200 54.45700 23.37500
C  34.89500 56.01800 24.92900
N  36.35200 49.02800 24.69900
C  36.27000 50.06900 23.82300
C  36.59800 49.57000 22.43000
C  36.96100 48.09000 22.64000
C  36.80600 47.93300 24.13800
C  35.46500 49.71500 21.39000
C  38.41600 47.76500 22.18400
C  38.63500 46.93200 20.89900
N  36.64700 47.43400 27.01200
C  36.95600 46.40400 26.09700
C  37.26200 45.17300 26.80100
C  37.04800 45.54500 28.09100
C  36.69800 46.88900 28.18500
C  37.65400 43.90000 26.18600
C  37.11900 45.02900 29.47500
O  37.46200 43.89100 29.82200
C  36.79600 46.19200 30.43100
C  35.63200 45.92400 31.26000
O  34.47100 45.83600 30.87100
O  36.07500 45.76700 32.58100
C  35.03500 45.59400 33.55500
H  35.13600 52.85100 29.61700
H  35.93100 52.12200 23.31500
H  37.26200 45.94400 23.99900
H  35.55800 48.71000 31.98600
H  35.95500 51.44900 31.60800
H  33.61400 49.62400 31.83100
H  33.38000 50.97700 30.78800
H  33.90000 51.29800 32.38600
H  38.16700 50.34800 32.00600
H  38.31500 48.61400 31.88600
H  38.31000 50.03800 34.13800
H  37.84400 48.36600 34.10600
H  35.42900 55.54900 27.98600
H  34.44500 54.61700 28.83100
H  33.69200 55.38500 27.49700
H  35.51400 56.44400 25.71900
H  33.86100 55.87200 25.24200
H  34.98000 56.58100 24.00000
H  37.46100 50.17100 22.14300
H  36.26800 47.35900 22.22300
H  35.45300 50.74900 21.04300
H  34.47400 49.50400 21.79100
H  35.71900 49.03900 20.57400
H  39.00400 47.29500 22.97300
H  38.91000 48.72600 22.03900
H  38.63700 45.87800 21.17700
H  39.58800 47.17400 20.43000
H  37.84200 47.17100 20.19100
H  38.66500 43.87200 25.77900
H  37.16400 43.71300 25.23100
H  37.44600 43.02800 26.80500
H  37.65200 46.29900 31.09800
H  34.34200 44.87300 33.12100
H  34.58500 46.55000 33.82300
H  35.44000 45.18700 34.48100

