158

Mg 8.56500 47.03400 25.33600
C  6.86300 47.06100 28.30000
C  11.22300 48.27700 27.03600
C  10.26900 46.72600 22.48200
C  5.58300 46.87600 23.55400
N  8.92400 47.66200 27.37000
C  8.14200 47.50300 28.46900
C  8.79200 47.90500 29.81800
C  10.07400 48.57400 29.28700
C  10.09700 48.21200 27.78600
C  10.15800 50.13900 29.57700
C  9.04400 46.76800 30.81300
C  8.82000 47.12100 32.30500
H  8.48100 45.91900 33.19500
N  10.47800 47.43000 24.84000
C  11.48300 47.93800 25.63300
C  12.76400 47.78700 24.97300
C  12.53700 47.46500 23.59700
C  11.09500 47.23800 23.53900
C  14.10600 47.99200 25.71700
C  13.50500 47.08800 22.45600
O  13.18800 46.59200 21.39700
C  15.06600 47.41000 22.73600
N  7.98400 46.77400 23.27300
C  8.90300 46.59900 22.29600
C  8.30800 46.08400 21.02900
C  6.78900 46.48600 21.21900
C  6.72100 46.73200 22.77200
C  8.91800 46.56900 19.63800
C  5.93700 45.36000 20.67100
C  4.35800 45.50200 20.68900
N  6.64800 46.89200 25.75900
C  5.51000 46.87100 24.92700
C  4.25800 46.78300 25.75100
C  4.77900 46.77100 27.08900
C  6.24500 46.84800 27.03100
C  2.77300 46.59200 25.34800
C  4.38300 46.78900 28.47900
O  3.30700 46.73700 28.98800
C  5.73000 46.85300 29.27300
C  5.76200 45.59800 30.10200
O  6.08400 44.48600 29.73800
O  5.35300 45.82400 31.40700
C  5.46400 44.65800 32.31800
H  12.04700 48.57000 27.69000
H  10.82300 46.41400 21.59500
H  4.59800 46.90000 23.08300
H  8.19200 48.69500 30.27000
H  10.98600 48.09700 29.64500
H  10.70000 50.75100 28.85500
H  10.56500 50.24300 30.58300
H  9.13500 50.51100 29.53000
H  10.04500 46.36300 30.66400
H  8.40800 45.91600 30.57700
H  8.19700 48.01100 32.40200
H  9.82200 47.41500 32.61800
H  13.92400 48.35800 26.72700
H  14.67400 48.78500 25.23100
H  14.69000 47.07200 25.73100
H  15.41100 46.75300 23.53500
H  15.17300 48.47100 22.96100
H  15.69200 47.24500 21.85900
H  8.46900 45.00700 20.98800
H  6.64000 47.45500 20.74300
H  9.82500 47.14600 19.81600
H  8.18400 47.15300 19.08300
H  9.22800 45.68400 19.08300
H  6.25000 44.42400 21.13300
H  6.22700 45.31600 19.62100
H  4.16200 46.52300 21.01700
H  4.05200 44.77500 21.44200
H  3.83600 45.32200 19.75000
H  2.52800 45.62200 25.78100
H  2.58700 46.52500 24.27600
H  2.16600 47.40400 25.74700
H  5.55500 47.74400 29.87700
H  5.72000 45.06800 33.29500
H  6.34200 44.03200 32.15900
H  4.57500 44.03800 32.19700
Mg -6.30300 24.52500 26.53800
C  -4.55200 26.41700 28.89900
C  -7.07500 22.28600 29.06600
C  -7.88200 22.65700 24.26900
C  -4.98600 26.57200 23.99900
N  -5.95000 24.40000 28.79400
C  -5.37100 25.41000 29.50500
C  -5.54000 25.05800 31.01400
C  -5.96200 23.52800 30.99700
C  -6.41200 23.35600 29.49700
C  -4.80000 22.44700 31.39500
C  -6.64200 26.03400 31.67700
C  -6.36400 26.32900 33.08800
H  -6.94500 25.79400 34.38100
N  -7.30200 22.74600 26.65000
C  -7.52200 21.99900 27.75700
C  -8.25000 20.84000 27.44900
C  -8.61400 20.92600 26.08300
C  -7.98100 22.14800 25.56300
C  -8.68800 19.75100 28.46200
C  -9.52500 19.93700 25.27300
O  -9.73500 20.20100 24.07100
C  -10.27900 18.78300 25.90900
N  -6.52200 24.64800 24.53900
C  -7.23100 23.82000 23.79300
C  -7.48700 24.31200 22.29600
C  -6.42000 25.46700 22.27600
C  -5.86600 25.57900 23.66900
C  -7.39700 23.22500 21.12000
C  -6.88800 26.85300 21.67000
C  -5.96800 27.48100 20.54000
N  -4.98700 26.13400 26.37900
C  -4.61400 26.85600 25.30400
C  -3.86000 27.97800 25.73300
C  -3.77500 27.90500 27.12400
C  -4.51500 26.72100 27.49700
C  -3.33600 28.97300 24.78800
C  -3.23900 28.56500 28.38600
O  -2.60300 29.58100 28.63500
C  -3.73800 27.56500 29.53600
C  -2.53700 27.17600 30.33500
O  -1.67800 26.38600 29.95200
O  -2.63800 27.71200 31.53900
C  -1.67900 27.32900 32.59600
H  -7.32900 21.70400 29.95400
H  -8.37000 22.08700 23.47500
H  -4.71800 27.23800 23.17600
H  -4.61800 25.33200 31.52700
H  -6.88300 23.33100 31.54600
H  -4.71300 21.68600 30.62000
H  -5.06600 21.86100 32.27500
H  -3.82600 22.87200 31.63900
H  -7.57200 25.47300 31.58100
H  -6.79500 26.93100 31.07800
H  -6.38200 27.41800 33.14000
H  -5.30600 26.19500 33.31300
H  -9.57300 19.99700 29.04900
H  -7.85400 19.47300 29.10500
H  -8.96700 18.89300 27.85000
H  -10.71100 19.07000 26.86700
H  -9.59000 17.95900 26.09400
H  -11.17100 18.50400 25.34600
H  -8.40600 24.87500 22.13100
H  -5.62100 25.09200 21.63600
H  -7.59300 22.18200 21.36800
H  -6.44000 23.26700 20.59900
H  -8.21600 23.48300 20.44900
H  -7.00600 27.62400 22.43100
H  -7.85300 26.85600 21.16100
H  -5.66200 28.51100 20.72500
H  -6.55500 27.44000 19.62300
H  -5.10100 26.83900 20.38800
H  -4.13200 29.30900 24.12300
H  -2.56400 28.60000 24.11400
H  -2.88000 29.85900 25.23000
H  -4.44400 28.15100 30.12500
H  -0.69000 27.19200 32.16000
H  -2.06500 26.43100 33.07800
H  -1.54900 28.20600 33.23000

