158

Mg 2.13000 -3.43800 45.32700
C  4.72900 -1.61100 44.12800
C  0.06200 -1.70400 43.09100
C  -0.33800 -5.69900 46.00700
C  4.42600 -5.59200 46.92400
N  2.44900 -1.97100 43.57600
C  3.58200 -1.27500 43.42400
C  3.38700 -0.02500 42.46400
C  1.86500 -0.06900 42.19300
C  1.42500 -1.35800 42.95000
C  1.08200 1.21000 42.63800
C  4.28300 -0.14500 41.17500
C  5.49400 0.78200 40.80700
H  5.50400 1.33700 39.37100
N  0.11600 -3.62700 44.77200
C  -0.53800 -2.73700 43.90400
C  -1.94900 -3.04400 43.92700
C  -2.07800 -4.23900 44.73500
C  -0.75500 -4.63800 45.16900
C  -3.01000 -2.27000 43.15600
C  -3.40200 -5.06300 44.95200
O  -4.42700 -4.77100 44.36400
C  -3.42300 -6.28300 45.92300
N  2.08000 -5.45800 46.28000
C  0.94600 -6.09600 46.51000
C  1.18200 -7.49100 47.20500
C  2.65100 -7.41500 47.45000
C  3.06900 -6.10000 46.86700
C  0.39800 -7.86200 48.50400
C  3.56000 -8.61900 47.01700
C  3.62900 -8.96300 45.56100
N  4.18200 -3.60200 45.57100
C  4.95900 -4.50000 46.29900
C  6.22700 -3.95700 46.36600
C  6.26000 -2.85100 45.47300
C  4.93000 -2.69700 45.01200
C  7.53500 -4.51500 46.98600
C  7.12700 -1.86800 44.90700
O  8.28000 -1.62800 44.99600
C  6.11900 -0.93400 44.03700
C  6.10200 0.40700 44.65000
O  5.50400 0.68200 45.65900
O  6.67300 1.37600 43.90600
C  6.43000 2.76500 44.18700
H  -0.62600 -1.07500 42.52100
H  -1.09200 -6.34200 46.46700
H  5.16900 -6.22300 47.41500
H  3.71400 0.88300 42.97000
H  1.62700 -0.20100 41.13700
H  0.72700 1.07200 43.65900
H  0.30300 1.50700 41.93500
H  1.81100 2.02000 42.60800
H  3.57900 -0.05300 40.34800
H  4.64100 -1.17400 41.14600
H  6.39500 0.20100 41.00300
H  5.52600 1.65200 41.46300
H  -2.69500 -1.49000 42.46300
H  -3.66900 -1.85200 43.91700
H  -3.64400 -2.94800 42.58500
H  -2.82200 -7.13000 45.59100
H  -4.44300 -6.64200 46.05800
H  -3.05700 -6.00500 46.91200
H  0.93100 -8.31600 46.53900
H  2.73500 -7.14200 48.50200
H  -0.25800 -7.08000 48.88700
H  1.15600 -8.14900 49.23300
H  -0.38700 -8.61700 48.47000
H  3.14700 -9.58000 47.32300
H  4.61800 -8.50400 47.25200
H  4.70000 -9.03900 45.37400
H  3.06600 -8.23800 44.97400
H  3.11300 -9.85600 45.20900
H  8.09500 -3.72700 47.49100
H  8.02500 -5.13600 46.23600
H  7.26100 -5.25400 47.73900
H  6.46400 -0.86900 43.00500
H  6.96100 3.38500 43.46500
H  6.82400 3.05900 45.16000
H  5.35600 2.90000 44.05700
Mg -11.72500 38.89500 42.17300
C  -10.26600 35.96600 40.98000
C  -9.33200 40.73600 40.49900
C  -13.52200 41.64700 42.66300
C  -14.67100 36.91200 42.94500
N  -10.11000 38.40500 40.89900
C  -9.54400 37.18200 40.73400
C  -8.17700 37.23700 40.04200
C  -7.76900 38.72900 40.06400
C  -9.13600 39.34000 40.57100
C  -6.57200 39.17900 41.03700
C  -8.46600 36.73800 38.58400
C  -7.45800 35.68800 38.00400
H  -6.39000 36.24700 37.01600
N  -11.45400 40.89700 41.68100
C  -10.38100 41.48300 40.99000
C  -10.45300 42.91100 41.09900
C  -11.65100 43.17200 41.82800
C  -12.32100 41.87100 42.03300
C  -9.43800 43.92000 40.51700
C  -12.20000 44.51900 42.35800
O  -11.55600 45.43900 42.00700
C  -13.37300 44.74400 43.25500
N  -13.83500 39.19700 42.64700
C  -14.19800 40.47200 42.97700
C  -15.65700 40.51900 43.40400
C  -16.11800 38.98000 43.35400
C  -14.81100 38.27200 42.94700
C  -15.80300 41.16200 44.79700
C  -17.32200 38.59300 42.48300
C  -17.15500 38.07400 41.03400
N  -12.32000 36.84400 42.15600
C  -13.51700 36.22800 42.47600
C  -13.34300 34.80000 42.32400
C  -12.03500 34.64100 41.81000
C  -11.53800 35.88000 41.61300
C  -14.40400 33.76800 42.70100
C  -11.00700 33.66600 41.36600
O  -11.03800 32.45300 41.37900
C  -9.74400 34.49400 40.91700
C  -8.76500 34.19600 42.03700
O  -7.71000 33.53700 41.97800
O  -9.16400 34.89100 43.10300
C  -8.13200 34.79800 44.16100
H  -8.42600 41.31000 40.29100
H  -14.11200 42.51300 42.97200
H  -15.54600 36.28200 43.11700
H  -7.48800 36.48000 40.41700
H  -7.61200 39.07600 39.04300
H  -5.69700 39.43900 40.44100
H  -6.22200 38.28000 41.54500
H  -6.75100 40.06100 41.65100
H  -8.50100 37.60500 37.92400
H  -9.47300 36.32700 38.50500
H  -8.04600 34.90400 37.52700
H  -6.92500 35.09600 38.74600
H  -8.41800 43.54000 40.57800
H  -9.40500 44.86300 41.06200
H  -9.65800 44.14100 39.47300
H  -13.15400 45.77100 43.54700
H  -13.33700 44.06300 44.10600
H  -14.34800 44.81000 42.77300
H  -16.15100 41.11700 42.63800
H  -16.36300 38.73700 44.38700
H  -14.95500 40.99000 45.46000
H  -16.67300 40.70200 45.26300
H  -15.93700 42.24100 44.72400
H  -17.92600 39.48900 42.33900
H  -17.79400 37.86200 43.13900
H  -17.68800 37.13000 41.14900
H  -16.16600 37.85100 40.63600
H  -17.75400 38.68000 40.35400
H  -13.94100 32.84100 42.36200
H  -15.36500 33.98000 42.23400
H  -14.63100 33.66900 43.76300
H  -9.39600 34.17600 39.93500
H  -8.28300 35.69600 44.75900
H  -7.12400 34.86100 43.75100
H  -8.14800 33.87700 44.74400

