158

Mg 49.01500 46.52200 42.61800
C  45.74400 47.37100 41.77400
C  48.46300 43.55200 40.86000
C  52.26700 46.00600 42.62800
C  49.52300 49.87400 43.50900
N  47.30200 45.62700 41.37400
C  46.00900 46.05900 41.27000
C  44.98700 45.03000 40.80800
C  45.88600 43.75700 40.85300
C  47.28300 44.27500 41.05900
C  45.42400 42.71300 41.90800
C  44.24200 45.36000 39.49900
C  44.90600 46.30800 38.46500
H  45.80700 45.71400 37.42100
N  50.13600 44.85800 42.03800
C  49.76900 43.76600 41.30200
C  50.93000 42.91000 41.25700
C  52.00300 43.62900 41.87500
C  51.48600 44.96900 42.19300
C  50.94300 41.55700 40.66500
C  53.42700 42.98300 41.94000
O  53.54500 41.76300 41.78000
C  54.61300 43.77400 42.34700
N  50.73100 47.87100 42.70900
C  51.94000 47.34400 42.91800
C  52.96700 48.42100 43.34900
C  52.02600 49.62700 43.70100
C  50.68000 49.09700 43.23400
C  53.87900 47.95000 44.49600
C  52.34200 51.09400 43.08600
C  52.37600 52.20900 44.11600
N  47.90600 48.29300 42.66300
C  48.21300 49.52300 43.24000
C  46.99200 50.36200 43.29900
C  45.97900 49.54400 42.67600
C  46.57100 48.29500 42.41100
C  46.77400 51.82000 43.73200
C  44.60600 49.43300 42.28500
O  43.66700 50.23500 42.30500
C  44.37700 48.05600 41.78900
C  43.38300 47.40000 42.62300
O  43.55300 47.36200 43.81800
O  42.39300 46.82400 41.90800
C  41.49000 46.03100 42.76200
H  48.33900 42.58700 40.36300
H  53.34700 45.88000 42.72700
H  49.68200 50.89700 43.85700
H  44.28700 44.87700 41.62900
H  45.87800 43.25800 39.88400
H  46.20400 42.54300 42.65000
H  45.09900 41.78900 41.43100
H  44.51900 42.95500 42.46600
H  43.22800 45.66300 39.76000
H  44.07000 44.38200 39.05000
H  45.64200 46.93800 38.96400
H  44.16700 46.92800 37.95700
H  50.01500 41.54500 40.09300
H  50.87400 40.81700 41.46200
H  51.81900 41.30500 40.06800
H  54.33700 44.23700 43.29500
H  54.79500 44.39500 41.47000
H  55.40200 43.07400 42.62000
H  53.51700 48.77400 42.47700
H  52.02700 49.67100 44.79000
H  53.73500 46.87600 44.61400
H  53.58700 48.51900 45.37900
H  54.92800 48.11700 44.25000
H  51.58200 51.37100 42.35500
H  53.34000 50.99100 42.66200
H  51.99800 51.90600 45.09200
H  51.72900 53.03200 43.81200
H  53.35500 52.68000 44.20400
H  47.59500 52.13700 44.37400
H  45.82800 51.98100 44.24900
H  46.70100 52.44400 42.84100
H  43.93600 48.26200 40.81400
H  41.83300 45.00300 42.64400
H  40.50000 46.14600 42.32100
H  41.46900 45.97100 43.85000
Mg -2.00100 33.97300 26.70300
C  -3.64000 32.87400 29.49900
C  -0.17600 36.11000 28.70400
C  -0.53200 35.20200 23.94000
C  -3.86700 31.84200 24.70400
N  -1.80200 34.30900 28.93400
C  -2.66900 33.70800 29.83600
C  -2.29500 34.14500 31.23900
C  -1.19600 35.22100 30.99000
C  -0.96800 35.22000 29.41600
C  -1.37200 36.61100 31.58200
C  -1.87300 32.88600 32.05200
C  -2.68200 32.43100 33.28000
H  -2.02500 32.26000 34.63800
N  -0.53700 35.48300 26.33400
C  0.05500 36.27400 27.31200
C  0.92300 37.27900 26.64400
C  0.90000 36.87100 25.29500
C  -0.08400 35.84700 25.11300
C  1.88000 38.25800 27.42000
C  1.55600 37.70000 24.18100
O  1.59100 37.34700 23.03400
C  2.03100 39.03500 24.49100
N  -2.32000 33.72100 24.57000
C  -1.49700 34.26300 23.69300
C  -1.77100 33.79500 22.27700
C  -2.47300 32.48900 22.59500
C  -2.99200 32.68500 24.05300
C  -2.55600 34.77500 21.33100
C  -1.60400 31.21700 22.48800
C  -2.13500 29.97900 21.67500
N  -3.39200 32.63200 26.95700
C  -4.15500 31.79800 26.08500
C  -5.19000 31.14700 26.87500
C  -5.00500 31.53100 28.17300
C  -3.92800 32.38200 28.20200
C  -6.14800 30.11300 26.30500
C  -5.45400 31.26600 29.51100
O  -6.28200 30.51600 29.97300
C  -4.60900 32.18500 30.40000
C  -5.63400 33.03300 31.07700
O  -5.96000 34.14200 30.65100
O  -6.12700 32.40000 32.23600
C  -6.74400 33.26200 33.21500
H  0.47800 36.77300 29.27400
H  -0.18300 35.73800 23.05500
H  -4.27700 31.06600 24.05500
H  -3.22700 34.55800 31.62500
H  -0.29900 34.81400 31.45600
H  -2.30300 36.67200 32.14700
H  -1.44500 37.33800 30.77300
H  -0.51500 36.80200 32.22800
H  -0.85300 32.93500 32.43500
H  -1.75600 32.13400 31.27200
H  -2.95900 31.39600 33.07600
H  -3.63800 32.95400 33.31500
H  1.58200 38.32100 28.46700
H  1.96300 39.28700 27.06900
H  2.89000 37.87500 27.27500
H  1.29200 39.66300 24.99000
H  2.41400 39.52100 23.59400
H  2.95200 38.98600 25.07200
H  -0.76800 33.77700 21.84900
H  -3.35700 32.39300 21.96500
H  -2.88000 35.65700 21.88400
H  -3.53400 34.49500 20.93900
H  -1.93200 35.21500 20.55300
H  -1.42900 30.87700 23.50900
H  -0.64300 31.44800 22.02800
H  -1.41800 29.75900 20.88400
H  -3.05100 30.26200 21.15600
H  -2.30200 29.09400 22.28800
H  -6.91700 30.57800 25.68800
H  -6.73500 29.62200 27.08100
H  -5.48800 29.45900 25.73500
H  -4.08500 31.61700 31.16900
H  -7.36600 34.05800 32.80600
H  -5.94400 33.73000 33.78900
H  -7.50200 32.61500 33.65700

