158

Mg 35.31300 2.96200 30.77400
C  32.65600 3.97300 32.79100
C  37.35100 3.07000 33.35200
C  37.88000 2.14500 28.61100
C  33.22400 3.23000 27.99000
N  34.98000 3.46400 32.88500
C  33.84100 3.79700 33.53500
C  34.04000 3.87200 35.04300
C  35.61600 3.89900 35.12900
C  36.03500 3.43300 33.71900
C  36.23700 5.25100 35.57300
C  33.24700 2.69300 35.75600
C  33.65900 2.26400 37.16400
H  34.28100 3.37400 38.12800
N  37.30400 2.58200 31.00700
C  37.99200 2.63400 32.13500
C  39.38800 2.28100 31.90700
C  39.56800 2.21600 30.52900
C  38.22200 2.31500 29.98700
C  40.29900 2.09300 33.14600
C  40.85000 1.93800 29.75400
O  40.91500 1.84600 28.51000
C  42.20100 1.65500 30.57600
N  35.56900 2.90200 28.55800
C  36.71100 2.50900 27.93700
C  36.41300 2.15100 26.43800
C  34.88200 2.30800 26.35600
C  34.48600 2.85800 27.69400
C  37.28300 3.06200 25.47600
C  34.10300 1.01300 25.94700
C  33.65800 0.87900 24.49500
N  33.41200 3.58500 30.42000
C  32.67700 3.64500 29.21800
C  31.30000 4.00800 29.49500
C  31.22100 4.09000 30.89000
C  32.57700 3.83500 31.40700
C  30.18200 4.11000 28.55100
C  30.35900 4.41500 32.04100
O  29.17900 4.65700 32.10200
C  31.28200 4.40400 33.34400
C  31.25900 5.70000 34.09400
O  31.67700 6.75800 33.65800
O  30.80800 5.47400 35.36700
C  30.59100 6.65100 36.19800
H  38.01200 3.22000 34.20800
H  38.64000 1.66900 27.98700
H  32.58300 3.10200 27.11600
H  33.63300 4.80500 35.43200
H  36.01900 3.37600 35.99600
H  35.61800 6.11100 35.31600
H  37.13400 5.41400 34.97500
H  36.41700 5.27700 36.64700
H  33.44500 1.83900 35.10800
H  32.18000 2.87500 35.88100
H  34.21300 1.32500 37.16600
H  32.73600 1.94800 37.65000
H  41.37300 2.24300 33.03200
H  40.20800 1.04300 33.42400
H  40.00600 2.76100 33.95500
H  42.95700 1.50400 29.80500
H  42.31400 0.79000 31.23000
H  42.48000 2.56300 31.10900
H  36.72300 1.11900 26.26900
H  34.73200 3.11200 25.63600
H  37.37500 4.09800 25.80400
H  36.72400 3.18900 24.54800
H  38.26100 2.60800 25.32000
H  33.25000 1.21400 26.59600
H  34.58800 0.12400 26.34900
H  33.89000 -0.16400 24.28100
H  34.17800 1.66200 23.94300
H  32.58300 1.06000 24.51100
H  29.26600 3.85400 29.08400
H  30.29500 3.51800 27.64300
H  30.14500 5.15400 28.24100
H  30.92500 3.58100 33.96200
H  30.22900 7.52900 35.66300
H  31.51100 7.03000 36.64100
H  29.80800 6.50100 36.94200
Mg 48.10400 16.42200 29.61000
C  45.54700 16.10800 32.00800
C  50.01700 17.85500 32.06600
C  50.21700 16.78800 27.23100
C  45.79200 14.87000 27.31300
N  47.72100 17.04100 31.80500
C  46.72700 16.61400 32.54800
C  47.01200 16.81400 33.95300
C  48.41700 17.61900 34.01300
C  48.77100 17.52400 32.53900
C  48.39400 19.04300 34.53000
C  46.92200 15.56100 34.87800
C  47.78000 15.50900 36.10400
H  47.83500 16.65200 37.10900
N  49.89600 17.22900 29.62800
C  50.60500 17.65400 30.74700
C  51.96800 18.01500 30.27000
C  51.95300 17.89700 28.81000
C  50.63700 17.26800 28.50700
C  52.98400 18.52700 31.26800
C  53.04500 18.26900 27.80800
O  52.92700 18.18400 26.56400
C  54.31600 18.88600 28.32400
N  47.94100 16.12900 27.41500
C  49.04200 16.26000 26.71200
C  48.83600 15.70700 25.28500
C  47.47100 14.91900 25.37100
C  47.05500 15.29700 26.83700
C  48.81900 16.86300 24.20900
C  47.54200 13.33700 25.24700
C  46.91600 12.68500 23.94000
N  46.19700 15.52800 29.64600
C  45.39600 14.96400 28.64800
C  44.13300 14.51800 29.24900
C  44.17300 14.97500 30.56500
C  45.37200 15.63300 30.71900
C  43.02500 13.78600 28.49200
C  43.41100 14.90700 31.85800
O  42.34500 14.42100 32.18200
C  44.28000 15.69600 32.82100
C  43.62900 16.83300 33.63300
O  43.76600 18.04000 33.49400
O  43.02100 16.12600 34.64400
C  42.61600 16.99200 35.74000
H  50.77500 18.28500 32.72400
H  51.05700 16.64600 26.54800
H  45.28700 14.11700 26.70300
H  46.22800 17.51100 34.25000
H  49.18700 16.96600 34.42300
H  49.24900 19.27200 35.16500
H  47.53800 19.12300 35.20000
H  48.43600 19.83100 33.77900
H  47.12900 14.69900 34.24500
H  45.90000 15.52200 35.25600
H  48.73900 15.13200 35.74800
H  47.37600 14.65700 36.65100
H  53.48100 17.64300 31.66800
H  52.48700 18.99700 32.11700
H  53.68200 19.21900 30.79800
H  54.63600 18.23300 29.13700
H  54.12900 19.91600 28.62800
H  55.06400 18.83800 27.53300
H  49.62200 14.97300 25.10100
H  46.74800 15.26000 24.63000
H  49.45600 16.68700 23.34200
H  49.16700 17.77200 24.70000
H  47.81200 17.02700 23.82800
H  46.92300 12.91600 26.03900
H  48.55000 12.99400 25.48000
H  47.57000 12.05000 23.34200
H  46.69700 13.51900 23.27200
H  46.02500 12.09300 24.14700
H  43.02400 14.01300 27.42600
H  42.11900 14.20100 28.93500
H  43.14000 12.71000 28.61900
H  44.57500 14.96300 33.57100
H  41.89700 16.44100 36.34700
H  41.92000 17.80500 35.52900
H  43.42400 17.08800 36.46500

