158

Mg 42.55300 41.45000 26.49900
C  41.58000 43.91900 28.91400
C  43.35800 39.36300 29.12400
C  43.84600 39.34900 24.24000
C  42.12100 43.91900 24.02100
N  42.56200 41.68400 28.78900
C  42.02600 42.69400 29.54600
C  41.94700 42.31000 31.07500
C  42.75100 41.02900 31.07400
C  42.89400 40.60000 29.58800
C  44.15100 41.11100 31.79200
C  40.41500 42.21500 31.41200
C  39.96700 43.18500 32.47600
H  39.14200 42.64200 33.63400
N  43.37900 39.56300 26.69200
C  43.70300 38.91300 27.86700
C  44.22000 37.55200 27.51100
C  44.34700 37.52500 26.07300
C  43.83500 38.86500 25.58700
C  44.60500 36.64900 28.60300
C  44.93200 36.43400 25.14500
O  44.93100 36.56500 23.93000
C  45.57500 35.25200 25.75200
N  42.90900 41.63600 24.47700
C  43.40400 40.56600 23.76100
C  43.49700 40.92000 22.26400
C  42.84600 42.36600 22.07400
C  42.62500 42.66200 23.60100
C  44.84400 40.77200 21.62900
C  41.46900 42.43400 21.41900
C  41.28900 43.70000 20.58300
N  42.07200 43.49300 26.46000
C  41.90400 44.38100 25.36700
C  41.32600 45.65500 25.80800
C  41.16400 45.48600 27.18600
C  41.64500 44.19800 27.54800
C  40.93300 46.83100 25.06300
C  40.71300 46.18100 28.35700
O  40.24400 47.34600 28.44300
C  40.92400 45.15300 29.53900
C  41.64600 45.82800 30.68400
O  42.85000 45.98400 30.73400
O  40.72900 46.41000 31.59900
C  41.31900 47.10100 32.80400
H  43.76400 38.70600 29.89600
H  44.28800 38.74300 23.44600
H  41.84300 44.57000 23.18900
H  42.49500 43.12100 31.55500
H  42.30900 40.20600 31.63500
H  43.88800 41.00100 32.84400
H  44.59100 42.07000 31.51800
H  44.87900 40.36400 31.47500
H  40.27800 41.27200 31.94100
H  39.68000 42.41100 30.63200
H  39.32600 43.87800 31.93200
H  40.76200 43.78100 32.92400
H  45.67900 36.50700 28.48200
H  44.06900 35.74000 28.32700
H  44.19800 36.83500 29.59700
H  45.67900 34.41200 25.06500
H  44.97700 34.85700 26.57400
H  46.48700 35.54800 26.27100
H  42.87700 40.20000 21.72900
H  43.49300 43.14500 21.67200
H  44.91800 39.83400 21.07800
H  45.72300 40.91600 22.25600
H  44.83600 41.53600 20.85200
H  40.65100 42.26200 22.11800
H  41.43600 41.60500 20.71200
H  42.18000 43.84200 19.97200
H  41.11400 44.58300 21.19800
H  40.49900 43.62900 19.83500
H  40.28100 46.63500 24.21100
H  41.88600 47.25900 24.75100
H  40.42500 47.49000 25.76700
H  39.92800 44.88500 29.89400
H  40.68600 47.98200 32.90600
H  42.30100 47.54900 32.64800
H  41.32400 46.35100 33.59600
Mg 26.81100 50.50300 25.67800
C  24.98500 51.39600 28.53500
C  29.27000 49.18400 27.88900
C  29.00300 50.03900 23.13700
C  24.56200 51.91600 23.64400
N  27.08700 50.31900 27.98900
C  26.18100 50.80900 28.93600
C  26.61200 50.47400 30.35700
C  28.04700 49.78400 30.04300
C  28.11600 49.73100 28.56900
C  29.25900 50.57100 30.64600
C  25.62600 49.55200 31.06400
C  25.20700 50.10600 32.39500
H  25.19400 49.10600 33.59900
N  28.86900 49.70400 25.48700
C  29.67400 49.16900 26.54600
C  30.95200 48.76600 25.98200
C  30.92100 49.04900 24.61000
C  29.55800 49.67900 24.33100
C  32.04100 48.17200 26.81300
C  31.86400 48.83000 23.51500
O  31.76600 49.35000 22.39100
C  33.09100 48.01700 23.80800
N  26.77200 51.02800 23.64600
C  27.76700 50.72100 22.81000
C  27.22700 50.82300 21.42300
C  25.95100 51.61300 21.59300
C  25.65900 51.41100 23.07600
C  28.18400 51.53100 20.48400
C  24.73000 51.25100 20.64100
C  24.06900 49.95900 20.91900
N  25.08200 51.48200 25.99200
C  24.26800 52.07200 25.05800
C  23.14000 52.73900 25.67200
C  23.37000 52.49000 27.06200
C  24.56100 51.69800 27.20400
C  22.04900 53.39100 24.89300
C  22.88500 52.73800 28.40700
O  21.91500 53.35600 28.70600
C  23.90500 52.04000 29.38400
C  24.42900 52.99300 30.41000
O  25.44700 53.58000 30.29400
O  23.63500 52.99200 31.50700
C  24.10000 53.83300 32.62000
H  30.07100 48.83600 28.54400
H  29.53200 49.71200 22.24000
H  23.83400 52.39500 22.98600
H  26.85700 51.38500 30.90200
H  28.00900 48.76900 30.44000
H  29.04100 51.00600 31.62100
H  29.70000 51.30700 29.97400
H  30.01300 49.78300 30.65300
H  26.13600 48.62300 31.32000
H  24.79100 49.36300 30.39000
H  24.20400 50.52400 32.31000
H  25.87600 50.91700 32.68500
H  31.79300 47.98600 27.85800
H  32.87400 48.87200 26.88000
H  32.40300 47.24000 26.37900
H  33.79800 48.65900 24.33200
H  33.44100 47.54800 22.88800
H  32.94000 47.18400 24.49600
H  27.02500 49.81000 21.07400
H  26.24200 52.65600 21.47000
H  27.75000 52.37000 19.94100
H  28.39100 50.90900 19.61300
H  29.11000 51.70900 21.03100
H  25.05600 51.29600 19.60200
H  24.01900 52.04600 20.87000
H  23.00400 50.15500 21.03800
H  24.41300 49.40800 21.79400
H  24.16900 49.29400 20.06100
H  22.55100 54.31500 24.60800
H  21.18600 53.51800 25.54700
H  21.84000 52.85200 23.96900
H  23.42100 51.35100 30.07500
H  24.32100 54.86000 32.32900
H  25.02800 53.36000 32.94200
H  23.38000 53.90800 33.43400

