158

Mg 9.61400 47.94500 26.77300
C  8.12100 48.40700 29.78100
C  12.60400 49.16700 28.22600
C  11.10700 47.84000 23.72700
C  6.63000 47.31700 25.34300
N  10.28100 48.70200 28.78400
C  9.46100 48.71700 29.84300
C  10.33400 49.09500 31.10500
C  11.67000 49.62100 30.49200
C  11.49200 49.09500 29.05600
C  11.82100 51.14200 30.59700
C  10.41900 47.97100 32.21000
C  9.85000 48.28300 33.61400
H  9.80900 47.17400 34.73200
N  11.59700 48.33300 26.11100
C  12.68900 48.82900 26.84200
C  13.88700 48.72700 26.00800
C  13.46800 48.40000 24.66900
C  11.97000 48.17300 24.79700
C  15.34200 48.89200 26.67100
C  14.30800 48.26300 23.44400
O  13.81000 48.06300 22.31700
C  15.87200 48.46600 23.44400
N  8.96600 47.56300 24.84300
C  9.69700 47.64700 23.70600
C  8.92700 47.33400 22.40200
C  7.54400 46.88600 22.97200
C  7.67200 47.30700 24.48700
C  8.86400 48.55200 21.50800
C  7.11200 45.40400 22.65800
C  8.13000 44.37900 23.09400
N  7.73800 47.95600 27.36500
C  6.58000 47.57000 26.74800
C  5.45800 47.57400 27.66200
C  6.07800 47.86100 28.85300
C  7.45000 48.09600 28.62400
C  4.07100 47.07400 27.40000
C  5.74200 47.98800 30.23700
O  4.67200 47.85200 30.83000
C  7.09000 48.20800 30.96100
C  7.17900 46.89900 31.64800
O  7.92100 45.97900 31.29000
O  6.53300 46.92600 32.81600
C  6.49600 45.70300 33.67500
H  13.45000 49.58100 28.77700
H  11.61700 47.76400 22.76400
H  5.63000 47.08600 24.97100
H  9.90700 49.87400 31.73800
H  12.54500 49.16700 30.95700
H  11.74800 51.66900 29.64500
H  12.72800 51.43100 31.12800
H  10.97300 51.37900 31.24000
H  11.47100 47.71700 32.33900
H  9.86200 47.10900 31.84300
H  8.83400 48.56600 33.34000
H  10.48300 49.11000 33.93500
H  15.23900 48.89500 27.75600
H  15.75000 49.85900 26.37800
H  15.98300 48.04000 26.44600
H  16.28400 48.72300 22.46800
H  16.05900 47.42200 23.69700
H  16.32500 49.14300 24.16700
H  9.35200 46.51200 21.82700
H  6.80000 47.58300 22.58500
H  9.53700 49.31800 21.89100
H  7.92400 49.10000 21.56500
H  9.14900 48.26200 20.49700
H  7.01900 45.22900 21.58600
H  6.09600 45.21200 23.00200
H  8.56500 44.11700 22.12900
H  7.86700 43.41600 23.53300
H  8.87100 44.81800 23.76100
H  3.87400 46.24000 28.07300
H  3.90600 46.88700 26.33900
H  3.24100 47.72900 27.66500
H  6.87800 48.99400 31.68600
H  6.14400 44.76500 33.24500
H  5.86400 45.91900 34.53700
H  7.54200 45.49500 33.89800
Mg -10.75600 38.78800 43.08300
C  -9.43500 35.70900 41.72400
C  -8.10400 40.38800 41.48300
C  -12.33600 41.62700 43.39000
C  -13.67900 36.92300 43.96200
N  -9.06300 38.06300 41.61700
C  -8.69900 36.82400 41.34000
C  -7.36000 36.81200 40.54800
C  -6.79100 38.23400 40.83500
C  -8.01600 38.95400 41.43500
C  -5.50400 38.24300 41.67200
C  -7.46200 36.43700 38.97400
C  -6.29100 35.72400 38.43900
H  -5.49300 36.38400 37.33300
N  -10.28800 40.80800 42.51500
C  -9.18500 41.20500 41.89800
C  -9.16600 42.66500 41.74600
C  -10.35700 43.13400 42.30700
C  -11.05300 41.89400 42.84800
C  -8.04200 43.39500 40.98400
C  -10.86400 44.58300 42.23500
O  -10.18500 45.41200 41.67400
C  -12.20200 45.07500 42.76000
N  -12.81300 39.17600 43.33500
C  -13.14700 40.43100 43.60700
C  -14.63400 40.55400 44.09400
C  -14.99200 39.02000 44.31000
C  -13.77900 38.31600 43.87000
C  -14.80400 41.52700 45.36400
C  -16.33200 38.53600 43.66500
C  -16.22900 37.90500 42.24500
N  -11.31300 36.75300 43.14400
C  -12.54900 36.17200 43.48700
C  -12.37800 34.72800 43.42300
C  -11.17100 34.48300 42.74400
C  -10.62900 35.74000 42.45300
C  -13.32200 33.61100 43.87500
C  -10.30700 33.48600 42.15400
O  -10.47500 32.25900 42.08100
C  -9.14200 34.27200 41.43500
C  -7.85200 33.84200 41.82300
O  -7.05100 33.19900 41.10100
O  -7.62100 34.11400 43.12900
C  -6.36700 33.56700 43.68600
H  -7.34100 40.95000 40.94000
H  -12.89200 42.49800 43.74300
H  -14.50800 36.35100 44.38200
H  -6.78400 36.04600 41.07000
H  -6.65500 38.89200 39.97700
H  -5.64600 38.53600 42.71200
H  -4.85600 39.01000 41.24800
H  -5.01200 37.27600 41.56600
H  -7.83000 37.24700 38.34400
H  -8.31100 35.75400 38.96100
H  -6.56200 34.76700 37.99400
H  -5.65600 35.53900 39.30500
H  -8.23200 44.45700 40.83400
H  -7.92500 42.82500 40.06200
H  -7.11100 43.24300 41.53100
H  -13.02400 44.44600 42.41800
H  -12.48500 46.11500 42.59400
H  -12.15700 44.91600 43.83700
H  -15.24900 40.88000 43.25600
H  -15.20700 38.92100 45.37500
H  -15.57000 41.08700 46.00400
H  -15.20200 42.45400 44.95100
H  -13.86800 41.64000 45.91000
H  -16.94400 39.43200 43.55700
H  -16.89200 37.75600 44.17900
H  -16.65600 36.90700 42.34600
H  -15.20800 37.71600 41.91600
H  -16.76800 38.60400 41.60500
H  -14.14500 33.58800 43.16100
H  -13.80400 33.92900 44.79900
H  -12.93300 32.59300 43.87700
H  -9.11800 34.11800 40.35600
H  -6.14800 33.68800 44.74700
H  -5.60600 34.07200 43.09000
H  -6.33700 32.48200 43.58800

