158

Mg -2.41300 17.05200 26.07700
C  -2.90200 14.76500 28.83900
C  -2.90300 19.57500 28.26800
C  -2.48700 18.92200 23.41400
C  -2.65600 14.06200 23.98900
N  -2.97600 17.14700 28.30600
C  -2.97300 16.15300 29.25200
C  -3.13900 16.73600 30.66600
C  -3.18000 18.27100 30.45000
C  -3.01800 18.38100 28.89700
C  -4.55400 18.87800 30.87600
C  -1.96800 16.45800 31.68300
C  -1.81000 17.24000 33.01100
H  -2.00100 16.49500 34.26000
N  -2.55900 18.97900 25.89400
C  -2.67600 19.88500 26.87800
C  -2.53800 21.22400 26.29100
C  -2.44800 21.06200 24.92800
C  -2.45300 19.59700 24.68300
C  -2.52600 22.51500 27.16200
C  -2.21500 22.09600 23.75000
O  -2.19900 21.93200 22.56400
C  -2.08400 23.47300 24.21800
N  -2.44000 16.58100 23.97200
C  -2.38900 17.55300 23.07500
C  -2.32500 16.95900 21.67800
C  -2.20900 15.47700 21.92400
C  -2.42700 15.33900 23.42500
C  -3.57900 17.35400 20.79600
C  -0.89800 14.84400 21.38300
C  0.33700 14.98900 22.26200
N  -2.73700 14.80100 26.22800
C  -2.87400 13.80300 25.29600
C  -2.99600 12.52000 26.04200
C  -3.02400 12.80900 27.40100
C  -2.82300 14.20700 27.48900
C  -2.98900 11.10600 25.39800
C  -3.12900 12.25000 28.72600
O  -3.19700 11.10500 29.10600
C  -3.03800 13.51100 29.72800
C  -1.86900 13.26900 30.61900
O  -0.76700 13.77200 30.37700
O  -2.28800 12.49800 31.65100
C  -1.33700 12.11500 32.68700
H  -3.05500 20.46400 28.88500
H  -2.48200 19.48100 22.47600
H  -2.77200 13.19400 23.33700
H  -4.12500 16.47600 31.05000
H  -2.32200 18.80700 30.85400
H  -4.23300 19.71900 31.49000
H  -5.22300 18.26200 31.47700
H  -5.20300 19.28000 30.09800
H  -1.05200 16.64000 31.12200
H  -2.08300 15.41400 31.97600
H  -2.52400 18.06200 32.96500
H  -0.82700 17.69800 32.90600
H  -2.41700 22.26200 28.21700
H  -3.42300 23.08000 26.91200
H  -1.62000 23.08800 26.96400
H  -2.89000 23.75400 24.89600
H  -2.16300 24.13100 23.35200
H  -1.11600 23.54300 24.71300
H  -1.44400 17.33900 21.16200
H  -3.00100 14.87800 21.47400
H  -4.16900 18.20800 21.12900
H  -4.40400 16.64900 20.89800
H  -3.16900 17.35400 19.78600
H  -0.59400 15.31600 20.44900
H  -1.10400 13.78200 21.25100
H  0.00200 15.30700 23.24900
H  1.02700 15.74500 21.88700
H  0.84300 14.03300 22.39000
H  -4.01800 10.88500 25.11500
H  -2.63600 10.40100 26.15000
H  -2.21300 11.08100 24.63300
H  -3.94000 13.54300 30.33800
H  -1.66700 11.24500 33.25300
H  -1.11900 12.92000 33.38900
H  -0.35200 11.80100 32.34100
Mg 40.09400 8.27600 29.85600
C  41.91300 9.85200 32.53100
C  38.02800 7.05300 32.20700
C  38.41400 6.72200 27.44800
C  42.57100 9.29100 27.67800
N  40.07400 8.35100 32.05100
C  40.77000 9.17300 32.94600
C  40.22300 9.07900 34.37000
C  39.12400 8.06600 34.20200
C  39.08400 7.79200 32.76000
C  39.32800 6.81700 35.16000
C  39.61300 10.44200 34.82700
C  38.99400 10.63200 36.21400
H  39.73500 11.44600 37.24500
N  38.34100 7.08600 29.82200
C  37.66400 6.69400 30.91400
C  36.57200 5.88900 30.51500
C  36.63300 5.75800 29.07900
C  37.82900 6.51400 28.74300
C  35.54500 5.40900 31.46800
C  35.69200 5.00800 28.11700
O  35.85100 4.80500 26.91700
C  34.49800 4.40400 28.71400
N  40.37300 8.06400 27.83900
C  39.54900 7.42900 27.01800
C  40.00700 7.40400 25.57100
C  41.13600 8.52000 25.60400
C  41.37000 8.64000 27.13300
C  40.47200 6.00300 25.01300
C  40.63100 9.83600 24.86100
C  39.60800 10.79700 25.49100
N  41.94500 9.23500 30.01400
C  42.83800 9.62400 29.02200
C  43.90600 10.35200 29.61400
C  43.55800 10.45400 30.99500
C  42.39500 9.72000 31.21000
C  45.11200 10.80800 28.96000
C  43.95900 11.07700 32.23200
O  44.91200 11.87000 32.48500
C  42.89200 10.76600 33.25900
C  43.35600 10.10100 34.46800
O  44.04400 9.09000 34.39700
O  43.06800 10.90100 35.56800
C  43.66200 10.39900 36.81700
H  37.32800 6.80300 33.00800
H  37.74500 6.31500 26.68700
H  43.26200 9.67700 26.92600
H  40.94600 8.71400 35.10000
H  38.12800 8.46800 34.38600
H  40.39500 6.66600 35.32500
H  39.06100 5.83200 34.77700
H  38.71400 6.85800 36.06000
H  39.07400 10.95300 34.02900
H  40.53300 11.01800 34.92600
H  38.65000 9.70000 36.66300
H  38.08300 11.12800 35.87900
H  34.67000 6.05500 31.41500
H  36.00500 5.41800 32.45700
H  35.34300 4.35400 31.28000
H  34.64300 3.52000 29.33500
H  33.74700 4.05700 28.00500
H  33.99200 5.06600 29.41700
H  39.16800 7.71200 24.94700
H  42.04000 8.17200 25.10500
H  40.77400 5.31500 25.80200
H  41.28700 6.11100 24.29700
H  39.58400 5.60300 24.52300
H  40.30000 9.59100 23.85100
H  41.46100 10.53700 24.94400
H  39.23800 10.15600 26.29200
H  38.70400 11.16000 25.00000
H  39.90100 11.65100 26.10200
H  45.48000 11.73400 29.40200
H  44.92600 11.00100 27.90400
H  45.95400 10.12000 29.02800
H  42.46500 11.75300 33.43500
H  43.68300 11.13800 37.61700
H  44.70000 10.08300 36.70700
H  43.09200 9.53500 37.15700

