158

Mg 41.52700 8.63800 29.74500
C  43.31900 9.69300 32.36500
C  39.18500 7.32400 31.97700
C  39.95500 7.17100 27.08200
C  44.19400 9.44000 27.54800
N  41.35300 8.47700 31.87200
C  42.10100 9.19500 32.75800
C  41.65800 9.05600 34.16100
C  40.50000 8.04500 34.13700
C  40.32000 7.92000 32.59200
C  40.83800 6.63300 34.71800
C  41.37100 10.47400 34.67600
C  40.96200 10.67300 36.15100
H  41.73700 9.94800 37.25700
N  39.75800 7.47000 29.53600
C  38.90800 7.08000 30.59100
C  37.83100 6.25600 30.01900
C  37.94500 6.32300 28.59600
C  39.30400 6.90000 28.33300
C  36.68000 5.48800 30.82300
C  36.84100 6.01500 27.49400
O  37.10900 6.24700 26.30300
C  35.44600 5.63100 27.89400
N  42.09500 8.28500 27.71100
C  41.18700 7.77300 26.82200
C  41.63900 7.94300 25.35700
C  42.86700 8.85000 25.53500
C  43.09200 8.86200 26.96900
C  42.06600 6.59900 24.65600
C  42.68300 10.28000 25.04400
C  43.84200 10.78500 24.24000
N  43.40300 9.39400 29.90500
C  44.37300 9.65700 28.95400
C  45.52500 10.22300 29.66300
C  45.08800 10.29000 30.98700
C  43.88000 9.76800 31.11300
C  46.85000 10.68300 29.10300
C  45.49600 10.77300 32.27300
O  46.44200 11.40700 32.70300
C  44.37600 10.33300 33.25200
C  45.02300 9.37800 34.24600
O  44.85600 8.17200 34.16100
O  45.61700 10.13100 35.23100
C  46.07100 9.36700 36.42200
H  38.56300 6.88600 32.76000
H  39.56800 6.58800 26.24400
H  44.92000 9.92500 26.89200
H  42.43100 8.61700 34.79100
H  39.60600 8.42600 34.62900
H  41.88800 6.48200 34.97000
H  40.55200 5.86800 33.99700
H  40.16500 6.67300 35.57400
H  40.37200 10.73500 34.32800
H  42.02300 11.25000 34.27500
H  39.88000 10.62200 36.27700
H  41.26900 11.69600 36.36800
H  35.78700 6.10300 30.71200
H  36.91800 5.32300 31.87400
H  36.49300 4.50400 30.39400
H  34.92100 6.35700 28.51500
H  35.52300 4.66400 28.39100
H  34.95400 5.45200 26.93800
H  40.81500 8.41200 24.81900
H  43.85500 8.47500 25.26600
H  41.80200 5.77600 25.32000
H  43.13800 6.50800 24.48000
H  41.58300 6.41500 23.69700
H  42.45900 11.00800 25.82400
H  41.86400 10.26500 24.32500
H  44.27600 11.63400 24.76900
H  43.47700 11.26100 23.33000
H  44.69600 10.12100 24.10900
H  47.17800 10.06900 28.26500
H  47.58000 10.57900 29.90600
H  46.74600 11.72100 28.78700
H  44.14600 11.27500 33.75000
H  45.36300 9.59400 37.22000
H  47.05800 9.73900 36.69900
H  46.00600 8.29600 36.23000
Mg 48.25800 15.67100 28.55900
C  46.06200 15.47900 31.21400
C  50.62400 16.93300 30.78100
C  50.30300 16.04500 25.90700
C  45.75000 14.49500 26.49800
N  48.29400 16.31000 30.79000
C  47.29600 16.00800 31.63900
C  47.73100 16.36000 33.05700
C  49.08700 17.13100 32.85800
C  49.37000 16.86000 31.37400
C  49.03700 18.65700 33.18100
C  47.94100 15.08600 33.94700
C  47.48300 15.12400 35.40400
H  47.33700 16.45300 36.14600
N  50.18900 16.39600 28.37900
C  50.97100 16.86900 29.35800
C  52.27200 17.22900 28.78500
C  52.35400 16.80500 27.40600
C  50.90100 16.35300 27.16400
C  53.43500 17.78200 29.72500
C  53.46100 16.87200 26.42800
O  53.32000 16.46800 25.27100
C  54.82400 17.46300 26.81700
N  48.02900 15.37400 26.50300
C  48.99000 15.66300 25.59200
C  48.46400 15.43400 24.17800
C  47.14100 14.68100 24.38500
C  46.95000 14.79800 25.89000
C  48.33800 16.71500 23.37300
C  47.16200 13.23400 23.68300
C  47.53300 11.99500 24.57100
N  46.32000 14.95600 28.75000
C  45.40500 14.49300 27.84700
C  44.21800 14.09400 28.55700
C  44.46000 14.36100 29.90200
C  45.78100 14.91300 29.93500
C  43.06300 13.48100 27.95400
C  43.90500 14.33200 31.26400
O  42.86400 13.83400 31.66700
C  45.02700 15.00100 32.13700
C  44.51600 16.08100 33.12600
O  44.47800 17.31600 32.90400
O  44.09100 15.39500 34.28100
C  43.49200 16.24500 35.30100
H  51.43500 17.38300 31.35800
H  50.99200 16.15900 25.06700
H  45.00200 14.17900 25.76700
H  47.08100 17.07900 33.55600
H  49.82200 16.69600 33.53500
H  49.23400 19.18400 32.24700
H  49.78700 18.91900 33.92800
H  48.01000 18.91400 33.44100
H  48.97200 14.73500 33.91300
H  47.55800 14.19100 33.45800
H  48.28300 14.67000 35.98900
H  46.52800 14.62800 35.57500
H  53.47900 17.40300 30.74600
H  53.37500 18.87000 29.69100
H  54.45800 17.54300 29.43600
H  54.78300 18.45400 27.26800
H  55.27600 17.74600 25.86600
H  55.50000 16.84100 27.40400
H  49.15800 14.78100 23.64900
H  46.31300 15.18800 23.89100
H  47.42300 16.83500 22.79300
H  49.17200 16.80300 22.67800
H  48.41900 17.54700 24.07200
H  47.82600 13.14900 22.82300
H  46.17300 13.05400 23.26100
H  48.12900 11.29300 23.98800
H  46.68000 11.44600 24.97100
H  48.05300 12.36500 25.45500
H  43.35700 12.55800 27.45400
H  42.68600 14.28300 27.31900
H  42.36300 13.23700 28.75300
H  45.51000 14.30400 32.82100
H  44.11000 17.12200 35.49500
H  43.28200 15.70700 36.22500
H  42.57300 16.71900 34.95500

