158

Mg -1.70800 16.96500 26.28600
C  -2.23200 15.01800 29.08000
C  -1.95700 19.76100 28.16200
C  -1.87400 18.78500 23.31200
C  -1.89700 14.07300 24.23500
N  -2.21000 17.26700 28.35200
C  -2.34900 16.36100 29.33300
C  -2.70800 17.05200 30.74200
C  -2.50400 18.61600 30.36500
C  -2.16000 18.53100 28.85700
C  -3.71600 19.54400 30.69300
C  -1.75300 16.50700 31.87200
C  -1.49400 17.39100 33.11600
H  -1.25500 16.58100 34.42500
N  -1.73500 18.97600 25.80300
C  -1.97800 19.98500 26.70000
C  -2.18600 21.24600 25.99600
C  -2.19000 20.95300 24.60100
C  -1.86300 19.54500 24.51700
C  -2.41900 22.55800 26.66400
C  -2.54600 21.87600 23.47900
O  -2.52800 21.53200 22.30500
C  -3.17900 23.18300 23.75700
N  -1.75000 16.43600 24.02700
C  -1.85100 17.42500 23.05200
C  -1.84300 16.75700 21.64900
C  -1.69900 15.21600 21.90100
C  -1.81600 15.17800 23.44800
C  -3.02300 17.21600 20.74000
C  -0.53500 14.36700 21.28800
C  0.89800 14.74000 21.79700
N  -1.99300 15.00200 26.53600
C  -2.03200 14.00400 25.63600
C  -2.07100 12.74800 26.36600
C  -2.15000 13.06900 27.68600
C  -2.10700 14.49700 27.77100
C  -2.06700 11.34300 25.80000
C  -2.19600 12.52900 28.99900
O  -2.20800 11.36200 29.37600
C  -2.32000 13.76600 30.02900
C  -1.25100 13.56800 31.01300
O  -0.05000 13.70300 30.81100
O  -1.77000 13.02300 32.15600
C  -0.79600 12.73100 33.13300
H  -1.96800 20.62700 28.82700
H  -1.94300 19.34200 22.37600
H  -1.86800 13.17300 23.61800
H  -3.75500 16.86500 30.97900
H  -1.58600 19.02800 30.78500
H  -3.26600 20.38600 31.21900
H  -4.37500 19.08500 31.43100
H  -4.30800 19.88000 29.84200
H  -0.83600 16.23700 31.34700
H  -2.18900 15.61200 32.31600
H  -2.31500 18.08100 33.30900
H  -0.61100 18.00200 32.92300
H  -1.53300 23.17300 26.50600
H  -2.60000 22.37700 27.72400
H  -3.32100 23.06700 26.32400
H  -4.11500 22.99900 24.28500
H  -3.30300 23.65900 22.78500
H  -2.58900 23.86900 24.36500
H  -0.85300 16.92300 21.22500
H  -2.55400 14.69800 21.46800
H  -3.52100 17.84000 21.48200
H  -3.73000 16.45700 20.40400
H  -2.76400 17.89100 19.92500
H  -0.54100 14.81600 20.29400
H  -0.72300 13.29300 21.28500
H  1.52200 15.22600 21.04700
H  1.39000 13.93000 22.33500
H  0.95000 15.51600 22.56100
H  -1.61900 10.74700 26.59500
H  -1.56500 11.31100 24.83300
H  -3.09600 11.03600 25.61600
H  -3.21000 13.82600 30.65500
H  -0.33000 13.68700 33.37400
H  -0.00700 12.06400 32.78400
H  -1.19300 12.28300 34.04400
Mg 0.38200 7.45300 25.85300
C  1.39100 9.57700 28.53700
C  0.69200 4.86500 27.99900
C  -0.14900 5.51300 23.27700
C  1.13700 10.12900 23.61000
N  1.30500 7.33300 27.92900
C  1.35800 8.26500 28.86000
C  1.30700 7.71200 30.32900
C  1.27300 6.20300 30.07600
C  1.16500 6.09500 28.53600
C  2.34700 5.33500 30.76100
C  0.11800 8.25100 31.17000
C  -0.04600 7.51500 32.51700
H  1.19300 6.84300 33.21300
N  0.18100 5.46600 25.77600
C  0.22100 4.55000 26.76500
C  -0.11300 3.22200 26.26500
C  -0.37700 3.37300 24.85200
C  -0.17800 4.86500 24.58400
C  0.02200 1.93100 27.15600
C  -0.76400 2.43900 23.83300
O  -1.00400 2.71000 22.64700
C  -0.91100 0.99600 24.28800
N  0.48300 7.81200 23.68200
C  0.27100 6.79500 22.84500
C  0.29600 7.27500 21.36400
C  0.78100 8.67500 21.45200
C  0.72600 8.95400 22.99900
C  1.01600 6.33200 20.36800
C  -0.02000 9.78100 20.63200
C  0.93000 10.67100 19.74200
N  1.05200 9.49800 25.98600
C  1.19200 10.47800 25.07400
C  1.44700 11.75700 25.72000
C  1.57800 11.43900 27.08100
C  1.35800 10.04300 27.14100
C  1.78200 13.01700 24.99400
C  1.84000 11.94700 28.36700
O  2.11500 13.08300 28.78800
C  1.58900 10.78700 29.36000
C  2.59200 10.71100 30.43300
O  3.64900 10.14200 30.32300
O  2.16900 11.34400 31.61500
C  3.16100 11.29000 32.73100
H  0.62000 4.08300 28.75700
H  -0.49900 4.87600 22.46200
H  1.30800 10.90700 22.86300
H  2.29600 7.91200 30.74000
H  0.30800 5.88500 30.47000
H  3.03400 5.89300 31.39700
H  2.95300 4.92400 29.95300
H  1.86900 4.58600 31.39200
H  -0.79900 8.10800 30.59800
H  0.23200 9.30000 31.44300
H  -0.89700 6.85300 32.35400
H  -0.29500 8.32800 33.19800
H  0.88600 1.30600 26.93100
H  -0.92700 1.41600 27.00500
H  0.02700 2.18300 28.21600
H  -1.16900 0.49700 23.35300
H  -1.77100 0.98100 24.95800
H  0.06100 0.72700 24.70100
H  -0.75300 7.26300 21.06800
H  1.80800 8.65300 21.08600
H  1.35900 5.54400 21.03900
H  1.71000 6.99300 19.84800
H  0.26100 5.97900 19.66600
H  -0.57100 10.46100 21.28100
H  -0.84600 9.38600 20.04000
H  0.82100 10.44000 18.68200
H  1.97700 10.51300 20.00000
H  0.70800 11.70700 20.00000
H  2.43000 13.63900 25.61200
H  0.88400 13.56400 24.70900
H  2.32200 12.72800 24.09200
H  0.69000 11.06300 29.91300
H  4.00100 11.85000 32.31900
H  3.28500 10.26600 33.08100
H  2.73100 11.80600 33.58900

