158

Mg 46.65500 25.53300 29.04100
C  48.02300 27.77400 31.53700
C  46.03500 23.43300 31.76600
C  46.03600 23.14400 26.85700
C  47.92900 27.68900 26.74700
N  46.92800 25.67200 31.43800
C  47.39500 26.69500 32.16200
C  47.14300 26.48700 33.67400
C  46.79400 24.96100 33.73400
C  46.52100 24.71000 32.21800
C  47.74300 24.08400 34.50300
C  46.10400 27.35400 34.28500
C  46.43800 27.99200 35.62000
H  45.44300 28.00900 36.82400
N  45.94000 23.62200 29.28900
C  45.80400 22.93900 30.44600
C  45.30100 21.58600 30.13000
C  45.29100 21.53100 28.73400
C  45.77300 22.80400 28.19500
C  44.70100 20.69000 31.10500
C  45.05500 20.34500 27.84600
O  45.12800 20.36500 26.64800
C  44.64000 19.05200 28.42100
N  46.91700 25.43300 27.02800
C  46.55200 24.36000 26.26600
C  46.79900 24.71800 24.81700
C  47.17100 26.16900 24.80100
C  47.40800 26.41500 26.29500
C  47.79700 23.74400 24.06600
C  46.10500 27.17000 24.21700
C  46.51000 27.83600 22.87500
N  47.70100 27.41400 29.05600
C  48.12700 28.18100 28.05000
C  48.70600 29.41900 28.52700
C  48.66700 29.28500 29.91900
C  48.14600 28.04000 30.15000
C  49.33500 30.54200 27.72100
C  48.96200 29.89700 31.10900
O  49.46400 30.99500 31.42400
C  48.58200 28.98400 32.23200
C  49.72200 28.47900 33.08100
O  50.47300 27.58300 32.88100
O  49.63400 29.17500 34.26300
C  50.45500 28.72800 35.40500
H  45.96800 22.70400 32.57600
H  45.62600 22.58000 26.01600
H  48.16000 28.35600 25.91400
H  48.12100 26.66800 34.12000
H  45.84700 24.87400 34.26600
H  47.30800 23.58300 35.36700
H  48.60300 24.59300 34.93800
H  48.15700 23.29300 33.87800
H  45.15400 26.83200 34.40300
H  45.82100 28.11000 33.55200
H  46.42200 29.02000 35.25600
H  47.46800 27.81200 35.92800
H  45.55800 20.08300 31.39500
H  43.82500 20.14600 30.75100
H  44.55300 21.15900 32.07800
H  43.56400 19.09800 28.59100
H  45.25900 18.77600 29.27400
H  44.87800 18.29000 27.67900
H  45.81200 24.58400 24.37400
H  48.14300 26.32800 24.33500
H  48.66400 24.30900 23.72300
H  47.28000 23.46700 23.14800
H  48.11100 22.88500 24.65900
H  46.00500 27.97700 24.94300
H  45.12200 26.71900 24.08600
H  47.55900 27.65300 22.64200
H  46.32300 28.90900 22.91100
H  45.88000 27.37200 22.11600
H  50.23900 30.12700 27.27600
H  49.62000 31.45200 28.24900
H  48.64400 30.71700 26.89600
H  47.89400 29.60000 32.81100
H  51.47900 29.10100 35.38900
H  50.56400 27.64300 35.43300
H  50.14600 29.16300 36.35500
Mg -1.40000 34.17900 26.53400
C  -3.13100 32.54600 29.02300
C  -0.05500 36.27800 28.70700
C  0.00100 35.78700 23.94900
C  -3.11500 32.12800 24.14400
N  -1.77100 34.46500 28.61000
C  -2.38200 33.62800 29.46100
C  -2.01000 34.06900 30.91100
C  -1.26400 35.35500 30.69600
C  -0.95700 35.37600 29.23700
C  -2.14100 36.60900 30.92300
C  -1.37500 32.82200 31.72900
C  -2.06400 32.24800 32.94400
H  -1.37300 32.30700 34.25700
N  0.01300 35.65600 26.36000
C  0.44300 36.38100 27.41500
C  1.31500 37.40900 26.95700
C  1.32200 37.36800 25.49200
C  0.40300 36.19200 25.19800
C  2.06100 38.44500 27.85800
C  2.05400 38.21900 24.40000
O  2.06800 37.86400 23.18800
C  2.84000 39.35800 24.85500
N  -1.59100 33.95600 24.28400
C  -0.73500 34.68200 23.52200
C  -0.83100 34.23400 22.07200
C  -1.96400 33.22100 22.01000
C  -2.22000 33.09200 23.58400
C  -0.99400 35.40300 21.00800
C  -1.73900 31.88000 21.23300
C  -0.81000 30.91500 21.95400
N  -2.87000 32.60000 26.51600
C  -3.46400 31.94700 25.50500
C  -4.35800 31.00800 26.06500
C  -4.18600 31.16800 27.43700
C  -3.32000 32.18500 27.68400
C  -5.27200 30.08700 25.26900
C  -4.66700 30.59700 28.72200
O  -5.49200 29.69400 28.88800
C  -3.91200 31.48500 29.78400
C  -5.03700 31.94000 30.60600
O  -5.61800 33.02500 30.50400
O  -5.21800 31.05300 31.60300
C  -6.23200 31.42400 32.61500
H  0.53700 36.86200 29.41500
H  0.29600 36.37300 23.07600
H  -3.73600 31.63900 23.39100
H  -2.99300 34.34100 31.29500
H  -0.39100 35.36200 31.34900
H  -2.01400 36.93700 31.95400
H  -3.21300 36.52200 30.74600
H  -2.00800 37.47900 30.28000
H  -0.36300 33.08100 32.04200
H  -1.24600 32.02300 30.99800
H  -2.04600 31.18300 32.71200
H  -3.07700 32.63200 33.06400
H  3.11900 38.24000 27.69900
H  1.83200 38.45500 28.92400
H  1.71300 39.43700 27.57100
H  2.23800 40.00300 25.49600
H  3.27700 39.92500 24.03300
H  3.63600 39.01000 25.51300
H  0.14400 33.84100 21.78100
H  -2.82300 33.69900 21.53900
H  -1.38700 36.33500 21.41500
H  -1.70400 35.12300 20.23000
H  -0.06100 35.65300 20.50200
H  -1.28900 32.12000 20.27000
H  -2.70000 31.39400 21.06200
H  -1.19200 29.89400 21.94300
H  -0.77800 31.25000 22.99100
H  0.16300 30.82500 21.47100
H  -4.67100 29.18200 25.35600
H  -5.28400 30.34400 24.21000
H  -6.25700 30.09600 25.73500
H  -3.39400 30.81300 30.46800
H  -5.94500 32.25400 33.26200
H  -6.42100 30.52900 33.20700
H  -7.16500 31.63300 32.09300

