158

Mg 44.91600 3.80900 46.69500
C  42.63800 6.31200 46.01400
C  42.27900 1.55400 46.85300
C  47.21900 1.49200 47.11500
C  47.49500 6.24000 46.10300
N  42.72300 3.94700 46.36300
C  42.01000 5.03800 46.00900
C  40.51700 4.68400 45.72800
C  40.41800 3.19100 46.30400
C  41.88700 2.87500 46.49100
C  39.67500 3.01800 47.65100
C  40.20900 4.65000 44.17700
C  39.26000 5.70300 43.63000
H  39.50100 6.55900 42.27600
N  44.82200 1.78600 46.90500
C  43.63700 1.06900 46.96800
C  44.03500 -0.31800 47.00200
C  45.46200 -0.42600 47.17000
C  45.93300 0.95200 47.03300
C  43.04000 -1.48300 46.98600
C  46.35300 -1.72400 47.24100
O  45.83100 -2.80000 47.09100
C  47.83000 -1.71400 47.58300
N  47.05900 3.82000 46.52300
C  47.81700 2.76100 46.91600
C  49.29400 3.13500 47.12000
C  49.37400 4.49000 46.35400
C  47.88300 4.92100 46.27600
C  49.77900 3.09500 48.63800
C  50.06100 4.44400 45.01000
C  51.59800 4.67900 44.96900
N  45.10300 5.87600 46.26400
C  46.18300 6.71300 46.06200
C  45.70700 8.08900 45.96400
C  44.30000 8.01600 45.91600
C  44.00200 6.58200 46.09600
C  46.54900 9.29700 45.84200
C  43.07900 8.70000 45.82600
O  42.89900 9.87400 45.64200
C  41.95400 7.71600 45.93700
C  41.12000 8.12400 47.09300
O  41.63200 8.39100 48.20200
O  39.80100 8.31600 46.69300
C  38.90500 8.61300 47.78700
H  41.47400 0.81700 46.80600
H  47.88400 0.72200 47.51100
H  48.35000 6.91800 46.15500
H  39.97700 5.42100 46.32300
H  39.87500 2.46400 45.70100
H  38.80400 2.36400 47.64000
H  39.43600 4.00900 48.03900
H  40.37200 2.54800 48.34600
H  39.61100 3.74900 44.03600
H  41.12000 4.52300 43.59200
H  39.06800 6.43300 44.41600
H  38.36100 5.14200 43.37800
H  42.88900 -1.85800 47.99800
H  43.35600 -2.32000 46.36200
H  42.10300 -1.11400 46.56900
H  48.11900 -1.00900 48.36300
H  48.33100 -1.50500 46.63800
H  48.12000 -2.73800 47.81800
H  49.87300 2.35700 46.62200
H  49.93900 5.25200 46.89100
H  50.33700 2.18600 48.86200
H  48.95300 3.19100 49.34200
H  50.46300 3.90100 48.90600
H  49.57300 5.09200 44.28100
H  49.79100 3.43400 44.70100
H  51.87500 5.01600 43.97000
H  52.05900 3.74400 45.28600
H  51.86400 5.45700 45.68500
H  47.50400 9.04600 46.30300
H  45.95400 10.15400 46.15700
H  46.72100 9.56900 44.80000
H  41.29000 7.81000 45.07800
H  38.98900 7.69000 48.36000
H  37.87400 8.77800 47.47500
H  39.11300 9.54300 48.31600
Mg 47.21500 35.02400 28.03300
C  45.48200 32.98800 30.22800
C  47.34900 37.52900 30.47900
C  48.21600 37.12900 25.63900
C  46.46100 32.67400 25.39400
N  46.54400 35.25900 30.07300
C  46.05300 34.16400 30.79500
C  46.24200 34.43600 32.31700
C  46.31400 36.01100 32.31100
C  46.68700 36.35300 30.85100
C  45.18700 36.87900 32.88900
C  47.50500 33.66900 32.82600
C  47.63000 33.52500 34.31700
H  46.67500 34.34100 35.23900
N  47.90600 36.95300 28.09100
C  47.82400 37.80200 29.21300
C  48.56900 39.06900 28.83400
C  48.76700 39.05400 27.42000
C  48.27100 37.69700 26.98700
C  49.08500 40.28300 29.84800
C  49.28300 40.10300 26.47500
O  49.31700 39.90800 25.28000
C  49.57900 41.53700 26.86400
N  47.41000 34.84200 25.82800
C  47.87000 35.86900 25.09200
C  47.85600 35.54700 23.62000
C  47.63800 34.03800 23.59600
C  47.01700 33.87200 24.98300
C  46.78100 36.37800 22.90500
C  48.88000 33.12200 23.43500
C  48.58900 31.75000 22.87300
N  46.09000 33.27200 27.81900
C  45.98500 32.41600 26.75000
C  45.42200 31.12300 27.22600
C  45.12600 31.33600 28.58200
C  45.51300 32.65300 28.85900
C  45.17200 29.84200 26.40300
C  44.51300 30.80200 29.78700
O  44.13000 29.65700 30.00700
C  44.49400 31.87200 30.80600
C  45.09300 31.31900 32.02600
O  46.13100 30.71600 32.12100
O  44.28800 31.65300 33.08800
C  44.67800 31.07400 34.44200
H  47.47300 38.32100 31.22100
H  48.45800 37.93600 24.94400
H  46.25100 31.94100 24.61200
H  45.34600 34.09700 32.83500
H  47.15600 36.23900 32.96300
H  44.35200 36.23800 33.17200
H  44.88000 37.53500 32.07500
H  45.56400 37.51400 33.69100
H  48.45700 34.07100 32.48000
H  47.60300 32.65800 32.43200
H  48.62600 33.80500 34.65800
H  47.71300 32.49100 34.65200
H  50.15800 40.47100 29.81600
H  48.97700 39.90700 30.86600
H  48.44900 41.12400 29.57400
H  50.35600 41.61800 27.62400
H  48.59100 41.87500 27.17500
H  49.92200 42.13000 26.01600
H  48.81100 35.77300 23.14600
H  46.90000 33.85800 22.81400
H  47.27700 36.84100 22.05200
H  46.40200 37.30100 23.34300
H  45.94300 35.83600 22.46500
H  49.36500 32.99400 24.40300
H  49.50200 33.58600 22.67000
H  47.56100 31.38700 22.87600
H  49.05000 30.96100 23.46700
H  48.98600 31.64900 21.86300
H  45.66000 29.89200 25.43000
H  44.10800 29.62100 26.31700
H  45.60300 28.98900 26.92800
H  43.49500 32.22900 31.05700
H  44.16000 31.57700 35.25900
H  45.75500 31.18500 34.57300
H  44.40900 30.03100 34.60800

