158

Mg -1.62300 17.99700 27.57800
C  -2.10900 15.63400 30.13500
C  -1.86000 20.46200 29.96200
C  -1.75600 20.23900 25.02000
C  -1.61600 15.34600 25.26100
N  -1.74900 17.99700 29.84200
C  -2.01500 16.95900 30.68300
C  -2.32500 17.42900 32.12100
C  -2.58300 18.89500 31.81200
C  -2.02300 19.17400 30.47500
C  -4.12500 19.22900 32.04700
C  -1.19500 17.11300 33.15600
C  -1.46800 16.36800 34.42800
H  -0.18600 16.34600 35.34700
N  -1.57700 20.02500 27.47700
C  -1.62500 20.86300 28.62000
C  -1.45300 22.21600 28.14400
C  -1.57100 22.26300 26.72500
C  -1.68700 20.80600 26.31700
C  -1.25000 23.41000 29.05900
C  -1.40800 23.29800 25.76100
O  -1.49700 23.17300 24.57200
C  -1.02800 24.69200 26.28900
N  -1.67800 17.80500 25.45500
C  -1.75300 18.89200 24.69200
C  -1.54800 18.53200 23.19300
C  -1.24800 16.99400 23.27200
C  -1.51200 16.66500 24.74800
C  -2.75400 18.96000 22.30800
C  0.14600 16.49300 22.90500
C  1.24400 16.88400 23.86700
N  -1.76600 15.93300 27.61000
C  -1.76300 14.99500 26.57300
C  -1.97100 13.66500 27.08000
C  -2.11900 13.86500 28.48900
C  -2.06600 15.25100 28.75600
C  -1.99300 12.42300 26.32500
C  -2.39900 13.20700 29.74300
O  -2.53900 12.04000 29.94000
C  -2.31800 14.38100 30.88400
C  -1.24300 14.02900 31.76700
O  -0.05100 14.34200 31.67300
O  -1.70500 13.14000 32.76200
C  -0.70600 12.80100 33.72300
H  -2.17200 21.23700 30.66500
H  -1.65400 20.96600 24.21200
H  -1.39200 14.48600 24.62500
H  -3.25600 16.96200 32.44000
H  -2.03600 19.56800 32.47100
H  -4.67000 18.35800 32.40900
H  -4.55900 19.62300 31.12800
H  -4.20200 20.00500 32.80900
H  -0.71700 18.06600 33.38000
H  -0.39600 16.64000 32.58500
H  -1.77500 15.32900 34.31400
H  -2.34700 16.76400 34.93700
H  -0.38400 24.00300 28.76400
H  -1.25500 23.21000 30.13100
H  -2.16300 23.98100 28.89200
H  -1.15900 25.38800 25.46100
H  -0.02600 24.66400 26.71600
H  -1.83300 24.94900 26.97800
H  -0.71500 19.07500 22.74500
H  -1.85300 16.47400 22.52900
H  -2.46300 19.37700 21.34400
H  -3.33600 19.69900 22.85800
H  -3.29700 18.06500 22.00500
H  0.38300 16.85800 21.90500
H  -0.08500 15.42800 22.92000
H  0.96500 17.16300 24.88300
H  1.76600 17.72400 23.41100
H  1.77500 15.93500 23.94200
H  -1.45000 12.55100 25.38800
H  -3.04100 12.19400 26.13500
H  -1.50700 11.65700 26.92900
H  -3.25300 14.55600 31.41700
H  -0.12400 12.00800 33.25300
H  -1.22100 12.42300 34.60600
H  0.06000 13.52000 34.01200
Mg 17.43000 52.39500 25.30700
C  19.27800 51.01700 28.01300
C  14.83500 52.98400 27.49600
C  15.82700 53.81000 22.84400
C  20.08600 51.45700 23.24900
N  17.08000 51.78400 27.46500
C  18.06000 51.51400 28.40900
C  17.67200 51.92900 29.82700
C  16.10000 51.91800 29.65000
C  15.92400 52.26100 28.09700
C  15.32900 50.68300 30.16200
C  18.38200 53.17900 30.35800
C  18.60200 53.20900 31.89500
H  17.82600 52.36800 32.84200
N  15.59100 53.20900 25.21800
C  14.69100 53.46200 26.19900
C  13.65900 54.36000 25.68500
C  13.82300 54.40800 24.28700
C  15.17400 53.84200 24.06600
C  12.64500 55.03700 26.56600
C  12.84000 54.93400 23.20900
O  13.03900 55.00000 21.99900
C  11.53300 55.56900 23.68200
N  17.88400 52.56600 23.36700
C  17.03600 53.22700 22.47800
C  17.64300 53.40200 21.07600
C  19.00100 52.57600 21.21900
C  19.00700 52.15800 22.66800
C  16.66300 52.99800 19.91300
C  20.24400 53.40000 20.71300
C  20.76700 54.46200 21.66000
N  19.29700 51.38000 25.54200
C  20.22800 51.05600 24.57100
C  21.34800 50.41200 25.23700
C  21.04200 50.38800 26.65800
C  19.77500 50.96300 26.73700
C  22.62900 50.00000 24.60200
C  21.58300 50.08100 27.91900
O  22.61000 49.47400 28.23100
C  20.45400 50.53800 28.84500
C  20.21300 49.35700 29.69100
O  19.76000 48.30700 29.31800
O  20.40100 49.66400 31.03300
C  19.95600 48.66800 31.97600
H  14.15400 53.26600 28.30100
H  15.18100 54.36900 22.16400
H  21.00700 51.26600 22.69400
H  17.87300 51.07400 30.47100
H  15.78800 52.71600 30.32400
H  15.77800 50.25100 31.05600
H  15.14700 49.97100 29.35700
H  14.37900 51.01700 30.57700
H  17.77400 54.07400 30.22700
H  19.25400 53.37500 29.73500
H  18.54700 54.24000 32.24500
H  19.60900 52.79800 31.96700
H  12.83400 56.10900 26.51400
H  12.72700 54.75300 27.61500
H  11.61700 54.81300 26.27800
H  11.60000 56.49500 24.25200
H  11.01200 54.75400 24.18400
H  10.92900 55.87400 22.82800
H  17.85200 54.45500 20.89100
H  18.81500 51.65600 20.66400
H  15.71900 52.79200 20.41600
H  16.98300 52.11100 19.36600
H  16.76300 53.85400 19.24600
H  19.97900 53.95600 19.81400
H  21.00200 52.67500 20.41800
H  20.59900 54.12600 22.68300
H  20.32600 55.45000 21.52500
H  21.84300 54.60200 21.55900
H  22.84200 50.63200 23.74000
H  22.51900 48.99800 24.18800
H  23.39500 50.09100 25.37200
H  20.96900 51.33000 29.39000
H  20.71800 47.89300 31.89000
H  18.94300 48.33400 31.75400
H  19.88900 48.97400 33.02000

