158

Mg 1.34300 -0.74900 43.87100
C  4.76300 -0.18800 43.23400
C  0.65100 2.13900 42.25100
C  -1.70700 -1.74100 43.57700
C  2.37200 -4.04900 44.88800
N  2.65400 0.71400 42.91000
C  4.02800 0.81500 42.78700
C  4.39600 2.12500 42.02600
C  3.07400 2.85100 41.81900
C  1.99900 1.84500 42.38900
C  2.95100 4.14000 42.68700
C  5.35300 2.00800 40.77700
C  5.09000 0.88500 39.74900
H  5.41700 1.26400 38.31200
N  -0.33000 0.12500 43.19100
C  -0.42700 1.28500 42.56600
C  -1.79900 1.63800 42.39800
C  -2.55200 0.52500 42.87500
C  -1.48500 -0.42900 43.21000
C  -2.34400 2.91300 41.78800
C  -4.04100 0.46500 43.09100
O  -4.72700 1.46800 43.04400
C  -4.94000 -0.72900 43.61800
N  0.55200 -2.65200 43.88100
C  -0.79200 -2.68100 43.92500
C  -1.24600 -4.08800 44.34800
C  -0.03900 -4.70300 45.07500
C  1.00600 -3.78300 44.52100
C  -2.59600 -4.19900 45.23100
C  0.14500 -6.24700 44.92100
C  0.37200 -7.05600 46.21200
N  3.19100 -1.86900 44.24300
C  3.42000 -3.10200 44.72500
C  4.81700 -3.28400 44.99800
C  5.36000 -2.13500 44.40000
C  4.34500 -1.32400 43.89100
C  5.55700 -4.45600 45.61300
C  6.63300 -1.53900 44.07500
O  7.79500 -1.90100 44.29300
C  6.28100 -0.28000 43.25800
C  7.03400 0.89300 43.88500
O  6.57100 1.50300 44.82600
O  8.27800 1.05100 43.41800
C  9.19100 1.85900 44.26000
H  0.35300 3.09300 41.80900
H  -2.77600 -1.95300 43.64500
H  2.64300 -4.93900 45.46100
H  5.03500 2.57000 42.78900
H  3.05800 2.98700 40.73800
H  2.16500 4.03000 43.43400
H  2.63900 4.98100 42.06900
H  3.90900 4.39900 43.13800
H  6.36700 1.84200 41.14000
H  5.31200 3.02500 40.38900
H  4.09000 0.45800 39.83200
H  5.63500 -0.01200 40.04300
H  -3.36900 2.73300 41.46400
H  -1.70800 3.24000 40.96500
H  -2.63800 3.70600 42.47500
H  -4.80700 -1.57100 42.93800
H  -5.98800 -0.44600 43.51600
H  -4.55400 -0.87800 44.62600
H  -1.47500 -4.66100 43.45000
H  -0.14000 -4.31700 46.08900
H  -2.53500 -3.32700 45.88300
H  -2.38200 -5.07300 45.84500
H  -3.59700 -4.22700 44.80100
H  1.06800 -6.49100 44.39400
H  -0.65800 -6.73300 44.36600
H  0.41000 -6.39600 47.07900
H  1.20300 -7.76000 46.25500
H  -0.52600 -7.66000 46.34100
H  5.32400 -5.31800 44.98800
H  5.04800 -4.59600 46.56700
H  6.63500 -4.30200 45.63800
H  6.68400 -0.35500 42.24800
H  9.86800 2.49600 43.69000
H  9.71800 1.09900 44.83600
H  8.74200 2.60400 44.91700
Mg -5.61500 24.93900 26.48500
C  -3.75400 26.26200 29.07000
C  -7.09200 22.75500 28.72500
C  -7.09900 23.37100 23.79200
C  -3.77600 27.02700 24.20700
N  -5.45500 24.58200 28.67900
C  -4.67000 25.31800 29.51600
C  -5.14100 25.09000 31.02200
C  -6.02100 23.80400 30.88000
C  -6.22800 23.67200 29.36600
C  -5.38900 22.54500 31.50900
C  -5.74800 26.40200 31.49000
C  -5.31000 26.93200 32.89900
H  -5.06200 25.98600 34.05000
N  -7.02900 23.39500 26.24700
C  -7.45000 22.59400 27.28300
C  -8.42800 21.51400 26.71800
C  -8.44200 21.75200 25.38300
C  -7.50300 22.90000 25.08500
C  -9.10100 20.50700 27.59100
C  -9.24300 21.02800 24.32500
O  -9.30300 21.42700 23.19600
C  -10.19400 19.89500 24.65600
N  -5.59200 25.20900 24.37300
C  -6.19900 24.43200 23.44800
C  -6.00900 24.88700 21.99600
C  -5.28800 26.26200 22.25800
C  -4.81000 26.24400 23.65700
C  -5.12700 23.90300 21.10600
C  -6.19600 27.44400 21.98700
C  -6.17800 27.93500 20.49000
N  -3.93400 26.26600 26.57300
C  -3.33000 27.08600 25.59200
C  -2.24600 27.77800 26.21900
C  -2.43000 27.52400 27.58400
C  -3.46200 26.62300 27.76200
C  -1.25500 28.63700 25.52600
C  -1.91400 27.83300 28.81700
O  -0.95200 28.51100 29.17100
C  -2.84200 27.19500 29.90400
C  -2.06700 26.37100 30.87600
O  -1.82300 25.16600 30.75100
O  -1.67100 27.17000 31.92800
C  -0.79300 26.43100 32.89300
H  -7.58700 22.20400 29.52700
H  -7.43900 22.78100 22.93800
H  -3.46800 27.71200 23.41500
H  -4.26700 24.80500 31.60600
H  -7.03700 23.99000 31.22700
H  -5.08400 22.68300 32.54700
H  -4.44600 22.44200 30.97200
H  -6.02200 21.66100 31.43200
H  -6.83500 26.32500 31.50400
H  -5.52300 27.15300 30.73300
H  -6.00000 27.71400 33.21600
H  -4.37500 27.47800 32.77300
H  -10.13600 20.41900 27.26000
H  -9.00800 20.70900 28.65800
H  -8.60900 19.54900 27.42100
H  -10.53500 19.51900 23.69200
H  -11.07900 20.35800 25.09400
H  -9.81500 19.02300 25.18900
H  -6.99600 24.96000 21.53800
H  -4.37600 26.40600 21.67700
H  -5.58700 23.53600 20.18800
H  -4.94900 22.94000 21.58300
H  -4.15700 24.33000 20.85100
H  -5.79100 28.31100 22.50900
H  -7.22900 27.34400 22.32100
H  -5.58100 28.84000 20.38100
H  -7.23500 27.97800 20.22700
H  -5.81300 27.17200 19.80200
H  -1.79000 29.12200 24.71000
H  -0.44700 27.98800 25.18700
H  -0.67400 29.22900 26.23400
H  -3.40700 27.90300 30.51000
H  0.16200 26.16100 32.44400
H  -1.23900 25.45700 33.09700
H  -0.67700 27.02800 33.79800

