158

Mg 9.06300 3.41900 27.02200
C  10.35100 2.14200 30.07700
C  7.40900 5.86100 28.96400
C  7.78300 4.87600 24.21800
C  10.58600 0.92600 25.29400
N  8.80000 3.72800 29.23100
C  9.46200 3.16200 30.28400
C  9.20600 3.95400 31.62900
C  8.07900 4.92000 31.21600
C  8.07900 4.82500 29.65800
C  6.76300 4.74300 31.92900
C  10.37900 4.56600 32.40800
C  10.75200 4.04400 33.74700
H  11.19100 5.03900 34.82500
N  7.80500 5.04900 26.62700
C  7.29600 5.95000 27.61300
C  6.51800 6.92100 26.95000
C  6.74600 6.78600 25.58100
C  7.41100 5.49900 25.39600
C  5.67200 7.93900 27.64900
C  6.37400 7.69100 24.42400
O  6.66400 7.39400 23.28000
C  5.68700 9.03400 24.72500
N  8.98200 2.80200 24.98500
C  8.51100 3.65000 23.99800
C  8.89800 3.01400 22.60200
C  9.64200 1.66700 22.99300
C  9.79800 1.80700 24.50500
C  7.63900 2.82800 21.67200
C  10.91900 1.33100 22.23400
C  10.89900 0.00400 21.40500
N  10.17200 1.79800 27.51900
C  10.76400 0.89500 26.74100
C  11.57800 -0.01700 27.53900
C  11.39500 0.43100 28.83700
C  10.60300 1.54400 28.80400
C  12.39200 -1.22300 27.04500
C  11.85900 0.19400 30.22200
O  12.61100 -0.61400 30.71900
C  11.21500 1.34100 31.10200
C  10.39800 0.64400 32.16800
O  9.25900 0.28800 32.07300
O  11.32800 0.44600 33.18300
C  10.65500 -0.03300 34.43800
H  6.93900 6.62500 29.58700
H  7.46700 5.32800 23.27600
H  10.98200 0.13700 24.65200
H  8.91100 3.08100 32.21100
H  8.32600 5.97600 31.32500
H  6.27200 3.80900 31.65700
H  6.14400 5.61900 31.73400
H  7.03500 4.82700 32.98200
H  10.14300 5.62000 32.55400
H  11.30900 4.60700 31.84100
H  11.60700 3.38300 33.60800
H  9.86800 3.51000 34.09600
H  6.13100 8.89600 27.89600
H  5.42800 7.55100 28.63800
H  4.77100 8.00200 27.04000
H  6.28200 9.67800 25.37300
H  4.74500 8.79300 25.21900
H  5.33800 9.54800 23.82900
H  9.66400 3.63500 22.13600
H  8.97700 0.80500 22.92900
H  7.45700 1.78100 21.42800
H  7.80700 3.30500 20.70700
H  6.72700 3.25500 22.08800
H  11.88200 1.34900 22.74400
H  11.05200 2.09300 21.46600
H  10.84700 0.25000 20.34500
H  9.94500 -0.50300 21.55200
H  11.67600 -0.70000 21.70500
H  12.45500 -1.27900 25.95900
H  12.03600 -2.13500 27.52400
H  13.42000 -1.04000 27.35900
H  11.94300 2.08700 31.42200
H  9.93600 -0.83800 34.28400
H  10.17800 0.77100 34.99900
H  11.50600 -0.37000 35.02900
Mg -12.84000 37.94800 41.50700
C  -10.41000 35.48800 40.81700
C  -10.62700 40.41700 40.40100
C  -15.21200 40.27500 42.00200
C  -15.03200 35.38500 42.39500
N  -10.81600 38.00700 40.53700
C  -10.01900 36.86200 40.47000
C  -8.60800 37.22100 39.95900
C  -8.69600 38.78500 39.76400
C  -10.14600 39.11700 40.17700
C  -7.61800 39.53000 40.68000
C  -8.35400 36.46700 38.58800
C  -6.95200 35.91700 38.35500
H  -6.06000 36.48700 37.25100
N  -12.87700 40.09100 41.24700
C  -11.87900 40.90300 40.90700
C  -12.28100 42.25500 40.85400
C  -13.63200 42.23400 41.30000
C  -14.02500 40.83100 41.54400
C  -11.33000 43.37300 40.62100
C  -14.54900 43.47000 41.46600
O  -14.01000 44.60200 41.23500
C  -16.02000 43.38100 41.78600
N  -14.78800 37.84200 42.07700
C  -15.62100 38.89900 42.13500
C  -16.99600 38.58600 42.71700
C  -16.99300 37.01300 42.50800
C  -15.48700 36.69300 42.33900
C  -17.24300 38.98100 44.21500
C  -17.83300 36.60000 41.22500
C  -17.13200 36.22100 39.89200
N  -12.75800 35.83600 41.63500
C  -13.71300 34.94000 42.12400
C  -13.07700 33.59400 42.23500
C  -11.81800 33.73000 41.68200
C  -11.68600 35.17100 41.35900
C  -13.76200 32.30100 42.64000
C  -10.57300 33.07900 41.32600
O  -10.16100 31.93700 41.29000
C  -9.60600 34.21200 40.74100
C  -8.34400 34.26800 41.57500
O  -8.24000 34.68100 42.71400
O  -7.23800 33.73600 40.87200
C  -5.91800 33.91700 41.44800
H  -9.81900 41.10900 40.15700
H  -16.03400 40.93200 42.29500
H  -15.67800 34.55100 42.68000
H  -7.76200 36.95600 40.59300
H  -8.44100 39.04600 38.73600
H  -6.88100 38.85500 41.11500
H  -8.19000 39.85700 41.54800
H  -7.23100 40.40900 40.16500
H  -8.53200 37.21600 37.81600
H  -9.02400 35.63600 38.36700
H  -6.96100 34.84200 38.17400
H  -6.37300 36.03400 39.27100
H  -11.84300 44.02800 39.91700
H  -10.37400 43.02900 40.22500
H  -11.20400 43.89900 41.56800
H  -16.47700 42.64400 41.12600
H  -16.34800 44.36100 41.43900
H  -16.32500 43.24700 42.82400
H  -17.77800 39.06400 42.12700
H  -17.40200 36.41100 43.31900
H  -18.01500 39.74900 44.25900
H  -16.33700 39.27800 44.74300
H  -17.62900 38.06700 44.66600
H  -18.61500 37.32600 40.99900
H  -18.25700 35.66300 41.58700
H  -16.69600 35.22400 39.83100
H  -16.43000 36.99400 39.58100
H  -17.97700 36.33200 39.21100
H  -13.37300 31.52800 41.97800
H  -14.84900 32.38800 42.66000
H  -13.47700 32.02600 43.65600
H  -9.46100 33.93700 39.69600
H  -5.86900 34.06700 42.52700
H  -5.55000 34.85900 41.04000
H  -5.14600 33.20400 41.16100

