158

Mg 26.80400 -0.96900 29.53700
C  28.73300 -1.06900 32.56900
C  24.07800 -0.41700 31.38300
C  25.06400 -0.87800 26.70600
C  29.73700 -1.65400 27.85200
N  26.49900 -0.82800 31.74000
C  27.41100 -0.74600 32.79700
C  26.71100 -0.33400 34.15900
C  25.20100 -0.22500 33.70800
C  25.24900 -0.53100 32.20300
C  24.29100 -1.24400 34.38500
C  27.32300 0.94400 34.86100
C  27.88300 0.59200 36.23200
H  27.48200 1.57800 37.48000
N  24.80200 -0.67500 29.10900
C  23.86000 -0.48100 30.00800
C  22.53200 -0.31000 29.37300
C  22.79200 -0.55800 27.96800
C  24.24000 -0.81000 27.87700
C  21.22300 0.01000 30.13500
C  21.81700 -0.53800 26.79700
O  22.24600 -0.75500 25.69200
C  20.37000 -0.30200 27.07200
N  27.29400 -1.35900 27.60000
C  26.44800 -0.97200 26.55600
C  27.21600 -1.07000 25.16900
C  28.64800 -1.29400 25.56500
C  28.60900 -1.41100 27.13800
C  26.57000 -2.09500 24.13400
C  29.61200 -0.19900 25.02500
C  29.53600 1.13700 25.68200
N  28.80600 -1.58500 30.01500
C  29.84800 -1.81300 29.25000
C  31.08200 -2.01700 30.03300
C  30.68100 -1.69600 31.30000
C  29.28100 -1.45200 31.30800
C  32.45600 -2.34700 29.57300
C  31.13100 -1.57700 32.71600
O  32.25300 -1.73400 33.21000
C  29.85500 -1.06500 33.57900
C  29.51600 -1.90500 34.73500
O  28.89900 -2.95000 34.64000
O  30.06100 -1.46500 35.91800
C  29.80500 -2.22300 37.16800
H  23.19700 -0.20700 31.99400
H  24.55800 -0.83100 25.74000
H  30.56600 -1.93700 27.19900
H  26.99400 -1.25200 34.67500
H  24.70300 0.73600 33.84000
H  24.22900 -2.10100 33.71400
H  23.28900 -0.81600 34.40900
H  24.54200 -1.57800 35.39200
H  26.62500 1.77700 34.94500
H  28.12000 1.30600 34.21100
H  28.96200 0.72300 36.15000
H  27.63800 -0.37000 36.68400
H  21.45600 0.56200 31.04600
H  20.61700 -0.84000 30.45100
H  20.48400 0.56900 29.56100
H  19.80400 -0.49400 26.16100
H  20.22000 0.76600 27.23100
H  19.96000 -0.88800 27.89500
H  27.05100 -0.08500 24.73300
H  28.87600 -2.26300 25.12100
H  25.99900 -1.49900 23.42300
H  25.98000 -2.89400 24.58300
H  27.36800 -2.62200 23.61200
H  29.35900 -0.02200 23.97900
H  30.64200 -0.55500 25.04600
H  29.17400 1.11000 26.71000
H  28.83200 1.74500 25.11500
H  30.53800 1.56500 25.70200
H  32.57500 -2.57300 28.51300
H  32.75200 -3.21000 30.16900
H  33.15300 -1.52600 29.73900
H  30.12300 -0.07000 33.93400
H  30.64100 -2.01900 37.83700
H  29.81900 -3.30400 37.02700
H  28.84600 -1.99400 37.63200
Mg 41.29000 40.92500 26.10000
C  40.59500 43.28800 28.67100
C  42.45900 38.83000 28.48600
C  42.11900 38.80300 23.66100
C  40.38800 43.36200 23.76400
N  41.36700 41.06100 28.32900
C  41.09000 42.09200 29.19300
C  41.22700 41.70600 30.66600
C  41.97200 40.29900 30.57600
C  41.97500 40.02800 29.03300
C  43.44900 40.28800 31.15100
C  39.85600 41.72700 31.44600
C  39.63100 42.86500 32.39800
H  39.59400 42.24900 33.77000
N  42.08400 39.11700 26.03900
C  42.48800 38.35300 27.13100
C  42.98400 37.03100 26.70000
C  43.13600 37.11000 25.27100
C  42.42900 38.37900 24.86300
C  43.54200 35.97900 27.67500
C  43.60700 36.12900 24.21300
O  43.69100 36.34900 23.02300
C  44.03500 34.85000 24.68400
N  41.27300 41.08500 24.02700
C  41.51600 39.98100 23.24300
C  41.19800 40.32600 21.69400
C  40.38300 41.62100 21.88500
C  40.73200 42.06800 23.31200
C  42.47100 40.51700 20.87100
C  38.82100 41.38300 21.66700
C  38.10200 40.56000 22.81800
N  40.60900 42.91900 26.19400
C  40.28800 43.70300 25.12800
C  39.95700 45.04500 25.64000
C  40.02900 44.84500 27.01200
C  40.45700 43.56700 27.33200
C  39.63200 46.25500 24.76200
C  39.81600 45.59200 28.29200
O  39.45700 46.72300 28.45800
C  40.20500 44.54800 29.40700
C  41.32900 45.18600 30.15000
O  42.44700 44.98000 29.84100
O  40.93400 45.89500 31.24200
C  42.03100 46.40300 32.09000
H  42.78200 38.10700 29.23900
H  42.09700 38.12200 22.80800
H  40.09800 44.10400 23.01800
H  41.92200 42.46900 31.01500
H  41.45600 39.52700 31.14600
H  43.72600 41.24000 31.60600
H  44.09200 40.02000 30.31200
H  43.54500 39.47700 31.87200
H  39.80200 40.77500 31.97300
H  38.99900 41.78700 30.77400
H  38.75800 43.46800 32.15000
H  40.40200 43.63500 32.40100
H  44.60100 36.23100 27.73000
H  43.44400 34.95600 27.31300
H  43.14500 36.17400 28.67100
H  44.69900 35.00100 25.53500
H  44.60100 34.32800 23.91300
H  43.10900 34.30000 24.84900
H  40.48600 39.62600 21.25800
H  40.67300 42.41700 21.19900
H  43.32700 40.16500 21.44700
H  42.55200 41.54800 20.52700
H  42.40400 39.85300 20.00900
H  38.60600 40.82300 20.75700
H  38.33400 42.35700 21.72300
H  38.26100 41.03600 23.78600
H  38.42100 39.52000 22.74900
H  37.02000 40.49400 22.70000
H  38.82500 46.83600 25.20700
H  39.27100 45.75500 23.86300
H  40.45800 46.90000 24.46400
H  39.40300 44.33500 30.11300
H  42.72200 46.90100 31.41000
H  42.57900 45.66600 32.67500
H  41.62600 47.19600 32.71900

