158

Mg 54.44300 23.98600 43.06500
C  52.04700 26.43200 42.63300
C  52.13900 21.70200 42.16100
C  56.99400 21.85500 42.23800
C  56.90700 26.54200 42.99100
N  52.25500 24.03500 42.63400
C  51.49200 25.13800 42.47000
C  50.10700 24.75500 41.99300
C  50.11400 23.20100 42.13900
C  51.61500 22.94300 42.30900
C  49.38400 22.63300 43.32100
C  49.81300 25.14000 40.56300
C  51.00300 24.92900 39.53900
H  50.66100 24.75200 38.07700
N  54.51400 21.98600 42.48100
C  53.42600 21.14900 42.24400
C  53.89700 19.86400 41.81400
C  55.31000 19.92000 41.96700
C  55.67500 21.31600 42.25100
C  53.04400 18.63500 41.54400
C  56.22100 18.66900 41.81800
O  55.76800 17.58600 41.36900
C  57.66200 18.72600 42.09200
N  56.65500 24.10900 42.73000
C  57.50000 23.07600 42.49900
C  58.97900 23.45400 42.34200
C  58.87300 24.99500 42.59800
C  57.37600 25.22600 42.79600
C  60.02300 22.74900 43.24800
C  59.55400 25.88800 41.49800
C  58.75100 26.16000 40.22400
N  54.44800 26.01200 43.10700
C  55.47800 26.93400 43.03100
C  54.98900 28.27300 43.11600
C  53.63300 28.12600 43.05700
C  53.34800 26.72600 42.95200
C  55.80600 29.44500 43.00700
C  52.35900 28.83500 43.12600
O  52.10800 29.96700 43.41100
C  51.29000 27.82500 42.61300
C  50.81300 28.30400 41.32300
O  51.50700 28.25300 40.31000
O  49.50100 28.76000 41.33600
C  49.03200 29.14300 40.02700
H  51.44800 20.86600 42.02900
H  57.83300 21.22300 41.93900
H  57.64700 27.34400 43.03100
H  49.43200 25.18300 42.73300
H  49.63900 22.71500 41.28800
H  49.64600 23.29400 44.14700
H  49.77900 21.67400 43.65800
H  48.30300 22.52600 43.23200
H  49.41400 26.15300 40.49700
H  49.08700 24.48700 40.08000
H  51.60600 24.09200 39.89000
H  51.68300 25.77100 39.67000
H  52.99900 18.54600 40.45900
H  52.05100 18.78900 41.96900
H  53.51400 17.75700 41.98800
H  58.14800 17.75100 42.06200
H  57.99300 19.13800 43.04500
H  58.04600 19.30300 41.25000
H  59.25700 23.33800 41.29400
H  59.40400 25.15700 43.53600
H  60.65000 22.08200 42.65700
H  59.51100 22.22500 44.05500
H  60.71200 23.49800 43.63900
H  60.50600 25.40100 41.28200
H  59.86000 26.80800 41.99600
H  58.67200 27.23500 40.05900
H  57.73900 25.76100 40.28800
H  59.29000 25.70000 39.39500
H  55.17600 30.33300 43.06100
H  56.24700 29.40000 42.01100
H  56.55000 29.36600 43.79900
H  50.48000 27.81300 43.34100
H  49.38800 30.15800 39.84700
H  47.94400 29.18000 40.08500
H  49.40600 28.47900 39.24800
Mg 49.97600 47.61700 43.45200
C  46.67900 47.83300 42.37300
C  50.13100 44.56800 41.88700
C  53.26500 47.49900 44.13400
C  49.89100 51.00300 44.48800
N  48.37500 46.19800 42.42100
C  47.15200 46.60400 42.01000
C  46.52900 45.51600 41.11800
C  47.55800 44.34000 41.19200
C  48.80300 45.07200 41.77800
C  47.22200 43.11300 42.07700
C  46.17100 45.92000 39.66400
C  44.79200 45.44700 39.16100
H  44.84600 44.44500 37.95100
N  51.47300 46.24700 43.02700
C  51.28300 45.04600 42.38300
C  52.61400 44.44400 42.24900
C  53.62700 45.33200 42.71800
C  52.76400 46.41700 43.34600
C  52.82500 43.04200 41.68000
C  55.15600 45.25800 42.69500
O  55.62700 44.29900 42.18400
C  56.08300 46.26200 43.33200
N  51.37000 49.16200 43.98100
C  52.57700 48.72100 44.47100
C  53.26600 49.89800 45.28700
C  52.15600 51.02500 45.36000
C  51.07500 50.39100 44.50700
C  53.82100 49.62500 46.68200
C  52.65500 52.49000 45.08900
C  52.67500 53.03500 43.71200
N  48.59100 49.20900 43.46100
C  48.69000 50.48400 43.84500
C  47.32600 51.11300 43.70200
C  46.57000 50.14800 43.07400
C  47.38700 48.97900 42.96100
C  46.94200 52.56100 44.17300
C  45.30700 49.85700 42.57800
O  44.29000 50.51100 42.46600
C  45.35000 48.40100 42.02600
C  44.35000 47.64600 42.79400
O  44.17400 47.56100 43.97300
O  43.53600 47.06200 41.85100
C  42.34500 46.40800 42.37100
H  50.26700 43.66600 41.28600
H  54.24500 47.43700 44.61100
H  49.82300 51.93000 45.06100
H  45.55400 45.26100 41.53300
H  47.83400 44.01400 40.18900
H  47.26800 42.27500 41.38100
H  46.16300 43.07000 42.33400
H  47.77300 43.01800 43.01300
H  46.97700 45.54100 39.03500
H  46.16700 47.00900 39.62400
H  44.30400 46.38800 38.90700
H  44.13700 45.02300 39.92200
H  53.20400 42.97300 40.66000
H  51.90400 42.46000 41.71700
H  53.62400 42.48700 42.17100
H  55.96300 46.34000 44.41300
H  55.85300 47.24700 42.92400
H  57.07100 45.88100 43.07300
H  53.96100 50.34100 44.57300
H  51.76500 51.11300 46.37400
H  53.24400 49.79700 47.59100
H  54.69000 50.22300 46.95700
H  54.15000 48.58700 46.66700
H  53.61400 52.64000 45.58500
H  51.93700 53.11800 45.61500
H  53.68200 53.43600 43.60400
H  51.99000 53.87300 43.58300
H  52.49600 52.31600 42.91200
H  46.98100 52.54000 45.26300
H  45.94500 52.83600 43.83100
H  47.69400 53.30300 43.90300
H  45.12200 48.29800 40.96500
H  42.49400 45.44500 42.86000
H  41.67000 46.23800 41.53100
H  41.72400 47.08800 42.95400

