158

Mg 2.22800 -1.68800 43.87900
C  5.52300 -0.93600 43.20600
C  1.26200 1.41200 42.79300
C  -1.00700 -2.76600 43.71200
C  3.30600 -4.91500 44.84700
N  3.26800 0.00200 43.01200
C  4.59800 0.10200 42.87400
C  4.91800 1.50700 42.31500
C  3.55100 2.36300 42.70200
C  2.59700 1.19000 42.82800
C  3.66000 3.36500 43.90200
C  5.36400 1.38200 40.87300
C  6.44000 2.34700 40.44300
H  6.30500 3.01800 39.03400
N  0.37200 -0.83900 43.31900
C  0.25500 0.48400 42.91500
C  -1.13700 0.74300 42.68600
C  -1.87200 -0.45100 42.93700
C  -0.85400 -1.42900 43.34900
C  -1.59100 2.17600 42.31400
C  -3.37300 -0.62400 42.82200
O  -4.19300 0.21600 42.45400
C  -4.04700 -2.05200 43.00400
N  1.29400 -3.67700 43.95000
C  -0.09100 -3.82900 43.99900
C  -0.41300 -5.28400 44.08700
C  0.89700 -5.85700 44.64400
C  1.89500 -4.76000 44.56400
C  -1.64100 -5.70300 44.92500
C  1.53200 -7.18000 44.00600
C  1.77800 -8.35500 44.97800
N  4.08700 -2.75400 44.22900
C  4.36600 -3.99800 44.57800
C  5.78700 -4.29600 44.68400
C  6.36200 -3.09300 44.16100
C  5.23800 -2.20100 43.79900
C  6.41400 -5.62400 45.24000
C  7.57100 -2.31300 43.82200
O  8.75300 -2.52300 44.01000
C  7.09500 -0.91300 43.29600
C  7.50200 0.13600 44.25500
O  7.53700 0.04000 45.47600
O  8.03300 1.31100 43.65200
C  8.31000 2.44500 44.62700
H  1.03100 2.44100 42.51100
H  -1.99200 -3.23600 43.73600
H  3.60000 -5.90900 45.18800
H  5.68600 1.95000 42.94900
H  3.23100 2.90900 41.81500
H  4.68100 3.72600 44.02600
H  3.33200 2.82200 44.78800
H  3.01700 4.23100 43.74400
H  4.49200 1.45300 40.22300
H  5.79300 0.38700 40.75800
H  7.37000 1.78900 40.54800
H  6.45000 3.21300 41.10500
H  -2.63600 2.17100 42.00600
H  -0.95700 2.46200 41.47500
H  -1.34400 2.86600 43.12100
H  -5.12400 -2.01500 42.83800
H  -3.96100 -2.24000 44.07400
H  -3.59000 -2.83800 42.40300
H  -0.45000 -5.66500 43.06600
H  0.79900 -6.00100 45.72000
H  -2.22800 -6.48900 44.44900
H  -2.24200 -4.80100 45.03500
H  -1.37400 -5.99100 45.94100
H  2.45800 -6.88800 43.51000
H  0.81900 -7.58700 43.28900
H  1.48900 -9.27800 44.47700
H  1.27100 -8.14800 45.92100
H  2.84300 -8.37100 45.21200
H  6.08600 -5.89400 46.24300
H  7.47300 -5.53400 45.48000
H  6.14000 -6.46500 44.60300
H  7.45300 -0.84400 42.26900
H  7.58400 2.57800 45.42900
H  8.27500 3.43500 44.17300
H  9.31500 2.27900 45.01600
Mg 9.08900 3.92200 27.59000
C  10.44600 2.42900 30.31600
C  7.36900 6.20600 29.68500
C  8.22400 5.72900 24.92500
C  10.51500 1.52400 25.54200
N  8.73600 4.08300 29.73800
C  9.56300 3.46900 30.71300
C  9.19700 3.96400 32.12400
C  8.13500 5.10800 31.88600
C  8.00500 5.14500 30.31900
C  6.77600 4.83400 32.59900
C  10.42100 4.45600 33.03500
C  10.05900 5.11500 34.31000
H  10.44500 4.46400 35.65200
N  7.93500 5.68700 27.31600
C  7.29600 6.41700 28.24200
C  6.61100 7.59200 27.61500
C  6.96500 7.52200 26.25300
C  7.75900 6.29400 26.13900
C  5.78600 8.66600 28.34900
C  6.73600 8.57000 25.10200
O  7.02000 8.31400 23.95500
C  6.02400 9.84900 25.35100
N  9.20700 3.60400 25.48400
C  8.83700 4.51200 24.57100
C  8.98100 3.98200 23.16700
C  9.69400 2.63000 23.37900
C  9.90800 2.60600 24.89100
C  7.66000 4.04200 22.39500
C  11.06300 2.36700 22.60600
C  11.09300 1.14400 21.69500
N  10.28200 2.23100 27.78000
C  10.82500 1.37500 26.91300
C  11.75800 0.49500 27.62600
C  11.64300 0.82300 28.93000
C  10.75500 1.97700 28.98300
C  12.58000 -0.60900 26.92800
C  12.02900 0.49600 30.24400
O  12.75100 -0.38800 30.60600
C  11.32200 1.50000 31.18300
C  10.55000 0.93700 32.23800
O  9.34400 0.65800 32.18400
O  11.40800 0.66000 33.27500
C  10.75900 0.43700 34.51100
H  6.92200 7.10400 30.11600
H  7.76300 6.21500 24.06200
H  11.06700 0.85700 24.87600
H  8.82800 3.07700 32.63800
H  8.54400 5.98600 32.38700
H  5.96600 4.79800 31.86900
H  6.70500 5.69900 33.25700
H  6.86500 3.90300 33.15900
H  10.98400 5.05300 32.31700
H  11.18500 3.71000 33.25300
H  8.97700 5.21500 34.39600
H  10.59200 6.05200 34.14600
H  6.09700 9.68600 28.12100
H  5.90100 8.60000 29.43100
H  4.70600 8.53900 28.27700
H  5.90800 10.27100 24.35300
H  6.67500 10.51200 25.92200
H  5.06100 9.76400 25.85600
H  9.61600 4.64700 22.58200
H  8.91600 1.92800 23.07800
H  7.62800 4.79500 21.60800
H  6.77400 4.21500 23.00500
H  7.55100 3.11200 21.83700
H  11.93100 2.21400 23.24700
H  11.21000 3.27600 22.02200
H  11.94400 1.23900 21.02100
H  10.21500 0.97300 21.07200
H  11.23100 0.25300 22.30700
H  11.87800 -1.30600 26.47000
H  13.21100 -1.19100 27.60000
H  13.07500 -0.05900 26.12800
H  12.11800 2.13900 31.56400
H  11.27300 1.07000 35.23500
H  10.96600 -0.60900 34.73700
H  9.71500 0.72700 34.62800

