158

Mg 40.69700 9.82000 29.43400
C  42.28100 10.72000 32.48700
C  38.06900 8.43800 31.31500
C  39.15500 8.81200 26.56800
C  43.46600 10.84000 27.65800
N  40.26600 9.55300 31.73500
C  41.00700 10.04100 32.78100
C  40.17500 9.90500 34.07500
C  38.93200 9.10900 33.61100
C  39.09300 8.95600 32.11200
C  38.78400 7.72700 34.29100
C  39.77500 11.34600 34.59900
C  39.35200 11.52200 36.04100
H  40.36500 11.40300 37.20900
N  38.88200 8.77300 29.01300
C  37.92600 8.35700 29.93600
C  36.81200 7.70300 29.27000
C  37.01900 7.91700 27.86100
C  38.34600 8.51700 27.74500
C  35.80600 6.94200 30.00800
C  36.15200 7.54600 26.66100
O  36.44300 7.86500 25.52900
C  34.78900 6.88900 26.93500
N  41.22000 9.82700 27.40400
C  40.49000 9.29300 26.41800
C  41.13800 9.54700 25.06700
C  42.46900 10.20200 25.41000
C  42.37300 10.31700 26.91200
C  41.23000 8.41800 24.00300
C  42.81000 11.63400 24.80300
C  41.78000 12.78600 24.89200
N  42.45800 10.51000 29.92400
C  43.47100 10.89100 29.09800
C  44.61000 11.31200 29.90100
C  44.17500 11.33300 31.22200
C  42.86500 10.80500 31.20800
C  45.91300 11.86000 29.29600
C  44.55200 11.70600 32.58600
O  45.60000 12.19700 32.95000
C  43.25000 11.39400 33.46300
C  43.72400 10.48400 34.62800
O  44.07400 9.30000 34.57400
O  43.80300 11.23900 35.74300
C  44.57300 10.64900 36.85700
H  37.19700 8.18400 31.92100
H  38.72700 8.56300 25.59500
H  44.42200 10.99800 27.15400
H  40.80000 9.46700 34.85400
H  37.96100 9.55100 33.83500
H  38.11200 7.87600 35.13700
H  39.73300 7.32800 34.64900
H  38.46400 6.96000 33.58600
H  38.93700 11.72900 34.01700
H  40.53200 12.12000 34.47200
H  38.49600 10.88000 36.25100
H  38.96100 12.53400 36.14500
H  36.32600 6.40600 30.80200
H  35.58100 6.12900 29.31700
H  35.04400 7.62700 30.38000
H  34.21900 7.50000 27.63500
H  34.97600 5.90800 27.37200
H  34.33900 6.75800 25.95200
H  40.45900 10.29500 24.65800
H  43.34000 9.60100 25.14600
H  40.30000 8.46700 23.43600
H  41.36100 7.41400 24.40500
H  41.97100 8.60400 23.22500
H  42.99700 11.43700 23.74800
H  43.72500 11.94800 25.30600
H  41.30100 13.05200 23.95000
H  42.31500 13.68900 25.18600
H  41.08300 12.58900 25.70700
H  46.57600 12.12800 30.11800
H  45.67000 12.79200 28.78700
H  46.36400 11.18300 28.57000
H  42.71400 12.30200 33.74000
H  43.79100 10.12400 37.40700
H  45.09300 11.30200 37.55800
H  45.26100 9.82400 36.67500
Mg 53.54700 24.36800 44.70000
C  50.73200 26.38600 44.23700
C  51.73000 21.71900 44.23500
C  56.53500 22.55000 44.13400
C  55.49300 27.29000 45.13500
N  51.43200 24.16100 44.21300
C  50.45900 25.05700 44.01100
C  49.13100 24.36800 43.69600
C  49.45100 22.87600 43.92200
C  50.96100 22.89700 44.23200
C  48.58500 22.07200 44.97100
C  48.54600 24.64600 42.26400
C  49.50200 24.59700 41.10200
H  49.04600 24.37500 39.64500
N  54.05400 22.29300 44.31800
C  53.14500 21.37500 44.22800
C  53.76600 20.07100 43.98100
C  55.17900 20.24600 44.01000
C  55.32500 21.73500 44.11700
C  52.96900 18.82200 43.92800
C  56.24300 19.15200 44.01400
O  56.00100 17.98400 43.89800
C  57.68800 19.51700 44.24700
N  55.80700 24.91300 44.74700
C  56.78800 23.97500 44.35700
C  58.14900 24.75900 44.28600
C  57.78500 26.24700 44.58100
C  56.28100 26.15400 44.90700
C  59.26700 24.21100 45.23100
C  58.15600 27.36200 43.51600
C  59.51800 28.09500 43.74200
N  53.20400 26.36300 44.81500
C  54.13200 27.45200 45.02400
C  53.36500 28.67400 45.06700
C  52.06300 28.28900 44.73700
C  52.03300 26.91200 44.61500
C  53.93500 30.00400 45.22000
C  50.75000 28.81400 44.58800
O  50.24100 29.96400 44.70600
C  49.83200 27.65700 44.13000
C  49.38700 27.90800 42.74500
O  50.13900 28.12000 41.81200
O  48.10400 28.43000 42.86000
C  47.45600 28.97000 41.63400
H  51.10000 20.83200 44.14000
H  57.53000 22.12400 43.98800
H  56.00300 28.24900 45.24800
H  48.36600 24.73500 44.38000
H  49.23900 22.21900 43.07800
H  48.29700 22.64600 45.85200
H  49.08700 21.22600 45.44100
H  47.73000 21.74700 44.37900
H  48.02100 25.59400 42.14700
H  47.87000 23.85300 41.94600
H  50.31500 23.87300 41.15800
H  50.11100 25.49600 41.19200
H  53.52500 17.91400 43.69100
H  52.13900 18.75300 43.22500
H  52.67700 18.68500 44.96900
H  58.24600 18.59700 44.41900
H  57.69000 19.91700 45.26100
H  58.01400 20.20300 43.46400
H  58.50200 24.77700 43.25500
H  58.29600 26.55000 45.49500
H  58.81400 23.55900 45.97800
H  59.69700 25.01900 45.82300
H  60.04100 23.74400 44.62200
H  57.39000 28.13600 43.47300
H  58.21700 26.98100 42.49700
H  59.37500 29.17500 43.71500
H  60.29300 27.90600 42.99900
H  59.99700 27.87000 44.69500
H  53.91700 30.31800 44.17700
H  54.90000 30.00200 45.72700
H  53.18700 30.46400 45.86700
H  48.98400 27.59700 44.81200
H  46.53300 29.43300 41.98500
H  47.11900 28.04200 41.17400
H  47.91200 29.69500 40.96000

