158

Mg -1.84300 16.82500 27.11100
C  -2.39100 14.56300 29.96800
C  -2.54200 19.36000 29.33200
C  -1.85700 18.75300 24.56800
C  -1.91000 13.92300 25.10800
N  -2.35200 16.98500 29.42700
C  -2.36700 15.94700 30.34100
C  -2.59300 16.50200 31.79700
C  -2.60500 18.04300 31.59800
C  -2.52000 18.16700 30.00600
C  -3.89500 18.78500 32.20300
C  -1.58600 15.94600 32.88200
C  -1.10500 16.83800 34.03100
H  -0.85000 16.17900 35.37500
N  -2.03600 18.79300 26.99400
C  -2.37900 19.69800 27.96500
C  -2.38000 21.06000 27.40800
C  -2.03100 20.90200 26.03800
C  -2.02100 19.46000 25.80400
C  -2.42100 22.29900 28.23400
C  -1.65100 21.95900 24.99500
O  -1.15600 21.70500 23.90300
C  -1.89200 23.35000 25.24400
N  -1.87500 16.40200 25.12800
C  -1.72300 17.45100 24.18900
C  -1.64300 16.85900 22.71100
C  -1.31800 15.33200 23.04100
C  -1.68300 15.15000 24.53200
C  -2.93600 17.04700 21.85900
C  0.11000 14.85900 22.82800
C  1.20800 15.83500 23.33200
N  -2.05200 14.70800 27.41600
C  -2.17300 13.69700 26.49800
C  -2.45700 12.50100 27.17900
C  -2.46600 12.75800 28.54700
C  -2.30200 14.14200 28.61800
C  -2.57800 11.24200 26.44500
C  -2.76400 12.21600 29.80500
O  -3.03900 11.03300 30.09700
C  -2.58000 13.32000 30.84300
C  -1.33400 12.94000 31.48600
O  -0.20400 13.13700 31.07300
O  -1.66400 12.45700 32.77000
C  -0.65000 12.40400 33.75700
H  -2.58100 20.30400 29.88100
H  -1.78200 19.36500 23.66600
H  -1.86000 13.04300 24.46400
H  -3.58800 16.11400 32.01800
H  -1.72200 18.52500 32.01700
H  -4.45900 18.13800 32.87500
H  -4.58800 19.15400 31.44700
H  -3.56200 19.69800 32.69700
H  -0.69000 15.54500 32.40800
H  -2.08300 15.07600 33.31000
H  -1.85800 17.62200 34.11300
H  -0.23000 17.39400 33.69400
H  -1.47100 22.83200 28.21000
H  -2.83100 22.18300 29.23700
H  -3.23600 22.89000 27.81600
H  -2.80300 23.45400 25.83300
H  -2.05000 23.81800 24.27200
H  -0.96000 23.78700 25.60200
H  -0.82900 17.41100 22.24200
H  -1.91900 14.73300 22.35700
H  -3.58300 17.60500 22.53500
H  -3.21300 16.04700 21.52600
H  -2.71000 17.51800 20.90200
H  0.26700 14.66100 21.76800
H  0.20500 13.89400 23.32400
H  1.52800 16.40100 22.45700
H  2.10300 15.30700 23.66100
H  0.97100 16.54500 24.12500
H  -1.67500 11.21000 25.83500
H  -3.40100 11.48700 25.77400
H  -2.75000 10.42500 27.14600
H  -3.53200 13.39600 31.36800
H  -1.11400 12.78800 34.66500
H  0.26200 12.96700 33.55400
H  -0.18500 11.44000 33.96400
Mg 0.66200 42.34200 25.46400
C  1.57600 42.44100 28.91800
C  -2.28200 40.92600 26.45700
C  -0.03300 41.67500 22.27200
C  3.93300 43.19200 24.70200
N  -0.13800 41.70500 27.50400
C  0.30700 41.99300 28.73200
C  -0.82800 41.70000 29.80600
C  -1.88100 40.91500 29.03200
C  -1.41200 41.12700 27.60800
C  -1.89300 39.43700 29.44300
C  -1.37900 42.97400 30.51000
C  -1.16400 43.04800 32.06800
H  -1.65700 41.97700 32.99500
N  -1.04800 41.64600 24.47900
C  -2.16900 41.03100 25.06600
C  -3.10600 40.78800 24.00500
C  -2.42000 40.99000 22.73900
C  -1.10400 41.47900 23.10000
C  -4.45600 40.41900 24.32000
C  -2.98600 40.86400 21.31500
O  -2.32100 41.22000 20.37300
C  -4.20400 39.93900 21.05700
N  1.82300 42.38200 23.83400
C  1.28300 42.02900 22.61500
C  2.33000 42.27900 21.46500
C  3.45000 43.08000 22.20000
C  3.05500 42.92700 23.63500
C  2.59900 40.95300 20.66100
C  3.51400 44.62200 21.75600
C  4.66600 44.95700 20.79700
N  2.39800 42.78400 26.56800
C  3.68600 43.14700 26.09300
C  4.53200 43.48000 27.22300
C  3.77600 43.21900 28.33500
C  2.47300 42.76900 27.87300
C  5.98500 43.92600 27.29500
C  3.73100 43.16200 29.79500
O  4.60200 43.42800 30.59100
C  2.29900 42.72800 30.21200
C  2.42500 41.48900 31.08400
O  3.02000 40.40800 30.85100
O  1.84500 41.73800 32.30100
C  2.19100 40.80700 33.28900
H  -3.21200 40.38700 26.65000
H  -0.18700 41.44200 21.21600
H  4.94600 43.42600 24.36900
H  -0.30900 41.11500 30.56500
H  -2.88500 41.33300 29.10200
H  -2.93400 39.11700 29.48800
H  -1.40900 39.24300 30.40000
H  -1.52600 38.79500 28.64300
H  -2.44700 43.04200 30.30700
H  -0.98100 43.87100 30.03600
H  -1.65900 43.97100 32.36900
H  -0.15400 43.28900 32.39900
H  -4.83800 41.18200 24.99900
H  -4.56800 39.46600 24.83500
H  -5.19500 40.44800 23.51900
H  -4.29200 39.10400 21.75200
H  -4.02500 39.48200 20.08400
H  -5.20800 40.35000 20.95500
H  1.89400 42.93500 20.71200
H  4.46100 42.69800 22.05800
H  1.99400 40.90100 19.75700
H  2.42500 40.03500 21.22200
H  3.66900 40.96000 20.45000
H  3.43500 45.25200 22.64200
H  2.55800 44.80600 21.26600
H  5.13400 44.08200 20.34600
H  5.43100 45.58900 21.24900
H  4.42600 45.65100 19.99100
H  6.54900 43.05000 27.61600
H  6.27000 44.72700 27.97700
H  6.45200 44.15700 26.33800
H  1.84300 43.64500 30.58800
H  1.56800 41.02700 34.15500
H  3.24500 40.95800 33.52000
H  1.92700 39.77600 33.05100

