158

Mg -1.67400 18.26700 26.75100
C  -1.96600 15.90100 29.36400
C  -2.29400 20.72400 28.96600
C  -1.78300 20.37300 24.25600
C  -1.73100 15.47600 24.49400
N  -2.09600 18.22800 28.86100
C  -2.18300 17.18900 29.79800
C  -2.45400 17.74400 31.17000
C  -3.04800 19.18400 30.87200
C  -2.32500 19.43100 29.52100
C  -4.57900 19.25100 30.74900
C  -1.25900 17.75000 32.09500
C  -1.65900 17.27500 33.46400
H  -0.60400 17.40500 34.63600
N  -1.65400 20.28300 26.68200
C  -1.93300 21.15400 27.67800
C  -1.79500 22.45800 27.20600
C  -1.38700 22.33500 25.78600
C  -1.64600 20.95500 25.49500
C  -2.05800 23.73600 28.05500
C  -1.01200 23.38900 24.83200
O  -0.68500 23.18000 23.65500
C  -0.85500 24.71700 25.31500
N  -1.75300 18.00600 24.69800
C  -1.89400 19.00800 23.85600
C  -1.84100 18.58600 22.42200
C  -1.57700 16.99600 22.50700
C  -1.74100 16.77400 23.98200
C  -3.22400 18.70200 21.63800
C  -0.16700 16.61700 21.98300
C  1.08600 17.08100 22.76700
N  -1.89400 16.15500 26.79700
C  -1.91300 15.21300 25.82800
C  -2.14700 13.94800 26.40400
C  -2.00500 14.13800 27.83100
C  -1.96000 15.54100 28.01800
C  -2.30900 12.62100 25.74300
C  -1.93900 13.39300 29.14200
O  -1.97700 12.21900 29.46900
C  -2.05300 14.53200 30.18800
C  -0.94500 14.41300 31.14700
O  0.17300 14.76700 31.00900
O  -1.29400 13.84000 32.36000
C  -0.32200 13.57300 33.52200
H  -2.25000 21.49500 29.73900
H  -1.83800 21.09700 23.44000
H  -1.70600 14.70100 23.72600
H  -3.18400 17.05800 31.60000
H  -2.63100 19.87600 31.60300
H  -5.13600 18.32800 30.91200
H  -4.79100 19.51800 29.71300
H  -4.92600 20.11500 31.31500
H  -0.91100 18.76800 32.27200
H  -0.42900 17.19500 31.65800
H  -1.99000 16.23600 33.44500
H  -2.52300 17.86700 33.76400
H  -2.50400 24.40700 27.32000
H  -1.17500 24.17100 28.52400
H  -2.75500 23.55900 28.87300
H  -0.47500 25.39200 24.54800
H  -0.16000 24.72700 26.15400
H  -1.80300 25.18800 25.57400
H  -1.08700 19.07900 21.80900
H  -2.24500 16.46300 21.83200
H  -3.89300 17.95700 22.06800
H  -3.21400 18.56500 20.55600
H  -3.70600 19.66200 21.82300
H  -0.01600 17.00200 20.97500
H  -0.20700 15.52800 22.01100
H  0.88800 17.39300 23.79200
H  1.58600 17.90600 22.25900
H  1.82800 16.29300 22.90500
H  -2.98500 12.57600 24.88900
H  -2.89200 12.08400 26.49100
H  -1.35800 12.16700 25.46500
H  -2.96900 14.36900 30.75500
H  0.52800 14.24800 33.42300
H  0.11200 12.57500 33.45300
H  -0.86400 13.69600 34.45900
Mg -1.22700 35.08800 26.68700
C  -3.07800 33.28800 29.08800
C  -0.28500 37.36100 29.01900
C  0.55600 36.73000 24.28600
C  -2.56400 32.92000 24.15400
N  -1.77700 35.31700 28.76400
C  -2.45700 34.44100 29.62600
C  -2.41000 34.95400 31.04800
C  -1.53400 36.25500 30.93200
C  -1.20100 36.32700 29.46000
C  -2.22400 37.53400 31.55200
C  -1.99600 33.88200 32.05500
C  -1.50900 34.42600 33.49500
H  -2.28300 33.74600 34.68800
N  -0.02900 36.87400 26.67500
C  0.28700 37.62700 27.74300
C  1.26400 38.62000 27.32800
C  1.54100 38.36000 25.97700
C  0.64100 37.25900 25.58000
C  1.91100 39.66000 28.28700
C  2.63500 38.96300 25.18000
O  2.88700 38.53500 24.05200
C  3.55400 39.98300 25.79600
N  -1.00600 34.83500 24.52000
C  -0.14900 35.61600 23.82700
C  0.01100 35.13600 22.38500
C  -0.91300 33.88400 22.35000
C  -1.50400 33.84400 23.77500
C  -0.22300 36.24100 21.39000
C  -0.18400 32.55100 21.99900
C  -1.12600 31.53600 21.21500
N  -2.53200 33.47800 26.50800
C  -3.03200 32.75300 25.42800
C  -3.94000 31.74200 25.88200
C  -3.93200 31.91600 27.32600
C  -3.06700 33.03500 27.63700
C  -4.74600 30.78800 24.96600
C  -4.45500 31.39700 28.57500
O  -5.11400 30.40700 28.90900
C  -4.02600 32.33200 29.70700
C  -5.25700 32.91900 30.23300
O  -6.06900 33.49200 29.54300
O  -5.33800 32.70100 31.58000
C  -6.43400 33.37800 32.18200
H  0.00200 38.00200 29.85500
H  1.16900 37.22300 23.52800
H  -2.99600 32.27000 23.39100
H  -3.45800 35.21700 31.18900
H  -0.60100 36.14800 31.48400
H  -2.49200 38.17700 30.71400
H  -1.45800 38.01300 32.16100
H  -3.07900 37.31800 32.19300
H  -1.16100 33.33500 31.61700
H  -2.74000 33.11600 32.27400
H  -1.78600 35.48000 33.51600
H  -0.43100 34.27400 33.54300
H  2.93800 39.41200 28.55800
H  1.35200 39.55900 29.21700
H  1.92500 40.68200 27.90900
H  4.36600 40.11800 25.08100
H  4.08500 39.63000 26.68000
H  3.19000 41.01000 25.81100
H  1.03800 34.78000 22.29800
H  -1.68500 34.10400 21.61300
H  -0.77100 37.01400 21.92700
H  -0.87800 35.89900 20.58900
H  0.67300 36.65600 20.92900
H  0.21700 32.06500 22.88900
H  0.67500 32.72500 21.35100
H  -2.02100 31.89400 20.70600
H  -1.44600 30.78800 21.94000
H  -0.41600 31.11300 20.50300
H  -4.06800 30.35300 24.23200
H  -5.44300 31.36800 24.36200
H  -5.28300 30.06700 25.58400
H  -3.47900 31.84000 30.51200
H  -7.02300 32.56300 32.60300
H  -6.90400 34.09300 31.50600
H  -6.18900 33.83000 33.14300

