158

Mg 23.80000 -6.15900 46.92400
C  25.95400 -3.61600 45.84700
C  21.38500 -4.78700 44.86400
C  21.92000 -8.76100 47.69800
C  26.49400 -7.68800 48.54500
N  23.77100 -4.52500 45.38900
C  24.70300 -3.57400 45.31700
C  24.27500 -2.38700 44.40600
C  22.72000 -2.65300 44.37600
C  22.59800 -4.07600 44.91000
C  21.83400 -1.70500 45.18900
C  24.97500 -2.55300 43.03600
C  25.74000 -1.23200 42.50200
H  25.01400 -0.59700 41.16500
N  21.90800 -6.73800 46.28200
C  21.09600 -6.05400 45.43200
C  19.84300 -6.76600 45.29800
C  19.98700 -7.88700 46.15800
C  21.34200 -7.83400 46.76200
C  18.82600 -6.37600 44.31600
C  18.94300 -8.91600 46.38000
O  17.80700 -8.79500 45.90600
C  19.14900 -10.14700 47.22100
N  24.19700 -7.97800 47.93100
C  23.20400 -8.86300 48.12000
C  23.67400 -10.10800 48.93900
C  25.19100 -9.78200 49.19000
C  25.32200 -8.40900 48.53300
C  22.86400 -10.48400 50.20700
C  26.16000 -10.83800 48.46900
C  26.92300 -11.84200 49.49000
N  25.75300 -5.72300 47.27400
C  26.72400 -6.42700 47.95900
C  27.98400 -5.67800 47.94900
C  27.66300 -4.53000 47.13600
C  26.35200 -4.67800 46.72700
C  29.14500 -6.02900 48.74000
C  28.19600 -3.31400 46.58800
O  29.29100 -2.74600 46.76600
C  27.12900 -2.68900 45.73700
C  26.87400 -1.35700 46.13600
O  26.11500 -1.03900 47.06200
O  27.75400 -0.46100 45.52800
C  27.42300 0.96000 45.86400
H  20.53000 -4.22600 44.48000
H  21.22600 -9.47200 48.15100
H  27.34100 -8.13000 49.07400
H  24.41500 -1.42800 44.90600
H  22.40900 -2.59800 43.33300
H  21.37900 -2.28300 45.99500
H  21.00700 -1.33600 44.58200
H  22.38000 -0.93200 45.72900
H  24.25900 -2.80400 42.25300
H  25.71800 -3.35000 43.01300
H  26.75500 -1.52900 42.23800
H  25.73100 -0.53400 43.33900
H  18.50800 -7.13600 43.60200
H  19.29300 -5.58700 43.72600
H  17.96700 -5.88900 44.77800
H  18.34800 -10.87000 47.06500
H  19.22100 -9.91400 48.28400
H  20.06800 -10.58400 46.82900
H  23.52900 -10.97200 48.29000
H  25.46700 -9.57100 50.22300
H  21.95800 -9.87700 50.23800
H  23.37000 -10.23100 51.13900
H  22.70900 -11.56100 50.25800
H  26.97000 -10.36600 47.91500
H  25.56300 -11.32700 47.69900
H  26.34600 -11.76500 50.41100
H  27.98400 -11.61200 49.57900
H  26.84300 -12.89000 49.20000
H  28.75300 -6.53800 49.62100
H  29.75200 -5.15600 48.97700
H  29.81200 -6.62000 48.11300
H  27.42100 -2.61700 44.68900
H  28.22000 1.30800 46.52200
H  26.43500 1.15900 46.27700
H  27.53500 1.45200 44.89700
Mg 25.87600 2.02000 28.81100
C  27.57100 1.79900 31.93500
C  22.94200 2.37200 30.66100
C  24.22500 1.88200 26.00700
C  28.85700 1.02900 27.13700
N  25.30500 2.02600 31.13300
C  26.21800 2.08700 32.12700
C  25.49800 2.37300 33.48900
C  23.97400 2.50300 33.05400
C  24.01700 2.34300 31.55100
C  22.97200 1.57300 33.74900
C  26.04500 3.60600 34.16600
C  25.36000 4.01500 35.51700
H  26.32600 4.12300 36.67700
N  23.82100 2.16400 28.43100
C  22.76300 2.30300 29.28000
C  21.53000 2.43900 28.51900
C  21.95700 2.22600 27.14200
C  23.37500 2.15500 27.15000
C  20.15500 2.62900 29.19500
C  21.03500 2.21700 25.87500
O  21.40300 2.01000 24.72900
C  19.63400 2.43800 26.09500
N  26.49600 1.38800 26.89900
C  25.59100 1.56400 25.90200
C  26.16500 1.29600 24.52000
C  27.68800 1.30500 24.80800
C  27.72800 1.28900 26.37000
C  25.59600 -0.03100 24.01700
C  28.37300 2.58500 24.17700
C  29.74100 2.46400 23.47000
N  27.91300 1.56900 29.36200
C  28.94300 1.10200 28.59000
C  30.14800 0.94900 29.48500
C  29.70700 1.19400 30.79200
C  28.35100 1.57400 30.64300
C  31.50600 0.65600 29.08200
C  30.04000 1.13800 32.19800
O  31.14000 0.82400 32.69200
C  28.81100 1.63100 32.92000
C  28.44500 0.78500 34.10000
O  27.76800 -0.17400 34.03000
O  28.87700 1.31000 35.32400
C  28.41300 0.67800 36.52800
H  22.10300 2.70800 31.27300
H  23.68400 1.90200 25.05800
H  29.84900 0.92300 26.69300
H  25.60200 1.46800 34.08700
H  23.69700 3.54100 33.24000
H  22.12400 2.09800 34.18800
H  23.47300 1.01700 34.54100
H  22.55600 0.82500 33.07500
H  25.99500 4.37900 33.39900
H  27.10300 3.41500 34.34600
H  24.64000 3.25900 35.83000
H  24.83800 4.96700 35.42500
H  20.25000 2.68100 30.27900
H  19.52600 1.74200 29.11500
H  19.61100 3.47900 28.78100
H  19.10300 1.54400 26.42400
H  19.14000 2.90900 25.24500
H  19.65400 3.29300 26.77100
H  25.74900 1.99800 23.79600
H  28.14200 0.39300 24.42100
H  25.05300 0.15400 23.09100
H  24.95200 -0.34800 24.83800
H  26.44200 -0.71500 23.94900
H  28.56600 3.32600 24.95300
H  27.69400 3.13500 23.52500
H  30.20400 1.47800 23.52100
H  30.46000 3.15100 23.91500
H  29.70900 2.78800 22.42900
H  32.18200 1.28100 29.66700
H  31.59700 0.76200 28.00100
H  31.71600 -0.38600 29.32200
H  29.11800 2.59700 33.32200
H  27.98200 1.49700 37.10300
H  29.33700 0.27500 36.94400
H  27.76600 -0.19700 36.46200

