158

Mg 16.98200 -1.34300 27.79400
C  15.81900 0.70700 30.26200
C  18.85700 -3.08000 30.22300
C  18.43400 -3.17300 25.33600
C  15.16400 0.49500 25.37500
N  17.43100 -1.00300 29.93300
C  16.67500 -0.25400 30.79900
C  16.94400 -0.58400 32.31900
C  18.15500 -1.57100 32.21000
C  18.22300 -1.95000 30.68100
C  19.50200 -1.04200 32.75200
C  15.75100 -1.29600 33.00900
C  15.71900 -1.33900 34.48400
H  16.96400 -0.84500 35.23500
N  18.33000 -2.99300 27.85000
C  18.95500 -3.54900 28.94700
C  19.72900 -4.70300 28.49200
C  19.57900 -4.75500 27.08700
C  18.74400 -3.62000 26.67500
C  20.31000 -5.64800 29.47800
C  20.29600 -5.74400 26.12900
O  20.13300 -5.69300 24.93800
C  21.09900 -6.94900 26.64800
N  16.73800 -1.42800 25.76000
C  17.52900 -2.19800 24.92200
C  17.30200 -1.81000 23.38300
C  16.12700 -0.79900 23.48800
C  15.96700 -0.52500 24.93100
C  18.55700 -1.29900 22.57700
C  14.77200 -1.25200 22.86700
C  14.11600 -0.30900 21.85600
N  15.81000 0.31800 27.77300
C  15.09700 0.92600 26.72600
C  14.33800 2.00900 27.29300
C  14.56900 1.95100 28.65200
C  15.55100 0.94500 28.86200
C  13.50000 3.04000 26.56000
C  14.17600 2.53100 29.90300
O  13.42200 3.46600 30.12800
C  14.93000 1.70600 31.03000
C  15.70900 2.43100 32.00700
O  16.71600 3.07400 31.79100
O  15.10600 2.31200 33.22100
C  15.43900 3.28700 34.25700
H  19.49800 -3.55900 30.96600
H  18.93200 -3.68000 24.50600
H  14.50000 1.00200 24.67200
H  17.24600 0.29900 32.88200
H  17.95300 -2.50900 32.72800
H  20.28700 -1.17600 32.00800
H  19.85200 -1.64200 33.59300
H  19.39800 0.02200 32.96200
H  15.75800 -2.35400 32.74300
H  14.81200 -0.86900 32.65700
H  15.50600 -2.34000 34.85800
H  14.84300 -0.78200 34.81700
H  19.99400 -6.63600 29.14200
H  20.01800 -5.57700 30.52600
H  21.39400 -5.54200 29.44700
H  21.50500 -7.61700 25.88900
H  20.37800 -7.63200 27.09600
H  21.92000 -6.75300 27.33800
H  16.94300 -2.66600 22.81100
H  16.46800 0.13500 23.04200
H  19.40600 -1.00800 23.19600
H  18.32700 -0.41200 21.98600
H  18.85300 -2.09900 21.89900
H  14.01800 -1.36600 23.64600
H  14.85700 -2.23800 22.41200
H  14.97000 0.26600 21.49900
H  13.37000 0.30200 22.36400
H  13.79200 -0.87000 20.97900
H  13.27000 2.61100 25.58500
H  14.07700 3.93300 26.31900
H  12.66500 3.39700 27.16300
H  14.15100 1.06400 31.44200
H  15.96400 4.16700 33.88500
H  16.07100 2.76300 34.97300
H  14.50600 3.51600 34.77200
Mg 54.41400 24.74200 44.32900
C  52.20800 27.38700 43.55700
C  52.15300 22.51700 43.37900
C  56.95000 22.57700 44.34700
C  56.98300 27.26700 44.48800
N  52.51600 25.01600 43.28900
C  51.80900 26.12100 43.10000
C  50.38700 25.74900 42.60200
C  50.28800 24.20200 42.81500
C  51.70700 23.87500 43.04900
C  49.30000 23.86300 43.97800
C  50.22100 26.29800 41.10700
C  50.27500 25.30200 39.96900
H  50.30000 25.89100 38.50900
N  54.52300 22.80900 43.96000
C  53.44300 22.03400 43.71300
C  53.85700 20.71000 43.59700
C  55.25900 20.59700 43.81500
C  55.67600 22.05000 43.97300
C  52.91100 19.62100 43.12400
C  56.08400 19.30500 43.86400
O  55.56300 18.21900 43.58900
C  57.56300 19.20100 44.09300
N  56.79200 24.92500 44.27900
C  57.43300 23.85500 44.56200
C  58.90800 24.06100 44.65600
C  58.98800 25.67100 44.62200
C  57.56200 26.02400 44.43500
C  59.68000 23.40400 45.88300
C  59.90700 26.27600 43.49900
C  61.33900 26.77500 43.92400
N  54.60200 26.87800 44.29500
C  55.66200 27.70300 44.44900
C  55.17000 29.00200 44.69000
C  53.80200 28.96600 44.31600
C  53.52400 27.61800 44.00800
C  55.97800 30.21000 45.07700
C  52.62600 29.79300 44.03500
O  52.61000 31.03300 44.05200
C  51.51900 28.74900 43.66700
C  50.90900 29.26700 42.33300
O  51.46900 29.35600 41.25600
O  49.54000 29.32800 42.56600
C  48.74200 29.76300 41.39200
H  51.34000 21.78900 43.39800
H  57.67100 21.78400 44.55800
H  57.70100 28.00400 44.85600
H  49.56800 26.24600 43.12100
H  50.02100 23.64200 41.91800
H  49.59700 22.89900 44.39200
H  48.32400 23.70800 43.51900
H  49.20400 24.58600 44.78800
H  51.01900 26.92900 40.71600
H  49.29100 26.85800 41.00700
H  49.47700 24.56100 39.91700
H  51.24400 24.80900 40.04500
H  53.05100 19.35500 42.07600
H  51.92800 19.88000 43.51700
H  53.18500 18.71200 43.65800
H  57.87900 18.15900 44.14900
H  57.66300 19.53600 45.12600
H  58.08200 19.88600 43.42300
H  59.40500 23.69700 43.75700
H  59.20400 26.08200 45.60800
H  58.89000 23.04100 46.54100
H  60.31200 24.10600 46.42800
H  60.18200 22.52800 45.47300
H  59.36300 27.08800 43.01500
H  60.07800 25.55700 42.69800
H  61.41700 27.86200 43.91100
H  61.99700 26.50200 43.09900
H  61.47600 26.35200 44.91900
H  56.70200 30.39000 44.28300
H  56.53100 29.93900 45.97700
H  55.44700 31.14800 45.24000
H  50.69300 28.87700 44.36600
H  49.09800 30.74200 41.07100
H  47.65900 29.79400 41.51300
H  49.00400 28.95500 40.70900

