158

Mg 8.67400 4.61900 27.44600
C  9.46000 2.56200 30.23400
C  6.28500 6.11100 29.36300
C  7.56300 6.07400 24.64200
C  10.12200 2.00100 25.43400
N  7.88300 4.24300 29.49900
C  8.54500 3.52700 30.57000
C  8.02400 4.08300 31.88300
C  6.84100 5.00600 31.55300
C  6.97800 5.10500 30.02500
C  5.43000 4.47700 31.91100
C  9.07400 4.87500 32.67600
C  9.18100 4.74700 34.20000
H  10.49200 4.73800 35.00700
N  7.17700 5.92700 27.06300
C  6.35500 6.51600 28.02900
C  5.48000 7.46800 27.41600
C  5.86500 7.51100 26.00700
C  6.95500 6.50700 25.86800
C  4.27100 8.23800 28.07400
C  5.30700 8.41100 24.88400
O  5.70500 8.39000 23.73900
C  4.18000 9.38500 25.17800
N  8.82200 4.06000 25.30100
C  8.30000 4.95300 24.38500
C  8.70100 4.45600 22.99600
C  9.46100 3.09800 23.19900
C  9.45900 3.02000 24.73500
C  7.63700 4.35500 21.96500
C  10.90100 3.14600 22.52800
C  11.20400 2.14700 21.34300
N  9.84800 2.77100 27.66200
C  10.28300 1.81100 26.83100
C  10.91500 0.74300 27.55500
C  10.71300 1.13100 28.93300
C  9.91400 2.25600 28.94800
C  11.58100 -0.48800 26.90400
C  11.04500 0.71800 30.25600
O  11.85300 -0.15200 30.66600
C  10.24300 1.67100 31.20100
C  9.26100 0.89700 32.06400
O  8.21000 0.38900 31.69700
O  9.68400 0.97500 33.36800
C  8.67700 0.39400 34.32500
H  5.63300 6.82900 29.86500
H  7.39000 6.69200 23.75900
H  10.44000 1.21700 24.74300
H  7.75500 3.20000 32.46100
H  6.91200 6.01400 31.96200
H  5.71900 3.59200 32.47800
H  4.81300 4.12100 31.08500
H  4.89700 5.19700 32.53100
H  9.01500 5.91500 32.35300
H  10.08000 4.60100 32.35700
H  8.47700 4.00800 34.58200
H  8.68300 5.64100 34.57600
H  4.08300 7.99900 29.12000
H  3.33200 7.96900 27.59000
H  4.13600 9.28200 27.79300
H  4.51700 10.10600 25.92300
H  3.24200 8.91000 25.46600
H  3.88400 9.93300 24.28300
H  9.45200 5.18100 22.68100
H  8.99400 2.20700 22.77700
H  6.62200 4.45700 22.34900
H  7.63700 3.39300 21.45200
H  7.86600 5.00900 21.12400
H  11.62300 2.98600 23.32800
H  11.24500 4.10800 22.14700
H  10.32000 1.53200 21.17700
H  11.95700 1.45100 21.71300
H  11.57700 2.60700 20.42800
H  11.14600 -0.57000 25.90800
H  11.37800 -1.34800 27.54200
H  12.64400 -0.27000 26.80000
H  10.91800 2.29200 31.79000
H  9.09600 0.66300 35.29500
H  8.68900 -0.69600 34.34300
H  7.67300 0.79400 34.18100
Mg 35.41400 2.72400 30.04300
C  32.90600 3.89300 32.19700
C  37.55700 2.76700 32.71800
C  37.95500 1.95300 27.99500
C  33.26500 2.99000 27.29000
N  35.27500 3.50600 32.12200
C  34.10100 3.71500 32.83300
C  34.37100 3.64300 34.33900
C  35.90100 3.72000 34.39300
C  36.27900 3.25600 33.00400
C  36.46600 5.16500 34.75800
C  33.71900 2.46700 34.97000
C  33.07600 2.69700 36.37200
H  33.66700 3.79900 37.29800
N  37.47100 2.50600 30.27400
C  38.09000 2.49400 31.46500
C  39.48300 2.13800 31.27100
C  39.68400 1.97800 29.88700
C  38.35700 2.14000 29.28500
C  40.49400 1.92300 32.41800
C  40.99200 1.56700 29.19300
O  41.11200 1.44700 27.97700
C  42.20500 1.23300 29.98800
N  35.62900 2.43600 27.99000
C  36.74500 1.95500 27.38100
C  36.46900 1.72000 25.89500
C  34.99600 2.10600 25.68600
C  34.59900 2.61200 27.10300
C  37.48000 2.41100 24.92500
C  34.14200 1.01900 24.93000
C  33.84600 -0.28600 25.72900
N  33.49100 3.31900 29.73400
C  32.74900 3.36200 28.54100
C  31.37400 3.82700 28.94200
C  31.35600 3.94600 30.35900
C  32.66700 3.77000 30.78800
C  30.13300 4.03100 28.02000
C  30.57400 4.24000 31.49800
O  29.41700 4.59900 31.51900
C  31.51700 4.21100 32.75000
C  31.56400 5.54400 33.47500
O  31.90700 6.61300 32.96300
O  31.16700 5.33200 34.75700
C  31.08400 6.49600 35.64300
H  38.24200 2.73100 33.56800
H  38.77900 1.72400 27.31600
H  32.62000 3.10700 26.41700
H  33.90800 4.57900 34.65100
H  36.36100 2.96900 35.03600
H  35.63300 5.85600 34.88200
H  36.94500 5.46200 33.82600
H  37.03800 5.15000 35.68600
H  34.48300 1.69700 35.07300
H  32.95200 2.16100 34.25900
H  33.01900 1.80500 36.99600
H  32.03300 3.00800 36.30600
H  41.53400 2.06600 32.12300
H  40.41500 0.87300 32.70000
H  40.34000 2.58800 33.26700
H  42.56300 2.22600 30.26000
H  42.95000 0.71900 29.38100
H  41.90500 0.55600 30.78800
H  36.58000 0.66400 25.64700
H  34.94900 2.96700 25.02000
H  37.03400 3.05200 24.16400
H  38.04800 1.59900 24.47200
H  38.21400 3.03200 25.43900
H  34.76900 0.71300 24.09200
H  33.20700 1.40900 24.52800
H  34.49500 -0.46500 26.58600
H  34.21200 -1.09300 25.09500
H  32.78100 -0.33600 25.95700
H  30.26200 4.89900 27.37400
H  29.29800 4.16300 28.70800
H  29.86900 3.13900 27.45200
H  31.27100 3.38700 33.42000
H  31.83500 7.21700 35.32100
H  31.29200 6.07500 36.62700
H  30.08800 6.92400 35.53800

