158

Mg 17.17600 -0.62600 28.09400
C  15.90500 1.11300 30.76300
C  19.35600 -2.16900 30.29100
C  18.34200 -2.37900 25.43300
C  15.39100 1.41100 26.00700
N  17.66200 -0.41600 30.33800
C  16.83900 0.19900 31.21600
C  17.11600 -0.20300 32.66200
C  18.45500 -1.02900 32.49600
C  18.49700 -1.21900 30.93000
C  19.74100 -0.34800 33.07600
C  15.91000 -0.81300 33.35500
C  15.54800 -0.35300 34.77000
H  16.68800 0.00500 35.69100
N  18.65800 -1.99800 27.88300
C  19.39500 -2.62100 28.90200
C  20.06900 -3.73000 28.38900
C  19.94300 -3.75300 26.97800
C  18.97400 -2.69200 26.66300
C  20.94400 -4.63000 29.19400
C  20.51800 -4.60300 25.90700
O  20.31100 -4.42500 24.69300
C  21.46700 -5.74000 26.28500
N  17.07700 -0.35700 26.07400
C  17.48900 -1.32500 25.21600
C  17.10000 -0.89700 23.77500
C  15.96000 0.09700 24.02100
C  16.10600 0.41400 25.46500
C  18.31900 -0.41900 22.91400
C  14.49600 -0.34800 23.58200
C  14.15500 -0.05200 22.15800
N  15.90500 0.85600 28.24000
C  15.27800 1.71100 27.35700
C  14.52500 2.70900 27.97300
C  14.63900 2.45500 29.35600
C  15.57900 1.36200 29.41400
C  13.85500 3.86200 27.28100
C  14.21800 2.97700 30.62500
O  13.38500 3.74800 30.94500
C  14.95100 2.01700 31.59100
C  15.69600 2.94000 32.50100
O  16.80300 3.42400 32.24500
O  14.99300 3.22400 33.66000
C  15.68100 4.01800 34.60900
H  19.95700 -2.74700 30.99600
H  18.60400 -2.86800 24.49300
H  14.77600 2.01600 25.33700
H  17.19900 0.71200 33.24800
H  18.38100 -1.90100 33.14600
H  19.75200 -0.38400 34.16600
H  19.82200 0.67300 32.70300
H  20.51800 -1.01300 32.69800
H  16.13500 -1.88000 33.36800
H  15.14100 -0.66000 32.59800
H  15.06100 -1.13700 35.34900
H  14.81300 0.45100 34.71200
H  21.98700 -4.67900 28.88200
H  20.42500 -5.58400 29.10700
H  21.05900 -4.44400 30.26200
H  21.01900 -6.47600 26.95300
H  22.33500 -5.25600 26.73300
H  21.72900 -6.30500 25.39100
H  16.64200 -1.71400 23.21700
H  16.09500 1.02600 23.46700
H  19.25900 -0.43000 23.46400
H  18.23200 0.62300 22.60500
H  18.40800 -1.14700 22.10800
H  13.72300 0.00300 24.26600
H  14.41800 -1.43200 23.66500
H  13.08800 -0.10500 21.94000
H  14.66700 -0.81900 21.57900
H  14.49000 0.91500 21.78300
H  13.23200 4.36700 28.02000
H  13.14400 3.41800 26.58500
H  14.58000 4.37800 26.65200
H  14.21600 1.42800 32.14100
H  15.57300 5.04800 34.27100
H  16.73000 3.84300 34.84600
H  15.21000 4.06400 35.59100
Mg 45.37000 3.96000 47.44300
C  43.43900 6.69500 46.81000
C  42.63100 1.85000 47.16800
C  47.51700 1.34200 47.46300
C  48.17900 6.10200 47.40800
N  43.30100 4.18800 46.94800
C  42.77100 5.46000 46.73800
C  41.19900 5.26900 46.42000
C  40.89800 3.87700 47.07800
C  42.34300 3.24400 47.14600
C  40.34800 3.92100 48.55500
C  40.91500 5.28400 44.92000
C  39.81500 6.31500 44.46700
H  40.23700 7.18100 43.31000
N  45.09000 1.87200 47.33500
C  43.91100 1.20400 47.21600
C  44.22500 -0.25000 47.14400
C  45.62900 -0.45400 47.49200
C  46.15500 0.94700 47.48900
C  43.16100 -1.27000 46.96400
C  46.31500 -1.73100 47.69600
O  45.72800 -2.79600 47.62100
C  47.79900 -1.78000 48.01000
N  47.53900 3.75100 47.26300
C  48.12800 2.56700 47.42300
C  49.71500 2.65700 47.68800
C  49.89000 4.21700 47.67500
C  48.47500 4.70400 47.38200
C  50.30800 1.88800 48.92500
C  50.87900 4.72000 46.62200
C  51.76800 5.95700 46.94400
N  45.75200 5.98100 47.26500
C  46.98100 6.70500 47.38100
C  46.65500 8.11300 47.22200
C  45.28700 8.15900 46.98900
C  44.77600 6.88000 47.03200
C  47.69800 9.13500 47.11700
C  44.08900 8.96600 46.67300
O  43.95300 10.17500 46.53100
C  42.87500 8.04500 46.63200
C  41.91000 8.50700 47.76400
O  41.88200 8.21200 48.92200
O  41.04700 9.37600 47.16500
C  39.90500 10.00200 47.87200
H  41.85300 1.08600 47.11700
H  48.29000 0.64200 47.78500
H  48.98700 6.83700 47.41800
H  40.63100 5.99400 47.00200
H  40.27300 3.15300 46.55500
H  39.90200 4.87900 48.81900
H  41.13300 3.64000 49.25800
H  39.55500 3.18300 48.68000
H  40.65100 4.29900 44.53500
H  41.78500 5.59900 44.34500
H  39.55800 6.96700 45.30200
H  38.92600 5.74300 44.19900
H  42.84200 -1.32500 45.92300
H  42.35200 -1.11600 47.67700
H  43.57300 -2.27400 47.06400
H  48.15300 -2.79400 48.19200
H  48.04300 -1.20200 48.90100
H  48.31400 -1.41500 47.12100
H  50.13500 2.22100 46.78100
H  50.21400 4.55700 48.65800
H  49.48200 1.59500 49.57300
H  51.02500 2.56400 49.39000
H  50.92900 1.05100 48.60600
H  50.31000 4.94100 45.71900
H  51.64000 3.95300 46.47800
H  52.83400 5.79900 46.78100
H  51.65200 6.34900 47.95400
H  51.39100 6.74300 46.29000
H  48.45600 9.20000 47.89800
H  47.28300 10.11700 46.89000
H  48.36700 8.88300 46.29400
H  42.31000 8.05500 45.70000
H  39.87500 11.08600 47.98200
H  39.58700 9.48300 48.77700
H  39.05700 9.86600 47.20000

