158

Mg 24.05700 -5.09300 45.83400
C  26.07500 -2.85000 44.09100
C  21.50900 -4.16400 43.47800
C  22.14400 -7.67000 46.80900
C  26.76800 -6.40500 47.44000
N  23.81600 -3.67500 44.04600
C  24.76200 -2.76900 43.61400
C  24.23400 -1.92800 42.42300
C  22.69900 -2.22000 42.47600
C  22.62700 -3.42600 43.39600
C  21.74900 -1.08300 42.90100
C  24.92400 -2.44100 41.05800
C  25.56000 -1.43400 40.22200
H  25.20500 -1.54300 38.75800
N  22.05200 -5.77900 45.20700
C  21.20100 -5.22700 44.35500
C  19.94900 -5.97900 44.43700
C  20.10700 -6.94000 45.42000
C  21.47700 -6.80500 45.88200
C  18.65200 -5.56500 43.67500
C  18.96300 -7.81700 45.92700
O  17.85700 -7.68400 45.48000
C  19.15800 -8.84900 47.00900
N  24.43100 -6.85000 46.92200
C  23.44500 -7.69400 47.32700
C  23.94500 -8.74600 48.22500
C  25.43000 -8.29100 48.48600
C  25.60300 -7.14500 47.53900
C  23.08100 -8.85900 49.48000
C  26.62400 -9.38800 48.18300
C  27.76700 -9.44900 49.25200
N  26.02400 -4.66000 45.85400
C  27.05100 -5.31100 46.59100
C  28.23200 -4.53500 46.46700
C  27.90000 -3.54200 45.48000
C  26.58700 -3.64700 45.16800
C  29.59800 -4.97600 46.84100
C  28.46300 -2.49300 44.65700
O  29.52200 -2.00200 44.54100
C  27.33100 -2.08200 43.53400
C  27.07800 -0.62400 43.69800
O  26.38700 -0.12000 44.56500
O  27.80900 0.05700 42.71800
C  27.91300 1.53900 42.76600
H  20.60900 -3.86600 42.93700
H  21.64200 -8.49100 47.32400
H  27.69000 -6.74700 47.91500
H  24.26700 -0.84300 42.52200
H  22.35700 -2.48400 41.47500
H  20.90200 -0.91100 42.23700
H  22.32300 -0.15600 42.91000
H  21.27400 -1.23400 43.87100
H  24.19000 -2.90500 40.39900
H  25.75200 -3.13200 41.21700
H  26.63900 -1.39900 40.37100
H  25.18500 -0.42700 40.40700
H  18.05500 -6.40000 43.30900
H  18.91400 -5.01300 42.77300
H  18.01300 -4.95000 44.31000
H  18.20800 -9.26900 47.34000
H  19.50200 -8.21900 47.82900
H  19.97400 -9.53400 46.77700
H  23.87200 -9.72000 47.74100
H  25.59600 -7.87600 49.48000
H  23.71000 -9.09300 50.33800
H  22.46900 -9.75700 49.39200
H  22.50600 -7.94300 49.61700
H  26.97100 -9.17100 47.17300
H  26.23800 -10.40700 48.17900
H  27.85400 -10.53200 49.34100
H  27.46300 -9.07500 50.23000
H  28.68300 -9.02300 48.84200
H  29.61400 -5.32500 47.87400
H  30.29300 -4.17900 46.57900
H  29.85500 -5.80300 46.18000
H  27.66800 -2.28600 42.51800
H  28.25200 1.90000 41.79500
H  28.56500 1.87500 43.57200
H  26.95600 2.02000 42.96500
Mg 48.45600 35.86400 27.45400
C  46.20900 34.18600 29.51900
C  49.07200 38.00300 29.97100
C  50.29500 37.81900 25.28200
C  47.68500 33.61400 24.86700
N  47.85500 36.01100 29.47500
C  46.98600 35.20500 30.12000
C  47.07200 35.38900 31.64100
C  47.48500 36.87900 31.63700
C  48.23500 36.96600 30.29100
C  46.31600 37.83800 31.80000
C  48.16300 34.38600 32.25200
C  48.16100 34.29700 33.80500
H  47.18600 35.21800 34.62600
N  49.56000 37.69600 27.61600
C  49.72400 38.41400 28.76200
C  50.49200 39.60300 28.48400
C  50.76000 39.66800 27.10000
C  50.19500 38.40500 26.59300
C  50.72900 40.69900 29.52200
C  51.43500 40.66200 26.22800
O  51.56000 40.59500 25.00900
C  51.93300 41.91600 26.92500
N  48.84700 35.80700 25.37500
C  49.70700 36.67300 24.70300
C  49.92600 36.29900 23.20600
C  49.26000 34.84800 23.17400
C  48.54600 34.71200 24.55500
C  49.16400 37.32300 22.30300
C  50.29600 33.65000 22.88700
C  49.82000 32.73400 21.69600
N  47.20900 34.21200 27.20000
C  47.03300 33.34300 26.14300
C  46.05900 32.24800 26.49800
C  45.64400 32.63000 27.80000
C  46.41200 33.80100 28.16900
C  45.55800 31.09500 25.71900
C  44.74200 32.20200 29.00900
O  44.01600 31.22900 29.19200
C  44.99200 33.33700 30.04100
C  45.04400 32.66000 31.44700
O  46.03000 32.08500 31.85400
O  43.88400 32.93700 32.13300
C  43.95600 32.77800 33.55100
H  49.23900 38.68900 30.80400
H  50.83400 38.38200 24.51800
H  47.53500 32.82900 24.12200
H  46.09600 35.27100 32.11300
H  48.26200 37.14300 32.35300
H  45.38300 37.32600 32.03200
H  46.28300 38.40700 30.87000
H  46.52700 38.63400 32.51400
H  49.11000 34.88300 32.04100
H  48.17400 33.44000 31.71100
H  49.15800 34.44700 34.22000
H  47.80900 33.28000 33.98200
H  51.79500 40.92500 29.53900
H  50.39900 40.21100 30.44000
H  50.05600 41.52400 29.29000
H  52.23300 42.71700 26.25000
H  52.70400 41.66700 27.65400
H  51.07600 42.27200 27.49800
H  50.95900 36.18200 22.87800
H  48.50800 34.81200 22.38600
H  48.42500 36.86900 21.64300
H  49.97400 37.68500 21.66900
H  48.71900 38.11100 22.91100
H  50.43500 33.01900 23.76500
H  51.32200 33.97100 22.70500
H  48.73200 32.71900 21.64900
H  50.29000 31.76700 21.87700
H  50.22500 33.08400 20.74600
H  44.83600 30.49800 26.27600
H  46.36600 30.45700 25.36300
H  45.12600 31.44100 24.78000
H  44.17900 34.06000 30.10800
H  43.84000 31.70200 33.68000
H  43.21300 33.28800 34.16500
H  44.91000 33.10500 33.96300

