158

Mg 55.56600 24.69600 44.12800
C  52.92500 26.96800 43.13100
C  53.82700 22.27900 42.75900
C  58.27300 22.88400 44.46100
C  57.13500 27.49200 45.44900
N  53.76300 24.75600 42.77200
C  52.75900 25.71200 42.62800
C  51.42600 25.09300 42.13100
C  51.67300 23.60500 42.59300
C  53.19200 23.51700 42.67200
C  50.94000 23.13900 43.93500
C  51.11900 25.29800 40.63400
C  52.20100 25.71100 39.56000
H  51.77600 26.13600 38.19400
N  55.94300 22.81300 43.70100
C  55.13300 21.92100 43.09600
C  55.73300 20.62200 42.97100
C  57.02800 20.71200 43.54200
C  57.13100 22.18200 43.94300
C  55.08100 19.43600 42.29500
C  58.00000 19.65400 43.66400
O  57.75300 18.64100 43.04400
C  59.15100 19.79000 44.59800
N  57.44500 25.18000 44.78200
C  58.42200 24.21500 44.77800
C  59.76300 24.77800 45.23100
C  59.38000 26.25600 45.74100
C  57.93800 26.39300 45.30100
C  60.66700 23.94500 46.22100
C  60.32900 27.27600 45.12200
C  60.67800 28.60200 45.92500
N  55.14700 26.77500 44.30000
C  55.91600 27.74500 44.91800
C  55.17900 28.94800 44.85800
C  54.04300 28.70800 44.08900
C  54.05700 27.32600 43.83100
C  55.62400 30.22700 45.50900
C  52.84200 29.32000 43.56300
O  52.48400 30.49800 43.43400
C  51.94400 28.13500 43.24700
C  51.16500 28.37400 42.03300
O  51.45200 28.93200 40.97300
O  49.85800 28.02300 42.32000
C  48.94400 28.39500 41.23200
H  53.17700 21.48500 42.38500
H  59.20400 22.32800 44.59800
H  57.56900 28.38200 45.90900
H  50.58000 25.41300 42.73900
H  51.33200 22.89700 41.83700
H  51.52600 23.33600 44.83300
H  50.77600 22.06400 43.87100
H  49.87800 23.38400 43.94400
H  50.16500 25.80800 40.50300
H  50.69000 24.35400 40.29600
H  52.76100 24.77600 39.52100
H  52.95300 26.43200 39.88100
H  55.63900 19.15300 41.40200
H  54.09100 19.66500 41.90300
H  54.96600 18.71000 43.10000
H  58.74000 20.23600 45.50400
H  59.89500 20.45000 44.15100
H  59.45500 18.81600 44.98000
H  60.39900 24.80000 44.34600
H  59.41100 26.30700 46.83000
H  60.29500 22.92100 46.18600
H  60.50500 24.42300 47.18800
H  61.74500 23.94800 46.06400
H  59.92300 27.66500 44.18800
H  61.33300 26.94300 44.85900
H  60.75300 28.25100 46.95400
H  59.98000 29.39900 45.66600
H  61.67900 28.90600 45.61900
H  55.30200 30.15400 46.54800
H  55.23900 31.15200 45.07900
H  56.71200 30.21900 45.44800
H  51.30500 28.01300 44.12200
H  47.96600 28.04700 41.56300
H  49.16100 27.84800 40.31400
H  48.99800 29.48300 41.26900
Mg 35.85500 49.11200 25.40200
C  36.06600 46.87000 28.26100
C  35.05800 51.56800 27.47700
C  35.83000 50.92400 22.61700
C  36.93300 46.24300 23.43800
N  35.44100 49.12700 27.57200
C  35.68900 48.22400 28.55600
C  35.52700 48.85000 30.00400
C  34.87300 50.23400 29.61500
C  35.15400 50.35300 28.15300
C  33.42300 50.42000 29.92700
C  36.97900 49.00000 30.66000
C  37.14000 48.59000 32.09600
H  35.84200 48.42300 32.82700
N  35.53100 50.97900 25.06000
C  35.22500 51.87600 26.05400
C  35.13600 53.21600 25.47400
C  35.21000 52.98400 24.01800
C  35.58000 51.59900 23.88400
C  34.73700 54.44600 26.22400
C  34.93700 53.89500 22.87600
O  35.03600 53.64100 21.73700
C  34.37200 55.21700 23.18200
N  36.13600 48.63900 23.34300
C  36.08800 49.55700 22.39800
C  36.33000 48.98900 21.00500
C  36.99300 47.62200 21.34600
C  36.63600 47.42600 22.79600
C  35.08000 48.93000 20.18100
C  38.54300 47.58700 21.04500
C  39.19100 46.16600 20.96500
N  36.32700 46.98200 25.70400
C  36.79200 46.03200 24.81900
C  37.19700 44.85700 25.57800
C  36.93300 45.14500 26.93700
C  36.37900 46.44900 26.92900
C  37.83300 43.51100 25.11500
C  36.96400 44.57800 28.24600
O  37.19500 43.43800 28.65900
C  36.48300 45.76400 29.15600
C  35.35100 45.34600 30.06500
O  34.19000 45.13400 29.74900
O  35.82100 45.04600 31.35300
C  34.89800 44.44200 32.30600
H  34.82700 52.40600 28.13700
H  35.77300 51.50000 21.69100
H  37.25100 45.42900 22.78300
H  34.77700 48.27400 30.54600
H  35.35900 51.15400 29.94100
H  33.07800 49.60800 30.56700
H  32.74700 50.39600 29.07200
H  33.13000 51.37500 30.36200
H  37.12400 50.07500 30.56100
H  37.71500 48.37000 30.16100
H  37.63700 49.37900 32.66000
H  37.63900 47.62100 32.12100
H  33.65500 54.56000 26.28200
H  35.21800 55.35400 25.86000
H  34.96100 54.20600 27.26400
H  34.27600 55.85200 22.30100
H  35.02900 55.83200 23.79800
H  33.39400 55.02400 23.62300
H  37.07200 49.71400 20.67000
H  36.46300 46.82100 20.83000
H  34.22300 49.18500 20.80400
H  34.80600 47.89800 19.96200
H  35.04400 49.53800 19.27700
H  38.94400 48.16700 21.87600
H  38.92000 48.25500 20.27000
H  39.67700 45.83700 21.88400
H  39.87900 46.07200 20.12500
H  38.48200 45.34700 20.84000
H  38.02200 43.05300 26.08600
H  38.73200 43.65300 24.51500
H  37.16800 42.82000 24.59700
H  37.35500 46.06100 29.73800
H  34.32900 43.59000 31.93400
H  34.16500 45.13500 32.71800
H  35.42100 44.07700 33.18900

