158

Mg 26.13000 1.56900 29.39900
C  28.21200 1.22400 32.15400
C  23.54500 2.05800 31.39100
C  24.12500 1.58500 26.61000
C  28.81300 0.58100 27.25500
N  25.92600 1.56100 31.53600
C  26.90500 1.51000 32.49500
C  26.41700 1.80800 33.90200
C  24.89300 1.86400 33.58700
C  24.73300 1.86500 32.05800
C  23.80700 0.84000 34.15100
C  27.00800 3.13100 34.57300
C  27.66200 2.90400 35.87300
H  27.28600 3.81500 37.03300
N  24.12100 1.85000 29.03700
C  23.25500 1.99900 29.96900
C  21.99500 2.32200 29.38000
C  22.14200 2.05200 28.00100
C  23.48500 1.79400 27.82200
C  20.76100 2.60500 30.15200
C  21.06100 2.03700 26.96400
O  21.25500 1.74500 25.80200
C  19.65700 2.20500 27.39600
N  26.45300 1.03600 27.26900
C  25.47500 1.20800 26.30200
C  26.01400 1.22500 24.82900
C  27.47000 0.77700 25.06700
C  27.64400 0.94500 26.56100
C  25.25800 0.25300 23.86800
C  28.56600 1.53700 24.28100
C  28.52200 1.53800 22.71700
N  28.16600 1.01100 29.55300
C  29.13300 0.65200 28.68300
C  30.37800 0.43700 29.41800
C  29.99000 0.57900 30.73500
C  28.64700 1.00200 30.80600
C  31.79600 0.05900 28.95300
C  30.63000 0.59800 32.01500
O  31.81300 0.31800 32.37900
C  29.43700 0.92900 33.01500
C  29.23100 -0.30700 33.84600
O  29.30600 -1.49300 33.51200
O  29.10000 0.07600 35.12000
C  29.02500 -0.85700 36.22000
H  22.73300 2.21000 32.10500
H  23.51000 1.69500 25.71500
H  29.69000 0.29300 26.67100
H  26.63300 0.91700 34.49200
H  24.50900 2.83100 33.91400
H  23.46900 0.19400 33.34100
H  22.97800 1.34800 34.64300
H  24.29400 0.24900 34.92600
H  26.20600 3.80900 34.86400
H  27.67300 3.65400 33.88500
H  28.73500 2.98900 35.69800
H  27.58500 1.88500 36.25100
H  20.85100 2.72500 31.23200
H  20.19100 1.67600 30.12600
H  20.23800 3.48800 29.78500
H  19.08800 1.94300 26.50400
H  19.56000 3.28200 27.53300
H  19.40200 1.54800 28.22800
H  26.13000 2.25300 24.48500
H  27.52100 -0.30500 24.95000
H  24.89500 -0.56300 24.49300
H  25.87800 -0.18900 23.08800
H  24.45700 0.73000 23.30300
H  29.54600 1.20800 24.62800
H  28.43200 2.59100 24.52400
H  29.42300 1.90700 22.22600
H  27.73900 2.22900 22.40600
H  28.21800 0.54700 22.37900
H  31.89200 0.14500 27.87100
H  32.09900 -0.92600 29.30900
H  32.54500 0.73300 29.37000
H  29.69800 1.81400 33.59600
H  29.37300 -1.86000 35.97100
H  27.95500 -0.86400 36.42800
H  29.69700 -0.50800 37.00400
Mg 41.17700 40.27900 27.25600
C  40.31100 42.94900 29.37900
C  42.20200 38.59100 29.92500
C  42.32900 38.00800 25.04500
C  40.83500 42.44400 24.44200
N  40.98700 40.55600 29.39400
C  40.60300 41.71200 30.03300
C  40.35100 41.51600 31.51900
C  41.05200 40.08800 31.73700
C  41.58700 39.76600 30.22600
C  42.36600 40.18500 32.66500
C  38.79500 41.65600 31.84200
C  38.51400 42.62400 32.98700
H  37.88400 42.04800 34.30200
N  42.10900 38.53000 27.45800
C  42.47500 37.99500 28.66400
C  43.10100 36.72000 28.44500
C  43.08300 36.47000 26.98600
C  42.49900 37.69100 26.43600
C  43.73100 35.94200 29.64500
C  43.59400 35.21100 26.20200
O  43.50400 34.89400 25.04300
C  44.20300 34.13900 26.96800
N  41.61600 40.29400 25.07700
C  41.99600 39.15900 24.34600
C  42.04600 39.40500 22.84300
C  41.46900 40.85300 22.74700
C  41.29600 41.23700 24.17200
C  43.49200 39.10400 22.23900
C  40.11700 40.88100 22.00300
C  38.84800 40.06600 22.47000
N  40.68800 42.29600 26.89700
C  40.58200 43.01600 25.72700
C  40.13800 44.35500 26.06400
C  40.03200 44.38100 27.50700
C  40.36800 43.05900 27.95800
C  39.90200 45.43400 25.04600
C  39.81900 45.17800 28.66800
O  39.57600 46.38100 28.78900
C  39.94500 44.29800 29.91700
C  41.08100 44.79600 30.77400
O  42.26800 44.78000 30.57100
O  40.57800 45.18300 31.99600
C  41.49700 45.56200 33.08800
H  42.49700 37.98300 30.78300
H  42.62300 37.11300 24.49200
H  40.60200 43.08000 23.58500
H  40.88300 42.28600 32.07800
H  40.35600 39.35900 32.15200
H  42.51500 41.22700 32.94900
H  43.22900 39.70100 32.20800
H  42.14800 39.52400 33.50400
H  38.48200 40.61500 31.92100
H  38.34100 42.03500 30.92700
H  37.72600 43.30800 32.67300
H  39.43200 43.05200 33.39100
H  44.04800 36.68100 30.38000
H  44.59700 35.34300 29.36200
H  43.00900 35.27600 30.11900
H  43.35300 33.94300 27.62100
H  45.02800 34.57800 27.52900
H  44.52500 33.24800 26.42900
H  41.37700 38.65700 22.41700
H  42.24700 41.43300 22.25100
H  44.16800 38.84500 23.05400
H  43.92800 39.88700 21.61900
H  43.41900 38.21600 21.61100
H  40.40000 40.47000 21.03300
H  39.75100 41.90400 21.92400
H  38.58200 39.36800 21.67600
H  37.93900 40.66200 22.55800
H  39.00800 39.42900 23.34000
H  40.63500 45.34500 24.24400
H  40.13900 46.40100 25.49000
H  38.87500 45.57900 24.70900
H  39.06900 44.26600 30.56500
H  42.54200 45.26100 33.00900
H  41.00500 45.08300 33.93500
H  41.41400 46.64700 33.15600

