158

Mg 6.01100 54.56600 40.44900
C  5.90800 51.04900 40.65100
C  9.29700 54.09600 39.34200
C  5.97800 57.75200 39.89000
C  2.63400 54.52900 41.61700
N  7.38400 52.70200 39.85500
C  7.14100 51.44100 40.15900
C  8.38700 50.55700 39.86500
C  9.54200 51.57500 39.66700
C  8.69100 52.90200 39.55800
C  10.46900 51.67800 40.85300
C  8.29400 49.73200 38.53400
C  7.35000 50.17600 37.39400
H  7.92800 50.42300 36.04700
N  7.36900 55.77900 39.65700
C  8.72500 55.44300 39.36300
C  9.44200 56.61700 39.01600
C  8.51800 57.77600 39.13300
C  7.22400 57.15100 39.57900
C  10.85500 56.61900 38.50500
C  8.79900 59.21700 38.78200
O  9.85300 59.58700 38.35100
C  7.76300 60.31200 38.87400
N  4.44900 55.88400 40.54100
C  4.82400 57.23900 40.37500
C  3.60800 58.12800 40.62300
C  2.59900 57.13300 41.29000
C  3.21400 55.76800 41.08600
C  3.90400 59.42100 41.40600
C  1.25300 57.23200 40.62900
C  0.17900 57.53700 41.68700
N  4.52700 53.12200 40.90300
C  3.24100 53.22700 41.46300
C  2.78700 51.94500 42.03800
C  3.81000 51.04700 41.73300
C  4.74600 51.79300 40.95800
C  1.56800 51.66800 42.94000
C  4.32000 49.70400 41.93500
O  3.93300 48.68400 42.49200
C  5.58300 49.64200 41.10200
C  5.24900 48.64300 40.00100
O  4.88000 48.96200 38.87900
O  5.56400 47.39200 40.39300
C  5.14400 46.30100 39.43100
H  10.36700 53.95900 39.17700
H  5.88600 58.81000 39.63300
H  1.61500 54.56200 42.00600
H  8.54300 49.88100 40.70600
H  10.18500 51.49800 38.79000
H  10.20800 52.30500 41.70500
H  11.44200 51.89800 40.41300
H  10.45000 50.69100 41.31500
H  7.83100 48.80400 38.87100
H  9.26400 49.48300 38.10400
H  6.85700 51.11800 37.63600
H  6.61000 49.38300 37.29100
H  10.84000 57.12300 37.53900
H  11.18800 55.60300 38.29400
H  11.58700 57.17300 39.09200
H  8.27200 61.26400 38.72200
H  7.52800 60.29800 39.93800
H  6.92100 60.23700 38.18600
H  3.23500 58.44400 39.64900
H  2.56900 57.28700 42.36800
H  3.21500 59.38200 42.25000
H  3.52000 60.24600 40.80700
H  4.98100 59.51600 41.54600
H  1.05300 56.36500 39.99900
H  1.10100 58.08600 39.96900
H  -0.56900 56.75900 41.53200
H  -0.25400 58.53000 41.57100
H  0.48800 57.35400 42.71700
H  1.48400 50.59300 43.09900
H  0.64900 51.91800 42.41000
H  1.59200 52.41700 43.73200
H  6.35000 49.12900 41.68200
H  5.04700 45.36900 39.98800
H  5.82900 46.14900 38.59700
H  4.16500 46.58800 39.04700
Mg 9.61700 48.24400 25.78300
C  7.19100 48.07500 28.26300
C  11.63900 49.86500 27.95600
C  11.74800 48.34100 23.30400
C  7.01900 47.52100 23.35300
N  9.45000 48.72800 27.90300
C  8.39700 48.53900 28.82200
C  8.78300 48.78200 30.22900
C  10.12700 49.55300 30.05100
C  10.45300 49.41600 28.50800
C  9.95900 51.10500 30.31700
C  8.77700 47.53900 31.15600
C  9.86700 47.20200 32.19400
H  9.37200 46.35000 33.46100
N  11.44900 49.00600 25.65400
C  12.16500 49.60500 26.64300
C  13.50300 49.81600 26.15600
C  13.61300 49.27800 24.81800
C  12.23200 48.86400 24.51400
C  14.70500 50.44100 26.98200
C  14.78100 49.04500 23.86400
O  14.63500 48.45700 22.79400
C  16.14600 49.51100 24.21400
N  9.45100 47.84600 23.64900
C  10.55500 47.87200 22.87500
C  10.20900 47.58200 21.35900
C  8.70400 47.17700 21.38800
C  8.33600 47.58200 22.86300
C  10.43700 48.80700 20.47700
C  8.40200 45.70700 21.16600
C  8.29100 44.71200 22.32600
N  7.50700 47.89800 25.74700
C  6.61100 47.64200 24.72200
C  5.28300 47.49400 25.29400
C  5.46200 47.55900 26.65300
C  6.85600 47.83600 26.86700
C  4.04600 47.26200 24.46700
C  4.74800 47.50400 27.93900
O  3.54600 47.38600 28.27400
C  5.84700 47.91200 29.03200
C  5.90200 46.92500 30.08300
O  6.37000 45.83800 30.02600
O  5.32600 47.46300 31.23700
C  5.17700 46.55000 32.37600
H  12.28900 50.44800 28.61200
H  12.48400 48.42000 22.50200
H  6.23000 47.37000 22.61300
H  8.03800 49.46900 30.63400
H  10.97000 49.25100 30.67200
H  10.07200 51.45600 31.34300
H  8.94400 51.34300 29.99900
H  10.69400 51.72700 29.80700
H  8.64100 46.64500 30.54800
H  7.85500 47.64700 31.72800
H  10.35000 48.08000 32.62200
H  10.72100 46.68900 31.75300
H  15.56900 49.78400 27.08700
H  14.37600 50.56600 28.01300
H  15.05400 51.39600 26.58800
H  16.01800 50.56300 24.46900
H  16.70700 49.41000 23.28500
H  16.37600 48.82800 25.03200
H  10.81300 46.78500 20.92600
H  8.09800 47.84000 20.77000
H  9.69500 48.81200 19.67900
H  11.35700 48.58300 19.93800
H  10.45400 49.75400 21.01700
H  9.10200 45.26600 20.45700
H  7.46400 45.84600 20.62800
H  9.05100 44.98100 23.06000
H  8.45400 43.73900 21.86200
H  7.33300 44.80700 22.83600
H  3.93400 46.20100 24.24600
H  3.99100 47.71500 23.47700
H  3.22800 47.67500 25.05800
H  5.49200 48.85900 29.43900
H  4.10300 46.40300 32.25700
H  5.36000 47.01400 33.34500
H  5.79200 45.66100 32.23700

