158

Mg 40.51100 8.71000 29.30000
C  42.27400 10.34100 31.87400
C  38.64900 7.14700 31.67200
C  38.60100 7.46200 26.92100
C  42.61900 10.14200 27.00600
N  40.45900 8.71100 31.59200
C  41.20100 9.49100 32.40000
C  40.56500 9.53200 33.82400
C  39.33400 8.49600 33.68700
C  39.53200 8.03800 32.23400
C  39.31100 7.26000 34.64800
C  40.22300 10.96100 34.20100
C  39.23000 11.18000 35.48500
H  39.84600 12.16700 36.63800
N  38.92700 7.43100 29.29600
C  38.29500 6.86500 30.35900
C  37.22700 5.97600 29.85400
C  37.20900 6.01200 28.45400
C  38.31200 6.98100 28.13400
C  36.33500 5.10600 30.82900
C  36.29100 5.20000 27.48200
O  36.48600 5.32100 26.25600
C  35.15500 4.38800 27.95000
N  40.76700 8.60200 27.21900
C  39.72600 8.15600 26.43800
C  39.92700 8.56800 24.96700
C  41.14000 9.57300 25.02900
C  41.52200 9.44200 26.49400
C  40.12600 7.38100 24.09000
C  41.04300 11.01400 24.40900
C  40.09500 11.94500 25.15300
N  42.23800 9.82400 29.38300
C  43.07000 10.30600 28.34600
C  44.18000 11.07800 28.93900
C  43.86700 11.10200 30.26800
C  42.70200 10.36500 30.51800
C  45.25300 11.76400 28.23300
C  44.33300 11.63300 31.52200
O  45.24900 12.38000 31.80400
C  43.18200 11.26300 32.58400
C  43.84200 10.56300 33.73100
O  44.57000 9.58600 33.62300
O  43.45400 11.09700 34.94600
C  43.69300 10.12300 36.14000
H  37.98000 6.67400 32.39400
H  37.89900 7.19200 26.13000
H  43.15200 10.74200 26.26500
H  41.30900 9.09800 34.49300
H  38.39900 9.05200 33.76700
H  38.49500 7.49400 35.33200
H  40.24700 7.20700 35.20400
H  39.11700 6.27600 34.22000
H  39.84700 11.44000 33.29600
H  41.14700 11.46700 34.48100
H  38.86700 10.23600 35.89100
H  38.29200 11.61000 35.13500
H  35.29100 5.14000 30.51600
H  36.35300 5.55600 31.82100
H  36.71400 4.09300 30.96400
H  34.76700 3.92900 27.04100
H  34.38700 5.00700 28.41400
H  35.58800 3.83400 28.78300
H  39.03600 9.12400 24.67800
H  42.01200 9.18200 24.50500
H  41.13600 7.13000 23.76500
H  39.36100 7.31700 23.31600
H  39.80800 6.50400 24.65400
H  40.67100 10.83600 23.40100
H  42.04400 11.44600 24.38400
H  39.67500 11.53000 26.06900
H  39.27100 12.09600 24.45600
H  40.50900 12.92800 25.37600
H  46.15100 11.16600 28.38900
H  45.46000 12.75600 28.63300
H  44.96600 11.91800 27.19300
H  42.79900 12.24800 32.85100
H  43.63100 9.08100 35.82800
H  42.87000 10.30000 36.83200
H  44.64200 10.34900 36.62700
Mg -2.64900 35.59900 26.69700
C  -4.16700 33.75200 29.21800
C  -1.17600 37.52400 29.18900
C  -1.35800 37.52900 24.31700
C  -4.46900 33.90300 24.27700
N  -2.77900 35.66600 28.99700
C  -3.40100 34.77900 29.81100
C  -3.00500 34.98500 31.35200
C  -2.39100 36.41200 31.34400
C  -2.05200 36.53700 29.74300
C  -3.14700 37.64400 31.74600
C  -2.17400 33.84200 31.87300
C  -2.82600 32.91500 32.85400
H  -2.06200 32.62800 34.22300
N  -1.33400 37.20000 26.75800
C  -0.81700 37.82900 27.87300
C  0.24900 38.77500 27.44400
C  0.11300 38.87700 26.00900
C  -0.92900 37.81400 25.60100
C  1.24400 39.40500 28.42700
C  0.79800 39.79900 25.02200
O  0.70700 39.72500 23.81000
C  1.89400 40.81300 25.53800
N  -2.89000 35.73000 24.54600
C  -2.31200 36.62700 23.78400
C  -2.58800 36.35400 22.30600
C  -3.36600 35.03900 22.33700
C  -3.60300 34.86000 23.79100
C  -3.26000 37.50100 21.55400
C  -2.64800 33.85300 21.63100
C  -1.45300 33.23400 22.32800
N  -3.98700 34.11200 26.70500
C  -4.69900 33.53600 25.62800
C  -5.52800 32.47200 26.18100
C  -5.40400 32.50600 27.58500
C  -4.42300 33.48000 27.87400
C  -6.43000 31.56900 25.40900
C  -5.77000 31.83300 28.79600
O  -6.53000 30.97400 29.01200
C  -4.87600 32.61000 29.92400
C  -5.81300 33.08600 30.99400
O  -6.61900 34.01700 30.91000
O  -5.71600 32.25400 32.08000
C  -6.79300 32.30200 33.11100
H  -0.65200 38.08800 29.96300
H  -0.85100 38.04900 23.50200
H  -4.94500 33.34200 23.47000
H  -3.90300 35.15400 31.94600
H  -1.49700 36.28700 31.95400
H  -4.07700 37.33900 32.22500
H  -3.27600 38.44200 31.01400
H  -2.62400 37.95800 32.65000
H  -1.26200 34.19700 32.35300
H  -1.82800 33.18900 31.07100
H  -3.09800 31.95700 32.40900
H  -3.65100 33.55200 33.17400
H  1.28000 38.84700 29.36300
H  1.03800 40.45300 28.64400
H  2.21600 39.37400 27.93500
H  2.78100 40.31100 25.92400
H  1.39500 41.43200 26.28400
H  2.30900 41.35400 24.68700
H  -1.56500 36.30200 21.93400
H  -4.31400 35.20300 21.82500
H  -3.71600 38.02200 22.39600
H  -3.94600 37.23100 20.75100
H  -2.50900 38.15700 21.11500
H  -2.33000 34.21400 20.65300
H  -3.37900 33.04500 21.63700
H  -1.17300 33.69600 23.27400
H  -0.52600 33.31300 21.76000
H  -1.63900 32.17300 22.49500
H  -5.87800 30.99600 24.66400
H  -7.21000 32.11500 24.87700
H  -6.83600 30.86100 26.13100
H  -4.11700 31.96500 30.36600
H  -7.77900 32.70400 32.87700
H  -6.40400 32.75900 34.02100
H  -6.91900 31.23300 33.28200

