158

Mg 17.11900 51.44100 26.21300
C  18.91500 49.92400 28.66700
C  14.73800 52.46000 28.66400
C  15.23100 52.88400 23.76200
C  19.32100 50.37100 23.81900
N  16.86100 51.08600 28.32800
C  17.80300 50.61500 29.18600
C  17.43900 50.78000 30.68700
C  15.98600 51.30700 30.59800
C  15.82000 51.61600 29.10100
C  15.04200 50.14900 31.20200
C  18.33800 51.78500 31.36000
C  18.70000 51.51200 32.86200
H  17.64200 50.76200 33.66200
N  15.26700 52.55000 26.22000
C  14.47300 52.85900 27.33300
C  13.45400 53.69500 26.86900
C  13.52900 53.81200 25.43500
C  14.67700 53.03700 25.06600
C  12.39500 54.34300 27.84500
C  12.64000 54.61200 24.48200
O  12.79700 54.71200 23.29900
C  11.55900 55.41000 25.01600
N  17.15600 51.49200 24.13200
C  16.37800 52.27400 23.33100
C  16.91400 52.28900 21.93000
C  18.30200 51.85200 22.09200
C  18.31300 51.20900 23.50400
C  16.04100 51.32200 21.04900
C  19.42000 52.99800 21.98900
C  20.62000 52.55600 21.19000
N  18.73400 50.22200 26.20200
C  19.58800 49.97400 25.17800
C  20.73200 49.13900 25.68600
C  20.51100 49.12300 27.05800
C  19.31900 49.78700 27.29700
C  21.76400 48.37900 24.87400
C  21.03500 48.64500 28.35500
O  22.07400 48.06800 28.60200
C  20.03400 49.19200 29.44400
C  19.57500 48.07300 30.27200
O  18.93200 47.09200 29.89100
O  20.03500 48.24500 31.56700
C  19.98900 47.19400 32.58900
H  14.08500 52.65100 29.51800
H  14.71700 53.35300 22.92100
H  20.18300 50.23300 23.16400
H  17.54500 49.81700 31.18700
H  15.80100 52.18300 31.21900
H  15.50200 49.20400 31.48900
H  14.30300 50.00400 30.41300
H  14.49300 50.33800 32.12500
H  17.81000 52.73400 31.45800
H  19.25500 51.85000 30.77500
H  18.87000 52.51000 33.26700
H  19.60400 50.90600 32.78900
H  12.61600 53.99200 28.85300
H  11.38900 54.10400 27.50000
H  12.74600 55.37400 27.83300
H  11.79800 56.25000 25.66700
H  10.87700 54.62900 25.35200
H  11.13000 55.98000 24.19200
H  16.87100 53.26700 21.45100
H  18.44900 51.12500 21.29500
H  16.55800 50.37200 20.91400
H  15.93600 51.78400 20.06800
H  15.11100 51.09100 21.56800
H  19.80100 53.16300 22.99600
H  19.10200 53.95800 21.58400
H  20.38800 51.63300 20.65700
H  21.43900 52.37200 21.88500
H  21.08900 53.18700 20.43600
H  21.93700 48.77900 23.87400
H  21.45300 47.34200 24.75100
H  22.60300 48.34900 25.56900
H  20.59800 49.83000 30.12400
H  18.93100 47.08300 32.83000
H  20.54600 47.55100 33.45500
H  20.34400 46.22100 32.25000
Mg -6.12500 24.70900 26.94100
C  -4.94500 26.68300 29.74000
C  -8.01000 22.97800 29.01000
C  -6.96700 22.99100 24.20000
C  -3.95400 26.85700 24.90200
N  -6.24300 24.74800 29.15900
C  -5.78200 25.60500 30.06700
C  -6.39200 25.33100 31.46700
C  -7.27200 24.08800 31.18000
C  -7.22200 23.91100 29.72300
C  -6.76700 22.83300 31.97100
C  -7.15000 26.51600 32.19200
C  -7.12600 26.73000 33.76200
H  -6.66600 25.51100 34.54500
N  -7.37600 23.19200 26.62400
C  -8.03800 22.58200 27.64600
C  -8.96500 21.64500 27.01700
C  -8.67000 21.57400 25.57500
C  -7.65800 22.60900 25.40900
C  -9.96600 20.98000 27.83600
C  -9.29700 20.73700 24.51200
O  -9.12100 20.95200 23.31900
C  -10.18200 19.53200 24.80600
N  -5.48400 24.91300 24.85300
C  -5.93200 23.95300 24.01100
C  -5.30300 24.15600 22.60500
C  -4.39800 25.39300 22.76300
C  -4.54700 25.70000 24.26000
C  -4.50900 22.87700 22.08000
C  -4.74400 26.58900 21.82400
C  -6.16200 27.18300 21.97900
N  -4.79000 26.46300 27.14600
C  -4.03200 27.19000 26.28000
C  -3.44300 28.37500 26.94800
C  -3.68300 28.13700 28.28800
C  -4.48800 26.97900 28.38200
C  -2.66200 29.42200 26.22900
C  -3.52700 28.68500 29.59100
O  -2.90500 29.64500 29.94900
C  -4.24400 27.75500 30.51600
C  -3.44300 27.27500 31.63200
O  -2.52900 26.50900 31.54800
O  -3.82200 27.92500 32.80800
C  -3.03300 27.59100 34.01800
H  -8.72800 22.40400 29.59900
H  -7.10000 22.30500 23.36100
H  -3.31300 27.48200 24.27600
H  -5.52400 25.12100 32.09100
H  -8.27100 24.39100 31.49200
H  -7.05000 21.90400 31.47500
H  -7.39800 22.78600 32.85900
H  -5.77300 22.87400 32.41600
H  -8.18200 26.53900 31.84300
H  -6.69300 27.45100 31.86700
H  -8.08900 27.12800 34.08200
H  -6.46900 27.57200 33.97800
H  -10.47100 20.17100 27.30900
H  -10.79700 21.60700 28.15900
H  -9.57300 20.37000 28.65000
H  -9.85000 18.91200 25.63900
H  -10.29600 18.91500 23.91500
H  -11.12100 19.91400 25.20700
H  -6.05400 24.30000 21.82800
H  -3.35500 25.11900 22.60500
H  -3.53800 23.12600 21.65200
H  -5.21300 22.28900 21.49200
H  -4.32300 22.17100 22.88900
H  -4.72000 26.28200 20.77800
H  -3.99000 27.33400 22.07800
H  -6.69200 26.71800 22.81100
H  -6.62100 26.99300 21.00900
H  -5.98600 28.25400 22.07300
H  -3.34100 29.96000 25.56800
H  -1.76800 29.00500 25.76600
H  -2.27800 30.04800 27.03500
H  -5.07500 28.32300 30.93500
H  -3.04500 26.51400 34.18500
H  -3.58000 28.05500 34.83900
H  -2.00500 27.94400 33.94300

