158

Mg 53.53400 24.66900 44.89500
C  50.88100 26.72500 43.85000
C  51.62900 21.94900 43.90300
C  56.32500 22.82500 45.00100
C  55.26400 27.60200 45.90700
N  51.60600 24.34400 43.89500
C  50.79200 25.37700 43.43800
C  49.64800 24.82700 42.61500
C  49.60000 23.32400 43.16800
C  51.02000 23.16700 43.83700
C  48.49700 23.04000 44.17800
C  50.00200 24.90000 41.14100
C  48.75100 25.07400 40.24300
H  49.14100 25.84900 38.92400
N  53.94100 22.67200 44.26700
C  52.99600 21.66900 44.10000
C  53.66100 20.43100 44.01200
C  55.02500 20.62100 44.31100
C  55.19400 22.13600 44.48600
C  52.92300 19.13800 43.66000
C  56.05300 19.51700 44.48200
O  55.73900 18.35600 44.21600
C  57.46700 19.83900 44.83400
N  55.52500 25.15500 45.47400
C  56.50100 24.20000 45.40300
C  57.86900 24.86700 45.80800
C  57.64400 26.37600 45.74400
C  56.06300 26.39900 45.72800
C  58.43800 24.35500 47.10500
C  58.27500 27.18500 44.49100
C  58.86200 28.56600 44.83600
N  53.00800 26.72100 45.13500
C  53.81300 27.75100 45.67300
C  53.08100 28.98400 45.58100
C  51.88700 28.61900 44.87200
C  52.00400 27.26000 44.51900
C  53.47300 30.31300 46.08700
C  50.62000 29.15000 44.32500
O  50.14300 30.23000 44.37000
C  50.00300 27.86500 43.50800
C  49.80400 28.26200 42.03600
O  50.71200 28.30300 41.25500
O  48.48900 28.64700 41.85400
C  48.23100 29.15100 40.49500
H  50.95300 21.09200 43.87100
H  57.26800 22.28700 45.12100
H  55.75600 28.56900 46.03000
H  48.64300 25.18400 42.84100
H  49.52100 22.59400 42.36400
H  47.95600 23.97300 44.33900
H  48.81100 22.73300 45.17600
H  47.83600 22.26100 43.79700
H  50.46900 23.95300 40.87100
H  50.74200 25.67600 40.94200
H  48.00600 25.62900 40.81400
H  48.23000 24.15200 39.98600
H  53.05200 18.89900 42.60400
H  51.84200 19.21800 43.77500
H  53.26400 18.21000 44.11900
H  58.17600 19.01300 44.77700
H  57.42900 20.13800 45.88100
H  57.98400 20.60100 44.24900
H  58.62600 24.63700 45.05800
H  58.02700 26.94100 46.59400
H  58.84200 25.23600 47.60400
H  59.13900 23.55500 46.86700
H  57.68000 23.81300 47.67100
H  57.48100 27.35600 43.76400
H  59.07200 26.61800 44.01200
H  59.02500 28.79700 45.88800
H  58.16000 29.35400 44.56000
H  59.80900 28.55000 44.29500
H  54.00700 30.84900 45.30200
H  54.10700 30.30300 46.97300
H  52.55100 30.82200 46.36800
H  49.02600 27.62200 43.92600
H  48.91900 29.05000 39.65600
H  48.01600 30.20900 40.64000
H  47.28800 28.71200 40.16600
Mg -12.74500 14.56300 42.50100
C  -9.43900 13.70100 41.65400
C  -12.22800 17.58500 40.89700
C  -15.99600 15.26200 43.00600
C  -13.42700 11.23700 43.32100
N  -11.04600 15.40700 41.30900
C  -9.71100 14.93500 41.24200
C  -8.76100 15.93000 40.54100
C  -9.67000 17.14300 40.35100
C  -11.09800 16.73900 40.84500
C  -9.05300 18.45700 40.86900
C  -8.02900 15.38800 39.25000
C  -6.52900 15.27600 39.27400
H  -5.72600 15.90300 38.21500
N  -14.00400 16.18500 41.95800
C  -13.56600 17.37600 41.33400
C  -14.79100 18.19000 41.34800
C  -15.83700 17.51000 41.92700
C  -15.31500 16.23900 42.27500
C  -14.67800 19.55100 40.74900
C  -17.29100 18.10200 42.10500
O  -17.52200 19.28200 41.82400
C  -18.48900 17.19300 42.57700
N  -14.53100 13.35600 43.05300
C  -15.68900 13.93800 43.41100
C  -16.57700 12.98600 44.17800
C  -15.88400 11.62000 44.06000
C  -14.54900 12.05300 43.44800
C  -16.82700 13.34600 45.61900
C  -16.66000 10.45300 43.32500
C  -16.84400 9.21900 44.23600
N  -11.71400 12.89900 42.62800
C  -12.14700 11.61500 42.84500
C  -10.94900 10.76200 42.77900
C  -9.93200 11.51800 42.22800
C  -10.40200 12.85700 42.22000
C  -10.92000 9.31100 43.27300
C  -8.58100 11.46700 41.70100
O  -7.80500 10.54800 41.63100
C  -8.17300 12.93800 41.45000
C  -7.07500 13.45400 42.32500
O  -7.29200 14.13100 43.31400
O  -5.87400 13.23300 41.76000
C  -4.64200 13.77100 42.41700
H  -12.03400 18.59400 40.52700
H  -17.00500 15.40500 43.40000
H  -13.61500 10.17100 43.46200
H  -7.97800 16.27100 41.21900
H  -9.85200 17.25000 39.28200
H  -9.50100 19.27700 40.30700
H  -7.99400 18.43500 40.61500
H  -9.16500 18.45500 41.95300
H  -8.28800 16.10800 38.47300
H  -8.49100 14.40700 39.14100
H  -6.14400 14.27100 39.44100
H  -6.25100 15.76000 40.21000
H  -14.93500 19.57500 39.69000
H  -13.64800 19.90700 40.76700
H  -15.27400 20.28400 41.29300
H  -18.54500 16.28900 41.97000
H  -19.38000 17.77200 42.33200
H  -18.46900 17.05000 43.65700
H  -17.50600 13.09300 43.61800
H  -15.63300 11.36100 45.08900
H  -17.09500 12.46700 46.20400
H  -17.64700 14.05200 45.74700
H  -15.97100 13.82500 46.09400
H  -16.20800 10.13500 42.38500
H  -17.65100 10.87900 43.16000
H  -17.35700 8.45700 43.64800
H  -17.59300 9.58300 44.94000
H  -15.97900 8.71400 44.66500
H  -11.05900 9.30200 44.35400
H  -9.91400 8.92800 43.10500
H  -11.56900 8.71200 42.63400
H  -7.88600 12.95600 40.39800
H  -3.78400 13.28800 41.94900
H  -4.75100 13.35400 43.41800
H  -4.73700 14.85500 42.35600

