158

Mg 16.96700 -2.85900 27.04200
C  16.07200 -0.94500 30.00800
C  18.76000 -4.86300 28.97800
C  18.33400 -4.04400 24.23500
C  15.29200 -0.33700 25.19400
N  17.24300 -2.92600 29.29400
C  16.84200 -2.12500 30.31500
C  17.56400 -2.50500 31.64400
C  18.61500 -3.63400 31.21700
C  18.20500 -3.79400 29.75600
C  20.06900 -3.24800 31.31500
C  16.58100 -2.84700 32.75200
C  16.78700 -2.35300 34.19900
H  18.10000 -1.59800 34.62300
N  18.17400 -4.37200 26.62900
C  18.77400 -5.10700 27.57400
C  19.47300 -6.20500 26.96400
C  19.38000 -6.04800 25.57000
C  18.62700 -4.81800 25.41500
C  20.45900 -7.16100 27.72100
C  19.90000 -6.85700 24.39100
O  19.83700 -6.47300 23.19700
C  20.33000 -8.27300 24.64000
N  16.89300 -2.17000 25.02600
C  17.57700 -2.91300 24.08600
C  17.43500 -2.12700 22.70900
C  16.30900 -1.02400 23.01900
C  16.03900 -1.27300 24.47100
C  18.63600 -1.57600 21.92300
C  15.00000 -1.07400 22.07700
C  14.85300 0.11800 21.11700
N  15.88800 -0.99000 27.41900
C  15.18200 -0.15100 26.54500
C  14.47900 0.81500 27.34300
C  14.81800 0.55800 28.67600
C  15.70500 -0.55700 28.70400
C  13.51800 1.85700 26.72500
C  14.59100 0.98200 30.04400
O  14.01700 2.00600 30.41800
C  15.43600 -0.02500 30.95800
C  16.53400 0.80800 31.62600
O  17.62800 1.05000 31.14600
O  16.04400 1.40600 32.77500
C  16.87200 2.53200 33.25500
H  19.38700 -5.51800 29.58600
H  18.79900 -4.34800 23.29400
H  14.76600 0.46100 24.66500
H  18.00500 -1.61000 32.08200
H  18.41000 -4.55700 31.75900
H  20.41400 -2.80100 30.38300
H  20.65100 -4.14300 31.54000
H  20.14900 -2.51100 32.11400
H  16.63800 -3.93400 32.69800
H  15.56100 -2.62600 32.43700
H  16.85900 -3.26100 34.79800
H  15.95100 -1.67600 34.37100
H  20.35300 -8.15600 27.28900
H  20.41900 -7.25400 28.80700
H  21.42800 -6.73900 27.45500
H  21.33300 -8.30000 25.06600
H  20.39300 -8.70900 23.64300
H  19.62400 -8.81000 25.27300
H  16.89900 -2.81200 22.05100
H  16.86700 -0.08800 22.97200
H  19.57800 -2.06800 22.16700
H  18.94300 -0.65200 22.41300
H  18.40700 -1.42900 20.86800
H  14.04200 -1.23600 22.57100
H  15.13500 -1.92300 21.40800
H  15.76300 0.71600 21.11800
H  14.04200 0.77000 21.44200
H  14.61100 -0.23500 20.11400
H  13.04200 1.42400 25.84500
H  14.12500 2.73500 26.50600
H  12.77800 1.99000 27.51400
H  14.83900 -0.57600 31.68600
H  17.89900 2.23900 33.47600
H  16.37800 2.86800 34.16600
H  16.87100 3.27800 32.46000
Mg -5.43500 24.49100 27.39300
C  -3.68300 26.14900 30.05700
C  -6.31500 22.19800 29.68900
C  -6.33800 22.49400 24.86500
C  -3.86200 26.63400 25.24600
N  -5.00800 24.25300 29.68200
C  -4.42000 25.06200 30.51000
C  -4.59700 24.63200 31.93100
C  -5.34100 23.28900 31.76900
C  -5.60600 23.24000 30.27700
C  -4.56200 22.01900 32.15800
C  -5.39800 25.70000 32.74900
C  -4.95800 25.93700 34.17600
H  -5.59100 25.00700 35.18500
N  -6.39700 22.64800 27.28000
C  -6.73300 21.88400 28.37000
C  -7.44200 20.74200 27.86600
C  -7.42800 20.81100 26.47700
C  -6.59900 21.94400 26.11000
C  -7.88300 19.63400 28.68900
C  -8.03100 19.86200 25.41900
O  -7.66000 19.81300 24.24800
C  -9.06900 18.73300 25.95100
N  -5.15500 24.58300 25.30400
C  -5.64700 23.67400 24.43100
C  -5.49400 24.13000 22.98400
C  -4.64800 25.43600 23.15500
C  -4.57600 25.62900 24.61100
C  -4.91500 22.99300 22.06500
C  -5.10200 26.74100 22.43100
C  -3.93100 27.43100 21.58900
N  -4.20100 26.07600 27.58300
C  -3.62300 26.89000 26.59500
C  -2.80600 27.93600 27.21100
C  -2.75700 27.67000 28.53900
C  -3.66000 26.58600 28.73600
C  -2.19200 29.03700 26.38400
C  -2.23300 28.13200 29.79000
O  -1.40600 28.98600 30.07400
C  -2.90300 27.16700 30.84200
C  -1.73400 26.44700 31.46200
O  -1.15500 25.40000 31.03700
O  -1.41500 26.97400 32.72000
C  -0.44300 26.21000 33.51800
H  -6.64200 21.47800 30.44200
H  -6.90800 22.14200 24.00200
H  -3.43500 27.34800 24.53900
H  -3.62200 24.42200 32.37100
H  -6.32000 23.18200 32.23800
H  -3.77200 22.24700 32.87400
H  -4.01200 21.65400 31.29100
H  -5.13600 21.22100 32.63000
H  -6.45300 25.44000 32.65800
H  -5.31300 26.60400 32.14600
H  -5.12200 26.98200 34.44200
H  -3.89600 25.69500 34.15700
H  -8.91600 19.35600 28.47600
H  -7.72800 19.91700 29.73000
H  -7.37400 18.69800 28.45700
H  -8.41100 17.97100 26.36800
H  -9.33100 18.21900 25.02600
H  -9.97000 19.11800 26.42700
H  -6.42700 24.29800 22.44600
H  -3.62500 25.20500 22.85700
H  -4.19600 22.48600 22.70800
H  -4.48800 23.19700 21.08300
H  -5.70100 22.26200 21.87700
H  -5.48500 27.48900 23.12600
H  -5.91900 26.60600 21.72200
H  -3.59300 28.31300 22.13200
H  -4.40500 27.73100 20.65500
H  -3.10900 26.79900 21.25100
H  -2.94900 29.63800 25.88100
H  -1.59900 28.62800 25.56500
H  -1.61300 29.76100 26.95700
H  -3.41800 27.79200 31.57100
H  0.56900 26.56500 33.32100
H  -0.39600 25.13700 33.33500
H  -0.72900 26.34600 34.56100

