158

Mg 47.86400 25.00700 28.57100
C  48.75400 26.97200 31.19500
C  46.87400 22.55800 30.83400
C  47.02900 23.02600 25.99600
C  49.09100 27.39600 26.26900
N  47.60100 24.84100 30.74600
C  48.01200 25.83300 31.61300
C  47.71300 25.46900 33.07700
C  47.30900 23.97000 32.93500
C  47.26000 23.74800 31.37800
C  48.19100 22.97300 33.62800
C  46.66200 26.39700 33.76100
C  47.11900 27.10600 35.04500
H  46.05600 27.62200 35.96700
N  47.10900 23.00400 28.44600
C  46.68800 22.18100 29.46800
C  46.21800 20.89300 28.96200
C  46.37100 21.05400 27.52100
C  46.91900 22.39500 27.24800
C  45.63400 19.78300 29.83200
C  46.09200 19.97200 26.49900
O  46.34400 20.08700 25.28700
C  45.46200 18.69300 26.98000
N  48.25900 25.08700 26.33900
C  47.62600 24.20000 25.51800
C  47.47500 24.74500 24.10300
C  48.25000 26.13800 24.15700
C  48.58900 26.20500 25.66100
C  47.93200 23.83800 23.01000
C  47.51800 27.35000 23.56000
C  48.12700 27.99900 22.31600
N  48.85500 26.74400 28.65600
C  49.26500 27.59900 27.68100
C  49.91100 28.70700 28.32400
C  49.58300 28.58600 29.71000
C  49.01700 27.35200 29.85700
C  50.62300 29.95400 27.72200
C  49.71600 29.22000 30.98700
O  50.22600 30.31400 31.29000
C  49.33400 28.13700 32.02600
C  50.53100 27.75300 32.93900
O  51.57000 27.27000 32.51900
O  50.24600 27.99400 34.22500
C  51.24000 27.52100 35.24700
H  46.47500 21.74300 31.44200
H  46.54900 22.40400 25.23700
H  49.39000 28.17500 25.56500
H  48.68500 25.59300 33.55500
H  46.33800 23.83200 33.41100
H  47.70200 22.54600 34.50300
H  49.14400 23.39200 33.95000
H  48.41000 22.15900 32.93700
H  45.76900 25.86000 34.08100
H  46.30800 27.14700 33.05400
H  47.72100 27.95500 34.72100
H  47.72600 26.39100 35.59900
H  46.22600 18.88400 29.65700
H  44.63600 19.62000 29.42400
H  45.44500 19.95700 30.89100
H  45.39100 17.94800 26.18700
H  44.48600 18.99000 27.36500
H  46.06900 18.20200 27.74000
H  46.40600 24.93500 24.00200
H  49.20800 26.01400 23.65100
H  47.00800 23.55100 22.50700
H  48.44400 22.99700 23.47700
H  48.72400 24.17400 22.34100
H  47.30600 28.07700 24.34400
H  46.50800 27.02200 23.31500
H  49.19100 27.81400 22.16900
H  47.96500 29.07700 22.32400
H  47.55500 27.63400 21.46300
H  51.41300 29.61200 27.05300
H  51.00900 30.55500 28.54500
H  49.85900 30.37300 27.06600
H  48.53100 28.70200 32.50000
H  50.82100 26.61300 35.68100
H  51.17700 28.23400 36.06800
H  52.27700 27.33900 34.96400
Mg 29.22500 57.92700 41.02600
C  26.67800 55.78000 39.65400
C  31.52800 55.65800 39.92500
C  31.41500 60.13600 41.66100
C  26.64700 60.21200 41.96600
N  28.98900 55.99600 39.89100
C  27.95300 55.35100 39.38700
C  28.45400 54.13300 38.61700
C  29.86800 53.85300 39.22600
C  30.15500 55.25600 39.76000
C  29.96500 52.82600 40.33500
C  28.54200 54.38700 37.11400
C  27.59900 53.47300 36.25600
H  26.78000 54.13100 35.16400
N  31.22700 57.90800 40.75300
C  32.00900 56.89800 40.31200
C  33.38300 57.28400 40.36400
C  33.36000 58.59900 40.98500
C  31.98700 58.92300 41.22300
C  34.52400 56.39400 39.93300
C  34.63600 59.31700 41.48900
O  35.70300 58.91000 41.12000
C  34.55400 60.64200 42.24700
N  29.06400 60.05700 41.59800
C  30.11700 60.66900 41.92700
C  29.83300 62.08300 42.34100
C  28.39600 61.94400 42.85200
C  27.97900 60.70200 42.01800
C  30.85300 62.68900 43.38800
C  27.47900 63.19000 42.55000
C  26.71900 63.75300 43.70200
N  27.12900 58.00800 40.88100
C  26.22200 59.03000 41.39100
C  24.88100 58.60000 41.08200
C  25.03400 57.34400 40.49900
C  26.38800 57.02600 40.34300
C  23.56000 59.38900 41.31800
C  24.25300 56.30000 39.90600
O  23.02100 56.23100 39.80800
C  25.27200 55.24300 39.26100
C  25.07500 53.97000 39.91300
O  25.51100 53.62900 41.00400
O  24.23800 53.23200 39.16600
C  23.61100 52.12200 39.81700
H  32.22600 54.82500 39.81800
H  32.17500 60.91500 41.75100
H  25.89800 60.88900 42.38200
H  27.76600 53.29300 38.70900
H  30.58400 53.56700 38.45600
H  29.94200 53.34000 41.29600
H  30.92500 52.30900 40.33600
H  29.13400 52.12500 40.26400
H  29.49800 54.13100 36.65900
H  28.37900 55.43700 36.87000
H  26.87400 53.03400 36.94200
H  28.15800 52.60800 35.90000
H  35.28200 56.96100 39.39200
H  34.23900 55.52300 39.34200
H  34.95700 55.95500 40.83200
H  35.51900 60.94400 42.65300
H  33.87000 60.62400 43.09500
H  34.29300 61.28900 41.41000
H  29.84200 62.71000 41.45000
H  28.42400 61.68400 43.91000
H  30.34800 63.26700 44.16200
H  31.49400 63.37000 42.82700
H  31.49200 61.91500 43.81300
H  26.60700 62.99100 41.92600
H  28.07800 63.89400 41.97300
H  26.78300 63.12400 44.58900
H  25.65600 63.80700 43.46600
H  27.14500 64.68300 44.07800
H  23.62100 60.39900 40.91300
H  23.34600 59.40600 42.38700
H  22.71200 58.91800 40.82000
H  25.15400 55.09400 38.18800
H  23.82500 51.15500 39.36200
H  22.54500 52.33000 39.90600
H  23.87900 52.04000 40.87100

