158

Mg 44.63100 3.81600 47.21500
C  42.66700 6.66500 47.05000
C  41.75400 1.91000 46.29600
C  46.61300 1.21000 46.30700
C  47.47800 5.85400 47.22700
N  42.48600 4.28700 46.66800
C  41.91300 5.52300 46.70900
C  40.42800 5.48700 46.38700
C  40.11100 3.92600 46.27700
C  41.51300 3.31900 46.41300
C  39.12600 3.44900 47.33600
C  39.86500 6.35000 45.23200
C  40.64300 6.34500 43.92000
H  40.07300 6.00000 42.58500
N  44.20600 1.82400 46.77700
C  42.96300 1.19200 46.41800
C  43.14400 -0.18400 46.17000
C  44.55300 -0.41000 46.35100
C  45.22200 0.90700 46.45800
C  42.08800 -1.16200 45.63200
C  45.17600 -1.78700 46.30300
O  44.51500 -2.77300 46.00600
C  46.69000 -1.89100 46.54600
N  46.67400 3.60500 46.60800
C  47.29200 2.43300 46.45400
C  48.80500 2.51300 46.38100
C  49.03700 4.04600 46.64200
C  47.63700 4.54400 46.74200
C  49.65500 1.55100 47.27000
C  49.91000 4.81900 45.63000
C  50.84100 4.03000 44.67400
N  45.08800 5.82400 47.26500
C  46.25900 6.52100 47.32500
C  45.97700 7.94600 47.37300
C  44.54400 7.99100 47.29500
C  44.04500 6.72500 47.25000
C  46.96700 9.10600 47.36800
C  43.38400 8.87200 47.33700
O  43.41900 10.13400 47.46500
C  42.11900 8.02500 47.21200
C  41.23700 8.05700 48.42000
O  41.50700 7.46600 49.50700
O  40.08000 8.67900 48.10300
C  38.88500 8.67300 49.02000
H  40.82300 1.39000 46.06000
H  47.26900 0.39900 45.98400
H  48.36800 6.46600 47.39100
H  39.89500 5.86600 47.26000
H  39.72800 3.69200 45.28300
H  38.32700 4.18100 47.45700
H  39.69400 3.40700 48.26500
H  38.60300 2.50600 47.17700
H  39.64400 7.35100 45.60300
H  38.88000 5.97000 44.96300
H  41.58600 5.80200 43.99200
H  40.85200 7.39400 43.71300
H  41.99000 -2.16300 46.05000
H  42.36100 -1.27600 44.58200
H  41.07600 -0.79800 45.80900
H  46.94200 -1.22700 47.37300
H  47.28200 -1.61400 45.67400
H  46.98400 -2.93800 46.62300
H  48.99400 2.34000 45.32200
H  49.60000 4.12200 47.57200
H  49.03000 1.13600 48.06100
H  50.48700 2.08200 47.73300
H  50.05400 0.69500 46.72700
H  50.39700 5.55400 46.26900
H  49.31100 5.37200 44.90600
H  51.70800 4.66000 44.47500
H  50.21900 3.77400 43.81700
H  51.14100 3.06700 45.08600
H  47.90400 8.72800 47.77800
H  46.50300 10.00800 47.76600
H  47.24200 9.41300 46.35900
H  41.53800 8.40700 46.37300
H  39.11100 8.68600 50.08600
H  38.44500 7.68500 48.88900
H  38.17200 9.44000 48.71600
Mg 47.74900 24.55400 29.34900
C  48.54100 27.01600 31.72800
C  46.52100 22.60700 31.87300
C  47.28100 22.03800 27.03600
C  49.63000 26.36000 26.97100
N  47.48400 24.85100 31.48200
C  47.84100 25.98300 32.29700
C  47.28500 25.79300 33.71400
C  46.94800 24.28200 33.77500
C  46.97400 23.87400 32.27900
C  47.72900 23.39400 34.72300
C  46.18100 26.80800 34.13600
C  46.00300 27.17500 35.59200
H  46.82800 26.61400 36.74700
N  46.91800 22.64000 29.46900
C  46.45700 22.05900 30.63400
C  45.84300 20.79000 30.25500
C  46.10600 20.59200 28.83400
C  46.85200 21.78200 28.38600
C  45.25700 19.95600 31.28800
C  45.82400 19.36100 28.03900
O  46.23500 19.17300 26.91300
C  44.96700 18.28500 28.53500
N  48.60400 24.11600 27.31300
C  48.10000 23.09600 26.59000
C  48.60100 23.17800 25.12300
C  49.26700 24.61300 25.08700
C  49.16800 25.06400 26.51700
C  49.58000 21.95900 24.80400
C  48.54100 25.62100 24.04500
C  47.30600 26.25900 24.58600
N  48.85100 26.27400 29.31600
C  49.55100 26.88500 28.26700
C  50.08900 28.23200 28.74100
C  49.66700 28.29600 30.09100
C  48.90200 27.08700 30.36900
C  50.85100 29.23400 27.87100
C  49.65000 29.19700 31.21600
O  49.96100 30.36600 31.32400
C  48.98300 28.33700 32.43000
C  49.97200 28.14600 33.54800
O  51.09300 27.71100 33.26600
O  49.58200 28.80300 34.69000
C  50.62100 29.02900 35.69600
H  45.98100 22.06400 32.65100
H  47.05000 21.21500 26.35700
H  50.00600 27.00400 26.17300
H  48.17100 25.89900 34.34000
H  45.89000 24.17100 34.01000
H  48.19500 22.67100 34.05400
H  47.00600 22.87500 35.35100
H  48.48100 23.87400 35.34900
H  45.26100 26.24800 33.96900
H  46.22200 27.68400 33.48800
H  44.97200 26.91300 35.82600
H  46.05800 28.25500 35.46000
H  44.36000 19.42500 30.96900
H  45.02500 20.41400 32.25000
H  45.97200 19.15600 31.47700
H  44.08600 18.65900 29.05600
H  45.64200 17.65600 29.11600
H  44.71500 17.58800 27.73600
H  47.65000 23.01600 24.61700
H  50.31000 24.57500 24.77300
H  50.56100 22.34100 25.09000
H  49.58200 21.69700 23.74600
H  49.38200 21.08500 25.42400
H  48.32300 25.03600 23.15100
H  49.28700 26.39200 23.85500
H  47.62400 27.22900 24.96700
H  46.91100 25.87600 25.52700
H  46.54100 26.28900 23.81100
H  51.71300 29.40500 28.51600
H  50.21500 30.11900 27.90600
H  51.24900 29.03100 26.87700
H  48.15500 28.90300 32.85600
H  51.61500 28.85700 35.28300
H  50.42400 28.48600 36.62000
H  50.56400 30.06600 36.02700

