158

Mg 54.39400 24.80000 44.25100
C  51.61500 26.92600 43.47900
C  52.46800 22.10500 42.95800
C  57.03400 23.03500 44.15100
C  56.30300 27.69000 45.00800
N  52.24200 24.50600 43.27200
C  51.41200 25.58300 43.06800
C  50.16000 24.99200 42.33100
C  50.27700 23.43900 42.49100
C  51.75400 23.33200 42.95800
C  49.18000 22.77700 43.46700
C  49.91300 25.50400 40.81900
C  48.40800 25.48500 40.42900
H  48.03900 25.15600 38.96000
N  54.70200 22.82300 43.70100
C  53.79700 21.88000 43.27200
C  54.49800 20.58500 43.19200
C  55.89800 20.76500 43.57300
C  55.89500 22.22900 43.81500
C  53.71900 19.31500 42.71400
C  57.05100 19.77700 43.66400
O  56.84000 18.58300 43.39600
C  58.46800 20.14200 43.99100
N  56.43700 25.37500 44.36700
C  57.32000 24.33800 44.46100
C  58.74300 24.91100 44.59100
C  58.54200 26.43600 44.95400
C  57.04400 26.57600 44.79600
C  59.58100 24.12700 45.66300
C  59.31100 27.44800 44.09600
C  60.18400 28.51400 44.89000
N  54.06900 26.83400 44.42200
C  54.91700 27.84800 44.79900
C  54.05800 29.02200 45.08600
C  52.75400 28.69400 44.56900
C  52.86400 27.39100 44.13700
C  54.43100 30.29100 45.84200
C  51.38500 29.17600 44.31800
O  50.92700 30.20700 44.61400
C  50.62000 28.09500 43.45400
C  50.39500 28.73800 42.11100
O  51.12600 29.04000 41.20100
O  49.07400 28.75900 41.96200
C  48.57900 29.31400 40.66900
H  51.83200 21.32400 42.53700
H  58.00900 22.54400 44.15400
H  56.76100 28.47500 45.61400
H  49.34500 25.38200 42.94000
H  50.09500 22.94900 41.53500
H  49.64400 22.46700 44.40300
H  48.80400 21.87400 42.98700
H  48.39000 23.50100 43.67000
H  50.57300 24.92300 40.17400
H  50.29300 26.50800 40.63100
H  48.04100 26.51100 40.47400
H  47.89900 24.71100 41.00400
H  54.32200 18.86200 41.92700
H  52.65100 19.48200 42.58000
H  53.62800 18.54300 43.47800
H  58.78300 20.89000 43.26300
H  59.16300 19.30800 43.90100
H  58.62600 20.55300 44.98800
H  59.30000 24.83700 43.65700
H  58.90900 26.61300 45.96500
H  58.89300 23.48900 46.21800
H  60.08300 24.72300 46.42500
H  60.29100 23.44100 45.20100
H  58.58100 28.09900 43.61600
H  59.94600 26.91200 43.39100
H  59.81800 29.47900 44.53800
H  61.23100 28.37600 44.62000
H  59.95200 28.34100 45.94000
H  53.74800 31.12300 45.67300
H  55.45300 30.55900 45.57500
H  54.33700 29.98500 46.88400
H  49.69900 27.67800 43.86200
H  48.89200 28.72200 39.81000
H  48.72600 30.39300 40.63200
H  47.50000 29.25100 40.81100
Mg 49.72700 36.48400 27.52400
C  47.26300 34.84800 29.43100
C  50.05100 38.67400 29.97800
C  51.30000 38.35000 25.30500
C  48.72600 34.33900 24.72200
N  48.61400 36.77500 29.45800
C  47.99000 35.77100 30.13800
C  48.08000 36.03500 31.61200
C  48.60100 37.51100 31.73900
C  49.17700 37.72300 30.34500
C  47.52300 38.61100 32.02100
C  48.95200 35.02400 32.39700
C  48.65100 34.85700 33.87200
H  47.79400 35.94000 34.54700
N  50.55000 38.28400 27.62200
C  50.68000 39.03100 28.76400
C  51.57400 40.15200 28.50500
C  51.93000 40.04400 27.13500
C  51.25100 38.86300 26.59700
C  51.98400 41.12500 29.56400
C  52.76500 41.05600 26.32300
O  52.91400 40.96300 25.08800
C  53.62500 42.23700 27.02800
N  49.90400 36.41600 25.23500
C  50.61700 37.31700 24.63800
C  50.90700 37.01600 23.16500
C  50.35600 35.54200 23.05600
C  49.58000 35.37300 24.41500
C  50.16300 37.99000 22.15900
C  51.39700 34.34700 23.01700
C  51.02100 33.01100 22.31100
N  48.35900 34.85500 27.06000
C  48.06200 34.09100 25.92700
C  47.18000 33.02100 26.31200
C  46.70200 33.33600 27.63700
C  47.49700 34.49900 28.04100
C  46.76700 31.92100 25.40800
C  45.78200 32.96100 28.66600
O  45.02800 32.00600 28.76100
C  46.14000 34.00000 29.86100
C  46.21600 33.33400 31.18500
O  46.74500 32.25600 31.38600
O  45.41900 34.01300 32.07800
C  45.30800 33.36200 33.44600
H  50.36200 39.36600 30.76300
H  51.87900 38.85100 24.52700
H  48.50400 33.66200 23.89400
H  47.07100 35.93300 32.01100
H  49.32800 37.58300 32.54700
H  46.52700 38.24500 32.27200
H  47.51500 39.37300 31.24100
H  47.82200 39.07700 32.96000
H  50.02200 35.19200 32.27400
H  48.77900 34.02700 31.99300
H  49.62600 34.93400 34.35500
H  48.33400 33.84300 34.11400
H  51.53400 40.94200 30.54000
H  51.70900 42.13300 29.25400
H  53.06900 41.08800 29.65900
H  53.00600 42.95100 27.57100
H  54.12300 42.89300 26.31400
H  54.33900 41.77600 27.71000
H  51.98400 37.13400 23.04600
H  49.56300 35.34600 22.33400
H  50.75900 38.05600 21.24800
H  50.05400 38.93300 22.69400
H  49.17000 37.62000 21.90300
H  51.66400 34.00600 24.01700
H  52.28600 34.75300 22.53400
H  51.59200 32.81300 21.40400
H  49.97700 32.91500 22.01200
H  51.25000 32.07300 22.81600
H  46.24300 31.06500 25.83200
H  47.65100 31.46200 24.96700
H  46.24400 32.28100 24.52300
H  45.33600 34.72400 29.99100
H  44.47400 32.66300 33.51700
H  45.02300 34.20200 34.08000
H  46.22900 32.98300 33.88800

