158

Mg 24.97200 -5.30200 46.33600
C  27.27400 -3.06000 44.82400
C  22.66500 -4.43100 44.06900
C  23.10700 -7.91300 47.53900
C  27.70900 -6.50900 48.31800
N  25.12100 -4.07400 44.48000
C  26.09100 -3.19600 44.10500
C  25.65900 -2.34300 42.90300
C  24.07100 -2.49800 42.98300
C  23.90000 -3.75800 43.89400
C  23.23000 -1.32600 43.45800
C  26.26600 -2.84700 41.50200
C  26.80700 -1.84600 40.46600
H  26.35400 -1.97900 38.99500
N  23.04100 -6.05700 45.81400
C  22.21700 -5.56700 44.83000
C  20.96500 -6.22100 44.89300
C  21.02400 -7.17800 45.97200
C  22.45300 -7.08500 46.52300
C  19.82800 -5.78100 44.01000
C  19.93400 -8.06700 46.38200
O  18.82900 -8.14200 45.86800
C  20.07000 -8.81400 47.62400
N  25.39400 -6.93900 47.61800
C  24.46500 -7.89500 47.97100
C  25.08400 -9.03200 48.78200
C  26.59500 -8.73300 48.68600
C  26.56200 -7.28000 48.18600
C  24.43600 -9.15600 50.22700
C  27.48800 -9.63200 47.76500
C  28.71900 -10.41900 48.39000
N  26.98300 -4.74100 46.67700
C  27.95500 -5.35500 47.50400
C  29.18700 -4.53100 47.41900
C  28.91200 -3.62200 46.38900
C  27.64300 -3.84400 45.95000
C  30.41100 -4.70900 48.05500
C  29.51100 -2.57800 45.56400
O  30.62100 -2.12800 45.61800
C  28.51700 -2.18300 44.52300
C  28.31100 -0.74800 44.60000
O  27.32000 -0.22600 45.04200
O  29.40400 -0.11100 44.08800
C  29.19600 1.31500 43.81100
H  21.88200 -4.06500 43.40200
H  22.55000 -8.77600 47.91000
H  28.52300 -6.96600 48.88400
H  26.00700 -1.33200 43.11400
H  23.69300 -2.83600 42.01800
H  22.45300 -1.05000 42.74500
H  23.70000 -0.35300 43.59900
H  22.81100 -1.54100 44.44200
H  25.49800 -3.43100 40.99600
H  27.09300 -3.53300 41.68600
H  27.89100 -1.82500 40.57500
H  26.41700 -0.88500 40.80200
H  19.16600 -6.64300 43.93300
H  20.37100 -5.68400 43.07000
H  19.38800 -4.84400 44.35000
H  19.11700 -9.13400 48.04700
H  20.46300 -8.01200 48.24900
H  20.74600 -9.62900 47.36700
H  25.03000 -9.98700 48.25800
H  27.10000 -8.63800 49.64700
H  23.42500 -8.74900 50.20600
H  24.98400 -8.64300 51.01700
H  24.37400 -10.21600 50.47700
H  27.84300 -9.06000 46.90800
H  26.78400 -10.41200 47.47700
H  28.88400 -11.35800 47.86100
H  28.67200 -10.62400 49.46000
H  29.63900 -9.87800 48.16900
H  30.15500 -4.74900 49.11300
H  31.10700 -3.88400 47.89900
H  30.89900 -5.65200 47.81200
H  28.99400 -2.30100 43.54900
H  30.17200 1.78700 43.69700
H  28.56800 1.84500 44.52800
H  28.77900 1.33100 42.80400
Mg 40.55600 9.85100 30.12100
C  42.41000 10.79500 32.95100
C  38.26800 8.20200 32.22000
C  39.03600 8.54100 27.45600
C  43.09700 11.09700 28.13400
N  40.47600 9.47500 32.34900
C  41.24900 10.08500 33.32300
C  40.60200 10.07500 34.74500
C  39.29800 9.10700 34.47900
C  39.36500 8.90300 32.92300
C  39.14400 7.89600 35.34500
C  40.17100 11.54600 35.03800
C  39.49800 11.76000 36.34300
H  40.13400 12.46300 37.52600
N  38.85400 8.49300 29.82000
C  38.04800 8.00300 30.82000
C  36.91500 7.20700 30.21400
C  37.16500 7.19400 28.76100
C  38.36900 8.14000 28.59600
C  35.76200 6.72900 31.08800
C  36.51600 6.49300 27.65300
O  36.81000 6.60900 26.45300
C  35.45200 5.51100 27.91700
N  40.88200 9.96800 28.03300
C  40.11400 9.34100 27.14400
C  40.77100 9.38400 25.76900
C  42.02400 10.25200 25.93900
C  42.03400 10.49300 27.44100
C  41.03400 8.01900 25.16200
C  42.05200 11.58700 25.02800
C  43.15000 11.50700 24.00100
N  42.36400 10.72200 30.42000
C  43.29500 11.21800 29.48800
C  44.42400 11.87300 30.12600
C  44.11900 11.76600 31.50400
C  42.90800 10.99600 31.63900
C  45.60100 12.40100 29.41900
C  44.57500 11.99800 32.89500
O  45.48500 12.69900 33.32500
C  43.38700 11.41900 33.84600
C  44.05900 10.35400 34.76700
O  44.46100 9.25500 34.46600
O  43.87400 10.78500 36.09200
C  44.08800 9.82100 37.20100
H  37.41900 7.92300 32.84700
H  38.49700 8.11500 26.60700
H  43.83400 11.52300 27.45000
H  41.23700 9.67800 35.53700
H  38.41400 9.72700 34.62800
H  38.08200 7.66100 35.41000
H  39.54500 8.30900 36.27100
H  39.61400 7.01700 34.90500
H  39.55100 11.99300 34.26000
H  41.12700 12.06100 35.13000
H  39.19200 10.75400 36.62800
H  38.58600 12.34900 36.25000
H  35.79800 5.64100 31.13600
H  34.85400 7.13000 30.63700
H  35.75200 7.04700 32.13000
H  34.89300 5.10100 27.07600
H  34.77000 5.91800 28.66300
H  35.93700 4.61500 28.30600
H  40.06700 9.92900 25.14000
H  42.88500 9.64700 25.65300
H  40.59600 7.28100 25.83300
H  42.08900 7.75200 25.09700
H  40.58600 7.93300 24.17100
H  42.24600 12.38000 25.75000
H  41.04500 11.69400 24.62300
H  43.03700 10.48900 23.63100
H  44.14700 11.66200 24.41300
H  42.91500 12.30100 23.29200
H  46.45100 12.69300 30.03600
H  45.32200 13.23600 28.77700
H  46.03200 11.64600 28.76100
H  43.10200 12.28100 34.44900
H  43.38900 9.94500 38.02700
H  45.10000 9.99700 37.56800
H  43.99300 8.80100 36.82800

