158

Mg 36.32900 49.47500 24.95700
C  36.18800 47.57600 27.98900
C  34.98300 52.10800 26.64000
C  36.12700 51.25100 22.12800
C  37.38200 46.63900 23.31300
N  35.79800 49.73900 27.04800
C  35.94500 48.89900 28.10200
C  35.59300 49.60800 29.38500
C  34.95800 50.93900 28.91400
C  35.34300 50.96600 27.46000
C  33.36200 51.04300 29.27700
C  36.80200 49.77300 30.39400
C  36.62400 49.64900 31.89300
H  35.18600 49.72100 32.40000
N  35.47800 51.40600 24.42500
C  35.06500 52.38200 25.28900
C  34.79400 53.61600 24.58200
C  35.18600 53.37200 23.23300
C  35.58100 51.95800 23.20700
C  34.04200 54.78500 25.15500
C  35.11900 54.41100 22.00800
O  35.41500 54.04700 20.88300
C  34.63100 55.85700 22.15900
N  36.69000 48.97200 22.98400
C  36.54800 49.90600 21.99900
C  36.79800 49.22300 20.61800
C  37.41200 47.79600 21.01400
C  37.17500 47.76100 22.54400
C  35.54900 49.22500 19.72300
C  38.95700 47.61300 20.69900
C  39.97300 48.61000 21.45500
N  36.80100 47.51000 25.48400
C  37.18100 46.46600 24.67200
C  37.27700 45.27700 25.50800
C  36.82500 45.66600 26.76000
C  36.49300 46.97400 26.72000
C  37.73100 43.85300 24.98200
C  36.63900 45.22900 28.13700
O  36.83400 44.12500 28.59700
C  36.29100 46.48900 29.00600
C  35.01400 46.14900 29.67600
O  33.86700 46.26100 29.20000
O  35.33400 45.49400 30.85000
C  34.21600 45.04700 31.71400
H  34.60400 52.96300 27.20500
H  36.13000 51.82000 21.19600
H  37.60900 45.69600 22.81100
H  34.93300 49.03200 30.03300
H  35.47000 51.78200 29.37800
H  32.76100 51.10500 28.36900
H  33.20300 51.96100 29.84300
H  33.05900 50.16900 29.85300
H  37.35800 50.70400 30.28600
H  37.55200 49.03600 30.10700
H  37.22900 50.50200 32.20400
H  37.16400 48.82900 32.36700
H  32.96400 54.76400 24.99800
H  34.37500 55.77600 24.84700
H  34.16300 54.84300 26.23700
H  34.57700 56.43600 21.23700
H  35.29400 56.40000 22.83200
H  33.71400 55.78700 22.74500
H  37.56200 49.77200 20.06700
H  36.94300 46.97900 20.46500
H  35.62400 49.79200 18.79500
H  34.68800 49.68100 20.21100
H  35.27100 48.23200 19.37000
H  39.11900 47.84600 19.64700
H  39.10700 46.55300 20.90200
H  40.06200 48.42600 22.52600
H  39.62700 49.63800 21.34500
H  40.96000 48.56500 20.99400
H  38.53500 43.97200 24.25600
H  36.84700 43.39500 24.53800
H  38.11600 43.36600 25.87700
H  37.05500 46.72000 29.74800
H  33.39100 45.75600 31.78800
H  34.67100 44.93000 32.69700
H  33.93300 44.09700 31.26200
Mg 10.19100 47.51400 25.83000
C  8.30600 47.33600 28.63900
C  12.75500 48.96800 27.53700
C  11.94900 47.58700 22.93100
C  7.29400 46.69400 23.88900
N  10.61600 47.76200 27.93900
C  9.62400 47.68300 28.90800
C  10.20300 48.23400 30.24900
C  11.42300 49.10300 29.71500
C  11.62100 48.65800 28.30500
C  11.31600 50.66300 29.68100
C  10.64800 47.14800 31.26800
C  9.96900 47.44100 32.63900
H  9.78600 46.21200 33.55700
N  12.10500 48.16700 25.26500
C  13.03800 48.66700 26.12700
C  14.27300 48.89100 25.48300
C  14.05200 48.46700 24.09900
C  12.66400 48.04600 24.01900
C  15.60800 49.22100 26.22800
C  14.99400 48.34900 22.96200
O  14.67800 48.01000 21.84500
C  16.41500 48.74800 23.18200
N  9.70800 47.29500 23.80000
C  10.65000 47.23100 22.84500
C  10.09000 46.73900 21.53300
C  8.68500 46.32800 21.88100
C  8.52200 46.81200 23.29100
C  10.09800 47.71200 20.37700
C  8.37800 44.76300 21.68200
C  8.77400 43.76100 22.80200
N  8.15800 47.02500 26.14900
C  7.11200 46.86400 25.25400
C  5.89000 46.94000 26.05200
C  6.34600 47.00300 27.37400
C  7.69800 47.07400 27.36100
C  4.52600 46.69000 25.47300
C  5.86600 46.88700 28.71400
O  4.77200 46.62500 29.11000
C  7.14800 47.09500 29.63600
C  7.18700 45.82400 30.48300
O  7.70600 44.75300 30.23600
O  6.42400 46.02200 31.64100
C  6.14200 44.84700 32.54100
H  13.52400 49.53500 28.06400
H  12.55400 47.35600 22.05200
H  6.48300 46.42600 23.20900
H  9.43700 48.93200 30.58700
H  12.33800 48.75000 30.19200
H  10.44000 51.04900 30.20300
H  11.31200 51.04500 28.66000
H  12.19900 51.10200 30.14500
H  11.72200 47.32800 31.29200
H  10.47100 46.14600 30.87700
H  8.94300 47.78800 32.51300
H  10.54100 48.18800 33.19000
H  15.49500 49.11400 27.30700
H  16.20600 50.09400 25.96600
H  16.32100 48.40400 26.11200
H  16.95700 48.04300 23.81200
H  16.42400 49.69800 23.71800
H  16.92800 48.82200 22.22300
H  10.71400 45.86800 21.33300
H  7.94200 46.88100 21.30500
H  10.41700 48.74300 20.52700
H  9.24500 47.52200 19.72600
H  10.85700 47.34900 19.68500
H  9.02400 44.35800 20.90300
H  7.35900 44.73600 21.29400
H  8.73600 44.17800 23.80800
H  9.78000 43.38600 22.61300
H  8.24400 42.80800 22.78600
H  4.49900 47.44700 24.69000
H  3.69700 46.72700 26.17900
H  4.55900 45.68600 25.05200
H  6.90000 47.89600 30.33200
H  7.03600 44.72400 33.15200
H  5.94900 43.94200 31.96500
H  5.22500 45.04900 33.09600

