158

Mg 25.95400 0.31100 29.22500
C  27.84400 0.06500 32.22300
C  23.13800 0.55200 31.11000
C  24.25700 0.46300 26.37000
C  28.92800 -0.34800 27.38500
N  25.67500 0.53200 31.40300
C  26.49800 0.30000 32.42300
C  25.79400 0.61500 33.82400
C  24.25300 0.40800 33.39700
C  24.34000 0.47500 31.82600
C  23.45100 -0.81400 33.90900
C  26.24900 2.09300 34.45000
C  27.17100 2.04900 35.67500
H  26.68900 2.81100 36.97200
N  23.88100 0.44200 28.78600
C  22.88400 0.57600 29.70100
C  21.64600 0.58900 28.94900
C  22.00200 0.58000 27.58600
C  23.43700 0.52600 27.48600
C  20.38100 0.67500 29.61000
C  21.04600 0.57600 26.39200
O  21.43500 0.70800 25.19700
C  19.55900 0.29900 26.56500
N  26.53200 0.09500 27.13500
C  25.62600 0.23000 26.19300
C  26.27200 0.23900 24.74200
C  27.77600 0.09700 25.15000
C  27.78600 -0.05200 26.64700
C  25.67200 -0.72000 23.70000
C  28.66600 1.28500 24.62100
C  29.93000 0.99000 23.79300
N  27.95300 -0.11900 29.64400
C  29.04100 -0.34900 28.80100
C  30.10400 -0.77600 29.60200
C  29.72500 -0.60200 30.92000
C  28.36500 -0.15100 30.89800
C  31.38600 -1.42400 29.07400
C  30.14300 -0.61300 32.32800
O  31.16400 -1.00900 32.77600
C  28.95900 -0.26500 33.22500
C  28.61500 -1.42700 34.07000
O  28.01100 -2.40200 33.78800
O  29.21100 -1.18900 35.27900
C  29.08000 -2.36500 36.14100
H  22.25700 0.58200 31.75400
H  23.74000 0.66200 25.43000
H  29.80200 -0.56300 26.76500
H  26.13900 -0.20200 34.45700
H  23.69200 1.23500 33.83300
H  22.89400 -1.29800 33.10600
H  22.79400 -0.45200 34.69900
H  24.20000 -1.44100 34.39200
H  25.39100 2.68300 34.77200
H  26.80300 2.56600 33.63900
H  28.11100 2.42000 35.26800
H  27.24900 0.98400 35.89300
H  19.97000 1.60400 29.21500
H  20.38300 0.67500 30.70000
H  19.82200 -0.21300 29.31700
H  19.54400 -0.78200 26.70000
H  18.98700 0.40700 25.64400
H  19.11400 0.89300 27.36300
H  26.08300 1.26700 24.43400
H  28.14700 -0.85100 24.76100
H  24.82500 -1.20500 24.18600
H  26.50400 -1.40700 23.54500
H  25.29900 -0.19600 22.82000
H  28.99700 1.74900 25.55000
H  28.00200 2.02900 24.18200
H  30.08700 -0.08700 23.84100
H  30.76800 1.47200 24.29700
H  29.67600 1.28000 22.77400
H  32.12300 -0.69800 28.73200
H  31.21700 -2.11800 28.25100
H  31.76600 -2.03200 29.89500
H  29.19400 0.69200 33.69100
H  29.53900 -3.25000 35.70000
H  28.11100 -2.59800 36.58200
H  29.80800 -2.25500 36.94500
Mg 9.14600 47.49500 25.34300
C  7.13300 47.43700 28.50400
C  11.74000 48.34300 27.19200
C  10.89300 47.51400 22.52000
C  6.11300 47.44500 23.55900
N  9.29300 47.85500 27.57500
C  8.41500 47.76400 28.71300
C  9.14000 48.08300 30.02500
C  10.48800 48.80300 29.44900
C  10.53300 48.25800 27.96300
C  10.46000 50.35900 29.46700
C  9.39000 46.82400 30.95900
C  9.07100 47.22800 32.44000
H  8.72700 46.16500 33.50200
N  11.11800 47.77600 24.92100
C  12.06700 48.12800 25.83400
C  13.35900 48.22800 25.12900
C  13.17100 47.87800 23.79800
C  11.69700 47.69700 23.71100
C  14.61700 48.58900 25.86500
C  14.12500 47.66600 22.60800
O  13.59800 47.47800 21.48200
C  15.59800 47.58500 22.84400
N  8.60200 47.65900 23.39900
C  9.52400 47.56000 22.35000
C  8.86200 47.61600 20.93500
C  7.37900 47.39900 21.24900
C  7.35300 47.46500 22.83500
C  9.16400 48.92200 20.14000
C  6.67300 46.12900 20.57600
C  5.24700 46.52600 20.08800
N  7.06100 47.47200 25.86800
C  5.99300 47.47300 25.00700
C  4.70400 47.42200 25.76500
C  5.15300 47.29300 27.15600
C  6.55900 47.34900 27.16100
C  3.31500 47.49300 25.25200
C  4.71300 47.15200 28.51400
O  3.63000 46.84100 28.96600
C  5.99500 47.23400 29.41800
C  6.04800 45.90300 30.22800
O  6.42400 44.83400 29.75500
O  5.63700 46.16500 31.46300
C  5.52800 45.04400 32.42200
H  12.57200 48.53400 27.87400
H  11.32800 47.27600 21.54800
H  5.13100 47.39200 23.08500
H  8.46100 48.75900 30.54400
H  11.37100 48.46600 29.99100
H  10.55500 50.74100 28.45000
H  11.23200 50.72000 30.14700
H  9.67100 50.90900 29.98000
H  10.35600 46.32000 30.98300
H  8.79100 45.91700 30.87200
H  8.27600 47.96800 32.53400
H  9.80900 47.98500 32.70700
H  15.29900 47.74200 25.79500
H  14.43200 48.70200 26.93300
H  14.98500 49.56000 25.53500
H  15.67500 48.50700 23.42000
H  16.09800 47.71500 21.88400
H  15.88000 46.72100 23.44500
H  9.33700 46.76500 20.44600
H  6.84300 48.29800 20.94500
H  9.92200 48.75700 19.37500
H  9.64900 49.63200 20.81100
H  8.26500 49.18900 19.58300
H  6.47700 45.35100 21.31300
H  7.10800 45.72600 19.66200
H  5.23500 46.22900 19.03900
H  5.07100 47.60100 20.12900
H  4.43200 45.97700 20.55900
H  3.08000 46.47600 24.93700
H  3.44400 48.27700 24.50500
H  2.74700 47.95000 26.06200
H  6.03000 48.03100 30.16100
H  5.84800 44.04700 32.11900
H  4.49000 45.01600 32.75400
H  6.11500 45.29700 33.30500

