158

Mg 17.09500 -0.41900 27.76700
C  15.94300 1.61400 30.41600
C  19.10300 -2.02400 29.92600
C  18.72400 -1.75900 25.19200
C  15.28100 1.61700 25.52400
N  17.55300 -0.12500 29.91300
C  16.88400 0.68800 30.87100
C  17.51900 0.49400 32.22900
C  18.74600 -0.48300 31.91700
C  18.42700 -0.93700 30.45600
C  20.19900 0.06100 32.13300
C  16.33600 -0.16900 33.15600
C  16.36500 0.33500 34.63500
H  17.64900 0.91000 35.25600
N  18.58600 -1.87700 27.61100
C  19.19700 -2.45800 28.61100
C  19.98800 -3.50300 28.09500
C  20.01800 -3.33600 26.68900
C  19.09500 -2.29100 26.40600
C  20.83900 -4.38200 28.99800
C  20.78800 -4.13300 25.57300
O  20.45300 -4.00300 24.38300
C  21.76500 -5.18900 25.90600
N  16.95000 -0.15900 25.67600
C  17.84200 -0.71800 24.80800
C  17.68000 -0.30600 23.43300
C  16.43400 0.57500 23.49300
C  16.18800 0.73200 25.00200
C  18.93500 0.32300 22.74900
C  15.24500 -0.15200 22.77100
C  15.11500 0.20500 21.28300
N  15.66800 1.06900 27.91200
C  15.04200 1.80500 26.91900
C  14.24000 2.91800 27.47500
C  14.48000 2.75300 28.84100
C  15.45000 1.76400 29.04900
C  13.27500 3.85400 26.80000
C  14.23900 3.33500 30.18100
O  13.37800 4.18000 30.53500
C  15.14000 2.63200 31.25800
C  15.89700 3.62900 32.06000
O  16.90700 4.29300 31.80300
O  15.19300 3.72800 33.25800
C  15.70600 4.70900 34.17800
H  19.75100 -2.53600 30.63900
H  19.35900 -1.97500 24.33000
H  14.77100 2.31000 24.85200
H  17.83600 1.46700 32.60300
H  18.51800 -1.38800 32.48000
H  20.63700 -0.60700 32.87600
H  20.17400 0.99200 32.70000
H  20.74800 0.27800 31.21700
H  16.59000 -1.22300 33.26900
H  15.34300 0.06800 32.77300
H  16.01100 -0.45800 35.29300
H  15.58800 1.09900 34.63100
H  20.14700 -4.76200 29.74900
H  21.51500 -3.75400 29.57800
H  21.35700 -5.26700 28.62700
H  22.43400 -5.36800 25.06400
H  21.11400 -6.01900 26.18000
H  22.28500 -4.74800 26.75700
H  17.48800 -1.26200 22.94600
H  16.56400 1.60800 23.17000
H  19.73800 0.46800 23.47100
H  18.80500 1.30900 22.30100
H  19.18300 -0.37900 21.95300
H  14.32400 0.21400 23.22600
H  15.22300 -1.21000 23.03000
H  15.98700 0.74300 20.91100
H  14.21900 0.76000 21.00700
H  15.13100 -0.65900 20.61800
H  13.51400 3.88600 25.73700
H  13.36900 4.85600 27.21900
H  12.30400 3.41500 27.03300
H  14.40600 2.14000 31.89600
H  15.20700 5.66700 34.02700
H  16.79200 4.78700 34.21900
H  15.43900 4.40200 35.18900
Mg 9.48500 47.59800 26.40100
C  7.70400 47.74100 29.37400
C  12.19600 48.79300 27.91000
C  11.17600 47.86300 23.35800
C  6.45500 47.12300 24.66200
N  9.81800 48.37100 28.40900
C  9.03700 48.14900 29.51200
C  9.90800 48.33100 30.76900
C  11.17800 49.14500 30.21200
C  11.08300 48.79100 28.70400
C  11.33300 50.64400 30.58400
C  10.35100 46.98300 31.41500
C  10.99500 47.11000 32.86400
H  10.29900 46.36300 34.01100
N  11.51200 48.05100 25.76300
C  12.45400 48.48400 26.57900
C  13.69100 48.63500 25.82400
C  13.41400 48.29100 24.49500
C  11.97200 47.99300 24.52100
C  15.03100 48.92600 26.50500
C  14.36500 48.29400 23.24200
O  13.97700 48.11500 22.04800
C  15.78400 48.31800 23.46800
N  8.87400 47.66500 24.37100
C  9.74800 47.65600 23.35100
C  9.04000 47.30900 22.01400
C  7.63100 46.91600 22.34800
C  7.66200 47.25800 23.90800
C  9.04700 48.60600 21.14500
C  7.38800 45.38100 22.09200
C  7.88800 44.34900 23.12700
N  7.45600 47.41900 26.89200
C  6.37200 47.17900 26.08700
C  5.17800 47.18800 26.86700
C  5.61200 47.35400 28.19200
C  7.01700 47.49100 28.16100
C  3.75400 47.04400 26.41000
C  5.22100 47.49100 29.58200
O  4.13800 47.56400 30.21900
C  6.58900 47.60200 30.35800
C  6.63400 46.43600 31.21400
O  7.02600 45.31800 30.98700
O  6.13200 46.79000 32.45100
C  6.17600 45.75300 33.47100
H  13.03700 49.21800 28.46300
H  11.60700 47.70100 22.36800
H  5.56400 46.61400 24.28900
H  9.47600 48.93500 31.56700
H  12.06500 48.65200 30.60900
H  12.19200 50.77500 31.24100
H  10.41000 50.92000 31.09500
H  11.39100 51.16000 29.62600
H  11.05200 46.41200 30.80600
H  9.44400 46.38200 31.49100
H  11.09600 48.17200 33.09000
H  12.01800 46.73500 32.89900
H  15.39100 49.95000 26.40300
H  15.82900 48.34800 26.03900
H  14.92700 48.71300 27.56900
H  16.27300 48.14100 22.51000
H  15.94400 47.35100 23.94400
H  16.09700 49.19100 24.04100
H  9.56900 46.54100 21.44900
H  6.90800 47.51100 21.78900
H  9.42400 49.41600 21.77000
H  8.10600 48.84500 20.64800
H  9.67600 48.52700 20.25800
H  7.81900 45.06900 21.14000
H  6.30300 45.36200 21.98900
H  8.48800 44.71700 23.96000
H  8.39900 43.60900 22.51200
H  7.04800 43.79600 23.54700
H  3.16500 47.01900 27.32700
H  3.72400 46.14300 25.79700
H  3.45300 47.91000 25.82100
H  6.49600 48.56000 30.87000
H  5.51500 45.93000 34.32000
H  7.22000 45.65700 33.77100
H  5.87600 44.75600 33.14900

