158

Mg 45.23700 5.37300 48.80000
C  42.97200 7.83200 47.56400
C  42.87300 2.96000 47.79700
C  47.65500 2.98500 48.95000
C  47.72900 7.90800 48.84000
N  43.20200 5.45800 47.78300
C  42.52100 6.52600 47.35200
C  41.10300 6.14900 46.80200
C  41.12300 4.58200 46.91500
C  42.45100 4.30400 47.53200
C  39.89500 4.11400 47.76300
C  40.87600 6.62400 45.29300
C  39.56700 7.58200 45.16400
H  38.62700 7.33700 44.00700
N  45.20200 3.29200 48.64800
C  44.10000 2.50100 48.27600
C  44.52800 1.09200 48.36600
C  45.91900 1.14900 48.61500
C  46.30900 2.51400 48.77300
C  43.62500 -0.03000 48.09500
C  46.77000 -0.09400 48.81100
O  46.29800 -1.21700 48.63800
C  48.15100 -0.08200 49.28500
N  47.39000 5.45700 48.99200
C  48.16700 4.32500 49.08000
C  49.63400 4.64900 49.10400
C  49.64400 6.19600 49.08900
C  48.21400 6.54500 48.94600
C  50.41700 3.88700 50.15900
C  50.49300 6.76300 47.91900
C  51.29100 8.08800 48.24400
N  45.32300 7.44600 48.50400
C  46.41400 8.35600 48.61000
C  45.96600 9.64300 48.29700
C  44.59700 9.46800 47.99700
C  44.26600 8.12900 48.04200
C  46.86800 10.88300 48.34300
C  43.40700 10.20400 47.80900
O  43.19100 11.42100 47.88100
C  42.25000 9.14300 47.50700
C  41.17600 9.39300 48.60000
O  41.25400 8.85400 49.67100
O  40.13900 10.03800 47.99800
C  38.85800 10.03900 48.70800
H  42.03900 2.28000 47.60900
H  48.46200 2.25000 48.92900
H  48.56000 8.57900 49.06400
H  40.37500 6.56700 47.49700
H  41.12800 4.11400 45.93000
H  39.62300 3.15500 47.32400
H  39.04000 4.79100 47.74700
H  40.22600 3.86900 48.77200
H  40.97200 5.87900 44.50400
H  41.76300 7.23700 45.13100
H  39.93300 8.60700 45.10200
H  38.95800 7.53100 46.06700
H  43.38100 -0.50300 49.04600
H  44.09600 -0.74600 47.42200
H  42.70700 0.23300 47.57000
H  48.74000 0.42000 48.51700
H  48.55400 -1.04400 49.60200
H  48.23400 0.58700 50.14100
H  49.92900 4.33000 48.10400
H  49.89200 6.59500 50.07300
H  49.75200 3.17400 50.64600
H  50.89300 4.61300 50.81800
H  51.27200 3.33100 49.77300
H  49.92900 7.05300 47.03300
H  51.26700 6.03700 47.67000
H  50.80600 9.01800 47.94800
H  52.29800 7.93200 47.85500
H  51.48000 8.10700 49.31700
H  46.40500 11.54800 47.61500
H  47.88900 10.61600 48.06900
H  46.94700 11.26400 49.36200
H  41.79000 9.48300 46.58000
H  38.27000 10.90600 48.40400
H  38.97700 10.22000 49.77600
H  38.25100 9.15200 48.52700
Mg 48.10400 16.42200 29.61000
C  45.54700 16.10800 32.00800
C  50.01700 17.85500 32.06600
C  50.21700 16.78800 27.23100
C  45.79200 14.87000 27.31300
N  47.72100 17.04100 31.80500
C  46.72700 16.61400 32.54800
C  47.01200 16.81400 33.95300
C  48.41700 17.61900 34.01300
C  48.77100 17.52400 32.53900
C  48.39400 19.04300 34.53000
C  46.92200 15.56100 34.87800
C  47.78000 15.50900 36.10400
H  47.83500 16.65200 37.10900
N  49.89600 17.22900 29.62800
C  50.60500 17.65400 30.74700
C  51.96800 18.01500 30.27000
C  51.95300 17.89700 28.81000
C  50.63700 17.26800 28.50700
C  52.98400 18.52700 31.26800
C  53.04500 18.26900 27.80800
O  52.92700 18.18400 26.56400
C  54.31600 18.88600 28.32400
N  47.94100 16.12900 27.41500
C  49.04200 16.26000 26.71200
C  48.83600 15.70700 25.28500
C  47.47100 14.91900 25.37100
C  47.05500 15.29700 26.83700
C  48.81900 16.86300 24.20900
C  47.54200 13.33700 25.24700
C  46.91600 12.68500 23.94000
N  46.19700 15.52800 29.64600
C  45.39600 14.96400 28.64800
C  44.13300 14.51800 29.24900
C  44.17300 14.97500 30.56500
C  45.37200 15.63300 30.71900
C  43.02500 13.78600 28.49200
C  43.41100 14.90700 31.85800
O  42.34500 14.42100 32.18200
C  44.28000 15.69600 32.82100
C  43.62900 16.83300 33.63300
O  43.76600 18.04000 33.49400
O  43.02100 16.12600 34.64400
C  42.61600 16.99200 35.74000
H  50.77500 18.28500 32.72400
H  51.05700 16.64600 26.54800
H  45.28700 14.11700 26.70300
H  46.22800 17.51100 34.25000
H  49.18700 16.96600 34.42300
H  49.24900 19.27200 35.16500
H  47.53800 19.12300 35.20000
H  48.43600 19.83100 33.77900
H  47.12900 14.69900 34.24500
H  45.90000 15.52200 35.25600
H  48.73900 15.13200 35.74800
H  47.37600 14.65700 36.65100
H  53.48100 17.64300 31.66800
H  52.48700 18.99700 32.11700
H  53.68200 19.21900 30.79800
H  54.63600 18.23300 29.13700
H  54.12900 19.91600 28.62800
H  55.06400 18.83800 27.53300
H  49.62200 14.97300 25.10100
H  46.74800 15.26000 24.63000
H  49.45600 16.68700 23.34200
H  49.16700 17.77200 24.70000
H  47.81200 17.02700 23.82800
H  46.92300 12.91600 26.03900
H  48.55000 12.99400 25.48000
H  47.57000 12.05000 23.34200
H  46.69700 13.51900 23.27200
H  46.02500 12.09300 24.14700
H  43.02400 14.01300 27.42600
H  42.11900 14.20100 28.93500
H  43.14000 12.71000 28.61900
H  44.57500 14.96300 33.57100
H  41.89700 16.44100 36.34700
H  41.92000 17.80500 35.52900
H  43.42400 17.08800 36.46500

