158

Mg 47.46400 34.55700 27.54900
C  45.80200 32.75400 30.21800
C  47.43500 37.38800 29.58100
C  48.16400 36.47400 24.89000
C  46.70400 31.84800 25.49600
N  46.80400 34.92100 29.73800
C  46.19000 34.05100 30.62800
C  46.16400 34.74300 31.92700
C  46.34600 36.23700 31.63600
C  46.86800 36.21600 30.20100
C  45.08600 37.12400 31.77600
C  47.21500 34.12000 32.88700
C  46.70200 33.89400 34.34700
H  47.38500 34.82100 35.40400
N  47.95900 36.62800 27.32900
C  48.00300 37.61400 28.26500
C  48.48400 38.84300 27.73700
C  48.87600 38.52800 26.35200
C  48.21900 37.24500 26.12200
C  48.45600 40.06300 28.55600
C  49.58100 39.38400 25.29000
O  49.83900 38.98100 24.14600
C  49.98300 40.71400 25.72800
N  47.39300 34.18700 25.50500
C  47.73300 35.20400 24.59300
C  47.87000 34.59300 23.16600
C  47.54400 33.08400 23.36000
C  47.19400 33.00800 24.86800
C  47.08200 35.28900 22.02000
C  48.83200 32.16000 23.03600
C  48.47300 30.81000 22.41500
N  46.50000 32.71100 27.70800
C  46.30400 31.70600 26.81200
C  45.79200 30.54200 27.44000
C  45.49600 30.93800 28.74200
C  46.00000 32.24200 28.90000
C  45.51800 29.16500 26.82900
C  44.96700 30.46600 30.02800
O  44.52900 29.33900 30.25500
C  45.02100 31.58700 30.98800
C  45.64300 31.03800 32.27500
O  46.83400 30.77700 32.50000
O  44.58600 30.86900 33.18700
C  44.95000 30.24600 34.44700
H  47.49400 38.23900 30.26300
H  48.44600 36.99700 23.97400
H  46.57800 31.07300 24.73800
H  45.14000 34.48300 32.19100
H  47.20100 36.71800 32.11200
H  44.54500 37.22200 30.83500
H  45.38800 38.09800 32.16000
H  44.35400 36.57200 32.36500
H  47.95700 34.86500 33.17400
H  47.68100 33.24100 32.44100
H  46.92100 32.86700 34.63800
H  45.62700 34.07300 34.33900
H  49.05800 39.81700 29.43000
H  47.40800 40.20900 28.82100
H  48.89600 40.90800 28.02500
H  50.77600 40.68800 26.47500
H  49.07700 41.28100 25.94200
H  50.35100 41.28300 24.87500
H  48.86600 34.74800 22.75300
H  46.72200 32.79200 22.70600
H  46.73400 36.25800 22.37600
H  46.21200 34.75800 21.63400
H  47.69900 35.64400 21.19500
H  49.25500 32.03400 24.03300
H  49.50800 32.66300 22.34400
H  47.43600 30.50800 22.27200
H  48.89700 30.01200 23.02400
H  48.96500 30.73200 21.44500
H  46.44800 28.82500 26.37300
H  44.73700 29.41200 26.11100
H  44.99600 28.42200 27.43100
H  43.96300 31.78500 31.16100
H  44.10800 30.49400 35.09400
H  45.92600 30.59400 34.78500
H  44.98800 29.16500 34.30900
Mg 30.52100 59.17900 39.53000
C  27.67800 57.32400 38.67500
C  32.49900 56.48900 38.80300
C  33.13600 61.23800 39.08800
C  28.50700 61.96200 39.90500
N  30.08700 57.21900 38.59800
C  28.90500 56.61500 38.40200
C  29.07000 55.23300 37.82600
C  30.53900 54.92900 38.35100
C  31.11100 56.31900 38.64300
C  30.52800 54.08800 39.59700
C  28.94600 55.28000 36.27500
C  28.07100 54.10300 35.74000
H  27.07400 54.45300 34.59900
N  32.56700 58.87200 39.08000
C  33.19300 57.69400 38.90200
C  34.59700 57.88900 38.76400
C  34.78900 59.30300 38.76900
C  33.43500 59.86000 38.87400
C  35.55000 56.73200 38.80600
C  36.14000 59.98900 38.60500
O  37.21800 59.39600 38.67600
C  36.24100 61.45200 38.41000
N  30.78500 61.31600 39.39000
C  31.94500 61.86500 39.31500
C  31.87600 63.40400 39.48700
C  30.44100 63.60800 39.85900
C  29.84400 62.20400 39.78700
C  32.96900 63.91900 40.55100
C  29.51100 64.47700 39.03700
C  29.86700 65.96000 38.75100
N  28.49600 59.58800 39.62600
C  27.84900 60.75500 39.68200
C  26.48400 60.54400 39.47000
C  26.32000 59.15400 39.13900
C  27.63200 58.65200 39.15800
C  25.47200 61.60100 39.43400
C  25.33700 58.09200 38.82900
O  24.08400 58.09000 38.62300
C  26.26200 56.81800 38.49500
C  25.85800 55.87400 39.63100
O  26.21300 55.87700 40.77800
O  24.94200 55.00300 39.17500
C  24.73200 53.92000 40.15800
H  33.02900 55.53800 38.71900
H  33.88200 62.01100 38.89400
H  27.82500 62.79700 40.07900
H  28.29700 54.56700 38.20900
H  31.12700 54.36800 37.62500
H  31.23500 54.44200 40.34800
H  30.62000 53.06200 39.24200
H  29.51700 54.14600 40.00000
H  29.92900 55.01400 35.88600
H  28.66000 56.25600 35.88200
H  27.40400 53.66400 36.48200
H  28.77200 53.29900 35.51600
H  36.08200 56.78100 39.75600
H  36.23100 56.81900 37.95800
H  35.12500 55.73400 38.69700
H  37.25800 61.71200 38.11700
H  35.97300 61.97500 39.32900
H  35.56300 61.80800 37.63400
H  32.06800 63.83700 38.50500
H  30.26100 63.91700 40.88800
H  33.43000 64.83800 40.19100
H  33.64600 63.13900 40.90000
H  32.39800 64.16300 41.44700
H  28.48500 64.63400 39.37000
H  29.52400 63.91100 38.10600
H  30.85800 66.19500 39.13700
H  29.17000 66.73000 39.08200
H  29.89100 66.10200 37.67000
H  25.10400 61.87100 40.42400
H  24.66200 61.32800 38.75800
H  25.99300 62.53300 39.21900
H  26.01700 56.36300 37.53500
H  24.55700 53.08200 39.48300
H  23.79100 54.10500 40.67500
H  25.50600 53.63000 40.87000

