158

Mg 1.47700 43.10100 25.78700
C  3.07800 42.96600 28.89100
C  -1.52400 42.72100 27.35900
C  0.09300 42.82100 22.78800
C  4.69000 43.13100 24.36400
N  0.83300 42.88700 27.82100
C  1.65800 42.99800 28.96500
C  0.82700 42.89800 30.30300
C  -0.57100 42.65900 29.73100
C  -0.42100 42.75600 28.24400
C  -1.20700 41.36800 30.26500
C  0.98700 44.26400 31.12500
C  0.90100 44.26400 32.64500
H  0.59900 43.00300 33.38000
N  -0.52300 42.89000 25.11900
C  -1.60800 42.72700 25.92200
C  -2.71100 42.53900 25.06700
C  -2.33000 42.71600 23.67600
C  -0.86400 42.80300 23.81000
C  -4.03200 42.34000 25.74200
C  -3.13600 42.76200 22.36600
O  -2.60500 42.80700 21.30100
C  -4.60100 42.40500 22.44400
N  2.29900 42.88300 23.94800
C  1.51300 42.89300 22.83300
C  2.29800 42.83600 21.51900
C  3.70100 43.30000 22.01200
C  3.54500 43.11400 23.59800
C  2.21900 41.40400 20.82600
C  4.36100 44.73900 21.66100
C  3.42400 45.95700 21.36900
N  3.51400 43.13000 26.40500
C  4.71000 43.08800 25.76600
C  5.82200 43.11500 26.67900
C  5.24600 42.99300 27.91800
C  3.81600 43.04000 27.74000
C  7.24900 43.17800 26.30400
C  5.55400 43.06600 29.32000
O  6.63500 43.15300 29.91500
C  4.15800 42.95000 30.05000
C  4.09500 41.71700 30.91200
O  3.49500 40.65700 30.67100
O  4.75700 41.87300 32.14500
C  4.48600 40.73500 33.06500
H  -2.51900 42.58500 27.78900
H  -0.36100 42.83600 21.79500
H  5.65800 43.25200 23.87500
H  1.25400 42.11200 30.92500
H  -1.33400 43.36500 30.05800
H  -2.29400 41.40500 30.32900
H  -0.85100 41.13400 31.26800
H  -0.84800 40.49000 29.72700
H  0.31100 45.00000 30.68900
H  1.92000 44.66600 30.72900
H  0.08100 44.95600 32.83600
H  1.77700 44.65800 33.15900
H  -4.74300 41.95600 25.01000
H  -4.42100 43.25800 26.18100
H  -3.98000 41.62500 26.56300
H  -5.10100 42.37800 21.47600
H  -5.04400 43.16300 23.09000
H  -4.63400 41.43500 22.94000
H  1.95100 43.67700 20.91800
H  4.52300 42.66800 21.67600
H  1.68200 40.76200 21.52400
H  3.16200 40.91300 20.58600
H  1.50900 41.53200 20.00900
H  4.84000 44.57700 20.69500
H  5.06800 44.95600 22.46200
H  3.54700 46.31800 20.34700
H  3.80200 46.70400 22.06800
H  2.37400 45.79700 21.61000
H  7.49400 44.22100 26.10600
H  7.38800 42.71200 25.32800
H  7.90700 42.69300 27.02500
H  3.92100 43.70300 30.80100
H  4.38000 39.74700 32.61800
H  3.65000 40.88100 33.75000
H  5.40300 40.67900 33.65200
Mg -10.31900 16.90100 41.65900
C  -6.90600 16.08200 41.40500
C  -9.65200 20.09200 41.13500
C  -13.61900 17.27500 40.99100
C  -11.01200 13.24200 41.58400
N  -8.44600 17.98100 41.45500
C  -7.19500 17.47600 41.33300
C  -6.20800 18.72500 41.03800
C  -7.15500 19.91200 41.65400
C  -8.50900 19.33700 41.46900
C  -6.96800 20.47500 43.09500
C  -5.99700 18.91000 39.51200
C  -4.52100 18.60600 38.98300
H  -4.38400 17.71900 37.74400
N  -11.46700 18.48100 41.11900
C  -10.98800 19.73500 40.91700
C  -11.99200 20.48600 40.43200
C  -13.23100 19.73500 40.39900
C  -12.85500 18.41900 40.84900
C  -11.87900 21.92600 40.14700
C  -14.64100 20.23900 40.00900
O  -14.76900 21.47400 39.88000
C  -15.97000 19.37800 39.96000
N  -12.06800 15.40000 41.48300
C  -13.25700 15.90600 41.22100
C  -14.33200 14.83000 41.35800
C  -13.55400 13.47000 41.28800
C  -12.12900 14.01500 41.43900
C  -15.25300 14.93600 42.60500
C  -13.77700 12.61000 40.04800
C  -13.82500 11.10500 40.24300
N  -9.26900 15.07000 41.74400
C  -9.67400 13.73200 41.68200
C  -8.49200 12.90100 41.79500
C  -7.39400 13.78400 41.64900
C  -7.91800 15.07000 41.59400
C  -8.50700 11.40100 42.01800
C  -5.91900 13.78900 41.51600
O  -5.07700 12.93300 41.55100
C  -5.60200 15.39400 41.39500
C  -4.69400 15.66900 42.47500
O  -3.47000 15.44600 42.33600
O  -5.24800 16.35300 43.55200
C  -4.38200 17.02700 44.49900
H  -9.52200 21.17000 41.02100
H  -14.69900 17.43300 40.95200
H  -11.17200 12.17600 41.41100
H  -5.31700 18.63100 41.66000
H  -6.90200 20.74000 40.99200
H  -5.94900 20.36300 43.46500
H  -7.61700 19.93200 43.78200
H  -7.31100 21.50600 43.00600
H  -6.10900 19.95600 39.22800
H  -6.64000 18.32800 38.85200
H  -3.86700 18.25700 39.78200
H  -4.08100 19.56400 38.70700
H  -12.70300 22.49600 40.57700
H  -11.98000 22.00500 39.06500
H  -11.01800 22.50800 40.47700
H  -15.82300 18.76900 39.06700
H  -16.86700 19.96400 39.76200
H  -16.30000 18.92400 40.89400
H  -14.97500 14.87400 40.47900
H  -13.77900 12.87000 42.16900
H  -14.65100 14.76900 43.49800
H  -15.93300 14.08500 42.59100
H  -15.80700 15.84900 42.82500
H  -12.99300 12.77400 39.30900
H  -14.66900 12.89200 39.48800
H  -13.12400 10.60500 39.57400
H  -14.84800 10.77300 40.06600
H  -13.53500 10.77500 41.24000
H  -9.45800 10.93700 42.28000
H  -7.73000 11.10300 42.72100
H  -8.16900 10.98700 41.06800
H  -4.95400 15.50700 40.52600
H  -4.70600 16.78600 45.51100
H  -4.44700 18.09600 44.29400
H  -3.30900 16.83800 44.48500

