158

Mg 43.41500 4.29000 47.33600
C  41.26000 7.08200 47.40900
C  40.41600 2.37500 46.97500
C  45.30200 1.62800 46.65500
C  46.11000 6.35000 47.34300
N  41.08600 4.74000 46.88000
C  40.56000 5.92900 47.29800
C  39.05600 5.83900 47.49500
C  38.77000 4.26800 47.52000
C  40.17900 3.75800 47.09600
C  38.25300 3.69100 48.86000
C  38.13800 6.62600 46.37600
C  38.59000 6.40600 44.86000
H  38.81600 7.63600 43.99200
N  43.00500 2.32700 46.98200
C  41.69900 1.79500 46.93900
C  41.87100 0.40100 46.84700
C  43.22100 0.08400 46.57900
C  43.92600 1.36900 46.66300
C  40.67900 -0.57200 47.02700
C  43.78600 -1.27700 46.29800
O  43.03700 -2.24600 46.19900
C  45.16000 -1.53100 46.12700
N  45.43100 4.09000 47.06700
C  46.02900 2.81100 46.94000
C  47.52700 3.02800 46.90600
C  47.90500 4.57300 47.10900
C  46.40000 5.01400 47.19500
C  48.45800 2.05900 47.73800
C  48.75100 5.36300 46.06300
C  49.94000 4.67900 45.52200
N  43.69800 6.34500 47.31900
C  44.87900 7.06800 47.49600
C  44.60700 8.44200 47.67700
C  43.16800 8.47100 47.67000
C  42.68000 7.16900 47.36700
C  45.67700 9.53900 47.93900
C  42.04200 9.39400 47.88400
O  42.01800 10.59200 48.16600
C  40.76000 8.52800 47.70000
C  39.94100 8.54800 48.93900
O  40.21100 7.95800 50.01200
O  38.86300 9.39400 48.69300
C  37.82800 9.43800 49.84300
H  39.55300 1.71100 47.04900
H  46.05900 0.85500 46.50700
H  46.99400 6.98900 47.37200
H  38.87800 6.22800 48.49800
H  38.05800 4.08100 46.71600
H  37.59400 4.35200 49.42400
H  39.08400 3.33700 49.47100
H  37.70900 2.77500 48.62900
H  37.97200 7.65400 46.69600
H  37.16400 6.13800 46.35700
H  37.84600 5.76400 44.38600
H  39.50600 5.82200 44.77300
H  40.17100 -0.78200 46.08600
H  40.06000 -0.09800 47.78900
H  41.11900 -1.49700 47.40000
H  45.79300 -1.02100 46.85300
H  45.50200 -0.98900 45.24500
H  45.25700 -2.61100 46.02000
H  47.77500 2.71000 45.89300
H  48.41000 4.70000 48.06700
H  49.17500 1.57100 47.07800
H  47.82100 1.27600 48.15100
H  49.03500 2.55700 48.51700
H  48.96100 6.33300 46.51500
H  48.00400 5.52200 45.28500
H  49.70500 4.35900 44.50700
H  50.42600 3.86700 46.06300
H  50.68700 5.45800 45.37000
H  45.31700 10.56800 47.91300
H  46.46800 9.49200 47.19000
H  46.11700 9.21100 48.88000
H  40.20700 8.85200 46.81700
H  38.30300 9.98800 50.65500
H  37.67100 8.45300 50.28200
H  36.88100 9.80400 49.44400
Mg 40.49700 9.38400 29.39000
C  42.46100 10.94200 32.05300
C  38.49400 8.18500 31.80100
C  39.02800 7.92300 26.89600
C  43.32500 10.22600 27.21200
N  40.61000 9.47700 31.71300
C  41.30600 10.36200 32.50000
C  40.77500 10.38400 33.94500
C  39.51500 9.33600 33.78400
C  39.54800 8.92800 32.35000
C  39.45100 8.22800 34.83100
C  40.31900 11.84200 34.35300
C  39.88000 11.97100 35.87000
H  40.59100 13.02700 36.68100
N  39.03000 8.15900 29.37400
C  38.26500 7.82800 30.43500
C  37.20400 6.99300 29.94600
C  37.24500 6.96800 28.49900
C  38.49200 7.69100 28.19000
C  36.21100 6.28100 30.88200
C  36.32500 6.26400 27.48100
O  36.70700 6.13400 26.34700
C  35.16000 5.46900 27.98900
N  41.15200 9.13400 27.39500
C  40.22100 8.63300 26.50500
C  40.65000 8.93200 25.00400
C  42.08800 9.32500 25.21500
C  42.17500 9.59600 26.68800
C  40.50800 7.94100 23.85000
C  42.52800 10.53300 24.34500
C  41.86500 11.87000 24.66100
N  42.43300 10.47000 29.47400
C  43.47700 10.68700 28.53900
C  44.55900 11.51900 29.18200
C  44.16200 11.63500 30.51200
C  42.91800 10.94200 30.66900
C  45.74500 12.05800 28.45000
C  44.58100 12.10500 31.83200
O  45.57100 12.74800 32.16200
C  43.45300 11.73600 32.88100
C  44.01800 10.95200 34.01300
O  44.74700 9.98300 33.86100
O  43.61200 11.43500 35.24400
C  43.97600 10.64100 36.40400
H  37.69300 7.94600 32.50300
H  38.45800 7.55300 26.04100
H  44.08800 10.55900 26.50600
H  41.51700 10.00700 34.64800
H  38.69200 10.01400 34.00800
H  38.63100 8.42100 35.52200
H  40.36300 8.31300 35.42200
H  39.39800 7.17900 34.53900
H  39.47900 12.18000 33.74600
H  41.17100 12.51100 34.23100
H  39.81800 10.98200 36.32300
H  38.84900 12.32100 35.81100
H  35.19400 6.57200 30.62100
H  36.26800 6.57200 31.93100
H  36.51100 5.23900 30.76600
H  35.42900 4.95500 28.91100
H  35.02900 4.80000 27.13900
H  34.30000 6.13800 28.02300
H  39.97600 9.71800 24.66400
H  42.60300 8.38500 25.01600
H  39.44900 8.02700 23.60600
H  40.47700 6.91100 24.20600
H  41.02700 8.19000 22.92400
H  42.13000 10.22300 23.37900
H  43.61300 10.63900 24.33100
H  41.58400 11.92300 25.71300
H  41.01200 11.94200 23.98600
H  42.44500 12.76800 24.44800
H  45.60400 12.58700 27.50800
H  46.44200 11.22700 28.33600
H  46.26800 12.79300 29.06300
H  42.96300 12.66300 33.18000
H  43.16600 10.45800 37.11100
H  44.75700 11.21700 36.90000
H  44.50700 9.70200 36.24800

