158

Mg -0.38900 6.55000 26.14800
C  0.54500 8.85600 28.62600
C  0.21300 3.95800 28.28500
C  -0.79700 4.52900 23.59900
C  0.01900 9.31500 23.92600
N  0.39000 6.33000 28.21800
C  0.42600 7.48800 29.08400
C  0.40600 6.97200 30.58900
C  0.49900 5.39600 30.41600
C  0.30400 5.18000 28.89900
C  1.73700 4.70800 31.05400
C  -0.80000 7.49200 31.40000
C  -0.51400 8.34000 32.60600
H  0.63400 7.86300 33.49600
N  -0.36200 4.53800 25.93400
C  0.00900 3.61200 26.89500
C  -0.14500 2.31600 26.38700
C  -0.56000 2.44700 25.03200
C  -0.63100 3.85500 24.80400
C  0.04500 1.14300 27.23900
C  -0.93300 1.40200 24.04200
O  -1.54000 1.71600 23.02400
C  -0.68600 -0.05300 24.34000
N  -0.48000 6.93700 24.10500
C  -0.67300 5.90600 23.26900
C  -0.43200 6.34000 21.84900
C  -0.51100 7.86200 21.91700
C  -0.31600 8.09900 23.41600
C  0.97600 5.90700 21.33200
C  -1.74200 8.59700 21.28700
C  -2.82200 9.15200 22.25900
N  0.18600 8.68200 26.16100
C  0.25800 9.65700 25.20600
C  0.79600 10.85900 25.75600
C  0.84200 10.65500 27.09400
C  0.48500 9.29200 27.25300
C  1.20000 12.04300 25.03900
C  1.22900 11.26600 28.39700
O  1.63400 12.39500 28.71100
C  0.89900 10.14400 29.40700
C  2.11700 9.99200 30.24100
O  3.03600 9.23200 29.97000
O  1.97100 10.81200 31.36000
C  3.12500 10.98300 32.20600
H  0.30300 3.16400 29.02900
H  -0.90200 3.84600 22.75400
H  0.32800 10.12000 23.25600
H  1.27800 7.31300 31.14700
H  -0.40500 4.97400 30.85500
H  2.08800 5.40700 31.81300
H  2.49000 4.50500 30.29200
H  1.38200 3.73100 31.38100
H  -1.57000 6.77100 31.67300
H  -1.23200 8.17800 30.67200
H  -1.35700 8.36600 33.29600
H  -0.41900 9.39400 32.34500
H  -0.87300 0.81000 27.72300
H  0.64500 1.26300 28.14100
H  0.57700 0.37400 26.68000
H  -1.00800 -0.33200 25.34400
H  0.33200 -0.42400 24.22500
H  -1.26100 -0.68400 23.66300
H  -1.28500 6.09100 21.21800
H  0.38200 8.29100 21.46200
H  1.25400 4.93200 21.73000
H  1.78100 6.63200 21.45300
H  0.95200 5.75800 20.25200
H  -2.28600 7.93600 20.61300
H  -1.28600 9.44300 20.77200
H  -2.81100 10.23800 22.17100
H  -2.64800 9.08800 23.33300
H  -3.73300 8.70800 21.85700
H  0.45300 12.40500 24.33300
H  2.09500 12.01100 24.41700
H  1.13100 12.88000 25.73400
H  0.06700 10.46100 30.03600
H  3.95300 11.22000 31.53700
H  3.38700 10.03800 32.68300
H  2.99000 11.66200 33.04800
Mg 9.23600 48.11600 25.83000
C  7.30700 48.32600 28.68000
C  11.90200 49.46100 27.60800
C  10.97400 48.34300 23.05700
C  6.18100 47.44300 23.94100
N  9.52300 48.83400 27.92800
C  8.61100 48.80500 28.94200
C  9.23100 49.18800 30.33100
C  10.60200 49.85800 29.85500
C  10.71000 49.30500 28.38100
C  10.51300 51.41000 29.90200
C  9.53400 48.07300 31.32300
C  9.02900 48.36700 32.72400
H  9.32400 47.24800 33.70000
N  11.25000 48.69000 25.39200
C  12.17600 49.11800 26.26700
C  13.38900 49.24300 25.49200
C  13.14700 48.94400 24.09300
C  11.74500 48.63800 24.14200
C  14.71300 49.38500 26.10100
C  14.13400 48.91300 22.89700
O  13.66700 48.67000 21.76100
C  15.48800 49.26800 23.02100
N  8.63700 47.82800 23.75900
C  9.58100 48.04900 22.81500
C  9.02900 47.70700 21.41400
C  7.53000 47.19400 21.72000
C  7.40600 47.49100 23.22700
C  9.11400 48.86500 20.41900
C  7.25800 45.70500 21.51800
C  8.13600 44.74400 22.34900
N  7.08900 47.93600 26.10600
C  6.02700 47.61500 25.32000
C  4.83300 47.46000 26.17400
C  5.29100 47.74400 27.48200
C  6.69900 48.01800 27.40900
C  3.54700 46.98900 25.69200
C  4.89600 47.88200 28.85800
O  3.80400 47.72700 29.40000
C  6.23000 48.10400 29.66400
C  6.49800 46.89000 30.42200
O  6.90000 45.86800 29.88900
O  6.04900 47.07900 31.67400
C  6.46900 45.97400 32.59200
H  12.74200 49.93000 28.12500
H  11.43400 48.40100 22.06900
H  5.30300 47.24400 23.32400
H  8.63100 49.87900 30.92200
H  11.41700 49.53800 30.50400
H  9.48300 51.72300 29.73000
H  11.14100 51.94500 29.18900
H  10.79100 51.73200 30.90600
H  10.59700 47.89600 31.49200
H  8.98400 47.18100 31.02200
H  7.95900 48.54300 32.62300
H  9.44800 49.26400 33.18000
H  14.62900 49.40400 27.18800
H  15.17000 50.31200 25.75600
H  15.27100 48.49300 25.81500
H  16.05600 48.37700 23.29200
H  15.62000 50.11600 23.69200
H  15.75900 49.65100 22.03700
H  9.75100 47.01300 20.98400
H  6.76200 47.76000 21.19300
H  8.24500 49.01500 19.77700
H  9.99300 48.76000 19.78200
H  9.31400 49.78500 20.96700
H  7.40900 45.53700 20.45200
H  6.22200 45.56100 21.82200
H  7.35200 44.27600 22.94200
H  8.95900 45.30900 22.78700
H  8.48700 43.90700 21.74500
H  3.68900 45.99200 25.27600
H  3.29700 47.63300 24.84800
H  2.82100 47.08000 26.50000
H  6.18200 49.00400 30.27800
H  7.40900 45.46600 32.38100
H  5.65200 45.27200 32.76100
H  6.72200 46.47200 33.52800

