158

Mg 2.60600 -2.73300 43.91100
C  6.10700 -2.32800 43.54200
C  2.08500 -0.00700 41.93400
C  -0.65500 -3.52000 43.90000
C  3.17800 -5.63500 45.76600
N  3.94900 -1.37500 42.81100
C  5.33500 -1.37000 42.85100
C  5.89300 -0.01200 42.18600
C  4.54700 0.84200 42.08400
C  3.44200 -0.25800 42.20100
C  4.36500 1.88300 43.23200
C  6.59800 -0.41800 40.85000
C  7.89400 0.31600 40.55500
H  8.01300 1.07300 39.22100
N  0.95100 -1.88200 43.00200
C  0.98700 -0.80300 42.21100
C  -0.36700 -0.61000 41.71400
C  -1.24900 -1.49500 42.38700
C  -0.33200 -2.40000 43.15200
C  -0.77600 0.40400 40.67600
C  -2.75100 -1.55300 42.18500
O  -3.23900 -0.76300 41.41200
C  -3.68900 -2.62300 42.73800
N  1.45000 -4.31200 44.78400
C  0.12400 -4.39700 44.64000
C  -0.42600 -5.66100 45.19900
C  0.81800 -6.44000 45.74700
C  1.86000 -5.37800 45.37600
C  -1.49700 -5.41900 46.27800
C  1.01700 -7.86800 45.05000
C  0.47100 -9.13000 45.74500
N  4.31500 -3.78400 44.68400
C  4.34300 -4.91500 45.42700
C  5.73400 -5.20000 45.67800
C  6.50300 -4.24400 44.97000
C  5.54700 -3.38900 44.38100
C  6.24500 -6.32700 46.55500
C  7.82000 -3.71400 44.61500
O  8.89500 -4.15500 45.01800
C  7.62400 -2.50600 43.64700
C  8.33100 -1.25300 44.05500
O  9.32500 -0.78200 43.51600
O  7.72900 -0.66800 45.08000
C  8.20500 0.70800 45.50000
H  1.98300 0.92100 41.36600
H  -1.71700 -3.76900 43.93700
H  3.42100 -6.59700 46.22000
H  6.54000 0.45100 42.93100
H  4.60800 1.37800 41.13700
H  4.95700 1.57500 44.09400
H  3.29400 1.99500 43.40100
H  4.67600 2.88400 42.93300
H  5.85000 -0.19500 40.08800
H  6.82600 -1.48300 40.84600
H  8.69500 -0.42300 40.53800
H  8.17300 0.98400 41.37000
H  -1.22400 -0.14200 39.84600
H  0.09500 0.93700 40.29500
H  -1.49100 1.14900 41.02600
H  -3.79600 -2.60100 43.82300
H  -3.33900 -3.55900 42.30300
H  -4.66600 -2.44200 42.28900
H  -1.00800 -6.21900 44.46500
H  0.89700 -6.52200 46.83100
H  -2.10200 -6.32600 46.29500
H  -2.09600 -4.50900 46.29500
H  -1.08500 -5.42800 47.28600
H  2.03800 -8.04800 44.71100
H  0.40100 -7.76800 44.15600
H  -0.42000 -9.42300 45.19000
H  0.14400 -8.93400 46.76600
H  1.15400 -9.96500 45.90300
H  7.33400 -6.34800 46.60700
H  5.78700 -7.25600 46.21400
H  5.95100 -6.16000 47.59100
H  8.14200 -2.75300 42.72000
H  9.24800 0.59800 45.79500
H  7.62000 1.01800 46.36600
H  8.13400 1.43700 44.69300
Mg 1.34500 41.76800 25.75000
C  3.21400 41.95000 28.76400
C  -1.23100 40.62800 27.76700
C  -0.39300 41.35500 23.03700
C  4.21300 42.72400 23.98900
N  1.06700 41.40600 28.12800
C  1.93000 41.71600 29.09500
C  1.35400 41.67100 30.50300
C  -0.11700 41.15500 30.07000
C  -0.11300 41.02100 28.54900
C  -0.60500 39.84100 30.89400
C  1.46800 43.05700 31.28200
C  2.10900 43.11700 32.64800
H  1.72700 42.05700 33.66700
N  -0.44400 40.90400 25.43300
C  -1.38400 40.58400 26.35700
C  -2.59100 39.99800 25.64900
C  -2.44500 40.37300 24.28500
C  -1.06000 40.91300 24.14600
C  -3.66600 39.29800 26.38700
C  -3.39700 40.28800 23.17900
O  -3.21700 40.68800 22.08600
C  -4.72100 39.85400 23.43900
N  1.85800 41.94000 23.79400
C  0.91600 41.73100 22.82300
C  1.61200 41.81000 21.44000
C  2.95600 42.43800 21.73900
C  3.03100 42.39200 23.26900
C  1.73000 40.47000 20.73400
C  3.08600 43.89700 21.12800
C  4.32400 44.08200 20.38000
N  3.33100 42.22600 26.19200
C  4.34800 42.57300 25.38300
C  5.50300 42.72000 26.16600
C  5.15800 42.44700 27.49400
C  3.73600 42.19100 27.48200
C  6.80900 43.26400 25.77400
C  5.73600 42.22600 28.78200
O  6.85400 42.29600 29.22600
C  4.43200 42.10500 29.69700
C  4.76200 40.91600 30.57900
O  4.52500 39.75100 30.29500
O  5.35300 41.34200 31.73400
C  5.63600 40.38400 32.76300
H  -2.10100 40.38000 28.37800
H  -0.87300 41.25000 22.06200
H  5.14300 43.03600 23.51000
H  1.89700 40.89400 31.04100
H  -0.86000 41.87600 30.41000
H  -1.29900 40.27400 31.61500
H  0.26400 39.51800 31.46700
H  -1.15700 39.10300 30.31100
H  0.42900 43.37700 31.35900
H  1.96200 43.74400 30.59600
H  1.73600 44.04000 33.09300
H  3.19000 43.15000 32.50900
H  -3.36500 38.95900 27.37800
H  -3.98400 38.42000 25.82500
H  -4.54600 39.93300 26.48800
H  -5.15900 40.40900 24.26900
H  -4.74500 38.77000 23.54500
H  -5.29800 40.06300 22.53900
H  0.95100 42.44500 20.85000
H  3.84900 41.86400 21.49300
H  1.45900 39.56600 21.28000
H  2.77900 40.39800 20.44600
H  1.12600 40.52800 19.82900
H  3.03800 44.65700 21.90800
H  2.24500 44.10000 20.46500
H  4.86200 44.86100 20.92100
H  4.05400 44.47100 19.39800
H  4.84700 43.12900 20.30500
H  6.68100 44.08400 25.06700
H  7.24700 42.42200 25.23800
H  7.41600 43.60400 26.61200
H  4.23700 42.94800 30.36000
H  5.50400 40.76100 33.77700
H  6.49200 39.70900 32.73000
H  4.75300 39.75100 32.67300

