158

Mg 47.04000 17.20300 29.42300
C  45.11600 16.46700 32.21400
C  49.11700 19.00300 31.45400
C  48.68800 18.00900 26.78800
C  44.62000 15.55900 27.41700
N  47.13000 17.60100 31.68100
C  46.25600 17.17600 32.61000
C  46.64800 17.82000 33.94600
C  47.72600 18.90400 33.53800
C  48.07200 18.46000 32.17600
C  47.26500 20.38500 33.67300
C  47.13300 16.70100 34.95100
C  46.38400 16.62500 36.28600
H  46.09900 17.98900 36.92400
N  48.79400 18.26700 29.17300
C  49.52700 18.89600 30.13600
C  50.73900 19.40400 29.55800
C  50.69400 19.09400 28.15300
C  49.33000 18.43900 27.95700
C  51.87000 19.94300 30.31600
C  51.67400 19.39800 27.04600
O  51.47800 18.94800 25.89200
C  52.92000 20.18600 27.32500
N  46.54200 16.99100 27.34300
C  47.51300 17.38800 26.47700
C  47.16000 16.89200 25.07400
C  46.02500 15.80600 25.35700
C  45.76800 16.06900 26.80000
C  46.94200 18.04800 24.01900
C  46.41300 14.27100 25.11400
C  45.31100 13.42200 24.39900
N  45.17400 16.34600 29.66100
C  44.29500 15.70200 28.77400
C  43.21200 15.19300 29.51900
C  43.44700 15.46500 30.80400
C  44.71700 16.06100 30.87800
C  42.08000 14.32900 29.05000
C  42.91600 15.30000 32.15000
O  41.80600 14.89700 32.55800
C  43.98500 15.97400 33.10200
C  43.30600 17.15900 33.71400
O  42.90400 18.18500 33.10100
O  43.07400 16.89800 35.01200
C  42.47400 17.99100 35.70900
H  49.66100 19.67400 32.12200
H  49.18600 18.22900 25.84100
H  43.87800 15.00100 26.84200
H  45.73800 18.24100 34.37400
H  48.57600 18.73600 34.19800
H  46.83000 20.69200 32.72200
H  48.17600 20.95800 33.84200
H  46.56500 20.53000 34.49600
H  48.16900 16.95100 35.17900
H  47.18400 15.82200 34.30900
H  47.01400 16.14200 37.03300
H  45.58100 15.88900 36.23500
H  51.55100 20.36200 31.27000
H  52.43200 20.73600 29.82500
H  52.50900 19.06900 30.44600
H  53.40200 19.70400 28.17600
H  52.65900 21.22400 27.52900
H  53.50500 20.18000 26.40500
H  48.05600 16.33400 24.80200
H  45.12800 16.06600 24.79400
H  45.92000 18.18200 23.66400
H  47.58500 17.76700 23.18500
H  47.14400 19.00800 24.49500
H  46.68700 13.85400 26.08300
H  47.35800 14.27000 24.57000
H  45.71100 13.17100 23.41600
H  44.35000 13.92900 24.30600
H  45.06600 12.50600 24.93700
H  41.33300 15.01900 28.65800
H  41.66000 13.78300 29.89500
H  42.47900 13.70200 28.25200
H  44.21100 15.27300 33.90500
H  41.45700 18.09600 35.33300
H  43.17200 18.82200 35.61000
H  42.56700 17.85200 36.78700
Mg 17.27300 52.19500 26.38800
C  19.11700 50.46900 28.87900
C  14.87500 52.80500 28.91900
C  15.30000 53.27100 24.00100
C  19.57500 50.99500 24.14300
N  16.97200 51.41400 28.60700
C  17.96800 51.01100 29.42300
C  17.65000 51.25200 30.87500
C  16.16700 51.70500 30.83300
C  16.03000 52.05500 29.33400
C  14.95700 50.73100 31.22000
C  18.50800 52.31700 31.49000
C  18.70600 52.22800 33.04900
H  17.68700 51.50600 33.96300
N  15.30400 52.91300 26.43500
C  14.53800 53.18400 27.54100
C  13.36100 53.96000 27.10200
C  13.46000 54.05700 25.63600
C  14.73400 53.35800 25.28300
C  12.38500 54.59100 28.13100
C  12.72900 55.09600 24.68700
O  13.12900 55.30000 23.50000
C  11.52900 55.89300 25.13600
N  17.41300 52.23300 24.39800
C  16.46800 52.68100 23.54700
C  16.75800 52.44400 22.05400
C  18.25900 52.00800 22.19200
C  18.48100 51.76800 23.66300
C  15.83100 51.25700 21.54900
C  19.29200 52.95600 21.51700
C  19.08800 54.46200 21.79200
N  18.99200 50.83300 26.38800
C  19.84400 50.50200 25.37300
C  20.96000 49.76100 25.83300
C  20.76000 49.73100 27.23400
C  19.47500 50.31600 27.49100
C  22.03500 49.17800 24.95000
C  21.23800 49.19200 28.49500
O  22.16300 48.46300 28.74700
C  20.26200 49.79300 29.60100
C  19.85500 48.69300 30.52800
O  19.12100 47.74900 30.32400
O  20.53500 48.82900 31.73300
C  20.07800 48.01400 32.88000
H  14.26800 53.08900 29.78100
H  14.58000 53.54600 23.22700
H  20.33400 50.78100 23.38700
H  17.65600 50.34700 31.48200
H  15.89400 52.60300 31.38700
H  14.33800 51.15800 32.00900
H  15.36400 49.76900 31.53300
H  14.21200 50.54000 30.44800
H  18.03500 53.25700 31.20500
H  19.54000 52.25500 31.14400
H  18.63900 53.29100 33.28200
H  19.73200 51.86300 33.08100
H  11.57200 53.86700 28.18400
H  12.06100 55.61100 27.92500
H  12.93300 54.55800 29.07300
H  10.82300 55.22600 25.63200
H  11.11000 56.31800 24.22400
H  11.76000 56.74900 25.77000
H  16.63100 53.27600 21.36200
H  18.44800 51.03000 21.75000
H  16.49600 50.44700 21.84800
H  15.70000 51.54000 20.50500
H  14.86000 51.05200 22.00000
H  19.36200 52.64300 20.47500
H  20.28800 52.64200 21.82700
H  18.92200 54.99200 20.85400
H  19.92500 54.94500 22.29700
H  18.26800 54.63000 22.49000
H  21.46000 48.76200 24.12300
H  22.39800 48.32300 25.52200
H  22.82800 49.78100 24.51000
H  20.87000 50.37200 30.29600
H  20.29900 46.95300 32.76400
H  18.99000 47.97700 32.93800
H  20.60500 48.38900 33.75700

