158

Mg 48.02600 34.86600 27.91400
C  45.95900 33.22000 30.15300
C  48.59100 37.19400 30.11900
C  49.15400 36.79700 25.35600
C  47.16500 32.41700 25.49500
N  47.27900 35.16800 29.85500
C  46.61400 34.30900 30.71300
C  46.68300 34.69300 32.16500
C  47.10500 36.23100 31.96300
C  47.71500 36.25600 30.56300
C  45.94500 37.15700 32.21300
C  47.65600 33.77200 33.05500
C  48.56800 34.46100 34.14000
H  47.92700 35.54300 35.04100
N  48.87100 36.73400 27.78400
C  49.05100 37.57100 28.83900
C  49.85800 38.68200 28.44200
C  49.87200 38.66300 27.06800
C  49.25000 37.36200 26.66600
C  50.56500 39.57000 29.48600
C  50.44300 39.68000 26.05500
O  50.53200 39.42900 24.78200
C  50.92900 41.02500 26.46600
N  47.99900 34.65000 25.69600
C  48.61700 35.61000 24.91400
C  48.68100 35.12800 23.47500
C  48.15000 33.67100 23.44700
C  47.73100 33.58700 24.97600
C  47.98200 36.11400 22.45800
C  49.15300 32.58000 22.96000
C  50.25900 32.07000 23.96400
N  46.95500 33.08800 27.84900
C  46.63900 32.19500 26.85900
C  45.91400 31.04500 27.43300
C  45.47300 31.49700 28.65500
C  46.14800 32.76400 28.87600
C  45.45600 29.86100 26.71600
C  44.71700 31.14700 29.75400
O  44.02300 30.16200 29.99100
C  44.91000 32.30600 30.76700
C  45.14200 31.84200 32.10700
O  46.09900 31.16000 32.47600
O  44.20000 32.29300 32.90400
C  44.35400 31.94900 34.32100
H  48.89100 37.88600 30.90800
H  49.37900 37.47900 24.53400
H  47.07400 31.56700 24.81600
H  45.69400 34.60300 32.61400
H  47.95700 36.40900 32.62000
H  45.98000 37.54200 33.23200
H  45.00700 36.60500 32.27000
H  45.93200 37.99800 31.51900
H  48.32000 33.33700 32.30800
H  47.24500 32.84500 33.45300
H  49.39700 34.94100 33.61900
H  48.94400 33.69700 34.82100
H  50.68400 40.60200 29.15400
H  51.54700 39.11500 29.62000
H  50.15600 39.35200 30.47300
H  50.17500 41.58200 27.02200
H  51.43600 41.49900 25.62600
H  51.71300 40.79400 27.18700
H  49.73900 35.19700 23.22000
H  47.26600 33.55500 22.82000
H  47.05900 35.73300 22.01900
H  48.78800 36.26800 21.74000
H  47.83400 37.00600 23.06600
H  49.79900 33.02200 22.20100
H  48.56900 31.80100 22.46900
H  50.37600 31.01900 23.69900
H  50.01600 32.05000 25.02600
H  51.24600 32.49200 23.77200
H  46.27500 29.28000 26.29300
H  44.87400 30.32500 25.92000
H  44.87100 29.24700 27.40000
H  44.01700 32.93000 30.78100
H  43.37400 32.15000 34.75300
H  45.10300 32.63600 34.71700
H  44.58200 30.93600 34.65400
Mg 6.89200 53.46400 40.92500
C  6.61500 49.93300 40.94500
C  10.28000 53.00700 40.13600
C  6.96100 56.65300 39.86400
C  3.37300 53.59000 40.80300
N  8.16900 51.63600 40.43000
C  7.90500 50.35600 40.67400
C  9.18700 49.48600 40.69300
C  10.36600 50.56500 40.72100
C  9.56100 51.83100 40.39900
C  11.18200 50.62600 42.04600
C  9.30900 48.47800 39.51200
C  9.11700 49.03000 38.08500
H  7.81400 48.76300 37.31100
N  8.47300 54.69700 40.20400
C  9.80100 54.35400 39.94400
C  10.54400 55.54800 39.65400
C  9.58300 56.62100 39.55300
C  8.26700 56.05600 39.87900
C  12.03500 55.57100 39.53800
C  9.90700 58.12700 39.36300
O  11.07400 58.41400 39.13600
C  8.93300 59.21400 39.58400
N  5.37800 54.93000 40.39600
C  5.69500 56.15000 40.08200
C  4.52100 57.10100 40.07900
C  3.33700 56.07000 40.30900
C  4.07400 54.79600 40.56600
C  4.63900 58.22800 41.16800
C  2.21800 55.92400 39.17400
C  0.75500 56.08600 39.64300
N  5.21800 52.11900 41.09200
C  3.89400 52.29200 41.09300
C  3.18200 51.14600 41.54700
C  4.21800 50.19900 41.45500
C  5.42400 50.82600 41.09900
C  1.71900 50.95500 41.97900
C  4.52400 48.76500 41.59700
O  3.83200 47.79200 41.92900
C  6.04800 48.63200 41.37100
C  6.09700 47.60800 40.31800
O  5.72300 47.78800 39.13600
O  6.57100 46.45300 40.88400
C  6.51100 45.29300 40.01200
H  11.33800 52.79200 40.29700
H  6.86900 57.67000 39.47800
H  2.28900 53.72400 40.79000
H  9.16600 49.00600 41.67200
H  11.16600 50.31000 40.02600
H  11.70600 49.68500 42.21700
H  10.58000 50.80100 42.93800
H  11.76300 51.54800 42.02900
H  8.71700 47.57000 39.62500
H  10.30500 48.03800 39.45700
H  9.90600 48.64200 37.44100
H  9.28400 50.08700 38.29600
H  12.44400 56.18800 40.33900
H  12.35000 56.04800 38.61000
H  12.41100 54.55600 39.66500
H  8.60600 59.04300 40.60900
H  8.06700 59.21200 38.92200
H  9.43000 60.18100 39.66000
H  4.43300 57.49000 39.06400
H  2.80200 56.43500 41.18600
H  4.04600 58.14000 42.07800
H  4.57600 59.19800 40.67600
H  5.67900 58.25100 41.49600
H  2.30900 54.96900 38.65700
H  2.36800 56.69700 38.42000
H  0.23600 55.14300 39.47100
H  0.26000 56.86700 39.06600
H  0.67300 56.31500 40.70600
H  1.30700 50.17100 41.34300
H  1.10900 51.84800 41.84600
H  1.75000 50.67800 43.03300
H  6.41300 48.31600 42.34800
H  7.20300 45.51600 39.20000
H  5.50800 45.15600 39.60900
H  6.77800 44.42100 40.60900

