158

Mg 47.71500 34.93200 27.74400
C  46.01000 33.02400 30.19600
C  47.81200 37.62100 29.91200
C  48.70900 36.84100 25.11700
C  46.99600 32.34900 25.32600
N  47.08400 35.20800 29.80000
C  46.55600 34.25500 30.64700
C  46.66100 34.84400 32.11500
C  46.80700 36.33200 31.91500
C  47.28200 36.41100 30.45100
C  45.48300 37.12300 32.11100
C  47.96400 34.15200 32.69200
C  47.88600 34.03300 34.26100
H  46.91800 34.93400 35.10300
N  48.33600 36.91000 27.58200
C  48.28200 37.78600 28.57300
C  48.84200 39.02900 28.12500
C  49.08700 38.87000 26.72900
C  48.79000 37.47300 26.40200
C  49.17200 40.13600 29.03300
C  49.83500 39.84000 25.73400
O  50.17700 39.53000 24.59200
C  50.36600 41.15500 26.28500
N  47.79600 34.59600 25.46600
C  48.29400 35.57800 24.65300
C  48.24900 35.13500 23.17900
C  47.82200 33.66200 23.26300
C  47.47200 33.54100 24.75500
C  47.33000 36.14200 22.39800
C  48.85000 32.62300 22.73300
C  50.13400 32.43000 23.59800
N  46.79900 33.06100 27.73000
C  46.54000 32.12500 26.69400
C  45.98900 30.89400 27.28500
C  45.74000 31.26700 28.62700
C  46.16500 32.59100 28.81300
C  45.80900 29.61900 26.56900
C  45.07800 30.79900 29.88800
O  44.56000 29.71700 30.11800
C  45.10200 32.07500 30.87400
C  45.56400 31.65600 32.18700
O  46.44700 30.89500 32.39700
O  44.73000 32.24500 33.12100
C  44.68500 31.77500 34.52900
H  47.88500 38.48400 30.57800
H  49.16600 37.35500 24.26900
H  46.82100 31.61500 24.53700
H  45.80300 34.76400 32.78200
H  47.55000 36.84200 32.52700
H  44.97400 37.26400 31.15700
H  45.63400 38.08800 32.59500
H  44.72400 36.60100 32.69300
H  48.75800 34.82800 32.37500
H  48.19500 33.22000 32.17500
H  48.89200 34.16300 34.66000
H  47.57400 33.01800 34.50700
H  50.22700 40.37400 28.90300
H  49.00800 40.00400 30.10200
H  48.50100 40.93300 28.71300
H  49.65300 41.76800 26.83700
H  50.57000 41.72900 25.38100
H  51.26800 40.89600 26.83900
H  49.23900 35.20400 22.72800
H  46.92800 33.68500 22.63900
H  46.75200 36.72900 23.11200
H  46.54600 35.70700 21.77800
H  47.93100 36.85700 21.83700
H  49.28000 32.87300 21.76300
H  48.23600 31.73200 22.59700
H  50.39800 31.39600 23.81700
H  49.90900 33.03000 24.48000
H  51.00700 32.94400 23.19400
H  46.16400 28.80900 27.20600
H  46.33400 29.46500 25.62600
H  44.77500 29.36900 26.33100
H  44.07200 32.34400 31.10600
H  44.92700 30.71200 34.53800
H  43.65000 31.90200 34.84500
H  45.40100 32.22600 35.21500
Mg 6.46700 53.80300 41.62700
C  5.83300 50.39500 41.60000
C  9.44600 53.04800 40.22100
C  6.88200 57.06200 41.01200
C  2.99000 54.35500 42.37100
N  7.35600 51.94500 40.59600
C  6.99400 50.69800 40.97300
C  8.06300 49.58800 40.45600
C  9.32600 50.54400 40.42400
C  8.67500 51.93600 40.31800
C  10.40100 50.27900 41.56700
C  7.80200 48.86300 39.00000
C  6.70100 49.54000 38.06700
H  7.30600 49.99400 36.75500
N  8.14600 54.92100 40.97000
C  9.25700 54.39100 40.35300
C  10.08600 55.46900 39.97900
C  9.42900 56.67700 40.25800
C  8.04600 56.26900 40.70300
C  11.48100 55.32300 39.29600
C  9.99500 58.05600 40.01200
O  11.16000 58.29400 39.72800
C  9.09600 59.13900 40.10900
N  5.05100 55.39400 41.51500
C  5.59800 56.66000 41.44600
C  4.54600 57.68400 41.79500
C  3.19500 56.85000 41.88200
C  3.78000 55.43300 41.98900
C  4.86400 58.64100 42.89800
C  2.30700 56.96900 40.64200
C  0.99700 57.74500 40.83100
N  4.72600 52.63600 41.95200
C  3.40100 52.99600 42.33700
C  2.73000 51.78200 42.86100
C  3.69700 50.73900 42.53500
C  4.81400 51.29300 41.95200
C  1.46700 51.63600 43.56900
C  3.69100 49.34700 42.49800
O  2.87900 48.50400 42.86700
C  5.08700 49.06600 41.83300
C  4.79100 48.28500 40.65500
O  3.90500 48.50300 39.82200
O  5.54300 47.10500 40.68900
C  5.24400 46.19700 39.57400
H  10.49400 52.83600 39.99800
H  7.03300 58.14200 40.96600
H  2.02000 54.67600 42.75800
H  8.26000 48.86600 41.24900
H  9.94000 50.23800 39.57700
H  10.79100 51.18300 42.03400
H  11.34400 49.92000 41.15500
H  9.98900 49.60900 42.32100
H  7.49200 47.83500 39.18600
H  8.75300 48.89000 38.46700
H  6.28900 50.40700 38.58300
H  5.87600 48.85100 37.88400
H  11.52000 54.24800 39.12200
H  12.28300 55.64800 39.95900
H  11.57800 55.83200 38.33800
H  8.17300 58.88200 39.58900
H  9.57700 60.03300 39.71400
H  9.00500 59.33300 41.17800
H  4.40900 58.27000 40.88600
H  2.69400 57.17200 42.79500
H  5.94700 58.55700 42.97800
H  4.46000 58.28400 43.84600
H  4.40800 59.58200 42.59200
H  1.96400 55.99900 40.28200
H  2.78700 57.37300 39.75100
H  0.96200 58.56700 40.11500
H  0.94000 58.09700 41.86100
H  0.14400 57.11900 40.57100
H  1.45100 51.04400 44.48500
H  0.77200 51.10100 42.92200
H  1.28300 52.68000 43.81900
H  5.56200 48.34700 42.50000
H  4.34800 45.57700 39.59600
H  6.13000 45.57800 39.43400
H  5.22000 46.83500 38.69100

