158

Mg 42.96600 41.77200 26.71800
C  42.09100 44.00400 29.18300
C  44.15600 39.62700 29.12100
C  44.17500 39.76100 24.27700
C  42.26600 44.34100 24.39400
N  43.17500 41.86600 28.95200
C  42.47100 42.76200 29.70700
C  42.38300 42.33600 31.21000
C  43.15900 40.95400 31.15500
C  43.60800 40.81000 29.67100
C  44.34000 40.74000 32.16100
C  40.92900 42.41700 31.82700
C  40.60300 41.59000 33.04400
H  40.10700 42.19200 34.38200
N  43.95800 39.91000 26.70000
C  44.37400 39.23300 27.80400
C  45.09800 38.00000 27.41900
C  44.81900 37.87800 26.00100
C  44.26400 39.22400 25.58300
C  45.83700 37.04300 28.40700
C  45.01700 36.81400 24.97400
O  44.68700 36.96600 23.82900
C  45.49800 35.41400 25.48100
N  43.26400 42.02900 24.70100
C  43.70600 41.00700 23.90100
C  43.66000 41.39900 22.48800
C  42.86300 42.72300 22.52000
C  42.73000 43.07900 23.96500
C  45.10200 41.43500 21.90900
C  41.45900 42.75100 21.77100
C  40.50000 41.66700 22.05100
N  42.47000 43.80400 26.73600
C  42.12100 44.70000 25.76900
C  41.57300 45.90700 26.22200
C  41.52900 45.66900 27.60800
C  42.12100 44.40500 27.85900
C  41.19800 47.15400 25.39700
C  41.18900 46.30200 28.86300
O  40.67500 47.37400 29.13000
C  41.60700 45.27800 29.93100
C  42.48000 45.95000 30.93700
O  43.56600 46.48000 30.68000
O  42.02800 45.91200 32.18400
C  42.86700 46.09000 33.38900
H  44.34400 38.86600 29.88100
H  44.51300 39.17400 23.42000
H  42.04800 45.08600 23.62600
H  42.95900 43.10200 31.72900
H  42.46900 40.16300 31.44600
H  45.38000 40.59600 31.86900
H  44.26100 39.91700 32.87100
H  44.40800 41.68500 32.69900
H  40.23300 42.18900 31.01900
H  40.84900 43.46200 32.12700
H  41.38300 40.90300 33.37200
H  39.78400 40.97800 32.66700
H  45.19500 36.17600 28.56600
H  46.12000 37.55000 29.32900
H  46.78600 36.74200 27.96500
H  45.33700 34.62200 24.75000
H  44.96300 35.30400 26.42500
H  46.57800 35.53200 25.57100
H  43.11300 40.67900 21.87900
H  43.43800 43.45300 21.95000
H  45.47800 42.43600 22.12000
H  44.95700 41.19400 20.85500
H  45.77100 40.72500 22.39400
H  41.79800 42.63300 20.74200
H  41.04800 43.75600 21.85800
H  40.93500 40.99800 22.79400
H  40.26800 41.10700 21.14600
H  39.53700 41.99500 22.44400
H  42.01300 47.81400 25.10300
H  40.53200 47.70300 26.06200
H  40.58300 46.87900 24.54000
H  40.75400 45.02700 30.56100
H  43.95600 46.10500 33.36100
H  42.59800 45.29200 34.08100
H  42.52700 47.05300 33.77100
Mg 26.91200 50.66900 26.21300
C  24.86300 51.96400 28.76700
C  29.14800 49.69400 28.57900
C  29.00700 49.89000 23.84200
C  24.68800 52.11800 23.91800
N  26.89600 50.73700 28.44200
C  25.96900 51.29200 29.29900
C  26.34700 51.01800 30.75700
C  27.72700 50.18900 30.66700
C  27.89400 50.14400 29.09200
C  28.88000 50.87700 31.39100
C  25.16800 50.50000 31.68600
C  25.61900 49.90200 33.03100
H  25.64900 50.73800 34.41700
N  28.89900 49.98900 26.24200
C  29.59800 49.61300 27.27300
C  30.87500 49.15600 26.87500
C  30.90100 49.17900 25.47500
C  29.60800 49.71800 25.09400
C  31.82300 48.64500 27.89300
C  31.91600 48.64200 24.42000
O  31.65500 48.73500 23.25500
C  33.29500 48.25400 24.81600
N  26.97700 51.18200 24.18200
C  27.80800 50.45400 23.38700
C  27.43400 50.41300 21.89600
C  26.00800 51.05300 21.96000
C  25.85200 51.49000 23.44600
C  28.45400 51.21300 21.09700
C  24.93800 50.06100 21.50200
C  23.81500 50.60300 20.58900
N  25.12500 51.82500 26.25500
C  24.36200 52.39500 25.23300
C  23.25700 53.13500 25.78500
C  23.43800 53.01400 27.21100
C  24.56200 52.15700 27.42300
C  22.16200 53.79300 24.99800
C  22.93400 53.40800 28.51900
O  22.03000 54.15800 28.83900
C  23.84200 52.75900 29.55900
C  24.25700 53.91700 30.42400
O  25.23900 54.61600 30.14600
O  23.50900 54.01800 31.55000
C  23.88600 54.90600 32.64000
H  29.62300 49.12300 29.37900
H  29.52300 49.41300 23.00700
H  23.87100 52.43300 23.26500
H  26.60100 52.00700 31.13900
H  27.60200 49.20800 31.12600
H  29.50000 51.49000 30.73600
H  29.50400 50.19300 31.96600
H  28.41100 51.51700 32.13800
H  24.52600 49.80400 31.14600
H  24.70600 51.45500 31.93500
H  26.62200 49.49100 32.92300
H  25.04600 48.99400 33.22300
H  31.48000 49.09900 28.82200
H  32.84100 48.93700 27.63300
H  31.85900 47.56400 28.02700
H  33.79000 48.97500 25.46600
H  33.84800 48.26000 23.87700
H  33.13600 47.24500 25.19800
H  27.40500 49.38700 21.52800
H  26.04700 51.95600 21.35200
H  28.94300 52.05000 21.59400
H  27.95200 51.61600 20.21700
H  29.27300 50.51500 20.92200
H  24.55500 49.53100 22.37400
H  25.40800 49.18500 21.05600
H  23.47600 49.79300 19.94200
H  24.18600 51.42500 19.97800
H  22.88200 50.83900 21.10000
H  21.28000 53.61300 25.61200
H  21.98700 53.26000 24.06300
H  22.46400 54.83300 24.87900
H  23.17800 52.03600 30.03400
H  24.56900 55.71300 32.37800
H  24.48400 54.29300 33.31500
H  23.10400 55.34300 33.26200

