158

Mg 47.29100 24.59700 28.82600
C  48.24100 26.88600 31.22600
C  46.37300 22.50700 31.47000
C  47.05400 22.07100 26.67000
C  48.76400 26.57700 26.46700
N  47.26900 24.71500 31.09600
C  47.76700 25.74800 31.80500
C  47.45400 25.69900 33.25300
C  47.16900 24.15400 33.34300
C  46.83900 23.77400 31.91700
C  48.24300 23.33200 34.10100
C  46.25500 26.63300 33.62500
C  46.33700 27.38800 34.92000
H  46.96100 26.71800 36.27500
N  46.71100 22.66100 29.02700
C  46.28200 22.01200 30.17000
C  45.88700 20.68000 29.87100
C  45.95900 20.57900 28.44000
C  46.59200 21.76300 27.97700
C  45.39900 19.66600 30.84700
C  45.55000 19.38300 27.58000
O  45.62700 19.43200 26.38700
C  45.09200 18.15900 28.13300
N  47.69800 24.37800 26.79000
C  47.56600 23.24300 26.08400
C  47.90800 23.34800 24.61100
C  48.23000 24.88000 24.51900
C  48.32200 25.30000 26.02700
C  49.12400 22.49800 24.28500
C  47.22300 25.56400 23.56900
C  45.78500 25.81800 23.99300
N  48.26400 26.28700 28.75600
C  48.68100 27.12500 27.71300
C  49.21100 28.38400 28.17300
C  49.12400 28.32800 29.58300
C  48.52700 27.03200 29.89700
C  49.95300 29.31400 27.42100
C  49.44700 28.95300 30.83400
O  50.14900 29.88500 30.99600
C  48.78300 28.12000 31.97500
C  49.70400 28.00000 33.09500
O  50.62600 27.17300 33.21400
O  49.32600 28.94000 34.01100
C  49.97900 28.97300 35.32400
H  46.21300 21.82800 32.31100
H  46.83500 21.34200 25.88700
H  49.25100 27.19200 25.70700
H  48.33600 25.98200 33.82800
H  46.29000 24.03900 33.97800
H  48.98600 23.98600 34.55700
H  48.81300 22.82200 33.32400
H  47.82400 22.58500 34.77500
H  45.39700 25.99300 33.83100
H  46.04600 27.25800 32.75700
H  45.27500 27.52700 35.12200
H  46.89000 28.31200 34.75300
H  45.60700 19.96900 31.87300
H  45.90000 18.69900 30.79400
H  44.31000 19.62100 30.83700
H  45.87500 17.82000 28.81100
H  44.98800 17.37900 27.37900
H  44.13100 18.23200 28.64100
H  47.05000 23.09800 23.98700
H  49.24900 24.92600 24.13400
H  48.97300 21.58700 24.86500
H  50.11200 22.87900 24.54300
H  49.06800 22.49100 23.19700
H  47.21000 24.98800 22.64400
H  47.67100 26.48200 23.18900
H  45.76900 26.89900 23.85300
H  45.58700 25.51400 25.02000
H  44.95600 25.47300 23.37500
H  50.69800 28.76500 26.84500
H  50.47200 29.99100 28.09900
H  49.30300 29.89800 26.77000
H  47.86900 28.61700 32.30200
H  49.36700 28.48600 36.08400
H  50.18500 29.96400 35.72800
H  50.93000 28.44500 35.26300
Mg 26.86100 49.50200 27.39800
C  24.86700 50.96800 29.92500
C  29.25200 48.80800 29.77800
C  28.79100 48.46300 24.91200
C  24.54200 50.74700 25.05900
N  26.97000 49.76900 29.56600
C  26.04700 50.35000 30.40900
C  26.55900 50.31400 31.89000
C  27.99600 49.79400 31.78800
C  28.08700 49.46700 30.26800
C  29.16500 50.72800 32.28500
C  25.62100 49.45100 32.90300
C  25.07000 50.32500 34.11200
H  24.99700 49.59300 35.43300
N  28.76000 48.61100 27.35300
C  29.50500 48.35000 28.44500
C  30.66900 47.62900 27.99300
C  30.65800 47.62800 26.60400
C  29.36400 48.23200 26.22900
C  31.66800 46.98100 28.91500
C  31.63800 47.15900 25.54400
O  31.48600 47.27700 24.32700
C  32.95900 46.70800 26.00100
N  26.80500 49.86000 25.24400
C  27.66900 49.24200 24.48600
C  27.27700 49.32200 23.03800
C  25.82300 49.94400 22.97700
C  25.64200 50.12200 24.52300
C  28.31800 49.92700 22.02500
C  24.73100 49.08600 22.24500
C  24.17600 47.82300 23.01700
N  25.13300 50.72200 27.40200
C  24.31700 51.14000 26.40300
C  23.19200 51.93000 26.93000
C  23.34000 51.88600 28.31600
C  24.55600 51.16700 28.57100
C  22.07000 52.66300 26.21400
C  22.73500 52.21600 29.55900
O  21.75900 52.87200 29.88200
C  23.63800 51.58500 30.66100
C  23.97200 52.61200 31.60700
O  24.93400 53.35600 31.61400
O  23.04300 52.56400 32.60800
C  23.31300 53.34600 33.79300
H  30.02300 48.55500 30.50900
H  29.37300 47.96700 24.13300
H  23.66500 51.06400 24.49200
H  26.58700 51.37600 32.13200
H  28.23100 48.90800 32.37900
H  29.60700 51.22000 31.41900
H  29.91200 50.07000 32.72900
H  28.94300 51.46900 33.05200
H  26.07800 48.57600 33.36500
H  24.79400 49.02500 32.33500
H  24.07900 50.65000 33.79600
H  25.63500 51.24200 34.28300
H  31.29800 47.05700 29.93700
H  32.70600 47.28800 28.78200
H  31.61200 45.90600 28.74500
H  33.28900 47.53000 26.63600
H  33.63100 46.59200 25.15100
H  32.88100 45.80500 26.60600
H  27.16400 48.31200 22.64500
H  25.73500 50.93600 22.53500
H  29.02200 50.56100 22.56400
H  27.90700 50.54600 21.22800
H  28.86000 49.11800 21.53600
H  25.11600 48.65700 21.32000
H  23.80400 49.63200 22.07100
H  23.33500 48.09400 23.65500
H  25.05300 47.54700 23.60200
H  23.92200 47.06500 22.27600
H  21.95600 52.07600 25.30200
H  22.37500 53.65900 25.89300
H  21.20400 52.54100 26.86400
H  23.13800 50.78900 31.21300
H  24.37400 53.43700 34.02700
H  22.75300 52.84600 34.58300
H  22.89400 54.35000 33.72300

