158

Mg 43.71000 4.40100 47.42400
C  41.58200 7.08200 46.90600
C  41.00900 2.20300 47.11700
C  45.85600 1.80200 47.24300
C  46.44900 6.58700 47.26400
N  41.55600 4.64600 46.88800
C  40.85900 5.87100 46.72400
C  39.36000 5.56500 46.34800
C  39.30500 4.02100 46.53900
C  40.69800 3.58400 46.77400
C  38.25300 3.57600 47.66200
C  39.07700 5.98900 44.87600
C  37.85300 6.89100 44.59500
H  37.21200 6.64100 43.21000
N  43.43400 2.37000 47.27600
C  42.26000 1.65900 47.34400
C  42.50400 0.24500 47.20600
C  43.89100 0.09900 47.21100
C  44.47200 1.48000 47.19200
C  41.41500 -0.69600 47.20100
C  44.63000 -1.19600 47.03600
O  44.07300 -2.26700 46.76100
C  46.11800 -1.36200 47.14600
N  45.79100 4.19300 47.25600
C  46.44000 3.03700 47.30000
C  47.94100 3.16100 47.56600
C  48.15200 4.68500 47.51000
C  46.75200 5.19700 47.29400
C  48.71800 2.36500 48.72100
C  49.20500 5.13900 46.37800
C  50.68100 5.28500 46.73000
N  43.94000 6.42700 47.25200
C  45.10700 7.13800 47.16200
C  44.75300 8.51900 47.06400
C  43.36600 8.56600 47.02700
C  42.94400 7.24900 47.07900
C  45.72800 9.67800 46.83400
C  42.23000 9.43000 46.88800
O  42.19500 10.62900 46.89600
C  41.00500 8.49300 46.82000
C  40.07800 9.06000 47.88100
O  40.00800 8.66800 49.04200
O  39.16700 9.94600 47.27800
C  38.14600 10.62200 48.08300
H  40.16700 1.55800 46.85900
H  46.55000 0.96900 47.36800
H  47.17800 7.40000 47.23700
H  38.79500 6.15800 47.06600
H  38.86700 3.56900 45.64900
H  37.55000 4.37500 47.89600
H  38.85300 3.34000 48.54000
H  37.79400 2.67800 47.24800
H  39.10200 5.13300 44.20300
H  39.90100 6.66100 44.63800
H  38.06900 7.95900 44.64000
H  37.12900 6.67700 45.38000
H  41.72300 -1.64400 46.76000
H  40.55600 -0.41400 46.59300
H  41.12100 -0.78900 48.24700
H  46.51600 -0.82000 46.28800
H  46.43400 -2.39900 47.26100
H  46.38100 -0.95400 48.12200
H  48.42800 2.81800 46.65300
H  48.49000 5.02500 48.48800
H  49.34600 1.62300 48.22800
H  48.05900 1.92100 49.46700
H  49.48600 3.03200 49.11300
H  48.95400 6.16400 46.10700
H  49.11100 4.45000 45.53900
H  50.97900 4.27500 47.01100
H  50.80300 5.83300 47.66400
H  51.25300 5.76800 45.93800
H  45.09000 10.54500 47.00300
H  46.08000 9.76200 45.80600
H  46.50800 9.82200 47.58200
H  40.64700 8.59000 45.79500
H  37.82400 9.95500 48.88300
H  37.24500 10.65400 47.47100
H  38.59700 11.55500 48.41900
Mg 36.86100 49.10000 24.60900
C  36.96100 47.42300 27.64300
C  34.89700 51.57600 26.17100
C  36.31600 50.54900 21.69400
C  38.34000 46.37300 23.11700
N  36.14000 49.54000 26.69900
C  36.30300 48.67000 27.72300
C  35.79800 49.24300 29.03000
C  35.08400 50.54500 28.56800
C  35.39400 50.60800 27.08100
C  33.60100 50.77700 29.02600
C  37.00200 49.41300 30.01500
C  36.76800 49.19200 31.59400
H  35.28300 49.07800 32.03200
N  35.84300 50.85400 24.09000
C  35.11600 51.70700 24.79400
C  34.64100 52.81700 23.98200
C  35.17400 52.60300 22.65600
C  35.84200 51.30000 22.76500
C  33.70600 53.91100 24.53100
C  34.86300 53.37900 21.38300
O  35.22500 53.02000 20.28600
C  34.20800 54.74500 21.50500
N  37.30800 48.52600 22.69300
C  36.95100 49.25600 21.66200
C  37.32500 48.61900 20.32300
C  38.23700 47.40300 20.71900
C  37.94100 47.35000 22.29000
C  36.08000 48.14300 19.47700
C  39.78500 47.71100 20.30400
C  40.84000 48.06500 21.38800
N  37.62500 47.25700 25.22800
C  38.06900 46.19100 24.48000
C  38.29000 44.98600 25.27700
C  37.83800 45.47100 26.57200
C  37.51500 46.81900 26.45200
C  38.91100 43.70000 24.71300
C  37.69400 45.15800 27.90800
O  37.71100 44.04000 28.43600
C  37.19400 46.34200 28.75600
C  36.00600 45.84400 29.52300
O  34.82000 45.78600 29.13200
O  36.48300 45.41200 30.77400
C  35.44200 44.75000 31.68400
H  34.28600 52.30700 26.70300
H  36.11400 50.91100 20.68400
H  38.78900 45.54200 22.57000
H  35.08900 48.51000 29.41500
H  35.58200 51.38900 29.04600
H  33.47900 51.78700 29.41800
H  33.36000 50.07300 29.82200
H  32.85600 50.64100 28.24200
H  37.46400 50.39000 29.86900
H  37.78800 48.73800 29.67600
H  37.28700 49.96000 32.16700
H  37.27100 48.25300 31.82500
H  34.18800 54.78000 24.08300
H  33.76100 53.99800 25.61600
H  32.67500 53.81100 24.19300
H  33.23800 54.66400 21.99600
H  34.24500 55.26800 20.55000
H  34.88600 55.26500 22.18100
H  37.89300 49.27700 19.66500
H  37.79200 46.48500 20.33400
H  35.25300 48.37100 20.15000
H  36.01800 47.09100 19.19900
H  36.03300 48.85000 18.64900
H  39.81200 48.55200 19.61200
H  40.06600 46.84900 19.69900
H  41.72500 47.45000 21.22200
H  40.45300 48.04300 22.40600
H  41.16200 49.10400 21.31400
H  39.53100 43.78500 23.82100
H  38.02600 43.21600 24.30100
H  39.39300 43.10800 25.49100
H  37.95300 46.53900 29.51200
H  34.77000 45.52800 32.04700
H  35.80800 44.28000 32.59700
H  34.96300 44.02300 31.02900

