158

Mg -1.61400 17.76900 27.48000
C  -2.46400 15.53400 30.12400
C  -2.57400 20.32700 29.52700
C  -1.90200 19.80700 24.79900
C  -1.48000 15.04400 25.26000
N  -2.42000 17.79700 29.50300
C  -2.46500 16.83600 30.46200
C  -2.66800 17.32900 31.87700
C  -2.67600 18.92600 31.56100
C  -2.45300 19.03100 30.10600
C  -3.93600 19.64800 32.04800
C  -1.48100 17.00100 32.84200
C  -1.25700 17.99600 34.04400
H  -0.73700 17.46800 35.35100
N  -2.05700 19.80100 27.21800
C  -2.39500 20.68200 28.17400
C  -2.54100 21.99700 27.65500
C  -2.28200 21.86100 26.23800
C  -2.02800 20.47600 26.06700
C  -2.85400 23.24200 28.42300
C  -2.16800 22.99100 25.13600
O  -1.93000 22.79700 23.94000
C  -2.21700 24.37900 25.56300
N  -1.87000 17.47200 25.34400
C  -1.78600 18.51500 24.50100
C  -1.56000 18.02900 23.05400
C  -1.13900 16.51700 23.25900
C  -1.49600 16.31300 24.72400
C  -2.76800 18.16500 22.11600
C  0.38500 16.21200 22.87800
C  1.38900 16.59300 23.89200
N  -1.80200 15.57700 27.65500
C  -1.73100 14.68900 26.64500
C  -2.13700 13.42700 27.22100
C  -2.33100 13.64100 28.62900
C  -2.18500 15.01900 28.78500
C  -2.20400 12.09200 26.56000
C  -2.69700 13.09700 29.86800
O  -2.86700 11.94400 30.16700
C  -2.75400 14.26700 30.90700
C  -1.72400 13.90500 31.94500
O  -0.51800 14.19300 31.98500
O  -2.35100 13.22400 32.93900
C  -1.49000 12.57400 33.87500
H  -2.76200 21.17400 30.19000
H  -1.77100 20.54300 24.00300
H  -1.44900 14.27900 24.48100
H  -3.61700 16.96300 32.26800
H  -1.75300 19.38300 31.91700
H  -3.61700 20.46100 32.70100
H  -4.56000 18.94400 32.59800
H  -4.60600 20.12200 31.33100
H  -0.63500 17.02400 32.15400
H  -1.55200 16.03000 33.33000
H  -2.21100 18.49300 34.21700
H  -0.50100 18.71000 33.71700
H  -3.16800 23.04200 29.44700
H  -3.75900 23.63900 27.96300
H  -1.93500 23.82800 28.45200
H  -3.11300 24.65100 26.12200
H  -2.10000 25.04800 24.71000
H  -1.41700 24.61700 26.26400
H  -0.77300 18.69700 22.70300
H  -1.73100 15.82500 22.66000
H  -3.59400 18.61700 22.66500
H  -3.05300 17.21700 21.65900
H  -2.52000 18.84400 21.30000
H  0.60800 16.55600 21.86800
H  0.45000 15.12400 22.86900
H  0.86600 16.98800 24.76300
H  1.97200 17.34000 23.35400
H  2.09600 15.82300 24.20100
H  -1.26000 11.72000 26.16000
H  -2.89000 12.10900 25.71300
H  -2.61400 11.41400 27.30900
H  -3.68600 14.30500 31.47000
H  -1.37600 13.20400 34.75600
H  -0.46800 12.35700 33.56200
H  -1.85900 11.61600 34.24200
Mg 26.21300 1.13500 29.75700
C  28.44900 0.92300 32.52100
C  23.68700 1.41100 32.16800
C  24.10600 1.37100 27.21100
C  28.75600 0.26900 27.64900
N  26.11600 0.94300 32.10400
C  27.13800 1.10900 32.98000
C  26.68200 1.30600 34.43200
C  25.17600 1.41800 34.20300
C  24.94400 1.34200 32.71100
C  24.33100 0.46100 35.01800
C  27.29600 2.54600 35.15600
C  27.52600 2.44000 36.66800
H  26.88700 3.46200 37.59500
N  24.12400 1.34000 29.70800
C  23.27400 1.41500 30.76200
C  21.95200 1.59700 30.25300
C  22.06900 1.62300 28.85100
C  23.50600 1.43100 28.52200
C  20.76100 1.63100 31.19200
C  20.98100 1.57300 27.84100
O  21.24500 1.52000 26.66400
C  19.61100 1.73800 28.30300
N  26.33500 0.72200 27.61400
C  25.38300 1.07600 26.75500
C  25.81000 1.12500 25.36700
C  27.39200 0.85700 25.47900
C  27.52700 0.57800 27.02200
C  25.15700 0.13900 24.32500
C  28.34200 2.01800 25.12700
C  29.29300 1.70100 23.99400
N  28.24100 0.59300 30.00400
C  29.14300 0.19000 29.04200
C  30.35500 -0.19100 29.72700
C  30.21200 0.15000 31.12100
C  28.86600 0.61700 31.24100
C  31.58200 -0.53800 29.01500
C  30.76700 0.19200 32.38400
O  31.87100 -0.10000 32.82100
C  29.73300 0.77800 33.35200
C  29.69400 -0.03500 34.54300
O  29.09000 -1.10300 34.68300
O  30.56000 0.57600 35.52100
C  30.34500 -0.07100 36.83800
H  22.92100 1.53600 32.93700
H  23.49600 1.56700 26.32700
H  29.44800 -0.09000 26.88500
H  26.86100 0.39200 34.99800
H  24.91400 2.36100 34.68300
H  24.83700 -0.43500 35.37900
H  23.50000 0.03300 34.45800
H  23.94400 0.87300 35.94900
H  26.73800 3.47300 35.02500
H  28.28100 2.79300 34.76000
H  28.57300 2.45900 36.96900
H  27.20500 1.45300 37.00200
H  20.32900 2.63100 31.15400
H  21.00000 1.41700 32.23400
H  20.05600 0.84000 30.93600
H  19.37200 0.87800 28.92900
H  18.93100 1.90500 27.46800
H  19.61000 2.68600 28.84100
H  25.49100 2.12500 25.07200
H  27.65600 -0.13600 25.11600
H  24.39500 -0.46500 24.81700
H  25.78700 -0.39700 23.61500
H  24.53000 0.72800 23.65600
H  28.96200 2.25500 25.99100
H  27.71100 2.84600 24.80500
H  29.26200 2.53500 23.29300
H  28.93700 0.86500 23.39100
H  30.31400 1.52000 24.32900
H  31.44200 -1.31000 28.25900
H  32.32900 -0.98500 29.67000
H  32.09900 0.35300 28.65900
H  30.02600 1.78900 33.63400
H  31.11200 -0.83100 36.98700
H  29.40800 -0.61900 36.93200
H  30.51500 0.62300 37.66200

