158

Mg 45.43300 5.00500 48.35500
C  43.48100 7.76800 47.78500
C  42.69900 3.09300 47.55500
C  47.45900 2.29800 48.35800
C  48.22500 7.04800 48.66000
N  43.31600 5.38800 47.64400
C  42.75900 6.59700 47.56000
C  41.31300 6.48100 47.19800
C  41.07800 4.92600 47.39000
C  42.46900 4.43700 47.58900
C  39.91500 4.42500 48.24000
C  40.94900 6.95900 45.66700
C  39.76900 7.92400 45.40100
H  38.98500 7.49300 44.08600
N  45.15000 2.97200 47.98600
C  43.93700 2.41000 47.70000
C  44.12700 0.98900 47.47300
C  45.50400 0.70600 47.64800
C  46.13600 1.96100 48.01600
C  43.04100 0.06900 47.24900
C  46.13300 -0.72500 47.53800
O  45.50500 -1.67900 47.26500
C  47.61500 -0.91700 47.74600
N  47.51700 4.70800 48.51900
C  48.03600 3.48800 48.59400
C  49.51300 3.54300 48.91500
C  49.81800 5.07200 48.92400
C  48.44300 5.65500 48.68800
C  49.80400 2.83700 50.26600
C  50.80800 5.53100 47.79900
C  52.19700 6.12100 48.29000
N  45.80100 7.00800 48.36300
C  46.96200 7.69600 48.54700
C  46.77800 9.14700 48.32900
C  45.35400 9.22300 48.10600
C  44.88700 7.87000 48.07900
C  47.85400 10.27900 48.43600
C  44.17000 10.11100 47.98900
O  44.05100 11.33600 48.01300
C  42.93300 9.16800 47.62300
C  41.83800 9.50500 48.57100
O  41.56000 8.87300 49.56800
O  41.09400 10.59400 48.08600
C  40.21900 11.05600 49.19000
H  41.77400 2.53100 47.41300
H  48.17200 1.47500 48.43100
H  49.07500 7.67600 48.93600
H  40.79000 7.12700 47.90300
H  40.85700 4.54700 46.39300
H  39.41400 5.32400 48.59900
H  40.07500 3.67200 49.01100
H  39.09700 3.97500 47.67700
H  40.76300 6.09500 45.03100
H  41.86600 7.42200 45.30300
H  40.10900 8.95900 45.38200
H  39.02900 7.75400 46.18300
H  42.77300 -0.19400 48.27200
H  43.39300 -0.82800 46.74000
H  42.14800 0.45500 46.75500
H  47.85500 -0.96600 48.80800
H  48.14300 -0.24100 47.07400
H  47.68600 -1.90300 47.28900
H  50.10100 3.05000 48.14100
H  50.15600 5.56000 49.83800
H  49.73500 1.74900 50.24500
H  49.07300 3.25700 50.95700
H  50.76500 3.15000 50.67400
H  50.30300 6.11800 47.03200
H  51.08300 4.68800 47.16500
H  52.95000 5.33300 48.27300
H  52.09300 6.42800 49.33100
H  52.40300 6.93000 47.59000
H  48.85600 10.05100 48.07300
H  47.84600 10.35200 49.52300
H  47.56100 11.21000 47.95000
H  42.70600 9.42200 46.58800
H  39.46100 10.28300 49.31400
H  39.78400 12.00400 48.87600
H  40.86600 11.26400 50.04300
Mg -1.62200 34.95100 26.90600
C  -3.65000 33.06700 29.04400
C  -0.71500 36.99300 29.50200
C  -0.16300 37.05100 24.63000
C  -3.05100 33.29200 24.16200
N  -2.20300 35.10700 28.97700
C  -2.97800 34.12800 29.67600
C  -2.85300 34.42200 31.19800
C  -2.13700 35.86100 31.20000
C  -1.74600 36.06400 29.78500
C  -2.90700 37.06300 31.86000
C  -2.22400 33.30100 32.07600
C  -3.03300 32.48800 33.10000
H  -2.45400 32.42600 34.56000
N  -0.45500 36.75100 27.08900
C  -0.15800 37.32300 28.27300
C  0.71700 38.42600 27.99800
C  0.87000 38.49800 26.56100
C  0.07300 37.41600 25.99100
C  1.35500 39.27000 29.03900
C  1.73500 39.46800 25.74100
O  1.82500 39.45800 24.53400
C  2.39900 40.58800 26.48200
N  -1.49800 35.05500 24.66000
C  -0.89300 36.10800 23.96400
C  -1.20900 36.09800 22.49400
C  -2.01500 34.78100 22.35100
C  -2.18000 34.32300 23.82600
C  -1.94900 37.39400 22.08200
C  -1.41900 33.69000 21.42100
C  -0.48800 32.64200 21.97000
N  -2.91200 33.45400 26.60000
C  -3.50000 32.90800 25.43200
C  -4.43600 31.82400 25.77100
C  -4.53000 31.87000 27.21900
C  -3.58900 32.86800 27.66100
C  -5.09900 30.86100 24.82900
C  -5.20700 31.31800 28.36200
O  -6.16100 30.51600 28.36800
C  -4.51100 31.89800 29.55800
C  -5.67700 32.32200 30.44700
O  -6.20800 33.44500 30.50500
O  -5.97100 31.18700 31.19100
C  -6.97700 31.36200 32.21500
H  -0.31200 37.52800 30.36500
H  0.24300 37.77800 23.92400
H  -3.59800 32.66800 23.45200
H  -3.84500 34.59600 31.61300
H  -1.14600 35.74200 31.63800
H  -2.22300 37.66700 32.45700
H  -3.76700 36.74300 32.44900
H  -3.29600 37.70900 31.07200
H  -1.29300 33.60900 32.55100
H  -1.85200 32.58900 31.33900
H  -3.19400 31.45000 32.80900
H  -3.98200 33.02400 33.07800
H  1.36500 38.68300 29.95700
H  1.00200 40.30000 29.09200
H  2.41400 39.37000 28.80300
H  1.78900 41.16100 27.18100
H  2.74400 41.27000 25.70500
H  3.31700 40.19100 26.91500
H  -0.32000 36.19800 21.87100
H  -3.03100 34.84900 21.96000
H  -1.69400 38.21600 22.75100
H  -3.02700 37.41700 22.24000
H  -1.77500 37.71600 21.05500
H  -1.10100 34.13200 20.47700
H  -2.28200 33.14500 21.03900
H  -1.00800 31.70000 22.14300
H  -0.15200 32.96500 22.95600
H  0.40500 32.42300 21.38500
H  -5.40800 29.97500 25.38500
H  -4.37500 30.61400 24.05300
H  -5.95700 31.32100 24.33900
H  -4.03600 31.06900 30.08300
H  -6.66800 31.89000 33.11600
H  -7.42400 30.45500 32.62400
H  -7.77800 32.01700 31.87300

