158

Mg 54.72400 22.87400 45.00400
C  52.64600 25.64100 44.39900
C  52.23200 20.77500 44.00800
C  57.06900 20.46800 44.81400
C  57.34700 25.27100 45.81100
N  52.79500 23.18400 44.07600
C  52.01700 24.37700 44.05200
C  50.56300 24.05400 43.48700
C  50.42700 22.58800 44.02200
C  51.90400 22.08800 44.00000
C  49.63400 22.31400 45.33400
C  50.39200 24.19200 41.95800
C  49.01600 24.81700 41.58000
H  48.19800 24.26800 40.39000
N  54.61200 20.89700 44.50000
C  53.52800 20.19700 44.13500
C  53.79000 18.80900 44.14300
C  55.18700 18.68100 44.30900
C  55.70700 20.07100 44.49600
C  52.71200 17.81500 43.98600
C  55.97900 17.33000 44.30500
O  55.45300 16.21300 44.19900
C  57.53300 17.34400 44.27200
N  56.94000 22.89300 45.21300
C  57.60200 21.70700 45.20700
C  58.99100 21.88400 45.74500
C  59.13100 23.46500 45.93200
C  57.71900 23.91800 45.62200
C  59.47200 20.89800 46.88900
C  60.23500 24.15700 45.08700
C  61.39900 24.91800 45.75300
N  55.02300 24.96700 45.11800
C  56.07400 25.79700 45.59600
C  55.65200 27.11500 45.58700
C  54.31700 27.08500 45.27000
C  53.99400 25.77000 44.85400
C  56.47100 28.37700 45.85200
C  53.19200 27.92800 45.13400
O  53.03100 29.09100 45.41800
C  52.07200 27.00400 44.42600
C  51.93300 27.57400 43.08700
O  52.62900 27.54200 42.12300
O  50.65100 28.10400 43.02400
C  50.19500 28.68600 41.80600
H  51.39000 20.10300 43.83000
H  57.88500 19.74300 44.81000
H  58.08700 26.03600 46.05500
H  49.92100 24.79000 43.97100
H  49.81700 22.03400 43.30700
H  49.09700 23.19700 45.68200
H  50.25000 21.97100 46.16500
H  48.93600 21.50700 45.10900
H  50.55700 23.19800 41.54100
H  51.19300 24.83300 41.59000
H  49.15200 25.87900 41.37800
H  48.29300 24.79900 42.39400
H  52.99400 16.77900 43.80000
H  52.00000 18.14200 43.22800
H  52.16000 17.87900 44.92300
H  57.85100 17.96600 43.43600
H  57.90400 16.32600 44.15100
H  57.93800 17.82800 45.16000
H  59.65000 21.62800 44.91600
H  59.30400 23.62700 46.99600
H  59.91600 21.36200 47.77000
H  60.30100 20.23700 46.63800
H  58.60900 20.34500 47.26300
H  59.85000 24.82500 44.31700
H  60.79600 23.39500 44.54500
H  61.20100 25.02200 46.82000
H  61.49000 25.86600 45.22300
H  62.34300 24.37800 45.68500
H  55.75000 29.04600 46.32100
H  57.09600 28.74700 45.03800
H  57.29500 28.09000 46.50600
H  51.08300 26.88600 44.86900
H  50.39900 27.97400 41.00600
H  50.68000 29.65200 41.66900
H  49.11800 28.82000 41.89900
Mg 26.30300 49.97300 25.54000
C  24.48800 51.30300 28.25800
C  28.70900 48.78500 27.74700
C  27.93900 48.68200 22.93300
C  24.04800 51.63700 23.38100
N  26.56400 50.02900 27.78000
C  25.65600 50.61800 28.63700
C  26.19500 50.44400 30.01300
C  27.67000 49.95800 29.87600
C  27.66800 49.55500 28.40300
C  28.67900 51.10600 30.09500
C  25.26200 49.46800 30.83200
C  24.63400 50.14000 32.08900
H  25.52900 50.44800 33.35200
N  27.98500 48.78500 25.36700
C  28.76600 48.40900 26.34500
C  29.93500 47.76500 25.69700
C  29.60900 47.51300 24.38000
C  28.41900 48.32300 24.16000
C  31.27800 47.36000 26.40600
C  30.41400 46.76100 23.30000
O  30.04300 46.51200 22.18200
C  31.79800 46.13100 23.62800
N  26.05400 50.25200 23.42800
C  26.87000 49.56500 22.53900
C  26.52600 49.88600 21.09300
C  25.22700 50.77700 21.25500
C  25.08100 50.92700 22.79300
C  27.63500 50.50300 20.27600
C  23.90900 50.18400 20.61300
C  23.24800 48.92200 21.17800
N  24.55200 51.20100 25.74800
C  23.80100 51.83500 24.78300
C  22.67000 52.47600 25.45600
C  22.91800 52.36700 26.81400
C  24.06400 51.56200 26.96700
C  21.56800 53.19100 24.75300
C  22.44200 52.78300 28.11100
O  21.49600 53.45300 28.44700
C  23.48800 52.14900 29.06000
C  24.07400 53.27500 29.90900
O  25.07300 53.89100 29.67200
O  23.31600 53.53700 31.02700
C  23.80700 54.54300 32.03000
H  29.52000 48.34700 28.33300
H  28.44900 48.29600 22.04800
H  23.37400 52.11300 22.66600
H  26.21100 51.38400 30.56500
H  27.92800 49.12900 30.53400
H  29.33500 50.78200 30.90300
H  28.22100 52.02800 30.45400
H  29.23200 51.29400 29.17500
H  25.91000 48.68000 31.21500
H  24.54000 48.87300 30.27300
H  23.79500 49.53700 32.43700
H  24.12800 51.03400 31.72300
H  31.35700 47.93900 27.32700
H  32.17100 47.48900 25.79500
H  31.44700 46.31600 26.67000
H  31.99100 45.47200 22.78200
H  31.73900 45.49600 24.51200
H  32.65700 46.79800 23.69800
H  25.98000 49.05500 20.64800
H  25.45800 51.78800 20.92000
H  28.60300 50.43100 20.77200
H  27.34900 51.52600 20.03300
H  27.68700 50.08200 19.27200
H  24.22900 50.03800 19.58200
H  23.25300 51.05200 20.55300
H  23.91500 48.35400 21.82600
H  22.99300 48.28700 20.33000
H  22.29500 49.15300 21.65300
H  21.17800 52.61200 23.91600
H  21.80400 54.16800 24.33100
H  20.76300 53.32500 25.47500
H  22.89600 51.57300 29.77200
H  23.02500 54.83300 32.73200
H  24.12600 55.44300 31.50300
H  24.53600 54.08200 32.69600

