158

Mg 26.51100 0.43000 29.71700
C  28.17200 0.16300 32.77900
C  23.63500 1.07800 31.49900
C  24.66700 0.40900 26.73700
C  29.19600 -0.99600 28.00400
N  25.99400 0.62600 31.90700
C  26.86900 0.58900 32.98500
C  26.21100 0.94100 34.27500
C  24.76600 1.35200 33.81200
C  24.78800 0.98900 32.31400
C  23.64300 0.42500 34.47800
C  26.94700 2.04800 35.10700
C  27.45700 1.80000 36.50000
H  27.21500 2.90300 37.48700
N  24.46500 0.78500 29.15400
C  23.47600 0.96700 30.06500
C  22.22800 1.16600 29.38200
C  22.53800 1.09700 28.01200
C  23.96100 0.75100 27.94100
C  20.92900 1.50700 29.98100
C  21.62300 1.29600 26.76500
O  22.00100 1.01900 25.64600
C  20.31000 1.85900 26.91000
N  26.85600 -0.21600 27.65900
C  25.99400 -0.06500 26.64800
C  26.59600 -0.27400 25.22300
C  28.06000 -0.79900 25.70200
C  28.06100 -0.70400 27.17700
C  25.87100 -1.23500 24.25400
C  29.30300 -0.10800 25.11400
C  29.28900 1.37000 25.06100
N  28.37200 -0.30900 30.26100
C  29.33800 -0.80600 29.44300
C  30.44700 -1.14500 30.26600
C  30.09000 -0.67800 31.55800
C  28.74500 -0.20000 31.52000
C  31.65000 -1.79400 29.71900
C  30.53300 -0.50900 32.92700
O  31.59300 -0.89800 33.35300
C  29.32700 0.04600 33.81200
C  29.09300 -0.95600 34.88400
O  28.37600 -1.93500 34.85300
O  29.84700 -0.61700 35.94800
C  29.94100 -1.68500 36.94000
H  22.78100 1.49200 32.03800
H  24.35000 0.42100 25.69200
H  30.03900 -1.43400 27.46500
H  26.38400 0.02000 34.83100
H  24.39400 2.36800 33.94200
H  24.09200 -0.11200 35.31400
H  23.22000 -0.33100 33.81800
H  22.81100 1.05500 34.79200
H  26.23700 2.87500 35.08200
H  27.81800 2.44800 34.58800
H  28.54400 1.75600 36.42000
H  26.85500 0.95600 36.83600
H  20.88700 1.30000 31.05000
H  20.12100 0.94800 29.50900
H  20.72200 2.55500 29.76300
H  20.03400 2.34600 25.97500
H  20.30100 2.60300 27.70700
H  19.69600 1.00700 27.20400
H  26.67800 0.71800 24.78000
H  28.18600 -1.85600 25.46500
H  24.91100 -1.47600 24.71100
H  26.44300 -2.15100 24.11000
H  25.61700 -0.82600 23.27600
H  29.25500 -0.42000 24.07100
H  30.15400 -0.59000 25.59500
H  28.60200 1.82600 25.77400
H  29.40600 1.73200 24.03900
H  30.28800 1.51100 25.47200
H  32.08500 -2.46800 30.45700
H  32.43600 -1.07500 29.48600
H  31.42100 -2.24400 28.75300
H  29.58400 0.96400 34.34100
H  29.33100 -1.53500 37.83100
H  30.93300 -1.63700 37.38800
H  29.78100 -2.67900 36.52100
Mg 45.66600 3.67400 47.07800
C  43.56200 6.71000 46.86500
C  42.67200 1.90700 46.75600
C  47.40800 1.02700 46.36600
C  48.33500 5.77600 46.66600
N  43.38900 4.23700 46.73700
C  42.81600 5.50200 46.81800
C  41.27700 5.40300 46.45700
C  40.98900 3.87300 46.61100
C  42.43400 3.28400 46.74000
C  40.00800 3.49800 47.75700
C  40.84000 6.03300 45.09100
C  41.88900 6.02400 43.94600
H  41.50500 6.09600 42.49200
N  45.15600 1.63900 46.84800
C  43.89200 1.13800 46.77000
C  44.04800 -0.26300 46.45500
C  45.43100 -0.62300 46.37100
C  46.06800 0.71200 46.50400
C  42.81700 -1.17000 46.36000
C  45.94500 -2.00300 46.07800
O  45.15700 -2.87900 45.86800
C  47.39000 -2.38600 46.03100
N  47.57900 3.42100 46.70900
C  48.11400 2.23300 46.51100
C  49.66500 2.27100 46.34900
C  49.94000 3.82300 46.25500
C  48.51700 4.43100 46.60300
C  50.38500 1.52500 47.45700
C  50.49200 4.27600 44.87700
C  52.02000 4.60500 44.79400
N  45.96600 5.84500 46.87000
C  47.12800 6.54200 46.70800
C  46.91400 7.96600 46.72200
C  45.50000 8.03500 46.82900
C  44.97200 6.74800 46.88900
C  47.97500 9.03800 46.52400
C  44.38800 9.01400 46.84900
O  44.36900 10.26000 46.81500
C  43.05200 8.12900 46.73000
C  42.20400 8.51000 47.84300
O  42.27800 8.00700 48.93800
O  41.19400 9.36400 47.46800
C  40.01700 9.59000 48.27000
H  41.85600 1.18100 46.75200
H  48.07700 0.19300 46.14300
H  49.21600 6.41900 46.60500
H  40.78000 5.95500 47.25500
H  40.54400 3.44600 45.71200
H  39.35800 4.34800 47.96500
H  40.47900 3.20400 48.69500
H  39.46800 2.57600 47.54300
H  40.47000 7.04100 45.28000
H  40.19600 5.30900 44.59200
H  42.58000 5.18300 44.00700
H  42.43100 6.96100 44.07000
H  42.71300 -1.47300 45.31800
H  41.87800 -0.78400 46.75800
H  43.01500 -2.11500 46.86500
H  47.91400 -1.97600 46.89500
H  47.79300 -1.95000 45.11700
H  47.45600 -3.47400 46.03700
H  49.79900 1.76800 45.39200
H  50.67300 4.05300 47.02900
H  49.87900 1.65700 48.41400
H  51.42000 1.85500 47.55100
H  50.45800 0.48200 47.15000
H  49.98000 5.22600 44.72400
H  50.21500 3.53900 44.12400
H  52.06000 5.65400 44.50100
H  52.61600 4.07700 44.04900
H  52.42800 4.39300 45.78200
H  48.46900 9.05900 47.49500
H  47.45500 9.98600 46.38200
H  48.70300 8.89900 45.72500
H  42.44500 8.16600 45.82600
H  39.65400 10.61200 48.16400
H  40.16800 9.56400 49.34900
H  39.30700 8.85900 47.88400

