158

Mg 46.84700 16.86300 28.04800
C  45.10100 16.20400 31.10500
C  49.10300 18.58200 30.02700
C  48.34300 17.90200 25.28000
C  44.16800 15.69200 26.34900
N  46.98600 17.33900 30.32800
C  46.27800 16.83700 31.42200
C  46.85400 17.38400 32.82200
C  48.00200 18.32700 32.31800
C  48.07300 18.03200 30.81000
C  48.01500 19.82700 32.82900
C  47.24500 16.15600 33.65600
C  46.55300 16.06100 35.06300
H  46.73300 17.21300 36.05900
N  48.49400 17.97200 27.69500
C  49.32100 18.51200 28.62400
C  50.50500 19.04200 27.96700
C  50.39300 18.87600 26.57600
C  49.06100 18.22600 26.43600
C  51.72200 19.51600 28.73900
C  51.30300 19.24200 25.44500
O  51.09900 19.09500 24.23100
C  52.53800 20.02200 25.73000
N  46.45000 16.68000 26.11400
C  47.09900 17.33300 25.11600
C  46.29700 17.20100 23.79200
C  45.10300 16.24600 24.07700
C  45.22500 16.22100 25.61200
C  45.96100 18.60500 23.24700
C  45.35000 14.82400 23.49300
C  44.59200 14.54600 22.23200
N  45.09000 15.94700 28.50600
C  44.09300 15.59300 27.72300
C  42.92800 15.15900 28.50400
C  43.30200 15.34800 29.87400
C  44.63300 15.82800 29.79800
C  41.65200 14.62000 27.89300
C  42.87300 15.22700 31.22300
O  41.82500 14.80900 31.64400
C  44.04700 15.82600 32.10300
C  43.50600 17.00500 32.81400
O  43.15300 18.00900 32.18200
O  43.24600 16.72200 34.13500
C  42.82100 17.91700 34.88400
H  49.83500 19.08300 30.66400
H  48.80300 18.11900 24.31300
H  43.35400 15.25500 25.76700
H  46.08200 17.98400 33.30400
H  48.85500 17.78600 32.72900
H  48.52700 20.14200 33.73800
H  46.96400 20.00400 33.05800
H  48.12200 20.46300 31.95000
H  48.29600 16.12000 33.94300
H  46.97300 15.23100 33.14800
H  47.00500 15.18700 35.53200
H  45.48200 15.86100 35.09400
H  52.59400 18.88600 28.56600
H  51.62000 19.51700 29.82400
H  51.92500 20.53800 28.41900
H  53.17100 19.64200 26.53200
H  52.34300 21.01600 26.13200
H  53.21300 20.18600 24.88900
H  46.97500 16.84000 23.01900
H  44.13000 16.66300 23.81700
H  46.49100 19.32000 23.87700
H  44.88600 18.78200 23.20700
H  46.30300 18.70300 22.21700
H  44.99200 14.07700 24.20200
H  46.43400 14.72500 23.42900
H  44.06000 13.61400 22.42400
H  45.24300 14.39300 21.37100
H  43.94800 15.36600 21.91500
H  40.95100 14.48700 28.71700
H  41.90600 13.65500 27.45500
H  41.25100 15.38100 27.22400
H  44.34400 15.12300 32.88100
H  41.89200 18.31100 34.47200
H  43.55700 18.71400 34.77600
H  42.55100 17.76700 35.93000
Mg -5.76400 25.20000 26.00100
C  -4.58600 26.79000 28.91600
C  -7.50900 23.14400 28.06000
C  -6.77100 23.58900 23.30500
C  -3.34100 26.87000 24.15100
N  -5.94200 24.97100 28.22100
C  -5.48300 25.78100 29.22000
C  -5.91100 25.36700 30.60600
C  -6.56400 24.00400 30.33800
C  -6.64400 23.95300 28.74300
C  -5.81600 22.70900 30.87600
C  -6.87600 26.34100 31.27400
C  -6.89100 26.57200 32.71100
H  -6.16100 25.51400 33.63300
N  -7.06900 23.72200 25.70200
C  -7.74300 23.06000 26.65400
C  -8.83300 22.21200 26.04000
C  -8.50300 22.22600 24.67400
C  -7.39300 23.18300 24.50100
C  -9.71000 21.45700 27.00200
C  -9.05900 21.38200 23.58400
O  -8.61700 21.29600 22.43600
C  -10.31100 20.63000 23.88500
N  -5.12000 25.22300 24.05200
C  -5.66500 24.45100 23.10100
C  -4.94600 24.51700 21.76300
C  -3.94500 25.61000 22.03700
C  -4.10800 25.92200 23.53000
C  -4.14200 23.21600 21.35900
C  -4.26400 26.91600 21.14300
C  -3.51200 27.04300 19.79600
N  -4.35100 26.70400 26.40500
C  -3.46700 27.29500 25.52100
C  -2.56600 28.19900 26.30700
C  -3.00200 28.03600 27.60200
C  -4.08100 27.12800 27.63500
C  -1.51700 28.93800 25.73100
C  -2.80800 28.48900 28.95100
O  -1.99200 29.31400 29.43500
C  -3.83100 27.74200 29.83700
C  -3.16200 27.02600 30.90500
O  -2.39400 26.09300 30.70000
O  -3.24400 27.67000 32.06600
C  -2.21200 27.41300 33.16100
H  -7.99900 22.47900 28.77500
H  -7.06100 23.11100 22.36700
H  -2.48900 27.24100 23.57600
H  -5.05200 25.27400 31.27100
H  -7.55700 23.92300 30.77900
H  -5.45500 22.06400 30.07500
H  -6.47500 22.11600 31.51000
H  -4.91700 23.04000 31.39600
H  -7.84300 25.97500 30.92800
H  -6.71800 27.25500 30.70100
H  -7.91300 26.54100 33.08900
H  -6.47000 27.53700 32.99200
H  -9.44700 20.54000 27.52800
H  -10.68100 21.10500 26.65500
H  -10.16600 22.14800 27.71100
H  -10.20600 19.55800 24.05700
H  -10.82600 20.72200 22.92900
H  -10.96800 21.12100 24.60200
H  -5.70100 24.72200 21.00400
H  -2.89600 25.38300 21.84600
H  -4.71700 22.61300 20.65600
H  -4.07700 22.61000 22.26200
H  -3.12400 23.43000 21.03200
H  -4.10900 27.87600 21.63500
H  -5.33500 26.85500 20.94600
H  -2.79600 27.86400 19.84500
H  -4.17300 27.03500 18.92900
H  -2.82100 26.21300 19.65400
H  -1.91800 29.92100 25.48300
H  -1.12200 28.57200 24.78300
H  -0.70100 29.22900 26.39200
H  -4.50300 28.44700 30.32500
H  -2.36900 26.46500 33.67500
H  -2.22900 28.33000 33.75100
H  -1.18200 27.44100 32.80600

