158

Mg 40.46900 9.06500 29.27800
C  42.14800 10.47500 32.10800
C  38.23800 7.62700 31.54500
C  38.86600 8.02900 26.63300
C  43.03000 10.45600 27.20700
N  40.28300 9.06500 31.67300
C  40.95600 9.82100 32.56200
C  40.38800 9.76700 33.98600
C  39.10600 8.87800 33.75800
C  39.21900 8.43100 32.27900
C  38.89200 7.61700 34.64600
C  40.17100 11.16300 34.60800
C  39.16400 11.31500 35.73100
H  39.52300 12.02700 37.03200
N  38.78000 8.04700 29.09900
C  38.03900 7.40700 30.18100
C  37.05600 6.55200 29.52500
C  37.18500 6.75500 28.13300
C  38.30800 7.63200 27.90200
C  36.12000 5.69700 30.27700
C  36.40300 6.06800 27.00300
O  36.49100 6.46300 25.88000
C  35.54700 4.93000 27.36200
N  40.86500 9.33100 27.21900
C  39.97600 8.76500 26.28800
C  40.38400 9.09000 24.85100
C  41.72900 9.92800 25.11900
C  41.88900 9.91000 26.58700
C  40.49600 7.81100 23.99000
C  41.70700 11.40700 24.50000
C  41.58200 12.68900 25.40700
N  42.30900 10.06500 29.58000
C  43.26200 10.51600 28.63300
C  44.29600 11.11000 29.34200
C  43.92900 11.11400 30.70100
C  42.69200 10.47200 30.78500
C  45.49800 11.74000 28.88900
C  44.38100 11.59900 32.07100
O  45.31100 12.28600 32.42500
C  43.14100 11.18400 32.96300
C  43.58600 10.28300 34.10200
O  43.98700 9.16600 33.99600
O  43.55700 10.98900 35.26500
C  43.90200 10.34300 36.51300
H  37.55600 7.08500 32.20200
H  38.24200 7.84200 25.75600
H  43.73000 10.88300 26.48700
H  41.15900 9.28600 34.59000
H  38.20800 9.49000 33.84300
H  37.94900 7.97000 35.06400
H  39.63300 7.56200 35.44300
H  38.80000 6.66200 34.12800
H  39.97800 11.92300 33.85100
H  41.12500 11.49100 35.02000
H  38.71200 10.35500 35.98100
H  38.25800 11.79100 35.35700
H  35.12600 5.97600 29.92900
H  36.19300 5.79600 31.36000
H  36.30100 4.63700 30.09800
H  35.21800 4.53300 26.40100
H  34.61200 5.11100 27.89200
H  36.17600 4.15900 27.80700
H  39.55000 9.70000 24.50300
H  42.52700 9.37700 24.62100
H  39.79700 7.86200 23.15500
H  40.30300 6.90300 24.56300
H  41.49100 7.85800 23.54900
H  40.97700 11.71900 23.75400
H  42.64700 11.57700 23.97500
H  41.36200 12.40200 26.43600
H  40.77000 13.35500 25.11500
H  42.54400 13.20000 25.46000
H  45.33400 12.27000 27.95100
H  46.11000 10.90400 28.54900
H  45.95800 12.35600 29.66100
H  42.74200 12.11800 33.36000
H  43.49100 9.35500 36.72300
H  43.52200 10.99400 37.30100
H  44.98200 10.21700 36.58200
Mg 47.59800 16.49300 28.77900
C  45.45200 16.28300 31.67000
C  49.81500 18.26400 30.86900
C  49.31200 17.49700 26.07200
C  45.11300 15.06800 26.90500
N  47.50900 17.29000 30.99500
C  46.62100 17.02700 31.98900
C  47.15800 17.46300 33.33500
C  48.45200 18.22000 32.93300
C  48.62100 17.83900 31.49500
C  48.37300 19.74400 33.17700
C  47.43300 16.31400 34.30300
C  46.87700 16.45400 35.70700
H  46.78900 17.83100 36.32900
N  49.40600 17.59500 28.50600
C  50.16600 18.21300 29.48800
C  51.45100 18.62600 28.97700
C  51.33900 18.45300 27.53100
C  49.96200 17.82000 27.30600
C  52.63500 19.13500 29.74000
C  52.36500 18.75000 26.43200
O  52.27800 18.53600 25.24400
C  53.63300 19.32800 26.99400
N  47.41200 16.06500 26.83400
C  48.09000 16.80700 25.88700
C  47.50200 16.55000 24.50700
C  46.33400 15.61100 24.73400
C  46.22600 15.60900 26.25700
C  47.41700 17.80500 23.58700
C  46.45100 14.16500 24.06600
C  47.17700 13.12300 25.01200
N  45.77000 15.64500 29.21700
C  44.90100 15.08000 28.32000
C  43.75800 14.69900 29.06600
C  44.03600 15.02000 30.42800
C  45.19000 15.71400 30.44000
C  42.42500 14.22700 28.48600
C  43.31800 15.04300 31.71800
O  42.25000 14.60300 32.15400
C  44.39700 15.79400 32.62400
C  43.69400 16.87200 33.26100
O  43.75500 18.00300 32.83400
O  42.88700 16.39600 34.28300
C  42.02400 17.35000 34.99800
H  50.52400 18.69300 31.57900
H  49.92800 17.87000 25.25100
H  44.27600 14.78900 26.26200
H  46.40600 18.16100 33.70400
H  49.31600 17.88700 33.50800
H  49.27800 20.22600 33.54700
H  47.69400 20.06800 33.96600
H  48.06800 20.24600 32.25900
H  48.47300 15.98900 34.31100
H  46.90200 15.46300 33.87500
H  47.38900 15.72800 36.33900
H  45.84600 16.10800 35.62600
H  53.57800 18.59000 29.70200
H  52.38700 18.96700 30.78800
H  52.71400 20.22000 29.81200
H  53.43400 20.20600 27.60700
H  54.26100 19.58800 26.14100
H  54.18900 18.54300 27.50600
H  48.22300 15.88900 24.02600
H  45.43000 16.08300 24.35000
H  47.99500 17.71000 22.66800
H  47.74900 18.75500 24.00400
H  46.38100 17.91100 23.26400
H  47.14600 14.20300 23.22700
H  45.52100 13.72500 23.70700
H  46.48800 12.62800 25.69600
H  47.90800 13.63100 25.64200
H  47.68800 12.46300 24.31000
H  42.32800 13.16500 28.26500
H  42.24100 14.86800 27.62400
H  41.63700 14.45300 29.20500
H  44.82800 15.15500 33.39500
H  41.91800 16.84400 35.95800
H  41.04900 17.64000 34.60500
H  42.61400 18.25400 35.15100

