158

Mg 40.42400 10.08300 29.94100
C  42.59400 11.26500 32.44500
C  38.38800 8.72900 32.27300
C  38.42900 8.90400 27.53600
C  42.72400 11.05300 27.57900
N  40.48600 10.09500 32.10800
C  41.47200 10.60300 32.93600
C  41.03200 10.44300 34.42500
C  39.69300 9.56000 34.36800
C  39.56600 9.39900 32.84700
C  39.80600 8.16900 35.09100
C  40.84500 11.79400 35.04200
C  40.22000 11.97300 36.42200
H  40.89500 12.89300 37.42100
N  38.65300 8.88000 29.87600
C  37.94000 8.48200 30.98100
C  36.76700 7.70200 30.59100
C  36.75300 7.83000 29.22600
C  37.97700 8.55600 28.77900
C  35.70700 7.08500 31.62200
C  35.77000 7.23500 28.20700
O  35.82100 7.34600 27.01400
C  34.51800 6.50700 28.68800
N  40.63500 9.79600 27.77700
C  39.58600 9.47100 26.99100
C  39.83100 9.74500 25.51900
C  41.21400 10.60000 25.55200
C  41.63500 10.45500 27.08100
C  39.89700 8.43700 24.66900
C  41.10800 12.05000 25.12300
C  40.00500 12.89300 25.74100
N  42.35400 10.81400 29.98000
C  43.12500 11.21900 28.93000
C  44.29900 11.77000 29.39900
C  44.11500 11.87900 30.81700
C  42.93500 11.23100 31.08300
C  45.37900 12.29000 28.58200
C  44.62700 12.48300 31.98800
O  45.66000 13.12000 32.13300
C  43.70800 12.01800 33.19000
C  44.45500 11.11400 34.17800
O  44.93500 10.03800 33.94800
O  44.47700 11.75100 35.35700
C  45.09200 11.18400 36.52700
H  37.63000 8.33500 32.95400
H  37.69000 8.58900 26.79600
H  43.29800 11.66200 26.87700
H  41.79600 9.87100 34.95100
H  38.78200 10.05300 34.70600
H  39.32800 7.37900 34.51200
H  39.25600 8.35900 36.01200
H  40.85000 8.13400 35.40200
H  40.34000 12.40700 34.29500
H  41.84200 12.22800 35.12000
H  40.30900 11.03400 36.97000
H  39.17500 12.26100 36.30700
H  36.14500 7.11900 32.62000
H  35.37900 6.06700 31.41300
H  34.82900 7.72900 31.57000
H  34.57600 5.66600 29.37800
H  33.91500 6.26300 27.81400
H  34.05200 7.37200 29.16100
H  38.99900 10.37200 25.19900
H  41.99600 10.13100 24.95500
H  39.50500 8.59200 23.66300
H  39.38600 7.59500 25.13600
H  40.93400 8.10200 24.64900
H  40.75200 12.10800 24.09500
H  42.07700 12.52500 25.27800
H  40.49800 13.64100 26.36200
H  39.22600 12.39700 26.31900
H  39.41800 13.46900 25.02500
H  44.96200 13.13800 28.03900
H  45.57700 11.55600 27.80100
H  46.32200 12.60500 29.02800
H  43.33700 12.95600 33.60500
H  45.53900 11.94000 37.17300
H  45.93600 10.59800 36.16300
H  44.44800 10.46700 37.03600
Mg 54.00700 24.70800 44.87600
C  51.51400 27.29200 44.18800
C  51.58400 22.48200 43.90300
C  56.44900 22.55400 44.61400
C  56.16900 27.39600 45.69800
N  51.90900 24.92200 43.83500
C  51.09900 26.03100 43.76700
C  49.65900 25.72700 43.40700
C  49.69600 24.13100 43.68400
C  51.10900 23.78100 43.76900
C  48.93500 23.65500 44.98000
C  49.15000 26.10500 41.91800
C  50.20900 25.99100 40.75400
H  49.66500 25.40700 39.38900
N  54.03200 22.79900 44.40400
C  52.95300 22.01800 44.04400
C  53.46100 20.67600 43.88500
C  54.82100 20.65600 44.09300
C  55.22400 22.04800 44.36000
C  52.56400 19.54800 43.46400
C  55.72100 19.46000 43.96000
O  55.23800 18.51900 43.32700
C  57.16300 19.34100 44.34200
N  56.03400 24.93500 45.18200
C  56.86900 23.81300 44.99500
C  58.33100 24.22400 45.24200
C  58.20900 25.71000 45.74900
C  56.72700 26.08600 45.42800
C  59.13100 23.21200 46.18700
C  59.23400 26.66700 44.93300
C  58.93600 26.84900 43.39900
N  53.87600 26.86300 45.09500
C  54.82600 27.80700 45.50100
C  54.21600 29.04500 45.69700
C  52.93800 28.98600 45.14700
C  52.72900 27.59400 44.81400
C  54.90700 30.23300 46.29700
C  51.72300 29.70100 44.86100
O  51.39300 30.85900 44.99400
C  50.75200 28.62000 44.22300
C  50.47200 29.08100 42.80900
O  51.31400 29.22800 41.93500
O  49.15400 29.33600 42.62100
C  48.73600 29.89000 41.38900
H  50.82000 21.72700 43.70500
H  57.31100 21.89200 44.50900
H  56.81400 28.21800 46.01400
H  49.04100 26.26500 44.12700
H  49.15500 23.71200 42.83600
H  48.48800 24.40400 45.63400
H  49.57100 23.01400 45.59200
H  48.12000 23.04200 44.59600
H  48.74500 27.11600 41.96100
H  48.26600 25.58100 41.55500
H  51.14800 25.50900 41.02600
H  50.50100 26.99400 40.44100
H  52.98500 19.29800 42.49100
H  51.53000 19.88200 43.38600
H  52.53200 18.68600 44.13000
H  57.49600 18.32300 44.54300
H  57.18200 19.82400 45.32000
H  57.86200 19.80800 43.64800
H  58.89700 24.34700 44.31900
H  58.31300 25.66100 46.83300
H  58.52600 22.33500 46.41700
H  59.49800 23.64000 47.12000
H  60.03700 22.97300 45.62900
H  60.17100 26.11600 45.00500
H  59.32800 27.63100 45.43300
H  59.65000 26.41400 42.70000
H  58.87800 27.91400 43.17400
H  57.91600 26.51300 43.21400
H  55.99000 30.16600 46.40400
H  54.52000 30.29600 47.31400
H  54.60300 31.14500 45.78400
H  49.84100 28.41300 44.78500
H  49.08600 29.28500 40.55300
H  49.15900 30.89500 41.39200
H  47.68700 30.11400 41.19700

