158

Mg 46.26400 3.76300 47.52900
C  44.25400 6.43300 47.38500
C  43.53100 1.70400 47.21200
C  48.36200 1.20500 47.25000
C  49.10500 5.91700 47.24100
N  44.08600 4.04400 47.37700
C  43.54500 5.26800 47.25300
C  41.99800 5.07900 46.78000
C  41.72500 3.58900 47.05800
C  43.17600 3.05000 47.16500
C  40.82700 3.20200 48.29800
C  41.68000 5.58600 45.31500
C  40.83200 6.84400 45.07500
H  40.76200 7.48200 43.71100
N  45.94000 1.74100 47.17100
C  44.76900 1.12900 47.04100
C  45.05500 -0.31700 46.73200
C  46.46100 -0.51000 46.72300
C  47.00600 0.80600 47.11400
C  44.00700 -1.28500 46.36900
C  47.10100 -1.77800 46.25000
O  46.39800 -2.71900 45.94100
C  48.58900 -1.94600 46.12500
N  48.46500 3.60300 46.90000
C  49.09400 2.44800 47.17900
C  50.64000 2.65500 47.42700
C  50.83700 4.10900 46.96300
C  49.40300 4.60800 46.99800
C  51.09700 2.50000 48.89000
C  51.36700 4.18700 45.50200
C  52.87400 4.44400 45.36100
N  46.68300 5.77300 47.40200
C  47.81500 6.49300 47.35400
C  47.46200 7.89800 47.55400
C  46.02700 7.93000 47.53800
C  45.66100 6.57000 47.41100
C  48.39600 9.04300 47.61400
C  44.81800 8.78400 47.66300
O  44.80000 9.98800 47.87800
C  43.65000 7.84300 47.46600
C  42.73300 7.99400 48.57700
O  42.84700 7.77900 49.78600
O  41.66500 8.54200 48.00000
C  40.51300 8.86100 48.92800
H  42.67800 1.09500 46.90300
H  49.00000 0.32300 47.34000
H  49.93000 6.63200 47.27200
H  41.40100 5.70000 47.44700
H  41.22900 3.13600 46.19800
H  40.23100 3.99200 48.75400
H  41.56200 2.85200 49.02300
H  40.24000 2.33300 47.99800
H  41.16500 4.84700 44.70200
H  42.61300 5.79000 44.79000
H  41.32400 7.59900 45.68800
H  39.81600 6.61900 45.40000
H  43.93800 -1.34200 45.28300
H  43.09600 -0.92300 46.84500
H  44.20700 -2.24400 46.84700
H  49.08800 -1.81400 47.08500
H  48.96100 -1.27200 45.35300
H  48.67400 -2.95900 45.73100
H  51.21700 1.97200 46.80300
H  51.58700 4.61600 47.57100
H  51.37200 3.42900 49.38900
H  51.87200 1.76600 49.10800
H  50.25200 2.11500 49.46000
H  50.72900 4.80600 44.87200
H  51.20500 3.18400 45.10800
H  53.15000 5.37700 45.85300
H  53.26700 4.46400 44.34400
H  53.39500 3.62200 45.85200
H  47.95600 9.75500 46.91600
H  49.45700 8.83300 47.47500
H  48.28600 9.35400 48.65300
H  43.29200 8.17200 46.49000
H  39.72200 8.38200 48.35200
H  40.27400 9.92300 48.86700
H  40.59300 8.64700 49.99400
Mg 0.55300 43.55800 26.28300
C  2.78500 43.85900 28.81200
C  -1.83300 42.59600 28.59300
C  -1.53600 42.79700 23.73400
C  3.03300 44.33100 23.95800
N  0.47800 43.19300 28.43300
C  1.52100 43.46400 29.31800
C  1.03300 43.45600 30.78700
C  -0.43700 42.84100 30.64400
C  -0.63800 42.90800 29.11600
C  -0.59800 41.43400 31.25100
C  1.10500 44.85400 31.39500
C  1.07100 44.95300 32.91900
H  0.69700 43.75900 33.75400
N  -1.49900 42.99900 26.15300
C  -2.25100 42.65300 27.22500
C  -3.58800 42.36300 26.72700
C  -3.54400 42.55400 25.29900
C  -2.15800 42.67400 25.00400
C  -4.70800 41.81200 27.63900
C  -4.64400 42.47400 24.28100
O  -4.42500 42.56100 23.10100
C  -6.00200 42.52500 24.83100
N  0.88300 43.26700 24.18500
C  -0.20400 42.97600 23.39200
C  0.18200 43.19700 21.95300
C  1.59800 43.83900 21.95500
C  1.90800 43.80500 23.45200
C  0.05400 41.81000 21.18500
C  1.65400 45.31300 21.35400
C  1.17900 46.53600 22.13100
N  2.55900 44.00400 26.28400
C  3.45600 44.26900 25.31500
C  4.75600 44.44200 25.84500
C  4.56800 44.26100 27.23800
C  3.17900 44.06800 27.45600
C  6.10600 44.67600 25.09100
C  5.19600 44.24000 28.58400
O  6.36500 44.33200 28.96100
C  4.02900 44.00800 29.65900
C  4.33800 42.71500 30.24300
O  4.15600 41.58700 29.81400
O  4.82000 43.00800 31.45100
C  4.98400 41.94800 32.41200
H  -2.65700 42.40500 29.28300
H  -2.20700 42.79600 22.87200
H  3.79800 44.64400 23.24500
H  1.69500 42.88500 31.43800
H  -1.24300 43.41200 31.10600
H  0.05000 41.38600 32.12700
H  -0.35400 40.61600 30.57400
H  -1.58200 41.31000 31.70300
H  0.49000 45.59200 30.88100
H  2.12500 45.19300 31.21500
H  0.30900 45.70600 33.11800
H  2.07300 45.16600 33.29100
H  -5.41500 41.23200 27.04500
H  -5.30500 42.65200 27.99400
H  -4.33100 41.39700 28.57300
H  -6.04000 42.90200 25.85300
H  -6.35800 41.49400 24.82500
H  -6.60100 43.16400 24.18200
H  -0.50100 43.98000 21.62500
H  2.27800 43.21300 21.37900
H  0.99700 41.56900 20.69400
H  -0.71800 41.95700 20.43100
H  -0.16100 40.94400 21.81200
H  1.32200 45.23800 20.31800
H  2.70900 45.46000 21.12500
H  0.46900 47.02600 21.46500
H  1.98500 47.17700 22.48900
H  0.73400 46.16400 23.05400
H  5.91400 45.03500 24.08000
H  6.89700 43.92700 25.09300
H  6.54400 45.51600 25.62900
H  4.04000 44.72500 30.48000
H  4.01700 41.85600 32.90600
H  5.77300 42.26900 33.09200
H  5.07000 40.97400 31.93100

