158

Mg 54.74100 24.49400 44.03400
C  52.35400 26.96300 43.41700
C  52.62300 22.15200 43.18300
C  57.46500 22.50400 43.84400
C  57.03000 27.27500 44.43900
N  52.75400 24.56100 43.26600
C  51.93500 25.65900 43.15300
C  50.54000 25.21200 42.76300
C  50.58500 23.69500 43.19300
C  52.07800 23.39800 43.13200
C  49.90300 23.28700 44.56300
C  50.26600 25.42600 41.28500
C  48.82200 25.74000 40.88000
H  48.23300 25.27200 39.51800
N  55.01400 22.57400 43.50700
C  53.97300 21.71000 43.36300
C  54.57100 20.33700 43.35900
C  55.94600 20.42500 43.66600
C  56.18800 21.85400 43.76900
C  53.81900 19.08000 42.98000
C  56.86800 19.15800 43.82200
O  56.50800 17.97900 43.65500
C  58.30200 19.38600 43.96100
N  57.04500 24.86300 43.91100
C  57.91500 23.81000 43.88300
C  59.36900 24.29600 44.10800
C  59.14500 25.80300 44.55900
C  57.61900 26.06700 44.28400
C  60.39300 23.47400 44.91100
C  60.00000 26.92900 43.94500
C  60.68400 27.96700 44.83200
N  54.74400 26.66000 44.05300
C  55.70900 27.60500 44.36900
C  55.07300 28.91300 44.68900
C  53.78600 28.68600 44.14900
C  53.65100 27.34600 43.87800
C  55.81000 30.09600 45.02900
C  52.50700 29.31100 43.87400
O  52.14800 30.45900 43.93300
C  51.58200 28.27200 43.19800
C  51.55500 28.75200 41.83900
O  52.44300 28.86500 41.03300
O  50.31000 29.25000 41.60100
C  49.93200 29.76400 40.24000
H  51.85600 21.37500 43.19000
H  58.33400 21.84600 43.90900
H  57.71800 28.10000 44.63200
H  49.84800 25.68300 43.46100
H  50.14200 23.09500 42.39800
H  49.20200 22.47100 44.38500
H  49.45400 24.15200 45.05200
H  50.68300 23.00600 45.27000
H  50.60100 24.56300 40.70900
H  50.78600 26.32200 40.94700
H  48.60500 26.79200 41.06900
H  48.21900 25.20900 41.61700
H  52.79000 19.40300 42.82500
H  53.82900 18.58600 43.95100
H  54.18700 18.60200 42.07200
H  58.71900 19.67800 42.99700
H  58.66200 18.41600 44.30400
H  58.63300 20.11200 44.70300
H  59.66800 24.26100 43.06100
H  59.39400 25.81500 45.62000
H  61.23200 23.00400 44.39800
H  59.83700 22.68000 45.41000
H  60.86800 24.11200 45.65500
H  59.55200 27.48600 43.12100
H  60.79800 26.36600 43.46100
H  61.57700 28.20100 44.25200
H  60.93100 27.69000 45.85700
H  59.96300 28.78400 44.86600
H  56.81500 29.85300 45.37300
H  55.14900 30.38800 45.84500
H  55.75700 30.77400 44.17700
H  50.59900 28.25000 43.66800
H  50.85900 29.97800 39.70900
H  49.34200 30.67600 40.32900
H  49.24600 29.06200 39.76500
Mg 51.09600 47.04100 42.06700
C  47.86400 48.23400 41.16700
C  50.17000 44.07500 40.73900
C  54.22600 46.13700 42.67600
C  51.84500 50.17600 43.40400
N  49.19800 46.29500 41.08800
C  48.05300 46.94600 40.77100
C  47.09500 46.10100 39.94600
C  47.80500 44.70600 39.97800
C  49.14400 45.05900 40.64800
C  47.05100 43.64600 40.86100
C  46.85500 46.75700 38.52900
C  45.33900 46.85600 38.41000
H  44.69500 46.15100 37.09500
N  52.08500 45.33800 41.72100
C  51.48400 44.19700 41.15200
C  52.51000 43.14500 41.08500
C  53.72400 43.72200 41.61500
C  53.38800 45.09700 42.08800
C  52.30200 41.75400 40.53600
C  55.05500 42.98900 41.72900
O  55.12300 41.84800 41.25100
C  56.20500 43.61700 42.44800
N  52.84900 48.09900 42.84300
C  54.02500 47.49000 42.96100
C  55.05100 48.37800 43.58400
C  54.29300 49.71500 43.77700
C  52.91600 49.33300 43.28500
C  55.76000 47.75000 44.84400
C  54.90400 50.88100 42.93800
C  54.41300 52.35200 43.36600
N  50.12500 48.88100 42.28600
C  50.52100 50.05300 42.88700
C  49.48800 51.06300 42.90000
C  48.41200 50.32100 42.22800
C  48.87000 49.05700 41.85600
C  49.42700 52.45600 43.42200
C  47.05000 50.49500 41.66100
O  46.27700 51.42800 41.69400
C  46.63400 49.12600 40.97900
C  45.47200 48.70900 41.76000
O  45.41900 48.18500 42.85800
O  44.37500 48.92700 40.99600
C  43.10500 48.39400 41.53000
H  49.71800 43.14100 40.39700
H  55.26900 45.90900 42.90600
H  52.02600 51.21600 43.68600
H  46.25500 45.98200 40.63000
H  47.95000 44.35400 38.95600
H  46.71100 42.84400 40.20600
H  46.14900 43.98700 41.37100
H  47.77800 43.28000 41.58600
H  47.31900 46.10400 37.78900
H  47.40900 47.68700 38.39800
H  45.06900 47.90400 38.27700
H  44.78900 46.50500 39.28300
H  53.13200 41.34400 39.96100
H  51.38800 41.82500 39.94600
H  52.15300 41.02400 41.33200
H  57.06200 42.96400 42.60900
H  55.87600 43.77900 43.47400
H  56.53200 44.51700 41.92700
H  55.72600 48.62700 42.76500
H  54.34000 50.01800 44.82300
H  55.47600 46.72400 45.08000
H  55.60400 48.42400 45.68600
H  56.83200 47.72000 44.64600
H  54.53800 50.65600 41.93600
H  55.96900 50.78100 42.72900
H  55.24800 52.98400 43.66600
H  53.78800 52.40600 44.25800
H  53.72500 52.69500 42.59400
H  49.47300 53.09000 42.53600
H  50.34800 52.51700 44.00000
H  48.51700 52.70000 43.97000
H  46.53200 49.25500 39.90100
H  43.06000 48.37900 42.61900
H  42.92200 47.36500 41.22000
H  42.29700 49.01700 41.14600

