158

Mg 34.75000 2.79300 29.02700
C  32.75500 3.31400 31.85700
C  37.43400 2.21300 31.15700
C  36.61400 2.44400 26.34000
C  31.88600 3.64500 27.01300
N  35.04600 2.87100 31.22900
C  34.08000 2.90200 32.19400
C  34.60000 2.74000 33.64200
C  36.18800 2.60700 33.34200
C  36.31200 2.63400 31.82400
C  37.04900 3.78400 33.98500
C  33.93300 1.59200 34.39800
C  33.58600 1.78000 35.90400
H  34.43400 2.65600 36.81900
N  36.73700 2.44900 28.72800
C  37.65900 2.19400 29.72000
C  39.00100 2.02700 29.05300
C  38.83100 2.14100 27.66700
C  37.32700 2.27100 27.48300
C  40.30000 2.01700 29.81800
C  39.88900 2.08200 26.64300
O  39.52100 2.17300 25.44300
C  41.32100 1.68800 26.89700
N  34.30900 3.25300 26.93000
C  35.26100 2.85500 26.03100
C  34.76900 3.15100 24.59500
C  33.22900 3.37100 24.83600
C  33.12300 3.46600 26.39700
C  35.55700 4.21400 23.92100
C  32.24500 2.33000 24.20800
C  32.28700 0.92200 24.74600
N  32.76100 3.23700 29.32300
C  31.69700 3.56400 28.45600
C  30.48100 3.72300 29.16600
C  30.83500 3.66800 30.49400
C  32.16300 3.35900 30.59700
C  29.11000 4.04700 28.70300
C  30.34400 3.80200 31.88000
O  29.20600 3.96000 32.32200
C  31.59100 3.55800 32.77500
C  31.74100 4.78500 33.67400
O  32.04700 5.90600 33.29400
O  31.48100 4.56200 34.97800
C  31.62000 5.74200 35.83500
H  38.24500 1.97500 31.84800
H  37.15800 2.38100 25.39500
H  31.11600 3.76300 26.24700
H  34.46100 3.72600 34.08600
H  36.53200 1.70000 33.83900
H  36.39400 4.49400 34.49000
H  37.69000 4.30500 33.27400
H  37.65500 3.23700 34.70600
H  34.71600 0.83700 34.32600
H  33.07200 1.27600 33.81000
H  33.41000 0.79400 36.33200
H  32.61700 2.27800 35.88000
H  40.88900 1.14200 29.54500
H  40.13500 1.94900 30.89300
H  40.81400 2.97600 29.74400
H  41.29400 0.72300 27.40300
H  41.74400 2.26700 27.71800
H  41.78800 1.69600 25.91200
H  34.84600 2.24900 23.98800
H  33.02900 4.37200 24.45500
H  36.00500 4.75400 24.75500
H  34.92000 4.91700 23.38400
H  36.30100 3.84300 23.21700
H  32.44000 2.22800 23.14000
H  31.26400 2.80500 24.20900
H  32.38500 0.25100 23.89300
H  31.37300 0.80900 25.33000
H  33.11600 0.73900 25.42900
H  29.07300 5.02100 28.21300
H  28.45900 4.16000 29.57000
H  28.90200 3.27600 27.96100
H  31.39800 2.67000 33.37800
H  31.07500 5.52800 36.75500
H  31.25500 6.69000 35.43900
H  32.69400 5.83900 35.99300
Mg 35.83100 49.16900 25.98500
C  36.30200 47.27900 28.98600
C  34.54800 51.66300 27.88900
C  35.36700 50.83300 23.11100
C  36.63200 46.25200 24.10200
N  35.52400 49.36200 28.20300
C  35.80300 48.52700 29.26300
C  35.57100 49.14000 30.65400
C  34.86600 50.49500 30.24100
C  34.91700 50.51400 28.65200
C  33.39700 50.71700 30.85900
C  36.90200 49.40100 31.43100
C  36.72400 49.49300 32.95800
H  35.32900 49.30000 33.61800
N  35.01300 50.99100 25.51300
C  34.54000 51.90300 26.42300
C  34.18100 53.14300 25.76200
C  34.35000 52.86600 24.36100
C  34.92600 51.50900 24.28000
C  33.71100 54.35900 26.45300
C  34.24100 53.79500 23.21700
O  34.48500 53.48400 22.02200
C  33.73800 55.17700 23.43700
N  35.76900 48.53000 23.85300
C  35.72800 49.50700 22.87000
C  35.89500 48.86000 21.44200
C  36.54800 47.47300 21.74400
C  36.43100 47.39600 23.34300
C  34.49100 48.84000 20.69600
C  37.95500 47.31100 21.13600
C  39.20100 47.63000 22.05400
N  36.48700 47.23100 26.41200
C  36.68200 46.14600 25.57200
C  37.14600 45.01400 26.41400
C  36.96800 45.37400 27.74600
C  36.51500 46.73200 27.66900
C  37.89300 43.81200 25.87000
C  37.13300 44.91200 29.08600
O  37.61500 43.83600 29.46000
C  36.61400 46.14100 29.97000
C  35.51600 45.67400 30.82400
O  34.32500 45.77700 30.59200
O  36.10000 45.18300 32.00100
C  35.19800 44.61800 33.01200
H  34.21100 52.51500 28.48400
H  35.11400 51.39700 22.21100
H  37.19000 45.51900 23.51600
H  34.96800 48.51400 31.31300
H  35.39900 51.41800 30.46900
H  33.23900 50.00400 31.66900
H  32.59400 50.31100 30.24400
H  33.14100 51.75300 31.08100
H  37.26900 50.36700 31.08400
H  37.62500 48.60300 31.26200
H  37.31400 50.35900 33.25800
H  37.14600 48.64900 33.50400
H  33.51300 54.21800 27.51600
H  32.73700 54.71300 26.11500
H  34.41200 55.19200 26.41200
H  32.87700 55.27800 24.09800
H  33.48000 55.66900 22.49900
H  34.59200 55.69300 23.87400
H  36.56800 49.50300 20.87400
H  36.07000 46.62700 21.25000
H  34.15100 47.81500 20.54700
H  34.59900 49.28700 19.70800
H  33.75100 49.29500 21.35400
H  37.96600 47.86200 20.19500
H  38.03400 46.25100 20.89300
H  38.97800 48.13100 22.99500
H  40.04700 48.11500 21.56800
H  39.62000 46.64500 22.25800
H  38.69100 43.64500 26.59300
H  38.26300 43.95200 24.85400
H  37.26900 42.92300 25.77900
H  37.47600 46.38600 30.59000
H  35.69900 43.72900 33.39400
H  34.23400 44.41200 32.54700
H  35.17400 45.45500 33.70900

