158

Mg 8.99600 2.59600 27.31400
C  10.29800 1.01800 30.28300
C  7.16100 4.67600 29.31300
C  7.23400 3.43500 24.70200
C  10.40500 -0.16800 25.58700
N  8.70800 2.72500 29.49200
C  9.44400 2.12500 30.50800
C  9.13800 2.88300 31.83300
C  7.99100 3.89100 31.52500
C  7.88700 3.68600 30.01000
C  6.63500 3.78200 32.26600
C  10.50900 3.62200 32.32500
C  10.50500 4.54900 33.52700
H  10.93300 4.03000 34.96500
N  7.51600 4.02200 27.00600
C  6.91600 4.80300 27.93400
C  6.01500 5.71600 27.26200
C  5.95400 5.30300 25.92400
C  6.98100 4.22700 25.84200
C  5.19700 6.72300 28.02900
C  5.01700 5.79900 24.83800
O  5.17100 5.37400 23.73000
C  4.03900 6.94200 25.08600
N  9.00800 1.87600 25.36600
C  8.05100 2.39300 24.48700
C  8.33200 1.76300 23.16400
C  9.26200 0.56200 23.43100
C  9.56900 0.68000 24.88500
C  7.08800 1.23100 22.32800
C  10.54800 0.56700 22.53400
C  10.55100 -0.66300 21.58700
N  10.15900 0.74400 27.76000
C  10.67000 -0.27400 26.96200
C  11.42400 -1.12900 27.74400
C  11.40300 -0.65200 29.02900
C  10.52000 0.46300 28.97400
C  12.09500 -2.34900 27.16900
C  11.86100 -0.83200 30.39900
O  12.65900 -1.63300 30.86800
C  11.26100 0.31200 31.29800
C  10.60900 -0.47000 32.36300
O  9.56900 -1.14000 32.21200
O  11.27000 -0.20400 33.53900
C  10.77700 -0.88300 34.73100
H  6.69200 5.46500 29.90400
H  6.62200 3.62600 23.81700
H  10.73000 -0.99300 24.95000
H  8.76800 2.07400 32.46200
H  8.37700 4.89300 31.71300
H  6.90600 3.20500 33.15000
H  5.81500 3.31300 31.72300
H  6.29700 4.71800 32.71200
H  10.85600 4.20000 31.46900
H  11.20200 2.79800 32.49500
H  9.44500 4.78800 33.61500
H  11.17400 5.38200 33.31100
H  5.58400 7.01800 29.00400
H  4.27100 6.21800 28.30700
H  4.93300 7.62100 27.47000
H  3.45400 7.15500 24.19100
H  4.52300 7.87500 25.37400
H  3.38500 6.67300 25.91600
H  8.80700 2.55100 22.57900
H  8.87200 -0.42200 23.16900
H  6.33500 1.64100 23.00200
H  7.03100 0.14400 22.27800
H  6.94100 1.71200 21.36200
H  11.42800 0.49300 23.17300
H  10.61300 1.48200 21.94500
H  9.57600 -1.06900 21.32000
H  11.07700 -1.46000 22.11300
H  11.26300 -0.38300 20.81100
H  12.68200 -2.19000 26.26400
H  11.29300 -3.05200 26.94400
H  12.85300 -2.73500 27.85100
H  12.03000 0.95800 31.72200
H  10.27300 -1.84700 34.65600
H  10.25900 -0.11300 35.30200
H  11.64600 -1.08100 35.35900
Mg 6.68400 53.95400 42.39200
C  6.43300 50.27000 41.98700
C  9.57100 53.88700 40.86200
C  6.38500 57.20300 42.05100
C  3.19000 53.72400 43.45300
N  7.79900 52.22900 41.32700
C  7.55500 50.91100 41.38600
C  8.89800 50.18700 41.08900
C  10.05500 51.32600 40.98200
C  9.13000 52.58300 41.13400
C  11.08900 51.47600 42.16200
C  8.88600 49.25100 39.84800
C  8.07500 49.77300 38.66400
H  8.80700 49.94600 37.32100
N  7.90000 55.35600 41.58100
C  9.01700 55.14900 41.02900
C  9.64500 56.40000 40.77200
C  8.77700 57.42500 41.14500
C  7.62900 56.73500 41.60600
C  11.11900 56.56300 40.56000
C  9.05900 58.87200 41.09900
O  10.08400 59.34400 40.69500
C  8.09400 59.83000 41.69400
N  5.02100 55.22900 42.76800
C  5.23500 56.55700 42.49800
C  4.06400 57.39200 43.06200
C  2.89800 56.28100 43.17900
C  3.75100 55.01400 43.15900
C  4.44100 58.12600 44.38000
C  1.71200 56.35200 42.05400
C  0.35000 56.12100 42.63500
N  5.12200 52.33100 42.72300
C  3.85100 52.40500 43.25700
C  3.35200 51.06500 43.53300
C  4.34500 50.19100 43.11500
C  5.40200 51.00700 42.59400
C  1.96800 50.67700 43.94400
C  4.70200 48.82600 42.84600
O  4.21600 47.78200 43.15700
C  6.11500 48.80600 42.08900
C  5.95200 48.14600 40.76500
O  5.21200 48.40400 39.86500
O  6.52100 46.87600 40.94400
C  6.13300 45.86100 39.95400
H  10.62700 53.86400 40.58300
H  6.25600 58.27800 41.90800
H  2.14200 53.78200 43.75600
H  8.98400 49.63300 42.02400
H  10.56700 51.25900 40.02200
H  11.05300 52.42800 42.69000
H  12.10200 51.24500 41.83400
H  10.96000 50.67200 42.88700
H  8.63700 48.23100 40.13800
H  9.86400 49.21100 39.36900
H  7.55100 50.68200 38.95900
H  7.30000 49.06900 38.36200
H  11.33600 56.95900 39.56800
H  11.58800 55.57900 40.53500
H  11.62200 57.12900 41.34300
H  8.53000 60.82700 41.75300
H  7.78400 59.50700 42.68700
H  7.15500 59.76800 41.14400
H  3.75900 58.20300 42.40000
H  2.43200 56.37400 44.16000
H  4.35100 57.35900 45.15000
H  3.80600 58.95000 44.70400
H  5.49900 58.37100 44.47800
H  1.94300 55.71900 41.19700
H  1.72100 57.33800 41.59000
H  0.22000 56.16800 43.71600
H  0.15900 55.06700 42.43500
H  -0.36200 56.74600 42.09600
H  1.27700 50.77500 43.10700
H  1.67700 51.06600 44.92000
H  2.05800 49.63500 44.24900
H  6.80600 48.30900 42.77000
H  5.06000 45.96700 39.79200
H  6.26400 44.85100 40.34300
H  6.64300 45.86700 38.99100

