158

Mg 9.71400 47.67900 25.69600
C  7.88600 48.04300 28.65800
C  12.39000 49.06000 27.35200
C  11.40900 47.33400 22.88900
C  6.86600 46.70300 24.08300
N  10.10200 48.38600 27.83100
C  9.24400 48.35300 28.92000
C  9.95000 48.84200 30.26200
C  11.24100 49.39900 29.64700
C  11.28800 48.84900 28.19800
C  11.28300 50.95800 29.68500
C  10.22200 47.63400 31.28500
C  9.56400 47.84700 32.71700
H  9.17900 46.67000 33.60800
N  11.65200 48.11900 25.15000
C  12.59300 48.67500 25.98600
C  13.86700 48.82800 25.28900
C  13.61400 48.28200 23.95700
C  12.20100 47.85300 23.94600
C  15.14200 49.24400 25.94000
C  14.57500 48.17500 22.80900
O  14.35200 47.77500 21.64100
C  15.98900 48.70300 22.99400
N  9.14500 47.16500 23.77500
C  10.08500 46.99100 22.74600
C  9.47800 46.45000 21.46900
C  8.09100 46.02600 21.94200
C  8.01300 46.59300 23.37900
C  9.58400 47.60300 20.43900
C  7.92600 44.47600 22.13500
C  8.87600 43.62300 23.00000
N  7.79100 47.44900 26.23000
C  6.66700 47.09900 25.42500
C  5.44300 47.28600 26.16300
C  5.88100 47.58600 27.47900
C  7.32700 47.73300 27.47300
C  4.01300 47.08700 25.71500
C  5.46500 47.88700 28.89600
O  4.35800 47.93100 29.33600
C  6.71900 48.18600 29.66000
C  6.67100 47.15900 30.71800
O  7.24300 46.02700 30.60500
O  5.98500 47.64200 31.81000
C  5.41500 46.64500 32.65100
H  13.23300 49.51500 27.87600
H  11.92300 47.19600 21.93500
H  5.95800 46.35700 23.58400
H  9.35800 49.60400 30.76800
H  12.10500 49.04400 30.20800
H  10.38100 51.27600 30.20900
H  11.24900 51.29600 28.65000
H  12.19300 51.29900 30.17900
H  11.27800 47.54400 31.53700
H  9.89700 46.71200 30.80300
H  8.60100 48.32500 32.53400
H  10.33500 48.52300 33.08800
H  15.86400 48.44600 26.11400
H  14.94100 49.50000 26.98000
H  15.75100 50.01900 25.47500
H  15.92000 49.75900 23.25600
H  16.64400 48.59700 22.12900
H  16.47200 48.16900 23.81300
H  10.07300 45.59000 21.16100
H  7.30500 46.49100 21.34800
H  10.15800 48.41300 20.88900
H  8.54800 47.82800 20.18700
H  10.10300 47.18200 19.57700
H  8.23100 44.04900 21.17900
H  6.87900 44.20000 22.26300
H  9.42900 42.90400 22.39600
H  8.31700 43.11100 23.78300
H  9.67400 44.17200 23.50000
H  3.39300 47.97500 25.58900
H  3.48200 46.58500 26.52400
H  4.09200 46.38400 24.88600
H  6.69400 49.17800 30.10900
H  4.86000 47.04400 33.49900
H  6.27000 46.12100 33.07800
H  4.79500 45.96900 32.06300
Mg -5.57600 25.08400 25.92100
C  -4.04000 26.41800 28.81800
C  -7.52000 23.03200 27.98300
C  -6.81300 23.67100 23.23700
C  -3.46200 27.09400 24.03900
N  -5.91900 24.96000 28.11300
C  -5.11100 25.57500 29.11600
C  -5.53000 25.00200 30.47500
C  -6.35500 23.73200 30.09100
C  -6.69400 23.94400 28.64600
C  -5.48000 22.38300 30.14600
C  -6.44600 26.04100 31.20900
C  -6.45900 26.11100 32.73100
H  -5.48500 25.17900 33.50200
N  -7.05400 23.65600 25.62200
C  -7.77100 22.91700 26.58100
C  -8.67500 22.04700 25.97400
C  -8.40200 22.06900 24.60300
C  -7.43600 23.12900 24.45600
C  -9.58000 21.14000 26.81100
C  -9.00200 21.20000 23.55000
O  -8.56800 21.29800 22.37100
C  -10.15600 20.33100 23.78600
N  -5.16000 25.34700 23.96500
C  -5.86400 24.63400 23.02200
C  -5.35200 24.98300 21.59700
C  -4.48900 26.26400 21.89800
C  -4.35300 26.26200 23.38900
C  -4.53200 23.84100 20.98900
C  -5.27200 27.50600 21.33600
C  -4.38400 28.24200 20.30400
N  -3.99800 26.42800 26.30200
C  -3.23500 27.23100 25.41400
C  -2.34500 28.06700 26.16400
C  -2.59400 27.79000 27.50600
C  -3.62900 26.77500 27.52900
C  -1.28700 29.02200 25.63500
C  -2.26700 28.10800 28.80300
O  -1.53500 28.95800 29.30300
C  -3.14200 27.13100 29.74800
C  -2.35700 26.27900 30.66100
O  -2.03400 25.15300 30.38700
O  -1.88900 27.02000 31.76900
C  -0.85900 26.42100 32.56300
H  -8.09500 22.45300 28.70900
H  -7.29200 23.30600 22.32600
H  -2.72600 27.49000 23.33600
H  -4.60800 24.82700 31.02900
H  -7.27800 23.67400 30.66800
H  -4.49700 22.57400 30.57600
H  -5.23600 21.97700 29.16400
H  -5.97000 21.60300 30.72900
H  -7.46600 25.80700 30.90500
H  -6.12200 27.02600 30.87100
H  -7.50200 25.86500 32.92800
H  -6.27300 27.14100 33.03400
H  -10.63500 21.28200 26.57800
H  -9.43500 21.27600 27.88300
H  -9.36900 20.08500 26.63800
H  -9.90500 19.43300 24.35100
H  -10.58600 20.02600 22.83200
H  -10.93300 20.90000 24.29600
H  -6.13400 25.13500 20.85300
H  -3.44200 26.25100 21.59300
H  -3.53900 23.92400 21.43100
H  -4.41900 23.84900 19.90500
H  -5.01000 22.90300 21.27100
H  -5.51900 28.30000 22.04100
H  -6.19500 27.11700 20.90800
H  -3.89800 29.14800 20.66600
H  -5.01300 28.62100 19.49900
H  -3.66000 27.60900 19.79100
H  -1.16100 28.80800 24.57400
H  -0.31600 28.92700 26.12200
H  -1.66200 29.97500 26.00800
H  -3.69700 27.84200 30.36000
H  -0.28000 27.25900 32.95200
H  -0.16800 25.83500 31.95800
H  -1.30600 25.91400 33.41800

