158

Mg 9.95600 47.60900 25.63700
C  8.09300 47.42900 28.52800
C  12.38200 49.23600 27.29200
C  11.71300 47.48900 22.84600
C  7.17300 46.56700 23.83000
N  10.07100 48.43000 27.67400
C  9.32600 48.11300 28.80000
C  9.88900 48.75700 30.09400
C  10.98400 49.75000 29.45000
C  11.18600 49.12100 28.03700
C  10.73300 51.31300 29.40800
C  10.53200 47.73200 31.01700
C  10.60000 47.98000 32.58300
H  10.12500 46.89800 33.60700
N  11.77100 48.21700 25.16500
C  12.67500 48.76900 26.02000
C  13.97400 48.68200 25.38200
C  13.79100 48.29400 24.04000
C  12.34500 48.02500 23.95000
C  15.30100 48.84900 26.19400
C  14.86700 47.96300 22.99300
O  14.62500 47.47100 21.88800
C  16.27600 48.31800 23.28000
N  9.40800 47.29400 23.55600
C  10.40400 47.18100 22.66600
C  9.84300 46.62200 21.30600
C  8.36900 46.29000 21.61800
C  8.28800 46.76200 23.06600
C  9.92300 47.72000 20.19700
C  8.00000 44.84600 21.41300
C  8.62800 43.86000 22.40100
N  7.93900 47.18700 26.03600
C  6.93300 46.71500 25.25700
C  5.87700 46.40600 26.02600
C  6.26600 46.61300 27.34400
C  7.56000 47.06600 27.30800
C  4.46900 46.02100 25.38200
C  5.92100 46.44500 28.76000
O  4.90000 46.00900 29.30000
C  7.10000 46.91800 29.48500
C  7.55600 45.87000 30.44300
O  8.25700 44.99600 30.01700
O  7.03100 45.95800 31.70300
C  7.39300 44.86800 32.63000
H  13.18400 49.88300 27.65600
H  12.22200 47.37700 21.88600
H  6.38200 46.21400 23.16400
H  9.16200 49.36900 30.62800
H  11.90700 49.74400 30.02900
H  11.37900 51.85600 30.09700
H  9.67200 51.49900 29.57600
H  11.02500 51.73200 28.44600
H  11.53700 47.49200 30.66800
H  9.95500 46.80900 30.96100
H  9.97000 48.81200 32.89800
H  11.62500 48.30200 32.76100
H  15.22300 48.81000 27.28100
H  15.69400 49.83500 25.94600
H  16.01800 48.04700 26.01500
H  16.25100 49.25300 23.84100
H  16.70400 48.55200 22.30600
H  16.75500 47.51900 23.84600
H  10.34000 45.67400 21.10000
H  7.59800 46.75100 21.00100
H  10.73500 48.39200 20.47600
H  8.94900 48.13600 19.94000
H  10.22000 47.19800 19.28700
H  8.45200 44.58500 20.45600
H  6.91400 44.80300 21.33900
H  9.49200 44.29700 22.90200
H  8.89300 42.95400 21.85600
H  7.75100 43.56400 22.97600
H  4.06500 46.86900 24.82900
H  3.78200 45.66900 26.15100
H  4.47900 45.25000 24.61200
H  6.84800 47.77700 30.10700
H  6.52500 44.25900 32.88200
H  7.64700 45.38400 33.55600
H  8.22400 44.18100 32.47200
Mg -12.01300 16.76000 41.49700
C  -9.04200 14.91900 41.07400
C  -10.49300 19.42800 40.11600
C  -14.99000 18.05800 41.26000
C  -13.53100 13.52200 42.16100
N  -10.10600 17.01600 40.59800
C  -8.93800 16.19600 40.65100
C  -7.65400 16.82100 40.09100
C  -8.21000 18.29000 39.82000
C  -9.71400 18.25200 40.18300
C  -7.50800 19.49800 40.43700
C  -7.30500 16.17200 38.69000
C  -5.97000 15.32700 38.59600
H  -5.02500 15.70300 37.47800
N  -12.64300 18.59200 40.83600
C  -11.86200 19.55300 40.36100
C  -12.71900 20.73600 40.13200
C  -14.01700 20.33400 40.44400
C  -13.91000 18.91200 40.89500
C  -12.25200 22.07100 39.61300
C  -15.18800 21.27400 40.39100
O  -15.10100 22.44600 39.95000
C  -16.63400 20.86900 40.72400
N  -13.93800 15.90800 41.83000
C  -15.05000 16.70600 41.65100
C  -16.38900 15.93600 41.85600
C  -15.80700 14.58400 42.28800
C  -14.33100 14.69600 42.07800
C  -17.39100 16.55100 42.79800
C  -16.34300 13.32500 41.51800
C  -16.75300 12.21600 42.52200
N  -11.45300 14.64400 41.67300
C  -12.14500 13.50400 41.96200
C  -11.30000 12.39000 42.15700
C  -10.05700 12.96500 41.86900
C  -10.22000 14.31500 41.54200
C  -11.60300 10.98500 42.47200
C  -8.65300 12.57500 41.67100
O  -8.14600 11.48800 41.80000
C  -7.99300 13.82100 41.25700
C  -7.05400 14.09700 42.33400
O  -7.23700 14.61000 43.43700
O  -5.79200 13.62000 41.92600
C  -4.70000 14.24100 42.67300
H  -10.02400 20.37800 39.85200
H  -15.98100 18.51300 41.21300
H  -14.01800 12.61700 42.53100
H  -6.78400 16.82000 40.74800
H  -8.21700 18.52000 38.75400
H  -7.58900 20.33500 39.74300
H  -6.50000 19.33000 40.81800
H  -7.98600 19.77200 41.37800
H  -7.37100 16.88000 37.86400
H  -8.09100 15.53500 38.28500
H  -6.21000 14.29200 38.35200
H  -5.43000 15.47700 39.53100
H  -12.30800 22.07000 38.52400
H  -11.18300 22.28200 39.65500
H  -12.67900 22.99800 39.99500
H  -17.25900 21.76100 40.77200
H  -16.68400 20.35600 41.68400
H  -16.95200 20.17300 39.94800
H  -16.85200 15.83400 40.87500
H  -15.98000 14.52400 43.36300
H  -18.39700 16.67300 42.39700
H  -16.93300 17.47700 43.14600
H  -17.49600 15.93000 43.68700
H  -15.76800 12.92700 40.68100
H  -17.27800 13.63100 41.04800
H  -17.28800 11.40500 42.02800
H  -17.27800 12.58500 43.40400
H  -15.85700 11.68800 42.84900
H  -10.69300 10.38900 42.54000
H  -12.16200 10.43200 41.71700
H  -12.10700 10.96600 43.43900
H  -7.51000 13.71200 40.28600
H  -4.00100 14.23000 41.83700
H  -4.36300 13.60600 43.49200
H  -4.78700 15.27100 43.01800

