158

Mg 41.15100 9.34400 29.85300
C  42.74800 10.48100 32.78200
C  38.58000 8.20100 31.77200
C  39.80700 7.96800 27.07800
C  43.91800 10.38200 28.06500
N  40.70300 9.45400 32.06100
C  41.49400 9.94100 33.02900
C  40.74900 9.77600 34.40300
C  39.50600 8.89500 34.11000
C  39.59200 8.76100 32.56200
C  39.42500 7.59800 34.91000
C  40.49400 11.15700 35.06700
C  40.02500 11.17200 36.55300
H  40.84300 12.07500 37.53600
N  39.34200 8.24400 29.48600
C  38.43200 7.95600 30.37900
C  37.30600 7.39700 29.72400
C  37.54200 7.35400 28.30600
C  38.96000 7.84100 28.20800
C  36.11600 6.83300 30.51100
C  36.66600 6.97900 27.13100
O  37.04300 7.20900 25.97100
C  35.26600 6.52200 27.35200
N  41.86900 9.21100 27.89800
C  41.10300 8.57900 26.92200
C  41.80900 8.55600 25.52900
C  43.11600 9.29500 25.88300
C  42.92000 9.70700 27.33900
C  42.07300 7.15500 24.85500
C  43.60500 10.40900 24.94100
C  42.95900 11.72000 25.08500
N  42.94800 10.32800 30.20500
C  43.97200 10.66000 29.35200
C  45.05300 11.20300 30.11500
C  44.67500 11.12400 31.47100
C  43.35000 10.63200 31.45000
C  46.48100 11.59900 29.61800
C  45.06700 11.38500 32.81800
O  46.05400 11.99800 33.25500
C  43.83400 10.95900 33.74500
C  44.33500 10.05500 34.75900
O  44.34500 8.86100 34.72400
O  44.82200 10.76900 35.89200
C  45.27100 9.91000 36.95200
H  37.73800 7.93200 32.41300
H  39.41600 7.50200 26.17100
H  44.88100 10.54900 27.57800
H  41.49600 9.24600 34.99500
H  38.53800 9.31800 34.38100
H  40.17900 7.51700 35.69300
H  39.64200 6.76500 34.24200
H  38.40600 7.38600 35.23500
H  39.82000 11.72200 34.42400
H  41.39900 11.73000 34.86600
H  39.91100 10.17000 36.96600
H  39.01700 11.58600 36.55400
H  35.18400 7.28300 30.16800
H  36.17300 7.08700 31.57000
H  35.87500 5.77600 30.40200
H  35.26300 5.77100 28.14200
H  34.93700 5.97200 26.47100
H  34.64400 7.40800 27.48100
H  41.17400 9.26500 24.99700
H  43.99100 8.64500 25.90900
H  41.73700 6.45800 25.62300
H  43.13200 6.99300 24.65400
H  41.41400 7.00600 23.99900
H  43.41400 9.91400 23.98800
H  44.66500 10.64500 25.03500
H  42.24300 11.63400 25.90200
H  42.36900 11.97100 24.20400
H  43.64500 12.54500 25.27900
H  46.54100 12.61700 29.23300
H  46.88800 10.89200 28.89500
H  47.04600 11.71000 30.54400
H  43.47000 11.90000 34.15800
H  45.99700 10.56900 37.42900
H  45.84100 9.03500 36.63900
H  44.54000 9.57800 37.68900
Mg 42.23400 40.61500 26.18300
C  41.41100 42.90700 28.74400
C  43.39900 38.51100 28.63200
C  43.01000 38.63200 23.71600
C  41.39400 43.18100 23.81300
N  42.52600 40.79300 28.35600
C  41.99300 41.75400 29.23900
C  42.00300 41.37800 30.72900
C  42.76100 39.94100 30.62800
C  42.90300 39.74600 29.11600
C  44.21900 40.01600 31.34400
C  40.51300 41.14300 31.16000
C  40.10000 41.95600 32.38900
H  39.40800 41.18400 33.52400
N  43.14100 38.78800 26.25700
C  43.44200 37.97700 27.32100
C  43.87700 36.69300 26.76700
C  43.81600 36.78900 25.32000
C  43.32800 38.15700 25.01900
C  44.17700 35.55300 27.65700
C  44.11000 35.67900 24.32700
O  44.10700 35.88800 23.12500
C  44.64000 34.38700 24.67300
N  42.31200 40.92700 23.96200
C  42.69400 39.88200 23.22500
C  42.46700 40.20500 21.74800
C  41.87600 41.68100 21.83200
C  41.90500 42.01200 23.32400
C  43.70700 40.10800 20.82300
C  40.41100 41.82900 21.26600
C  40.29500 42.25600 19.76400
N  41.47400 42.60200 26.21700
C  41.14500 43.48900 25.18800
C  40.71500 44.75200 25.78800
C  40.81200 44.56800 27.21000
C  41.27300 43.27000 27.37300
C  40.30200 45.94900 25.05000
C  40.57200 45.13700 28.44600
O  40.07300 46.20500 28.63100
C  40.97400 44.16500 29.50900
C  42.01600 44.67700 30.39500
O  43.23200 44.63900 30.26600
O  41.39400 45.16200 31.50900
C  42.27000 45.36100 32.64200
H  43.68100 37.86300 29.46500
H  43.33800 37.92500 22.95100
H  40.97300 43.92100 23.12900
H  42.55200 42.09500 31.33900
H  42.30200 39.10800 31.15900
H  44.33100 39.17600 32.03100
H  44.28300 40.92200 31.94600
H  44.97800 39.84300 30.58100
H  40.36300 40.13300 31.54200
H  39.85900 41.33500 30.30900
H  39.46400 42.81200 32.16400
H  41.01900 42.29700 32.86500
H  45.10400 35.02500 27.43200
H  43.41100 34.78700 27.53900
H  44.15400 35.81000 28.71600
H  44.79100 33.72400 23.82000
H  44.04100 33.86200 25.41600
H  45.63100 34.51500 25.10700
H  41.70300 39.53400 21.35400
H  42.58100 42.40500 21.42400
H  44.24800 41.05200 20.76700
H  43.43000 39.74100 19.83500
H  44.37700 39.40800 21.32100
H  39.69600 42.48400 21.76400
H  39.87200 40.88200 21.29500
H  39.68400 41.67800 19.07000
H  41.31700 42.38600 19.40800
H  39.95300 43.28800 19.67800
H  39.28800 46.30900 25.22700
H  40.50400 45.77800 23.99300
H  40.96000 46.79800 25.23400
H  40.05800 43.92300 30.04800
H  42.48900 44.36300 33.02400
H  41.73700 46.04300 33.30300
H  43.24700 45.78200 32.40400

