158

Mg 43.75800 3.75800 47.50100
C  41.44500 6.39800 47.19100
C  41.18500 1.54500 47.49400
C  46.01200 1.19300 47.05700
C  46.35800 5.98700 46.71900
N  41.47500 4.00200 47.06500
C  40.79400 5.16700 47.34900
C  39.23600 4.84700 47.53000
C  39.27300 3.28200 47.63100
C  40.72300 2.87100 47.40600
C  38.62700 2.65900 48.97000
C  38.32100 5.44300 46.39400
C  38.41900 4.77100 44.96500
H  38.36400 5.88200 43.85900
N  43.69000 1.74000 47.45100
C  42.49100 0.99500 47.47300
C  42.80200 -0.37500 47.29400
C  44.17700 -0.51600 47.01100
C  44.73400 0.83900 47.19700
C  41.81700 -1.46900 47.25100
C  44.94300 -1.77300 46.62100
O  44.29100 -2.73800 46.17200
C  46.46600 -1.90400 46.56600
N  45.95700 3.58800 47.31700
C  46.62900 2.46200 47.25300
C  48.13300 2.71500 46.99200
C  48.22800 4.23400 46.70800
C  46.80400 4.65600 46.90300
C  49.01300 2.22300 48.12400
C  48.98700 4.60400 45.33300
C  50.42800 5.04000 45.52700
N  43.89000 5.78800 47.11800
C  45.02600 6.55800 46.82200
C  44.56600 7.97600 46.56100
C  43.21100 7.89100 46.73100
C  42.83700 6.59000 47.05300
C  45.46100 9.18100 46.23600
C  41.95500 8.74000 46.74100
O  41.78600 9.93700 46.65600
C  40.73700 7.73100 46.95100
C  39.91200 8.28700 48.10900
O  39.90400 7.75800 49.21800
O  39.17600 9.33700 47.72800
C  38.24900 9.81800 48.70700
H  40.35700 0.85100 47.65200
H  46.75800 0.46400 46.73300
H  47.02000 6.66600 46.17700
H  38.89500 5.17000 48.51300
H  38.62600 2.79500 46.90200
H  37.99400 1.79100 48.78600
H  37.93000 3.34500 49.45300
H  39.40300 2.26600 49.62600
H  38.26800 6.53100 46.43500
H  37.32600 5.09600 46.67200
H  37.57800 4.10500 44.77000
H  39.32700 4.18300 44.83100
H  41.96300 -2.17600 48.06700
H  42.00300 -1.93600 46.28300
H  40.77100 -1.17400 47.16700
H  46.96300 -1.48200 47.44000
H  46.98300 -1.56900 45.66700
H  46.61600 -2.98300 46.62200
H  48.44100 2.06600 46.17300
H  48.71000 4.70000 47.56800
H  49.64200 1.43200 47.71500
H  48.42900 1.77300 48.92700
H  49.60400 3.04800 48.52100
H  48.34900 5.35000 44.85900
H  49.00500 3.68500 44.74800
H  50.51400 6.00800 45.03300
H  51.07900 4.21700 45.23000
H  50.56000 5.15000 46.60300
H  44.92600 9.86300 45.57400
H  46.26300 8.79000 45.61000
H  45.85000 9.69000 47.11800
H  40.14900 7.65600 46.03700
H  38.78700 9.99200 49.63900
H  37.40000 9.18500 48.96300
H  37.91000 10.80700 48.39700
Mg 0.35900 43.23100 26.05400
C  2.46700 43.44000 28.77900
C  -2.11800 42.36400 28.34100
C  -1.52500 42.63100 23.50700
C  3.10100 43.64800 23.89800
N  0.09200 43.51800 28.40200
C  1.09600 43.49700 29.26500
C  0.63800 43.42100 30.67500
C  -0.79500 42.83000 30.55300
C  -0.93900 42.88800 29.00100
C  -1.14400 41.54600 31.35200
C  0.76500 44.82500 31.37900
C  0.63300 44.79500 32.92800
H  0.68800 43.48900 33.70800
N  -1.64800 42.87300 25.93800
C  -2.51600 42.57200 26.95100
C  -3.85100 42.20900 26.40200
C  -3.62800 42.16100 24.99000
C  -2.19600 42.49300 24.75300
C  -5.10100 41.98300 27.26200
C  -4.62300 41.79300 23.98200
O  -4.31800 41.66600 22.79400
C  -6.11100 41.49800 24.35000
N  0.67200 43.27900 24.00100
C  -0.24700 42.89700 23.11800
C  0.20400 42.87200 21.59600
C  1.67600 43.41800 21.80000
C  1.83700 43.45000 23.31500
C  0.07300 41.45100 20.95800
C  1.90200 44.82200 21.11100
C  1.30000 46.01800 21.86900
N  2.37900 43.48700 26.20000
C  3.38500 43.52800 25.30700
C  4.62800 43.58900 26.00300
C  4.30800 43.50400 27.32800
C  2.93900 43.48000 27.40200
C  6.00200 43.62400 25.46300
C  4.88800 43.39500 28.60200
O  6.02400 43.40400 28.97100
C  3.75000 43.46400 29.65700
C  3.98600 42.29200 30.50800
O  3.50500 41.15700 30.40900
O  4.68500 42.69900 31.59000
C  4.97700 41.64100 32.52400
H  -2.89500 42.05200 29.04200
H  -2.11200 42.29000 22.65200
H  4.00700 43.66400 23.28900
H  1.26200 42.69300 31.19300
H  -1.51600 43.59400 30.84300
H  -1.19300 40.73200 30.62800
H  -2.15700 41.64600 31.74000
H  -0.36900 41.29100 32.07500
H  -0.12200 45.32400 30.98900
H  1.66200 45.25800 30.93500
H  -0.18800 45.42100 33.27800
H  1.56500 45.22300 33.29700
H  -5.91200 42.67800 27.04600
H  -4.83800 41.97600 28.32000
H  -5.39400 40.96200 27.01900
H  -6.31200 40.55400 24.85600
H  -6.72100 41.61700 23.45500
H  -6.43200 42.29400 25.02100
H  -0.47100 43.51800 21.03500
H  2.44500 42.75600 21.40200
H  1.07400 41.02900 21.04600
H  -0.17500 41.59600 19.90600
H  -0.71800 40.85000 21.40800
H  1.42000 44.76400 20.13500
H  2.97300 45.02400 21.10100
H  0.67800 46.54300 21.14400
H  2.13000 46.60000 22.26800
H  0.59000 45.78700 22.66300
H  6.10700 44.68100 25.21800
H  6.12400 43.02700 24.56000
H  6.77400 43.29500 26.15800
H  3.79800 44.38400 30.24000
H  5.55900 40.79400 32.15800
H  4.11200 41.22100 33.03700
H  5.60900 42.10400 33.28200

