158

Mg 35.83600 0.83900 29.88900
C  33.79400 2.08900 32.50700
C  38.45400 0.79900 32.14600
C  37.88300 -0.24000 27.38400
C  33.30100 1.45500 27.63700
N  35.99000 1.33500 32.09200
C  35.05200 1.74200 32.99200
C  35.64000 2.01400 34.35200
C  37.15300 1.76200 34.19500
C  37.23800 1.17800 32.73700
C  38.08700 3.04300 34.42500
C  34.87300 1.18800 35.47200
C  34.35000 1.95000 36.78500
H  35.08300 3.08300 37.39400
N  37.88700 0.19600 29.76800
C  38.81300 0.36300 30.78700
C  40.17200 0.11500 30.32100
C  39.96500 -0.36100 28.94600
C  38.54400 -0.18500 28.61400
C  41.45600 0.30400 31.12200
C  41.08200 -0.86600 27.95500
O  40.79300 -1.21200 26.79900
C  42.49200 -0.92500 28.48800
N  35.62800 0.64500 27.81400
C  36.56800 0.09700 26.99100
C  36.12600 0.01000 25.53700
C  34.62500 0.56500 25.65300
C  34.52100 0.91400 27.12900
C  37.05800 0.60200 24.46500
C  33.56300 -0.37900 25.17500
C  33.30300 -1.64800 25.94100
N  34.03300 1.72800 29.97500
C  33.06300 1.81800 28.97000
C  31.82700 2.19500 29.51400
C  32.09300 2.46100 30.90000
C  33.42100 2.02500 31.15000
C  30.53000 2.43600 28.77000
C  31.52400 2.85500 32.15100
O  30.31600 3.11300 32.34400
C  32.59200 2.70900 33.23800
C  32.92600 4.05400 33.78200
O  33.70700 4.86200 33.24600
O  32.12000 4.35000 34.81800
C  32.32500 5.63300 35.55800
H  39.27800 0.92300 32.85200
H  38.53800 -0.58900 26.58300
H  32.45300 1.53700 26.95400
H  35.44600 3.06500 34.56400
H  37.56900 1.02900 34.88600
H  37.49100 3.93800 34.24800
H  38.94300 3.00900 33.75100
H  38.62300 2.99200 35.37300
H  35.58200 0.41400 35.76500
H  33.97000 0.72300 35.07600
H  34.19300 1.17800 37.53800
H  33.37300 2.38400 36.57000
H  41.32500 0.98200 31.96600
H  42.20900 0.85500 30.55700
H  41.95100 -0.62200 31.41400
H  42.91100 0.07900 28.42100
H  43.02900 -1.62600 27.84900
H  42.64500 -1.35500 29.47800
H  36.05000 -1.03200 25.22400
H  34.60200 1.57200 25.23500
H  37.58500 -0.11400 23.83400
H  37.91300 1.20400 24.77300
H  36.47000 1.27700 23.84200
H  33.95300 -0.67300 24.20100
H  32.65600 0.19700 24.99000
H  34.00500 -1.76500 26.76700
H  33.35500 -2.50700 25.27300
H  32.33600 -1.57600 26.43700
H  29.72400 1.90200 29.27400
H  30.65000 2.01400 27.77200
H  30.21900 3.47400 28.65900
H  32.19600 2.10300 34.05200
H  33.32000 6.05700 35.42200
H  32.21200 5.49600 36.63300
H  31.54800 6.33200 35.24800
Mg 48.18300 15.89700 28.48400
C  46.17700 15.61900 31.38800
C  50.25000 18.00000 30.21800
C  50.07200 16.06100 25.81000
C  45.83200 14.00900 26.75700
N  48.09500 16.77700 30.55800
C  47.23200 16.36400 31.57100
C  47.75800 16.94700 32.94600
C  48.94300 17.86600 32.47300
C  49.05700 17.57200 30.96000
C  48.74200 19.44500 32.68500
C  48.19900 15.90200 33.92300
C  48.03200 16.33700 35.45200
H  49.10900 15.89200 36.41400
N  49.86800 16.96100 28.16500
C  50.59500 17.77600 28.95600
C  51.82200 18.21300 28.31200
C  51.79700 17.64900 26.96900
C  50.56900 16.80300 26.91600
C  52.89800 19.02100 29.02000
C  52.86100 17.74700 25.86800
O  52.81200 17.09800 24.82800
C  54.09800 18.54900 26.03800
N  47.88400 15.29300 26.53300
C  48.91500 15.37100 25.60500
C  48.58300 14.68200 24.27700
C  47.14500 14.23100 24.53100
C  46.92900 14.51200 25.99900
C  48.57900 15.70400 23.00500
C  46.97600 12.72800 24.14500
C  47.80100 11.64500 24.93800
N  46.38100 15.05700 28.94100
C  45.54500 14.25200 28.11500
C  44.37000 13.97900 28.83300
C  44.57000 14.45200 30.14300
C  45.82500 15.09200 30.16300
C  43.18600 13.19800 28.26700
C  43.95800 14.47300 31.43400
O  42.89600 14.00600 31.85900
C  44.98700 15.16800 32.34300
C  44.43100 16.48400 32.88500
O  44.11800 17.50400 32.23800
O  44.29500 16.38000 34.28100
C  44.08500 17.70200 34.93600
H  50.88200 18.68800 30.78300
H  50.74700 16.17000 24.95900
H  45.08100 13.41000 26.23700
H  46.98300 17.57200 33.39000
H  49.86300 17.56200 32.97100
H  48.58700 20.05700 31.79600
H  49.56900 19.82500 33.28400
H  47.86000 19.73400 33.25600
H  49.25600 15.73000 33.72200
H  47.67100 14.97800 33.68800
H  47.12000 15.80700 35.72400
H  47.86400 17.41000 35.53300
H  52.81600 19.10200 30.10400
H  53.06800 19.98700 28.54500
H  53.76900 18.39400 28.83100
H  53.85000 19.38000 26.69900
H  54.30600 18.86500 25.01600
H  54.99300 18.05800 26.42200
H  49.26000 13.85100 24.08000
H  46.35800 14.85000 24.10100
H  47.58100 15.84500 22.58800
H  49.22300 15.34100 22.20400
H  48.85000 16.72300 23.27900
H  47.42800 12.64500 23.15700
H  45.90200 12.58200 24.03200
H  47.08100 10.87400 25.21200
H  48.34200 12.02800 25.80200
H  48.57700 11.19300 24.32100
H  42.80900 13.40500 27.26500
H  42.36900 13.46700 28.93600
H  43.38000 12.12600 28.30200
H  45.34300 14.42300 33.05500
H  44.50600 18.49600 34.31900
H  44.60800 17.67300 35.89200
H  43.00100 17.81600 34.92600

