158

Mg 0.76200 -1.18000 44.13400
C  4.11500 -0.04400 43.76900
C  -0.26000 1.51800 42.33000
C  -2.28500 -2.58700 44.06700
C  2.05900 -4.28700 45.23700
N  1.81300 0.52800 43.05800
C  3.15900 0.83000 43.14700
C  3.45900 2.17000 42.48000
C  2.05000 2.76500 42.28100
C  1.11700 1.54600 42.50800
C  1.61200 4.03600 43.07800
C  4.28500 2.00100 41.11500
C  5.58100 2.75600 41.08600
H  6.70700 2.13600 40.30000
N  -1.03900 -0.54500 43.47200
C  -1.30500 0.64400 42.77000
C  -2.72800 0.64500 42.39300
C  -3.38200 -0.47700 42.95500
C  -2.28300 -1.28900 43.49100
C  -3.33500 1.95700 41.73500
C  -4.82300 -0.72900 43.01900
O  -5.62100 0.03400 42.46000
C  -5.45600 -1.77600 43.88600
N  0.06700 -3.09600 44.53400
C  -1.26000 -3.32800 44.56800
C  -1.55300 -4.74600 45.13800
C  -0.17600 -5.38900 45.27600
C  0.72600 -4.16200 45.00400
C  -2.31200 -4.67400 46.47800
C  0.16600 -6.55200 44.41900
C  0.58000 -7.75600 45.26800
N  2.61400 -2.01300 44.36800
C  2.96400 -3.25300 44.95500
C  4.46700 -3.26300 45.11700
C  4.86700 -1.98600 44.65900
C  3.75300 -1.27000 44.21900
C  5.33200 -4.37700 45.67000
C  6.09100 -1.18300 44.46700
O  7.22500 -1.60800 44.60500
C  5.65300 0.17000 43.98000
C  5.82900 1.19900 44.95900
O  5.35100 1.35000 46.12000
O  6.78600 2.05600 44.44600
C  7.32200 3.09000 45.33500
H  -0.58800 2.50500 41.99500
H  -3.24000 -3.08200 44.25400
H  2.44500 -5.29000 45.43100
H  4.02200 2.71300 43.24000
H  1.83800 3.03500 41.24600
H  0.99500 3.78400 43.94000
H  0.98400 4.60000 42.38800
H  2.43200 4.64100 43.46500
H  3.77800 2.54200 40.31600
H  4.44600 0.97200 40.79300
H  5.99000 2.83200 42.09300
H  5.50000 3.77500 40.70800
H  -3.54900 1.64500 40.71300
H  -2.64400 2.79000 41.60700
H  -4.29400 2.23500 42.17200
H  -5.27000 -2.76000 43.45400
H  -6.51200 -1.50800 43.93000
H  -4.93800 -1.76400 44.84500
H  -2.12200 -5.28800 44.38200
H  -0.01200 -5.54100 46.34200
H  -3.30100 -5.09500 46.29400
H  -2.45600 -3.65700 46.84300
H  -1.75100 -5.25000 47.21400
H  0.98600 -6.39400 43.71900
H  -0.65600 -6.92000 43.80500
H  1.41200 -7.47800 45.91500
H  0.93000 -8.56600 44.62900
H  -0.32800 -7.94900 45.84000
H  5.07100 -5.40200 45.40800
H  5.39800 -4.35300 46.75800
H  6.34100 -4.40400 45.25800
H  6.09500 0.48600 43.03600
H  8.03700 2.61000 46.00400
H  6.59400 3.74500 45.81300
H  7.89500 3.72400 44.65800
Mg 35.80900 49.31800 24.75400
C  36.06100 47.38100 27.65100
C  34.74000 51.86200 26.81500
C  34.88700 51.02200 21.94300
C  36.76900 46.55800 22.90500
N  35.31200 49.52000 26.91600
C  35.50900 48.63400 27.92700
C  35.23300 49.23600 29.24300
C  34.66100 50.64400 28.96300
C  34.90000 50.68400 27.46000
C  33.11900 50.82100 29.34700
C  36.63000 49.41000 30.03200
C  36.54300 49.46100 31.58700
H  35.13800 49.45400 32.27200
N  34.98400 51.16300 24.38700
C  34.69500 52.10900 25.41100
C  34.24700 53.37000 24.78100
C  34.24900 53.09800 23.31900
C  34.69600 51.71400 23.16900
C  33.78600 54.53900 25.48300
C  33.90900 54.08100 22.20500
O  33.73200 53.79300 21.02800
C  33.68600 55.55200 22.62900
N  36.02400 48.91400 22.70300
C  35.61800 49.78800 21.75800
C  35.89900 49.29800 20.33000
C  36.36000 47.80700 20.59900
C  36.47200 47.74200 22.13900
C  34.62900 49.30900 19.42400
C  37.75200 47.37700 19.92900
C  39.06000 47.85500 20.52700
N  36.37400 47.41400 25.14200
C  36.90000 46.42900 24.31000
C  37.35100 45.27400 25.06000
C  37.01900 45.58800 26.37200
C  36.43000 46.89800 26.38400
C  37.93600 44.09400 24.48300
C  37.08700 45.07900 27.67500
O  37.51800 43.96700 28.08900
C  36.47500 46.22500 28.56500
C  35.32700 45.64800 29.29600
O  34.15500 45.59200 28.93800
O  35.80600 45.30300 30.56900
C  34.81500 45.09900 31.62500
H  34.76000 52.67400 27.54500
H  34.68000 51.61100 21.04700
H  37.15100 45.72300 22.31400
H  34.55700 48.61700 29.83200
H  35.18100 51.43300 29.50600
H  32.61300 49.95100 29.76600
H  32.52400 50.95900 28.44500
H  33.04300 51.71500 29.96500
H  37.12400 50.27200 29.58400
H  37.13700 48.47300 29.80000
H  37.02100 50.40500 31.85100
H  37.15700 48.65300 31.98500
H  33.73700 54.46600 26.57000
H  32.79500 54.82700 25.13500
H  34.42900 55.39500 25.27800
H  33.66200 56.03000 21.64900
H  34.51100 55.98900 23.19200
H  32.68700 55.51300 23.06100
H  36.64700 50.01700 19.99700
H  35.61100 47.10700 20.22900
H  33.73000 48.95200 19.92600
H  34.83500 48.70000 18.54400
H  34.42100 50.32800 19.09600
H  37.66200 47.64000 18.87500
H  37.70200 46.28900 19.97800
H  39.55000 48.37400 19.70400
H  39.60300 46.97200 20.86600
H  38.96300 48.57600 21.33800
H  37.10700 43.38800 24.51200
H  38.67900 43.73500 25.19500
H  38.22800 44.07600 23.43300
H  37.34300 46.43200 29.19200
H  34.77400 44.03100 31.83800
H  33.80900 45.39100 31.32200
H  35.07400 45.64800 32.53000

