158

Mg 6.38000 57.25500 42.16800
C  5.22900 53.94200 42.25100
C  9.23600 56.17800 40.97300
C  7.16500 60.47900 41.78000
C  3.09300 58.34100 43.12900
N  6.94100 55.27600 41.39700
C  6.44600 54.08400 41.55000
C  7.36400 52.98400 40.86800
C  8.71600 53.69000 40.94300
C  8.26100 55.18200 41.13000
C  9.65100 53.24400 42.15100
C  6.89900 52.66000 39.45100
C  7.53700 51.41800 38.92600
H  6.63700 50.56100 38.02800
N  7.96900 58.18800 41.33400
C  9.15500 57.59500 40.94100
C  10.05000 58.60700 40.38800
C  9.43000 59.87100 40.59500
C  8.10100 59.53200 41.30700
C  11.35200 58.16800 39.76700
C  10.09800 61.17200 40.17200
O  11.18500 61.20300 39.61000
C  9.56500 62.57300 40.66400
N  5.26100 59.15600 42.33900
C  5.87500 60.31600 42.24500
C  4.94600 61.47200 42.61700
C  3.53600 60.82000 42.64900
C  3.97200 59.35100 42.71200
C  5.37700 62.33000 43.79000
C  2.64500 61.11100 41.40500
C  1.09900 61.05200 41.61300
N  4.47300 56.32600 42.62600
C  3.29800 56.86600 43.14200
C  2.39200 55.74300 43.41300
C  3.21900 54.59200 43.26100
C  4.37800 54.98000 42.62600
C  0.96300 55.83900 43.87700
C  3.14900 53.14100 43.31000
O  2.37100 52.30600 43.78900
C  4.55100 52.68900 42.70200
C  4.37600 51.58200 41.71100
O  3.87300 51.62500 40.61500
O  4.92900 50.49400 42.31000
C  4.91800 49.20800 41.60100
H  10.25900 55.86400 40.75600
H  7.35500 61.55400 41.80100
H  2.08600 58.56000 43.48900
H  7.19000 52.22500 41.63000
H  9.30200 53.57900 40.03000
H  9.30600 52.26000 42.46900
H  9.67900 53.90800 43.01500
H  10.64200 53.09600 41.72400
H  7.21600 53.54700 38.90300
H  5.81400 52.57300 39.51000
H  8.03200 50.86300 39.72200
H  8.49100 51.73900 38.50800
H  11.19800 57.81100 38.74900
H  11.80600 57.30300 40.25000
H  12.12200 58.94000 39.74100
H  8.58800 62.61700 40.18300
H  10.09200 63.45500 40.30000
H  9.43200 62.55900 41.74500
H  4.90100 62.08600 41.71800
H  3.03100 61.12400 43.56600
H  6.33700 61.98100 44.17000
H  4.67100 62.31600 44.62000
H  5.43200 63.36900 43.46300
H  2.98300 60.49300 40.57300
H  2.85800 62.13600 41.10300
H  0.57500 60.51000 40.82500
H  0.56200 61.99200 41.48400
H  0.83200 60.64400 42.58800
H  0.33400 56.16300 43.04800
H  0.92100 56.66100 44.59100
H  0.67200 54.93900 44.41900
H  5.24400 52.36000 43.47600
H  5.81000 49.18000 40.97500
H  4.10900 48.88400 40.94500
H  4.92000 48.41600 42.34900
Mg 15.61300 51.96100 25.18000
C  17.20000 50.81100 28.16100
C  13.05300 53.02300 27.28700
C  14.11700 53.40900 22.64700
C  18.25300 50.90400 23.34800
N  15.22100 51.96600 27.50900
C  16.07700 51.57000 28.47800
C  15.49800 51.89000 29.92100
C  14.11100 52.40300 29.57400
C  14.15600 52.48600 28.01400
C  12.86300 51.59900 30.19700
C  16.47200 52.91400 30.56200
C  16.44300 52.98000 32.13400
H  15.50300 52.10600 32.97100
N  13.72500 52.85100 24.94300
C  12.84400 53.20600 25.91900
C  11.61800 53.83700 25.30300
C  11.97500 54.10100 23.97200
C  13.27800 53.35800 23.77000
C  10.45600 54.24800 26.11100
C  11.23500 54.95700 22.93600
O  11.59900 55.12200 21.76800
C  10.02800 55.69500 23.27100
N  16.11100 52.24500 23.32100
C  15.39900 52.88200 22.39200
C  16.14800 52.95700 21.00000
C  17.51600 52.31100 21.43600
C  17.29200 51.77500 22.72600
C  15.43700 52.32800 19.80000
C  18.73700 53.26400 21.44500
C  19.71500 53.05800 20.27200
N  17.36900 51.03200 25.61300
C  18.34000 50.61200 24.73300
C  19.30100 49.84500 25.47100
C  18.92800 49.88000 26.81000
C  17.72600 50.55900 26.84500
C  20.54400 49.31900 24.91300
C  19.28000 49.53000 28.13800
O  20.17700 48.82200 28.61900
C  18.23100 50.19000 29.08100
C  17.64200 49.08700 29.98900
O  16.59400 48.54100 29.87100
O  18.46700 49.02800 31.07600
C  18.07700 48.26900 32.24500
H  12.26900 53.30500 27.99300
H  13.71000 54.00700 21.82900
H  19.09900 50.63900 22.71100
H  15.41900 51.04200 30.60100
H  14.06600 53.42300 29.95500
H  13.17800 50.77800 30.84100
H  12.23800 51.17300 29.41300
H  12.29800 52.28800 30.82500
H  16.17000 53.89700 30.19900
H  17.52400 52.81600 30.29400
H  16.17600 54.03300 32.22500
H  17.46700 52.78900 32.45300
H  10.26800 53.47600 26.85700
H  9.53500 54.28300 25.53000
H  10.63100 55.19500 26.62100
H  10.35500 56.10600 24.22600
H  9.26000 54.94100 23.44400
H  9.86000 56.48600 22.54000
H  16.22700 54.02400 20.79000
H  17.76800 51.55800 20.69000
H  15.21500 53.09100 19.05400
H  14.45600 51.90600 20.02000
H  16.02200 51.57700 19.27100
H  19.31100 53.08300 22.35400
H  18.34200 54.27700 21.36500
H  19.40200 52.41900 19.44600
H  20.62400 52.65000 20.71500
H  20.03600 54.00000 19.82800
H  21.33400 50.06800 24.96700
H  20.35400 49.16000 23.85200
H  20.74100 48.31700 25.29400
H  18.74300 50.97300 29.63900
H  17.78700 47.28400 31.87700
H  17.23700 48.64700 32.82700
H  18.90600 48.11200 32.93500

