158

Mg -10.82100 16.99900 40.17200
C  -7.33300 16.65600 40.37100
C  -10.50900 20.25100 39.76200
C  -14.10800 16.91300 39.13700
C  -10.87600 13.29300 40.00900
N  -9.03300 18.28600 40.19000
C  -7.74900 18.02400 40.32000
C  -6.93600 19.33600 40.15800
C  -8.04800 20.48700 40.32900
C  -9.29700 19.66000 40.18200
C  -7.97500 21.30700 41.64100
C  -6.38400 19.44500 38.67700
C  -4.90300 19.13400 38.45900
H  -4.47900 18.21500 37.36200
N  -12.11200 18.38200 39.62300
C  -11.72600 19.71600 39.43100
C  -12.94900 20.48100 39.17100
C  -14.05900 19.57200 39.04000
C  -13.44200 18.21500 39.30900
C  -12.96700 21.94900 39.11400
C  -15.48300 19.93200 38.67300
O  -15.74600 21.07800 38.25200
C  -16.60100 18.90400 38.61400
N  -12.18100 15.39500 39.46800
C  -13.52800 15.68200 39.23700
C  -14.42100 14.34900 39.20300
C  -13.31400 13.30000 39.36900
C  -12.03900 13.99000 39.65100
C  -15.48400 14.32400 40.35500
C  -13.14400 12.44100 38.00500
C  -12.93500 10.94800 38.31400
N  -9.44100 15.29700 40.31400
C  -9.57400 13.87900 40.24500
C  -8.30400 13.26100 40.50400
C  -7.43500 14.33500 40.56400
C  -8.13900 15.53300 40.42700
C  -7.90800 11.86000 40.67600
C  -6.02900 14.65400 40.81100
O  -5.10400 13.95100 41.14300
C  -5.90900 16.12300 40.62100
C  -5.22100 16.78400 41.77800
O  -4.02800 17.06700 41.75100
O  -6.04500 17.17200 42.75000
C  -5.39600 18.02000 43.77700
H  -10.44200 21.34100 39.73000
H  -15.15700 16.78600 38.86300
H  -10.76600 12.21100 39.90900
H  -6.13000 19.35500 40.89200
H  -8.07200 21.25200 39.55400
H  -7.65900 22.31100 41.35900
H  -7.28800 20.75200 42.28000
H  -8.95600 21.43600 42.10000
H  -6.53600 20.47000 38.33800
H  -6.92100 18.77600 38.00400
H  -4.51000 18.62700 39.34000
H  -4.33800 20.03100 38.20300
H  -13.78600 22.46000 39.61900
H  -12.86800 22.36600 38.11200
H  -12.15900 22.40000 39.69100
H  -17.58100 19.38000 38.63600
H  -16.55200 18.19400 39.44000
H  -16.50700 18.27600 37.72800
H  -14.86300 14.34200 38.20700
H  -13.36600 12.68200 40.26500
H  -15.08800 13.85900 41.25800
H  -16.44400 13.82900 40.20600
H  -15.71300 15.35000 40.64400
H  -12.48100 12.85200 37.24300
H  -14.16100 12.39300 37.61800
H  -11.91400 10.73300 38.00000
H  -13.57600 10.35500 37.66200
H  -13.01700 10.73700 39.38000
H  -6.83700 11.76200 40.85500
H  -8.16900 11.28900 39.78500
H  -8.42700 11.38600 41.50800
H  -5.11700 16.46800 39.95700
H  -4.98200 18.87000 43.23400
H  -4.71200 17.54500 44.48000
H  -6.21500 18.43300 44.36600
Mg -4.98500 26.02000 25.68500
C  -3.89200 27.28800 28.78700
C  -7.14000 24.04100 27.69600
C  -5.83800 24.38000 22.92100
C  -2.69400 27.99200 23.94800
N  -5.26700 25.58400 28.03800
C  -4.75900 26.30400 29.00800
C  -5.49000 26.01700 30.37500
C  -6.28400 24.73200 30.02400
C  -6.32300 24.82000 28.50100
C  -5.56600 23.44900 30.51700
C  -6.48500 27.15100 30.77900
C  -6.46300 27.40400 32.27800
H  -6.52300 26.12700 33.26900
N  -6.29600 24.40500 25.34300
C  -7.10800 23.77000 26.27500
C  -8.05100 22.86700 25.57800
C  -7.60900 22.90200 24.17100
C  -6.51900 23.91200 24.08600
C  -9.07700 21.96400 26.23600
C  -8.14200 22.13100 22.94800
O  -7.51700 22.12100 21.87000
C  -9.32200 21.23900 23.03900
N  -4.25100 26.01200 23.72800
C  -4.84200 25.31300 22.78500
C  -4.20400 25.73000 21.38700
C  -3.42100 27.06600 21.72500
C  -3.44000 27.05700 23.21700
C  -3.27800 24.57500 20.77200
C  -4.10400 28.31700 20.99400
C  -3.25500 29.21700 20.10300
N  -3.46300 27.29300 26.21700
C  -2.65800 28.09000 25.37600
C  -1.91000 28.98100 26.26800
C  -2.37300 28.66800 27.56500
C  -3.36700 27.67700 27.53400
C  -0.74700 29.82500 25.92000
C  -2.15900 29.01500 28.93800
O  -1.48000 29.89500 29.50500
C  -3.19600 28.15600 29.75200
C  -2.54800 27.35100 30.88100
O  -1.56400 26.63300 30.79900
O  -3.15100 27.50400 32.11600
C  -2.45500 26.85000 33.20600
H  -7.88000 23.41200 28.19700
H  -6.11500 23.78800 22.04500
H  -2.14100 28.72500 23.35700
H  -4.73500 25.69000 31.09000
H  -7.30300 24.73500 30.41100
H  -5.19400 22.76500 29.75500
H  -6.21300 22.99400 31.26700
H  -4.63200 23.64100 31.04400
H  -7.54200 27.04100 30.53900
H  -6.13300 28.10100 30.37700
H  -7.34300 28.02900 32.43000
H  -5.53500 27.90100 32.56200
H  -9.98200 21.88600 25.63500
H  -9.30400 22.41900 27.20100
H  -8.70700 20.99000 26.55600
H  -9.34800 20.52700 22.21400
H  -10.13000 21.95900 23.16500
H  -9.39600 20.56500 23.89200
H  -5.03500 25.96300 20.72100
H  -2.38800 26.92900 21.40600
H  -3.26800 23.73000 21.45900
H  -2.32700 24.92000 20.36500
H  -3.90600 24.22100 19.95400
H  -4.65700 28.94200 21.69500
H  -4.87400 28.01800 20.28200
H  -3.09000 30.26900 20.33500
H  -3.64700 29.23000 19.08600
H  -2.32400 28.67700 19.92800
H  -1.15000 30.82500 25.76100
H  -0.26600 29.56700 24.97600
H  0.04500 29.81300 26.66900
H  -3.91900 28.83500 30.20400
H  -1.46600 27.28000 33.35900
H  -2.33300 25.76800 33.15900
H  -2.97100 26.98500 34.15700

