158

Mg 35.76300 1.22100 28.79300
C  33.77800 2.25600 31.50400
C  38.46100 1.24900 30.89000
C  37.68200 0.53200 26.16800
C  32.94000 1.55800 26.69000
N  36.01200 1.66600 30.92500
C  35.09500 1.97300 31.82100
C  35.68400 2.07900 33.21700
C  37.23800 1.99700 32.96400
C  37.25300 1.55800 31.49800
C  38.07900 3.28100 33.23400
C  35.04700 1.02800 34.18200
C  34.75500 1.65500 35.53900
H  35.97800 2.27000 36.27800
N  37.82900 0.88400 28.55000
C  38.72700 0.89200 29.53800
C  39.97700 0.57400 29.00400
C  39.79400 0.21900 27.63800
C  38.38800 0.59300 27.38100
C  41.27600 0.43300 29.86700
C  40.71700 -0.38600 26.54900
O  40.34400 -0.75100 25.44900
C  42.12800 -0.75800 26.96900
N  35.32200 0.90400 26.71900
C  36.35400 0.82500 25.79500
C  35.77100 0.77700 24.29200
C  34.26600 0.99600 24.48300
C  34.19000 1.14400 26.05800
C  36.40000 1.87400 23.34900
C  33.27000 0.00600 24.02100
C  33.54300 -0.73700 22.62800
N  33.80000 1.69000 29.01400
C  32.78000 1.83000 28.07600
C  31.58400 2.39300 28.65800
C  31.93700 2.50800 30.00800
C  33.30600 2.10100 30.17100
C  30.30700 2.64700 27.96300
C  31.37800 2.91500 31.32100
O  30.23800 3.25500 31.66900
C  32.54000 2.76300 32.35100
C  32.80900 4.08200 32.89700
O  33.31600 5.09300 32.28200
O  32.45000 4.10600 34.23400
C  32.66500 5.43700 34.88400
H  39.35700 1.16900 31.51000
H  38.27700 0.33500 25.27300
H  32.08900 1.84500 26.06900
H  35.45700 3.02700 33.70500
H  37.66800 1.15500 33.50600
H  38.67500 3.56800 32.36800
H  38.83700 3.09900 33.99600
H  37.56500 4.18700 33.55400
H  35.70000 0.16800 34.32900
H  34.16900 0.52900 33.77200
H  34.24300 0.96800 36.21300
H  34.07600 2.49100 35.36700
H  41.16400 0.74700 30.90500
H  42.09300 1.04300 29.48300
H  41.57000 -0.61600 29.90000
H  42.74900 -1.23100 26.20800
H  41.91700 -1.47000 27.76700
H  42.56800 0.20000 27.24700
H  35.87200 -0.22700 23.88100
H  34.02600 1.99300 24.11300
H  37.10300 1.33700 22.71300
H  36.92000 2.62700 23.94100
H  35.61400 2.25300 22.69500
H  32.29700 0.49800 24.03000
H  33.18400 -0.78600 24.76400
H  33.71800 -1.81200 22.69100
H  34.46400 -0.32300 22.21700
H  32.76800 -0.52500 21.89200
H  29.85600 1.76300 27.51200
H  30.53600 3.41900 27.22900
H  29.61200 3.12100 28.65600
H  32.15700 2.14700 33.16500
H  32.25300 6.18400 34.20500
H  33.72600 5.49500 35.12400
H  32.09700 5.43800 35.81500
Mg 47.13000 16.27100 27.05100
C  45.05000 15.88300 29.84900
C  49.43600 17.87000 29.10400
C  48.86900 17.13600 24.30300
C  44.72700 14.85600 24.98800
N  47.21300 16.85300 29.26600
C  46.26200 16.51200 30.22200
C  46.78300 16.90100 31.63500
C  48.09500 17.68100 31.29800
C  48.33000 17.40700 29.81000
C  47.98200 19.17100 31.63700
C  46.93300 15.66400 32.60100
C  46.15400 15.71900 33.92800
H  45.98900 17.15200 34.53200
N  48.97400 17.18700 26.75200
C  49.85400 17.68600 27.72700
C  51.07200 18.11800 27.11300
C  50.92800 17.87400 25.75000
C  49.51600 17.36700 25.49900
C  52.25100 18.67500 27.84700
C  51.91000 18.20700 24.61400
O  51.69600 17.90800 23.46300
C  53.09700 19.01300 24.81000
N  46.79200 16.09600 24.97600
C  47.64200 16.56700 24.09400
C  47.13600 16.35300 22.70900
C  46.06400 15.35600 22.87400
C  45.82200 15.39800 24.35100
C  46.80600 17.69100 21.91900
C  46.13700 13.90500 22.23600
C  44.76600 13.21900 21.94500
N  45.32100 15.50100 27.34000
C  44.49000 14.86600 26.37800
C  43.28900 14.31000 27.09200
C  43.50700 14.79300 28.43500
C  44.73600 15.43100 28.55800
C  41.91800 13.66600 26.66000
C  42.87400 14.66200 29.75000
O  41.75900 14.27000 30.13500
C  43.86900 15.40200 30.73900
C  43.05500 16.43000 31.43400
O  42.49900 17.39400 30.97500
O  43.10400 16.20700 32.82900
C  42.14900 17.05500 33.49700
H  50.16600 18.30300 29.79000
H  49.30700 17.46000 23.35700
H  44.00700 14.33000 24.35800
H  45.89800 17.45100 31.95400
H  48.87800 17.24800 31.92000
H  47.11700 19.20400 32.30000
H  47.90700 19.78800 30.74300
H  48.82100 19.38400 32.29900
H  47.95800 15.34700 32.79500
H  46.51800 14.74100 32.19800
H  46.79200 15.14300 34.59800
H  45.17900 15.24200 33.83300
H  52.44500 19.59700 27.29800
H  53.10600 18.00000 27.88300
H  51.88900 18.99200 28.82500
H  52.90900 20.00000 25.23300
H  53.52800 19.07200 23.81000
H  53.89600 18.55700 25.39400
H  47.90400 15.84700 22.12500
H  45.12700 15.75600 22.48300
H  45.78900 17.74800 21.53100
H  47.41300 17.75900 21.01700
H  46.99600 18.57000 22.53500
H  46.63100 13.28600 22.98500
H  46.83500 13.96100 21.40100
H  44.85100 12.94000 20.89500
H  43.94100 13.87600 22.22000
H  44.69300 12.28500 22.50200
H  42.01700 12.58200 26.59300
H  41.65400 13.97600 25.64900
H  41.22700 14.00200 27.43200
H  44.20900 14.76000 31.55200
H  41.17300 16.57500 33.43600
H  41.95700 18.08500 33.19600
H  42.38400 17.06900 34.56100

