158

Mg -3.00500 17.02100 25.93200
C  -3.20200 14.59900 28.36600
C  -2.99500 19.40000 28.21200
C  -2.90400 19.19900 23.26300
C  -3.22100 14.30700 23.47800
N  -3.24500 16.99700 28.04900
C  -3.25300 15.87000 28.91500
C  -3.33700 16.39700 30.44600
C  -3.42000 17.94800 30.21300
C  -3.24800 18.15200 28.73100
C  -4.64100 18.64800 30.83600
C  -2.06700 15.97100 31.27800
C  -1.56100 16.76800 32.53600
H  -0.83500 15.85100 33.52800
N  -2.99500 19.04100 25.77200
C  -2.94700 19.87800 26.88300
C  -3.00000 21.22000 26.45200
C  -2.82500 21.15900 24.99700
C  -2.91800 19.75400 24.60800
C  -3.16500 22.38300 27.38500
C  -2.43700 22.33000 23.99300
O  -2.19500 22.13900 22.82800
C  -2.19400 23.70800 24.44900
N  -3.02300 16.71600 23.64100
C  -2.97100 17.82800 22.86800
C  -2.96500 17.44400 21.40100
C  -3.39000 15.92700 21.42200
C  -3.15700 15.61500 22.93500
C  -4.01600 18.27000 20.43100
C  -2.53600 15.06300 20.48600
C  -3.20500 14.56500 19.16000
N  -3.10500 14.94000 25.86000
C  -3.21400 13.95100 24.85000
C  -3.46800 12.69500 25.43300
C  -3.34100 12.92100 26.76700
C  -3.12600 14.23500 27.01700
C  -3.71800 11.42500 24.72200
C  -3.39700 12.23700 27.99700
O  -3.48700 11.01800 28.14800
C  -3.34900 13.28000 29.06500
C  -2.31400 12.91300 29.96100
O  -1.10900 13.19400 29.73300
O  -2.74500 12.27200 31.10600
C  -1.65100 11.67400 31.95700
H  -2.83700 20.17200 28.96700
H  -2.79700 19.89100 22.42500
H  -3.45500 13.61500 22.66700
H  -4.18600 15.92700 30.94100
H  -2.68700 18.48000 30.81900
H  -4.30100 19.27400 31.66000
H  -5.31400 17.92700 31.30100
H  -5.28200 19.28900 30.23100
H  -1.19800 15.94900 30.62100
H  -2.31600 14.98400 31.66800
H  -2.30800 17.35600 33.07000
H  -0.87700 17.50800 32.12100
H  -3.20900 22.11200 28.44000
H  -4.05800 22.88100 27.00500
H  -2.33300 23.06900 27.22600
H  -2.19600 24.34700 23.56600
H  -1.20000 23.81100 24.88400
H  -2.94900 24.17400 25.08200
H  -1.97100 17.56500 20.97000
H  -4.46700 15.75900 21.37900
H  -4.83800 17.74100 19.94900
H  -3.26800 18.68800 19.75800
H  -4.37500 19.10700 21.02900
H  -2.12300 14.30400 21.15000
H  -1.62700 15.52800 20.10400
H  -4.28100 14.70200 19.04900
H  -3.06900 13.48400 19.19300
H  -2.77900 15.09400 18.30700
H  -4.47300 11.05700 25.41500
H  -2.89700 10.71000 24.76700
H  -4.15000 11.44700 23.72100
H  -4.33500 13.23300 29.52800
H  -1.03300 10.84000 31.62900
H  -2.21000 11.30000 32.81500
H  -0.95300 12.39700 32.38000
Mg -0.01500 7.30300 24.96700
C  0.66300 9.44400 27.82300
C  0.57400 4.63100 27.01400
C  -0.46100 5.48400 22.30600
C  -0.08600 10.28400 23.06000
N  0.44300 7.08500 27.16300
C  0.70700 8.05000 28.11900
C  0.91500 7.47200 29.53300
C  0.87000 5.94500 29.13600
C  0.60600 5.82500 27.69800
C  2.08200 5.06700 29.57600
C  -0.10400 7.93300 30.63700
C  0.36400 7.93600 32.16200
H  1.63100 7.12800 32.58000
N  -0.05500 5.29600 24.73600
C  0.31900 4.36700 25.67000
C  0.34000 3.05700 25.00400
C  -0.03300 3.30700 23.64600
C  -0.21900 4.72100 23.50300
C  0.77200 1.75600 25.74400
C  0.06000 2.32400 22.50600
O  -0.07300 2.68000 21.31900
C  0.24800 0.85500 22.73700
N  0.28000 7.77800 22.83800
C  -0.17700 6.84600 22.01600
C  -0.59200 7.45900 20.69500
C  -0.75700 8.99300 21.02300
C  -0.21300 8.99200 22.42900
C  0.45700 7.14400 19.56000
C  -2.27300 9.45600 21.00900
C  -2.57100 10.69200 20.07900
N  0.35500 9.45800 25.30900
C  0.23000 10.54000 24.42200
C  0.36900 11.80000 25.12000
C  0.65800 11.41700 26.47600
C  0.53600 9.98700 26.48900
C  0.34100 13.16200 24.49400
C  0.99300 11.93400 27.79700
O  1.16600 13.09900 28.21800
C  0.86500 10.73700 28.73400
C  2.18900 10.68100 29.41900
O  3.23800 10.38800 28.91200
O  1.94000 11.15800 30.65900
C  3.14300 11.51400 31.47300
H  0.61000 3.74700 27.65400
H  -0.82300 4.83000 21.51000
H  -0.45000 11.11300 22.44900
H  1.89700 7.79200 29.88000
H  -0.05600 5.55500 29.55800
H  1.67500 4.24300 30.16100
H  2.84400 5.59000 30.15500
H  2.57000 4.75100 28.65400
H  -0.92000 7.21400 30.56700
H  -0.44500 8.90200 30.27200
H  -0.55300 7.65200 32.67800
H  0.50200 9.00300 32.34100
H  1.83400 1.55400 25.60300
H  0.24900 0.83600 25.48100
H  0.55500 1.79400 26.81100
H  -0.55000 0.47000 23.37300
H  1.26600 0.61100 23.03900
H  0.23800 0.33900 21.77700
H  -1.49900 6.90900 20.44400
H  -0.08300 9.61500 20.43500
H  1.17100 6.36100 19.81500
H  1.00800 8.05700 19.33500
H  0.00400 6.71900 18.66400
H  -2.47200 9.73800 22.04300
H  -3.06800 8.75000 20.76600
H  -2.10500 10.47300 19.11900
H  -2.05700 11.54400 20.52400
H  -3.62800 10.93400 19.97200
H  -0.55000 13.60700 24.93500
H  0.24900 13.15900 23.40800
H  1.19700 13.73300 24.85600
H  0.08900 11.01900 29.44600
H  4.00900 11.68700 30.83400
H  3.28700 10.73400 32.22000
H  2.84600 12.45600 31.93500

