158

Mg 9.20800 3.72400 27.47700
C  10.42300 2.15600 30.46300
C  7.58000 5.96100 29.58100
C  8.00100 5.00400 24.85500
C  10.48500 0.92800 25.61300
N  8.91900 3.92700 29.82700
C  9.67200 3.31200 30.77400
C  9.47700 3.97200 32.17300
C  8.37100 5.07000 31.86100
C  8.25700 4.96400 30.34600
C  6.98100 4.69600 32.51200
C  10.83100 4.67800 32.62900
C  10.93300 5.37800 33.95300
H  10.22200 4.79600 35.22300
N  7.96200 5.20000 27.26400
C  7.41900 6.06300 28.19700
C  6.53500 7.09800 27.54500
C  6.71600 6.85000 26.18400
C  7.59000 5.65500 26.03100
C  5.77500 8.21900 28.21700
C  6.14900 7.68200 24.97600
O  6.44800 7.36200 23.83500
C  5.27200 8.87700 25.22700
N  9.47000 3.14100 25.42100
C  8.72400 3.86300 24.57200
C  8.78100 3.15600 23.17400
C  9.72000 1.89600 23.33600
C  9.90900 1.97200 24.82200
C  7.46700 2.85800 22.55100
C  11.06200 2.00900 22.53900
C  11.08700 1.11100 21.29400
N  10.29900 1.95500 27.87700
C  10.74800 0.93600 27.01800
C  11.40400 -0.11500 27.80500
C  11.38600 0.39000 29.11900
C  10.63800 1.59700 29.16200
C  12.01000 -1.35400 27.20700
C  11.82200 0.07300 30.48700
O  12.51800 -0.80900 30.85500
C  11.17800 1.20200 31.39600
C  10.27800 0.57900 32.39500
O  9.44900 -0.18100 32.06700
O  10.59600 0.90600 33.70900
C  9.91000 0.10600 34.71200
H  7.15500 6.78700 30.15600
H  7.68000 5.42000 23.89800
H  10.96700 0.06500 25.14800
H  9.21400 3.28700 32.97800
H  8.73500 6.06600 32.11200
H  7.05100 3.90000 33.25300
H  6.43800 4.38500 31.61900
H  6.65900 5.68300 32.84500
H  11.24100 5.24400 31.79300
H  11.39800 3.74800 32.64800
H  10.86800 6.46600 33.95600
H  11.98000 5.29800 34.24700
H  5.95100 8.36100 29.28400
H  4.72200 7.96200 28.11000
H  5.95300 9.20600 27.79000
H  5.95800 9.70600 25.39800
H  4.53400 8.62100 25.98800
H  4.74200 9.04600 24.29000
H  9.33100 3.76800 22.45900
H  9.14800 1.02000 23.03100
H  7.31100 1.81400 22.27900
H  7.39700 3.41000 21.61400
H  6.66000 3.15800 23.21800
H  11.84500 1.59600 23.17400
H  11.32800 3.05200 22.36400
H  10.04900 0.93400 21.01400
H  11.70900 0.22500 21.41900
H  11.48300 1.68900 20.45900
H  12.08800 -2.13500 27.96200
H  13.02200 -1.14100 26.86000
H  11.37500 -1.74100 26.41000
H  12.00900 1.66400 31.92900
H  9.09100 -0.54200 34.40000
H  9.47800 0.81900 35.41400
H  10.66200 -0.41500 35.30400
Mg 30.47000 59.62100 39.13700
C  27.27800 58.23100 38.26400
C  31.92600 56.62500 38.13000
C  33.34200 61.22000 39.17700
C  28.69000 62.52200 39.88200
N  29.71600 57.72500 38.21500
C  28.43000 57.37800 37.98700
C  28.36500 55.98800 37.34600
C  29.79900 55.42100 37.58600
C  30.55300 56.65900 37.95300
C  29.92000 54.29900 38.66100
C  27.94300 56.13400 35.90800
C  27.88400 54.83900 35.10700
H  27.25100 54.85300 33.67500
N  32.42700 59.01600 38.83900
C  32.77700 57.72800 38.48800
C  34.19500 57.64100 38.42300
C  34.71900 58.97400 38.68300
C  33.53400 59.81700 38.91000
C  34.89300 56.35200 38.01600
C  36.22100 59.28300 38.84900
O  37.09900 58.48400 38.56300
C  36.56500 60.59600 39.35100
N  30.98800 61.55500 39.51100
C  32.25300 62.01300 39.49700
C  32.34200 63.46200 39.77800
C  30.85000 63.86600 40.00100
C  30.12800 62.52500 39.81000
C  33.34000 63.81800 40.94500
C  30.29800 64.97900 39.04300
C  29.56800 66.06800 39.77600
N  28.29000 60.29900 39.20900
C  27.82200 61.50700 39.53400
C  26.39300 61.44000 39.53400
C  26.07300 60.13600 39.08300
C  27.28900 59.53000 38.86500
C  25.32000 62.46000 39.89300
C  25.03500 59.18700 38.78600
O  23.80500 59.30400 38.78900
C  25.75000 57.89000 38.19100
C  25.34300 56.82900 39.07500
O  25.46100 56.88400 40.26700
O  24.75800 55.84400 38.28900
C  24.15300 54.71500 39.02100
H  32.39600 55.64700 38.00500
H  34.27500 61.77700 39.28000
H  28.11100 63.38100 40.22700
H  27.66800 55.37700 37.92000
H  30.17100 55.01700 36.64400
H  28.94700 54.03300 39.07400
H  30.62000 54.61400 39.43400
H  30.28100 53.41900 38.12700
H  28.55100 56.87500 35.38900
H  26.90900 56.47600 35.93900
H  27.32200 54.09400 35.67000
H  28.88100 54.40900 35.00700
H  34.51000 55.47800 38.54400
H  35.96300 56.55300 38.06100
H  34.64600 56.10400 36.98400
H  37.61700 60.51900 39.62500
H  35.92700 60.65400 40.23300
H  36.27400 61.31900 38.58900
H  32.78900 63.92100 38.89600
H  30.62000 63.94900 41.06300
H  33.70800 62.83200 41.22500
H  32.93800 64.20400 41.88200
H  34.19700 64.43400 40.67200
H  29.59000 64.63700 38.28800
H  31.14100 65.39600 38.49100
H  29.93600 66.14500 40.79900
H  28.53700 65.71800 39.74400
H  29.82200 67.09800 39.52400
H  24.97700 62.29700 40.91500
H  24.48700 62.26900 39.21700
H  25.77900 63.44700 39.84100
H  25.34500 57.78800 37.18400
H  24.83600 54.37500 39.80000
H  23.72400 53.87000 38.48200
H  23.22600 55.13900 39.40600

