158

Mg 26.41700 50.17700 27.00100
C  24.29900 51.16800 29.53000
C  28.51300 48.81000 29.44800
C  28.66700 49.19400 24.56100
C  24.21500 51.49600 24.58400
N  26.43000 50.03200 29.25300
C  25.46900 50.49600 30.08000
C  25.72700 50.04500 31.62500
C  27.11400 49.44100 31.51800
C  27.38900 49.43700 29.98500
C  28.18400 50.09900 32.36900
C  24.57400 49.09700 32.11400
C  24.01100 49.40900 33.49100
H  24.82900 49.86900 34.69300
N  28.31500 49.18900 27.01000
C  29.00200 48.73400 28.12900
C  30.34700 48.43400 27.75100
C  30.43300 48.55000 26.32200
C  29.12000 48.99100 25.86200
C  31.44000 48.10500 28.79100
C  31.54900 48.29100 25.43400
O  31.50800 48.52300 24.23100
C  32.86200 47.76000 25.86100
N  26.50900 50.38300 24.85900
C  27.44300 49.73000 24.05700
C  26.87600 49.69100 22.57400
C  25.68100 50.71300 22.63800
C  25.44000 50.89000 24.14800
C  27.91200 49.96100 21.43400
C  24.52200 50.10600 21.79500
C  23.98500 50.91100 20.54500
N  24.71200 51.27400 27.01000
C  23.87800 51.71300 25.94900
C  22.75400 52.45500 26.55700
C  22.84100 52.22500 27.94200
C  24.01000 51.39500 28.15700
C  21.75800 53.42600 25.85900
C  22.24000 52.53300 29.21000
O  21.27300 53.14800 29.50900
C  23.14100 51.81800 30.30600
C  23.59100 52.72800 31.45200
O  24.69700 53.34300 31.46100
O  22.55300 52.90600 32.30100
C  22.88100 53.81000 33.40600
H  29.21900 48.43100 30.19000
H  29.35200 48.74400 23.83900
H  23.50900 51.87300 23.84200
H  25.72300 50.89500 32.30900
H  27.07100 48.39300 31.81500
H  28.88000 50.64100 31.72900
H  28.79400 49.37200 32.90600
H  27.75900 50.82000 33.06800
H  24.89700 48.05800 32.17700
H  23.72300 49.01100 31.43900
H  23.44400 48.50900 33.73000
H  23.26400 50.19300 33.37100
H  31.21200 48.45100 29.79900
H  32.39100 48.54800 28.49400
H  31.59400 47.02800 28.72400
H  32.73800 47.00400 26.63600
H  33.28400 48.68700 26.24900
H  33.49500 47.41900 25.04100
H  26.55600 48.64900 22.59400
H  26.05700 51.59000 22.11200
H  28.18200 49.00700 20.98200
H  28.79400 50.29500 21.98100
H  27.62800 50.68000 20.66600
H  23.68000 49.82900 22.42900
H  24.80500 49.11600 21.43900
H  22.93200 51.14000 20.71000
H  24.03300 50.60700 19.49900
H  24.51500 51.86200 20.50200
H  22.36800 54.03700 25.19300
H  21.43800 53.98600 26.73700
H  20.96500 52.93700 25.29300
H  22.46700 51.07000 30.72300
H  23.47900 54.67500 33.11600
H  23.46300 53.15500 34.05400
H  21.95800 54.01600 33.94800
Mg 0.13200 43.48700 25.21100
C  2.33800 43.14700 27.90800
C  -2.54300 42.55500 27.31900
C  -1.91400 43.56800 22.57900
C  2.91800 44.38900 23.24900
N  -0.02200 42.80900 27.32100
C  0.98800 42.93700 28.26400
C  0.43700 42.82600 29.70200
C  -1.12800 42.52200 29.46600
C  -1.26400 42.65900 27.92000
C  -1.60800 41.17300 30.06200
C  0.73100 44.04900 30.72300
C  1.22300 43.66200 32.11700
H  0.75300 42.33700 32.71400
N  -1.95200 42.96500 24.91100
C  -2.87600 42.68500 25.92500
C  -4.20700 42.71200 25.27900
C  -4.02500 43.20100 23.96800
C  -2.61500 43.24800 23.75900
C  -5.46000 42.26000 26.03400
C  -5.01000 43.46200 22.91000
O  -4.71300 43.99100 21.82200
C  -6.51600 43.30600 23.14300
N  0.48200 43.81700 23.16900
C  -0.56300 43.77900 22.24800
C  0.04100 43.89400 20.83400
C  1.39400 44.60300 21.08200
C  1.71200 44.30000 22.55100
C  0.16200 42.56900 20.10600
C  1.47800 46.19200 20.79000
C  0.55700 47.03200 21.63700
N  2.14700 43.68200 25.47300
C  3.18400 44.11300 24.57300
C  4.47900 43.84900 25.17800
C  4.19200 43.57700 26.47100
C  2.78200 43.45100 26.59900
C  5.81000 43.92500 24.53600
C  4.78100 43.33500 27.77400
O  5.88700 43.34800 28.16000
C  3.57200 43.04000 28.76800
C  3.80100 41.66500 29.24700
O  3.36100 40.61800 28.82300
O  4.64400 41.74800 30.29800
C  4.62400 40.52600 31.14200
H  -3.45900 42.24200 27.82400
H  -2.55200 43.71800 21.70500
H  3.74000 44.62500 22.57100
H  0.75300 41.89300 30.16900
H  -1.74300 43.29900 29.92300
H  -1.95100 41.44700 31.05900
H  -0.83200 40.41600 30.17400
H  -2.37300 40.73800 29.41900
H  -0.16900 44.66400 30.70800
H  1.54100 44.62100 30.27100
H  1.06100 44.48800 32.80900
H  2.31100 43.62700 32.07000
H  -5.73900 43.09800 26.67400
H  -5.15700 41.47400 26.72600
H  -6.24900 41.89000 25.37900
H  -7.02800 43.54900 22.21200
H  -6.94200 44.03700 23.83100
H  -6.72900 42.29500 23.49100
H  -0.59200 44.58800 20.28000
H  2.21500 44.22900 20.47000
H  -0.53300 41.81200 20.46900
H  1.15700 42.17900 20.31600
H  0.11400 42.72200 19.02800
H  1.41700 46.47300 19.73800
H  2.45500 46.53800 21.12700
H  0.99400 47.06900 22.63500
H  -0.44200 46.59500 21.63900
H  0.33800 47.97900 21.14300
H  6.52200 44.11500 25.34000
H  5.99000 44.56500 23.67200
H  5.98100 42.94500 24.08900
H  3.70000 43.69400 29.63000
H  5.59400 40.03100 31.10200
H  3.82700 39.82600 30.89100
H  4.51100 40.82100 32.18500

