158

Mg 8.60300 3.47300 27.73700
C  10.19900 1.96900 30.50100
C  6.44800 5.17400 29.87500
C  6.93400 4.79700 25.05800
C  10.27900 1.33000 25.57400
N  8.20500 3.31900 30.00800
C  9.12400 2.86700 30.94900
C  8.72700 3.44300 32.39300
C  7.51600 4.40800 32.08100
C  7.33200 4.29900 30.56200
C  6.20100 4.22000 32.82300
C  9.81000 4.03700 33.30400
C  9.44700 5.24000 34.29100
H  10.23900 5.13100 35.60700
N  6.86500 4.82900 27.52400
C  6.15900 5.38100 28.49600
C  5.15800 6.32400 27.93700
C  5.32100 6.27200 26.56000
C  6.45600 5.30400 26.29600
C  4.26000 7.14700 28.78700
C  4.65500 6.95000 25.41900
O  4.92600 6.76400 24.26400
C  3.69800 8.08300 25.73900
N  8.64800 3.16400 25.75900
C  7.88300 3.79900 24.78700
C  8.37000 3.62400 23.40500
C  9.46200 2.60100 23.58500
C  9.46700 2.31300 25.09800
C  7.21800 3.29000 22.32500
C  10.86800 3.06000 22.91600
C  11.24600 2.51200 21.53600
N  9.96300 1.92000 27.91100
C  10.59400 1.15600 26.96500
C  11.43700 0.23500 27.65800
C  11.38200 0.62900 28.97300
C  10.43000 1.65000 29.08200
C  12.24600 -0.80900 27.00000
C  11.94300 0.31800 30.27300
O  12.82000 -0.46000 30.53100
C  11.24600 1.26000 31.39400
C  10.60900 0.41300 32.39300
O  9.69200 -0.34500 32.20800
O  11.22200 0.64800 33.57200
C  10.57900 0.18900 34.76900
H  5.86500 5.74500 30.60100
H  6.41200 5.06400 24.13700
H  10.84300 0.80000 24.80300
H  8.19200 2.69500 32.97900
H  7.80500 5.45600 32.15800
H  5.83200 5.21500 33.07600
H  6.44200 3.71200 33.75700
H  5.51500 3.60500 32.24100
H  10.69400 4.23500 32.69700
H  10.13000 3.14000 33.83400
H  8.39600 5.15400 34.56600
H  9.69400 6.16800 33.77600
H  4.44100 8.19200 28.53600
H  4.29400 7.03700 29.87100
H  3.22900 6.98700 28.46900
H  3.27800 8.42900 24.79400
H  4.25300 8.87100 26.24700
H  2.93800 7.58200 26.33800
H  8.82000 4.55300 23.05200
H  9.22900 1.63200 23.14300
H  7.70100 2.87000 21.44200
H  6.68100 4.14500 21.91400
H  6.58100 2.50300 22.72800
H  11.69000 2.65900 23.50800
H  10.90900 4.13500 23.09300
H  11.40000 3.27200 20.77000
H  10.38600 1.90400 21.25600
H  12.18700 1.97500 21.42100
H  13.11000 -1.06500 27.61200
H  12.61100 -0.39800 26.05900
H  11.73000 -1.76400 26.89700
H  12.02600 1.84900 31.87700
H  11.36400 0.34600 35.50900
H  10.31600 -0.85700 34.61300
H  9.72700 0.72700 35.18400
Mg 17.22000 -0.58600 27.72400
C  15.89800 1.39500 30.39900
C  19.31100 -2.10900 29.90500
C  18.64700 -1.94000 24.98100
C  15.17600 1.55600 25.51100
N  17.67300 -0.25600 29.80500
C  16.88300 0.44000 30.76500
C  17.33500 0.07500 32.15600
C  18.60700 -0.85400 32.04200
C  18.54800 -1.12500 30.48000
C  19.96900 -0.20400 32.37500
C  16.15200 -0.54900 33.04200
C  16.09200 -0.21200 34.58000
H  17.30200 0.58400 35.10200
N  18.74800 -1.76700 27.49600
C  19.43100 -2.38500 28.54400
C  20.33900 -3.31300 28.01900
C  20.21300 -3.28000 26.60700
C  19.15100 -2.26900 26.27200
C  21.22500 -4.07500 28.90000
C  20.96100 -4.04800 25.58000
O  20.80800 -3.93400 24.41900
C  21.91300 -5.07400 26.00300
N  16.91500 -0.19200 25.48300
C  17.62900 -1.02000 24.66800
C  17.11500 -0.75000 23.26800
C  15.95200 0.25200 23.41500
C  15.94600 0.50600 24.88000
C  18.29500 -0.27200 22.29400
C  14.56800 -0.22300 22.89100
C  14.58900 -0.41900 21.35800
N  15.86600 1.18800 27.84900
C  15.11000 1.87000 26.85700
C  14.12900 2.74900 27.54900
C  14.46700 2.62700 28.89500
C  15.54800 1.77300 29.00800
C  13.23100 3.81000 26.75700
C  14.14000 3.07800 30.24200
O  13.32200 3.94600 30.63800
C  15.01600 2.24200 31.25200
C  15.71400 3.22100 32.13000
O  16.82300 3.73900 31.89700
O  14.94500 3.46900 33.20500
C  15.50200 4.39200 34.19500
H  19.82700 -2.64100 30.70700
H  19.07100 -2.42400 24.09800
H  14.38000 1.97600 24.89300
H  17.65300 1.03300 32.56700
H  18.53300 -1.83200 32.51700
H  19.87700 0.81700 32.74700
H  20.62200 -0.18900 31.50200
H  20.37000 -0.78900 33.20300
H  16.21900 -1.63700 33.07700
H  15.20500 -0.36400 32.53600
H  16.10900 -1.16100 35.11600
H  15.21600 0.37400 34.85900
H  22.20800 -4.21700 28.45000
H  20.64500 -4.95700 29.16900
H  21.45000 -3.59300 29.85200
H  21.36100 -5.64300 26.75100
H  22.82100 -4.56700 26.33000
H  22.07400 -5.76800 25.17800
H  16.85700 -1.78500 23.04000
H  16.26600 1.09900 22.80400
H  19.20400 -0.02200 22.84100
H  17.90400 0.56300 21.71400
H  18.54200 -1.06100 21.58400
H  13.80200 0.45800 23.26500
H  14.24000 -1.11600 23.42300
H  13.98000 0.35700 20.89500
H  14.12600 -1.40200 21.27200
H  15.62300 -0.52200 21.02700
H  13.06600 3.52500 25.71800
H  13.57200 4.84300 26.82800
H  12.24200 3.83600 27.21400
H  14.28300 1.69000 31.84000
H  15.75300 5.39600 33.85500
H  16.35100 4.03000 34.77500
H  14.68900 4.59100 34.89300

