158

Mg 49.54300 45.58900 42.94100
C  46.12000 45.95000 42.15200
C  49.27400 42.22500 42.19700
C  52.87000 45.46300 42.82900
C  49.72300 49.21700 42.71600
N  47.86200 44.30800 42.14200
C  46.57000 44.58900 42.00700
C  45.76400 43.31500 41.75000
C  46.76400 42.17800 42.14700
C  48.03600 42.91200 42.27600
C  46.39500 41.52300 43.47500
C  45.14200 43.23000 40.31300
C  46.01400 42.80500 39.06700
H  45.84700 43.66000 37.80600
N  50.85900 44.06900 42.83400
C  50.57000 42.67500 42.52300
C  51.77100 41.89500 42.62600
C  52.83100 42.83800 42.88900
C  52.22500 44.18900 42.88800
C  51.77900 40.38400 42.49300
C  54.29800 42.49400 43.10400
O  54.67600 41.35300 43.15000
C  55.29300 43.50500 43.40300
N  51.06300 47.17600 42.82300
C  52.36300 46.81500 42.81900
C  53.21200 48.09000 42.66100
C  52.31000 49.23200 42.33300
C  50.90700 48.52900 42.74300
C  54.14100 48.30700 43.95500
C  52.58200 49.75300 40.89300
C  53.90900 50.42700 40.65000
N  48.22400 47.26600 42.55400
C  48.42300 48.62800 42.55900
C  47.15700 49.31900 42.42700
C  46.25200 48.29600 42.24600
C  46.93100 47.07800 42.37200
C  46.93100 50.83500 42.54700
C  44.86400 48.04100 41.91100
O  43.99700 48.85800 41.64100
C  44.77900 46.51300 41.81500
C  43.73300 45.90300 42.63600
O  42.99600 45.07500 42.10600
O  43.63900 46.39700 43.85500
C  42.43200 45.87200 44.61200
H  49.31000 41.14600 42.03100
H  53.95600 45.41600 42.73200
H  49.79000 50.30700 42.75100
H  44.91300 43.36200 42.42900
H  46.74600 41.43100 41.35300
H  45.50800 42.02800 43.85600
H  47.23100 41.68000 44.15700
H  46.23100 40.45600 43.33100
H  44.69100 44.21000 40.16000
H  44.26900 42.58700 40.43000
H  45.67200 41.81700 38.76000
H  47.07500 42.66500 39.27700
H  51.88300 40.01800 41.47200
H  50.91600 40.06300 43.07600
H  52.62800 40.01200 43.06600
H  55.64700 44.03100 42.51700
H  56.20300 43.13500 43.87400
H  54.87700 44.16700 44.16200
H  53.88800 47.77400 41.86600
H  52.54500 49.94100 43.12700
H  55.20000 48.10100 43.80400
H  53.83500 47.64900 44.76800
H  54.02600 49.22800 44.52600
H  51.81600 50.50900 40.72100
H  52.48000 48.93300 40.18300
H  53.67500 51.45900 40.38800
H  54.39100 49.97400 39.78400
H  54.51700 50.26200 41.53900
H  47.18200 51.12000 43.56900
H  45.89900 51.16900 42.65600
H  47.59500 51.38900 41.88300
H  44.53300 46.49200 40.75400
H  41.71400 45.24900 44.08000
H  41.85900 46.72600 44.97200
H  42.79400 45.31600 45.47700
Mg 6.90200 53.59700 41.75600
C  6.57100 50.06600 41.25700
C  10.08100 53.41600 40.49200
C  7.06400 56.94100 41.76300
C  3.60500 53.65900 43.07600
N  8.09900 51.96900 40.83700
C  7.77300 50.64800 40.63600
C  8.97800 49.89700 39.94100
C  10.19600 50.88400 40.18200
C  9.44400 52.22300 40.51500
C  11.11200 50.38600 41.39300
C  8.82300 49.37900 38.42900
C  7.81900 50.15200 37.58500
H  7.04000 49.32500 36.43200
N  8.34500 55.04500 41.12200
C  9.62300 54.74500 40.72700
C  10.36500 55.99000 40.60000
C  9.44500 57.03600 40.77600
C  8.20400 56.33800 41.22000
C  11.79300 56.12700 40.17200
C  9.63900 58.53800 40.53200
O  10.70000 58.94200 40.05700
C  8.49700 59.53800 40.68700
N  5.44900 55.09400 42.27500
C  5.81000 56.39900 42.30900
C  4.76700 57.23500 43.00500
C  3.58800 56.20900 43.21700
C  4.22900 54.88300 42.85900
C  5.04700 57.97100 44.28200
C  2.26600 56.40900 42.46700
C  1.48300 57.65000 43.02900
N  5.33000 52.21200 42.20000
C  4.09400 52.38400 42.73800
C  3.56700 51.04100 42.94500
C  4.51200 50.12000 42.41600
C  5.56800 50.89800 41.93600
C  2.32400 50.72100 43.62200
C  4.75300 48.70600 42.28200
O  4.08400 47.79800 42.66300
C  6.13200 48.61800 41.45300
C  5.77300 47.94700 40.21800
O  4.97800 48.46300 39.45700
O  6.39600 46.78700 40.00800
C  5.89900 46.16400 38.78600
H  11.13400 53.33600 40.21400
H  7.00300 58.02800 41.85600
H  2.66200 53.63100 43.62500
H  9.09800 48.95700 40.48100
H  10.78700 51.03400 39.27800
H  11.24600 51.15900 42.15000
H  12.08900 50.04500 41.05100
H  10.67400 49.50400 41.85900
H  8.61300 48.31400 38.53000
H  9.76100 49.51000 37.88800
H  8.47300 50.89300 37.12700
H  7.10000 50.70300 38.19000
H  11.90300 56.21600 39.09200
H  12.39000 55.26300 40.46800
H  12.35400 56.94400 40.62600
H  8.28500 59.79700 41.72500
H  7.63000 59.16400 40.14300
H  8.63000 60.51900 40.23000
H  4.34600 57.88000 42.23300
H  3.24500 56.05000 44.23900
H  6.11000 57.84200 44.48300
H  4.67000 57.53100 45.20500
H  4.80300 59.02800 44.38000
H  1.61000 55.54200 42.55100
H  2.52900 56.60400 41.42800
H  1.85900 58.21300 43.88300
H  0.49700 57.38000 43.40500
H  1.28200 58.43000 42.29500
H  1.80500 50.00400 42.98600
H  1.76800 51.65800 43.65800
H  2.31900 50.36700 44.65300
H  6.73000 47.91900 42.03800
H  6.21100 46.73900 37.91500
H  4.84000 45.90800 38.82000
H  6.43500 45.21500 38.76400

