158

Mg 0.67200 7.55400 25.62800
C  1.31300 9.52600 28.43600
C  0.51500 4.78200 27.52000
C  0.08400 5.73000 22.85300
C  1.02600 10.40200 23.69600
N  0.85400 7.23600 27.76000
C  1.06100 8.13600 28.77100
C  1.02500 7.44000 30.13800
C  0.89700 5.92900 29.72900
C  0.70600 5.97900 28.22200
C  2.11400 5.06100 30.19700
C  -0.05300 7.94000 31.08600
C  0.25300 7.94700 32.56100
H  1.35600 7.18900 33.33300
N  0.42800 5.45300 25.22300
C  0.44000 4.46800 26.14900
C  0.23900 3.16800 25.49300
C  0.24500 3.50000 24.06000
C  0.25500 4.91800 24.00800
C  0.12500 1.82400 26.21100
C  0.28900 2.61100 22.88000
O  0.30300 3.01400 21.72900
C  0.33900 1.18400 23.15300
N  0.65400 7.98800 23.59800
C  0.22400 7.10500 22.67900
C  -0.08000 7.75100 21.35500
C  0.04900 9.25600 21.58000
C  0.56300 9.24900 23.10000
C  0.71700 7.09300 20.17600
C  -1.32900 10.07500 21.42900
C  -1.14200 11.56100 20.93200
N  1.16900 9.56800 25.93700
C  1.33500 10.64800 25.02400
C  1.57500 11.81100 25.74400
C  1.69800 11.39600 27.07300
C  1.45500 10.03400 27.13400
C  1.61400 13.22900 25.24700
C  1.81300 11.92300 28.44000
O  2.00300 13.02800 28.85500
C  1.51000 10.72300 29.35500
C  2.62400 10.60900 30.32900
O  3.79200 10.39400 29.95200
O  2.25500 10.89200 31.63000
C  3.30700 10.90000 32.66700
H  0.42400 3.92500 28.19100
H  -0.22500 5.15100 21.98000
H  1.02000 11.23300 22.98700
H  1.98800 7.59600 30.62300
H  0.02100 5.49400 30.21100
H  2.66700 5.65400 30.92600
H  2.81400 4.89300 29.37900
H  1.77000 4.11900 30.62300
H  -0.84800 7.21300 30.91900
H  -0.35000 8.96200 30.85000
H  -0.67700 7.72800 33.08500
H  0.50900 8.97300 32.82500
H  1.11900 1.42700 26.00100
H  -0.63700 1.17800 25.77500
H  -0.06500 1.86500 27.28300
H  0.98000 0.90600 23.99000
H  0.74400 0.79300 22.21900
H  -0.67800 0.79000 23.14100
H  -1.15400 7.58700 21.26700
H  0.78700 9.60400 20.85700
H  1.22400 6.19400 20.52800
H  1.23900 7.79100 19.52200
H  -0.04600 6.74500 19.48000
H  -1.99000 9.93400 22.28500
H  -1.78500 9.54300 20.59300
H  -1.48600 11.69500 19.90600
H  -0.11400 11.87100 21.12200
H  -1.75600 12.22400 21.54100
H  1.49300 13.50800 24.20100
H  2.58100 13.61300 25.57200
H  0.88000 13.87500 25.73000
H  0.57200 10.97900 29.84800
H  4.20100 11.23700 32.14200
H  3.46500 9.92200 33.12000
H  3.15300 11.70100 33.39000
Mg 6.43400 54.35700 41.44700
C  5.91600 50.85300 41.26900
C  9.55200 53.80200 40.11400
C  6.86700 57.65200 41.56200
C  3.01100 54.85500 42.14600
N  7.56500 52.44000 40.61800
C  7.16800 51.16300 40.64800
C  8.26900 50.29400 40.23200
C  9.47100 51.28800 40.03600
C  8.81700 52.61900 40.27200
C  10.84900 51.03800 40.85400
C  8.04900 49.41800 38.95200
C  7.14100 49.87900 37.84400
H  7.73400 50.09100 36.44100
N  7.97400 55.58600 40.86200
C  9.17200 55.14700 40.38900
C  9.98800 56.27000 40.30000
C  9.32200 57.43600 40.75700
C  7.98400 56.94600 41.08800
C  11.42100 56.10100 39.98800
C  9.98600 58.88800 40.82500
O  11.12600 59.12800 40.54300
C  9.27400 60.02700 41.49300
N  5.04900 56.07100 41.71000
C  5.55800 57.32700 41.76300
C  4.47100 58.27900 42.18400
C  3.16600 57.39200 42.25400
C  3.71700 56.00800 42.05700
C  4.76600 59.09800 43.52400
C  1.96500 57.75200 41.35500
C  0.85700 58.47900 42.06100
N  4.83100 53.16500 41.63100
C  3.49400 53.51700 41.90900
C  2.77200 52.26900 42.14000
C  3.76900 51.26500 42.00500
C  4.94200 51.80100 41.54500
C  1.31400 52.12400 42.26200
C  3.91000 49.83600 42.10800
O  3.09600 49.03200 42.51700
C  5.35200 49.49700 41.61300
C  5.20500 48.46900 40.57100
O  4.46400 48.59100 39.57800
O  5.92400 47.35500 40.77000
C  5.62700 46.21000 39.77700
H  10.55700 53.64900 39.71500
H  7.07500 58.70900 41.73800
H  1.97100 54.86500 42.47900
H  8.44500 49.65100 41.09400
H  9.74100 51.35500 38.98200
H  10.77100 50.43600 41.75900
H  11.16200 51.96200 41.34000
H  11.60200 50.61100 40.19100
H  7.78500 48.37500 39.12700
H  9.08800 49.38600 38.62400
H  6.76200 50.85700 38.14000
H  6.29400 49.21400 37.67200
H  12.15800 56.81200 40.36000
H  11.59200 55.98200 38.91800
H  11.67800 55.12300 40.39600
H  8.45300 60.29500 40.82700
H  10.07100 60.75300 41.65700
H  8.95500 59.68300 42.47700
H  4.37100 59.04200 41.41200
H  2.83800 57.45800 43.29100
H  4.72800 60.17700 43.37300
H  5.75400 58.76400 43.84100
H  3.97400 58.83300 44.22500
H  1.54600 56.84300 40.92400
H  2.41400 58.38700 40.59100
H  0.07600 57.74300 42.25500
H  0.43500 59.27400 41.44700
H  1.21500 58.99300 42.95300
H  0.89400 51.78400 41.31500
H  0.71900 52.96500 42.61700
H  1.09500 51.36000 43.00800
H  5.90000 49.09300 42.46500
H  6.14800 45.30500 40.09100
H  5.90500 46.40700 38.74100
H  4.58700 45.89300 39.86000

