158

Mg 47.73500 44.79900 43.34000
C  44.39300 43.84400 42.69800
C  48.51000 41.43100 42.91700
C  51.05500 45.65200 43.44800
C  46.91600 48.19100 43.11700
N  46.54800 42.89800 42.93900
C  45.21000 42.71800 42.69300
C  44.73400 41.25600 42.48800
C  46.12600 40.58600 42.72500
C  47.13800 41.74800 42.98700
C  46.09300 39.47900 43.83400
C  44.12400 41.00500 41.02200
C  44.76500 41.79800 39.84900
H  44.55400 41.28300 38.46000
N  49.53300 43.63500 43.29600
C  49.64800 42.30500 43.06800
C  51.01800 41.91500 43.00600
C  51.77500 43.09400 43.14000
C  50.82900 44.24600 43.36300
C  51.50100 40.45300 42.77700
C  53.32300 43.25600 43.24400
O  53.91600 42.18100 43.21700
C  54.13300 44.56700 43.37100
N  48.84100 46.59900 43.34300
C  50.17300 46.74100 43.44100
C  50.63800 48.16600 43.23300
C  49.27300 48.98000 43.49700
C  48.31900 47.88300 43.21900
C  51.82500 48.49600 44.16800
C  49.09600 50.19400 42.49000
C  48.47000 51.48400 43.07100
N  46.02300 45.84000 42.94000
C  45.86200 47.24800 43.00700
C  44.43200 47.54100 42.87400
C  43.81800 46.25400 42.73200
C  44.82800 45.24500 42.79000
C  43.74000 48.88600 42.89500
C  42.55000 45.52900 42.63800
O  41.37700 45.90500 42.58000
C  42.88600 43.95300 42.65200
C  42.18800 43.30500 43.81400
O  41.22000 42.54800 43.71800
O  42.58000 43.91500 45.01600
C  41.69900 43.62200 46.14400
H  48.76100 40.37100 42.83100
H  52.12000 45.88700 43.50200
H  46.68200 49.23200 43.34900
H  43.97300 41.02000 43.23100
H  46.46300 40.12900 41.79500
H  46.93200 39.63500 44.51100
H  46.32700 38.52400 43.36200
H  45.17700 39.26700 44.38700
H  43.06700 41.15500 41.24100
H  44.27500 39.98300 40.67300
H  45.82800 41.90700 40.06100
H  44.33300 42.79800 39.89900
H  51.52300 39.87000 43.69800
H  52.51300 40.34100 42.38800
H  50.82800 39.99700 42.05100
H  53.93900 45.22900 42.52700
H  55.19000 44.31900 43.46700
H  53.78300 44.90300 44.34600
H  51.04000 48.33000 42.23300
H  49.08000 49.40000 44.48400
H  51.57700 49.51200 44.47500
H  52.86800 48.42700 43.85800
H  51.75700 47.96100 45.11600
H  48.52600 49.92200 41.60200
H  50.12100 50.38600 42.17400
H  48.19300 51.31500 44.11200
H  47.61100 51.81500 42.48700
H  49.17500 52.31400 43.10200
H  44.27200 49.39000 43.70100
H  42.68100 48.81400 43.14400
H  43.85600 49.48100 41.98900
H  42.47400 43.43300 41.78700
H  41.99900 44.23500 46.99300
H  41.77100 42.56500 46.40000
H  40.63900 43.79900 45.96300
Mg 16.42700 51.85700 25.42300
C  18.24300 50.82900 28.34500
C  13.68100 52.37900 27.46800
C  14.64500 52.20700 22.71100
C  19.18900 50.72000 23.58800
N  16.05300 51.64900 27.66700
C  16.98800 51.32400 28.65100
C  16.34500 51.54900 30.00200
C  14.83600 51.84000 29.66100
C  14.82300 51.90900 28.17000
C  13.78100 50.76600 30.15300
C  16.99800 52.69200 30.77500
C  17.58000 52.48800 32.18500
H  16.88400 51.39800 33.04200
N  14.37800 52.29300 25.10000
C  13.43500 52.51000 26.09300
C  12.16800 52.76800 25.35100
C  12.39400 52.82300 23.93700
C  13.83900 52.36900 23.86400
C  10.91200 53.08900 26.18200
C  11.48000 53.21100 22.84800
O  11.73700 53.19300 21.61700
C  10.16000 53.68800 23.20500
N  16.91500 51.55400 23.50300
C  15.92200 51.68900 22.56400
C  16.45400 51.23800 21.18100
C  18.00400 51.12000 21.35500
C  18.05300 51.13100 22.88900
C  15.73800 49.91200 20.69900
C  18.80800 52.23500 20.59600
C  19.83000 51.86600 19.54000
N  18.32900 51.06300 25.84500
C  19.30700 50.66400 24.96000
C  20.43800 50.15800 25.69300
C  20.09200 50.24500 27.04700
C  18.79200 50.75200 27.04400
C  21.74800 49.78100 25.12300
C  20.50200 49.99800 28.39200
O  21.57000 49.51300 28.81100
C  19.29500 50.40400 29.33600
C  18.90000 49.27300 30.09800
O  17.98000 48.53000 29.75600
O  19.65300 49.22100 31.27000
C  19.48200 48.02100 32.13500
H  12.78400 52.48100 28.08300
H  13.99600 52.47600 21.87500
H  20.00300 50.44900 22.91200
H  16.39600 50.61400 30.56100
H  14.51800 52.77700 30.11800
H  13.34900 51.08900 31.10000
H  14.39000 49.90300 30.42100
H  12.90700 50.59000 29.52600
H  16.25100 53.48100 30.86600
H  17.89100 53.11600 30.31600
H  17.50900 53.39700 32.78300
H  18.63900 52.24400 32.25800
H  10.86800 54.02300 26.74300
H  10.88500 52.22200 26.84200
H  9.98800 52.94800 25.62100
H  10.16500 54.50300 23.92900
H  9.60100 52.82100 23.55600
H  9.70200 54.03400 22.27900
H  16.21000 52.10400 20.56600
H  18.25700 50.09500 21.08400
H  15.42900 49.32500 21.56400
H  16.38900 49.21500 20.17000
H  14.90800 50.29400 20.10400
H  19.39900 52.71900 21.37300
H  18.28200 53.06500 20.12500
H  19.82200 50.79400 19.34200
H  20.83400 52.22900 19.76000
H  19.58000 52.37700 18.61100
H  22.04000 48.75500 25.34600
H  22.61300 50.32800 25.50200
H  21.71300 49.92400 24.04300
H  19.70500 51.16300 30.00200
H  18.93000 47.29300 31.54000
H  18.87700 48.28300 33.00300
H  20.41700 47.62300 32.52800

