158

Mg 1.48100 -1.23000 44.43500
C  4.87600 -0.83800 43.52500
C  0.70700 1.52500 42.55400
C  -1.72700 -2.04100 44.67900
C  2.42200 -4.25500 45.94400
N  2.62700 0.04400 43.01200
C  4.00400 0.05200 42.93000
C  4.49800 1.13900 41.94800
C  3.17200 2.09900 41.81800
C  2.09100 1.16500 42.50000
C  3.28200 3.47700 42.48100
C  5.05100 0.54900 40.60700
C  6.45700 1.27100 40.19700
H  6.49700 2.15700 39.01600
N  -0.25600 -0.38300 43.76800
C  -0.38400 0.74700 43.05100
C  -1.80400 1.05800 42.76600
C  -2.57200 -0.06100 43.26800
C  -1.51000 -0.86500 43.95400
C  -2.26300 2.31500 42.03200
C  -4.10300 -0.11400 43.24100
O  -4.80800 0.80800 42.84400
C  -4.81700 -1.34300 43.62900
N  0.44400 -2.90700 45.24900
C  -0.91200 -2.94800 45.27100
C  -1.37200 -4.24500 45.91800
C  -0.07400 -4.88200 46.47100
C  1.01500 -4.00600 45.87200
C  -2.62700 -4.18400 46.95000
C  0.14500 -6.45200 46.18800
C  0.57800 -7.16100 47.45400
N  3.23800 -2.33400 44.80100
C  3.47600 -3.51700 45.45500
C  4.86100 -3.85800 45.46700
C  5.47600 -2.73100 44.80700
C  4.39100 -1.90800 44.34700
C  5.46700 -5.05800 46.15000
C  6.71500 -2.14000 44.36700
O  7.88100 -2.46700 44.51400
C  6.34500 -0.81900 43.57300
C  6.84500 0.38300 44.35000
O  6.78500 0.58100 45.54100
O  7.32900 1.34600 43.52200
C  7.87300 2.52800 44.22000
H  0.43400 2.43700 42.01900
H  -2.79900 -2.18700 44.82300
H  2.69800 -5.06800 46.61900
H  5.35300 1.68100 42.35400
H  3.01000 2.06400 40.74000
H  2.97500 4.24800 41.77400
H  4.27400 3.71300 42.86600
H  2.59800 3.51600 43.32900
H  4.26400 0.59000 39.85400
H  5.31900 -0.48800 40.80600
H  7.31400 0.61700 40.03600
H  6.84700 1.85700 41.02900
H  -1.60500 2.35600 41.16300
H  -1.91800 3.08600 42.72100
H  -3.32900 2.34600 41.80700
H  -4.96100 -1.41100 44.70800
H  -4.17900 -2.17000 43.31800
H  -5.76200 -1.53600 43.12200
H  -1.65100 -4.85200 45.05600
H  -0.08600 -4.66000 47.53800
H  -3.04600 -3.18700 47.08800
H  -2.35400 -4.59700 47.92100
H  -3.47000 -4.74400 46.54600
H  0.77500 -6.70800 45.33600
H  -0.82800 -6.91700 46.02900
H  1.44700 -7.72600 47.11800
H  -0.25600 -7.81700 47.70100
H  1.02700 -6.62200 48.28900
H  5.59500 -5.86700 45.43100
H  4.77600 -5.58700 46.80600
H  6.43600 -4.81000 46.58300
H  6.73400 -0.63100 42.57300
H  7.12100 3.17300 44.67400
H  8.50700 3.04800 43.50100
H  8.61700 2.17500 44.93500
Mg -6.16400 24.37500 26.28400
C  -4.29300 25.91800 28.86700
C  -7.51800 22.32000 28.44900
C  -7.69500 22.94900 23.61700
C  -4.21200 26.48900 23.90500
N  -5.86400 24.12900 28.35700
C  -5.06900 24.83300 29.29000
C  -5.37900 24.50000 30.72300
C  -6.13900 23.20700 30.55000
C  -6.52800 23.16700 28.97200
C  -5.29200 21.92800 31.01200
C  -6.09600 25.60300 31.58700
C  -5.87900 25.65800 33.12300
H  -7.12800 25.17500 33.85400
N  -7.50500 22.94900 26.14500
C  -7.98200 22.25300 27.14600
C  -9.11400 21.45400 26.73300
C  -9.16100 21.57100 25.31600
C  -8.11400 22.52200 24.91100
C  -10.07100 20.67600 27.70100
C  -10.08400 20.88300 24.33400
O  -10.00100 21.03600 23.12900
C  -11.15500 19.85000 24.87700
N  -6.00400 24.71800 24.17000
C  -6.77000 23.90300 23.27500
C  -6.43000 24.16800 21.73700
C  -5.43900 25.40000 21.85700
C  -5.11800 25.53200 23.39000
C  -5.95600 22.89300 20.98700
C  -6.01000 26.67900 21.39400
C  -5.04700 27.65900 20.69600
N  -4.55900 25.82400 26.31900
C  -3.96100 26.62200 25.32000
C  -3.09100 27.60500 25.98000
C  -3.19700 27.32400 27.38700
C  -4.08400 26.29300 27.54600
C  -2.40100 28.72100 25.29400
C  -2.72500 27.74200 28.66800
O  -1.95600 28.66500 29.01800
C  -3.49100 26.86200 29.67000
C  -2.52900 26.27700 30.63100
O  -1.84400 25.24900 30.46100
O  -2.48100 27.04900 31.71900
C  -1.58400 26.60100 32.80600
H  -7.87100 21.48800 29.06200
H  -8.11000 22.36100 22.79600
H  -3.83000 27.21300 23.18200
H  -4.43700 24.27900 31.22300
H  -7.02600 23.09700 31.17400
H  -5.39300 21.03200 30.40000
H  -5.43000 21.58000 32.03600
H  -4.23300 22.17800 30.94600
H  -7.14500 25.33200 31.46600
H  -6.06100 26.61300 31.17900
H  -5.69600 26.71000 33.34000
H  -4.96500 25.10700 33.34600
H  -11.08000 21.02600 27.48600
H  -9.84600 20.83400 28.75600
H  -9.88500 19.64700 27.39300
H  -10.54700 18.98700 25.14800
H  -11.90300 19.64800 24.11000
H  -11.79400 20.31800 25.62600
H  -7.32100 24.44100 21.17100
H  -4.52700 25.20800 21.29300
H  -6.80500 22.54900 20.39600
H  -5.79000 22.11700 21.73300
H  -5.16900 23.06100 20.25200
H  -6.38400 27.12700 22.31500
H  -6.78300 26.45800 20.65900
H  -4.02700 27.29500 20.57600
H  -5.01900 28.57700 21.28300
H  -5.47500 27.80300 19.70400
H  -1.55700 28.47500 24.64900
H  -2.00100 29.34000 26.09600
H  -3.18400 29.30200 24.80700
H  -4.13200 27.47900 30.29900
H  -0.61200 26.48100 32.32600
H  -1.81700 25.58800 33.13300
H  -1.52600 27.28700 33.65100

