158

Mg 17.39200 -1.52600 27.02600
C  16.25700 0.61600 29.52500
C  19.23600 -3.14300 29.24200
C  18.70600 -3.34200 24.42300
C  15.72800 0.51800 24.61300
N  17.95000 -1.05500 29.16100
C  17.18100 -0.31600 30.00300
C  17.45900 -0.59800 31.51100
C  18.66800 -1.66700 31.34300
C  18.62700 -2.03100 29.82900
C  19.99800 -0.96900 31.76400
C  16.25100 -1.13400 32.36600
C  16.26100 -0.78500 33.87900
H  17.50600 -0.12100 34.41900
N  18.64900 -3.16300 26.85300
C  19.22700 -3.72300 27.90200
C  19.88600 -4.91600 27.51900
C  19.85500 -4.98700 26.07200
C  19.05200 -3.80200 25.71800
C  20.59700 -5.87900 28.52300
C  20.48700 -5.97100 25.07100
O  20.19100 -5.84100 23.88900
C  21.50100 -6.95600 25.55300
N  17.05600 -1.52200 24.81500
C  17.87200 -2.23000 23.97800
C  17.87700 -1.66200 22.54200
C  16.74100 -0.57200 22.64900
C  16.47000 -0.54800 24.10800
C  19.20200 -1.16000 21.95700
C  15.60200 -0.74100 21.64000
C  14.18100 -0.98600 22.06700
N  16.18800 0.15100 27.00600
C  15.54700 0.78500 25.95800
C  14.63600 1.75100 26.56000
C  14.92600 1.78900 27.92500
C  15.92300 0.85700 28.16000
C  13.62400 2.63500 25.86600
C  14.54400 2.35700 29.23400
O  13.64000 3.15700 29.57000
C  15.41800 1.64300 30.35200
C  16.19500 2.75800 31.03900
O  17.36900 3.01300 30.72500
O  15.42100 3.28500 32.04000
C  16.30300 3.87900 33.11400
H  19.82100 -3.77300 29.91500
H  19.22400 -3.74900 23.55200
H  15.24900 1.19900 23.90700
H  17.69400 0.38900 31.91100
H  18.62900 -2.50400 32.03900
H  20.65300 -1.71400 32.21500
H  19.82800 -0.15100 32.46400
H  20.53600 -0.49200 30.94400
H  16.25200 -2.20600 32.56200
H  15.30800 -0.94000 31.85600
H  16.07900 -1.69800 34.44500
H  15.49800 -0.06100 34.16400
H  20.05100 -6.03700 29.45300
H  21.58400 -5.47800 28.75300
H  20.63900 -6.87400 28.08000
H  21.05100 -7.76200 26.13200
H  22.29000 -6.43500 26.09700
H  21.90400 -7.39300 24.64000
H  17.72200 -2.55200 21.93100
H  17.24200 0.39400 22.58800
H  19.15400 -0.09800 21.71700
H  19.35200 -1.74100 21.04700
H  19.93900 -1.35200 22.73700
H  15.89000 -1.50300 20.91600
H  15.52400 0.21800 21.12900
H  13.76300 -1.71200 21.37100
H  13.55500 -0.09500 22.00800
H  14.10400 -1.31700 23.10300
H  12.64700 2.57600 26.34500
H  13.55100 2.36800 24.81100
H  14.01800 3.65100 25.87800
H  14.83200 1.20900 31.16200
H  16.77300 4.73700 32.63300
H  17.07400 3.19900 33.47300
H  15.77000 4.25900 33.98600
Mg 30.45100 58.24100 40.24100
C  27.73900 56.19100 39.39400
C  32.48300 55.54300 40.08400
C  33.00000 60.37500 40.08300
C  28.11500 60.94300 40.70300
N  30.18400 56.14400 39.35600
C  28.97700 55.51500 39.29000
C  29.19400 54.05500 38.98900
C  30.51800 53.75500 39.70200
C  31.12000 55.22300 39.78200
C  30.48000 53.09600 41.06600
C  29.24600 53.80800 37.48500
C  28.04000 52.95100 37.00400
H  27.24100 53.52600 35.86000
N  32.51700 58.01800 40.04800
C  33.17100 56.79300 40.03400
C  34.60400 57.06700 39.86700
C  34.77800 58.51200 39.92900
C  33.37800 59.06000 39.95000
C  35.65500 55.99900 39.63600
C  36.09900 59.19500 40.03200
O  37.11500 58.49900 40.14200
C  36.25500 60.66800 39.99900
N  30.54200 60.35100 40.35200
C  31.73900 60.95100 40.19000
C  31.51400 62.51900 40.24800
C  30.00900 62.69000 40.67000
C  29.52100 61.24000 40.57600
C  32.54600 63.26200 41.04800
C  29.31700 63.75500 39.81400
C  28.21100 64.55700 40.54800
N  28.32300 58.57100 40.09200
C  27.53200 59.68100 40.41400
C  26.13800 59.28200 40.31000
C  26.14100 57.95300 39.91200
C  27.53400 57.50600 39.83800
C  24.89800 60.14400 40.37400
C  25.30400 56.76700 39.53300
O  24.09500 56.67700 39.36800
C  26.28700 55.55700 39.23200
C  26.04000 54.48900 40.26000
O  26.62800 54.46700 41.30200
O  25.16000 53.48500 39.77000
C  24.95000 52.49500 40.84100
H  33.14400 54.68600 40.22900
H  33.76500 61.14800 39.98500
H  27.43000 61.78200 40.84000
H  28.43300 53.39100 39.40100
H  31.21600 53.16200 39.11200
H  31.47100 53.21600 41.50500
H  30.32400 52.04000 40.84700
H  29.67100 53.41400 41.72200
H  30.09800 53.17700 37.23300
H  29.44000 54.71300 36.90900
H  27.30100 52.80900 37.79300
H  28.33500 51.92800 36.76900
H  36.32300 56.53900 38.96500
H  35.24100 55.12000 39.14300
H  36.15200 55.62100 40.52900
H  36.01900 61.21200 39.08400
H  37.20100 61.01700 40.41300
H  35.61000 61.11900 40.75300
H  31.56200 62.86600 39.21500
H  29.93100 63.02100 41.70500
H  33.49200 63.35300 40.51500
H  32.72900 62.78200 42.00900
H  32.00100 64.17500 41.29000
H  28.94900 63.22500 38.93500
H  30.09100 64.45600 39.50200
H  28.44300 65.61000 40.38800
H  28.28800 64.49500 41.63400
H  27.23800 64.37900 40.09000
H  24.62800 60.47500 39.37100
H  25.01200 60.96400 41.08300
H  24.14700 59.43100 40.71400
H  26.16300 55.16000 38.22500
H  25.84200 51.90900 41.05900
H  24.25400 51.76000 40.43800
H  24.43700 52.99800 41.66100

