158

Mg -2.12200 17.30700 25.83800
C  -1.92500 15.12100 28.67500
C  -2.61500 19.90800 27.94300
C  -2.18800 19.17200 23.21500
C  -1.85000 14.41900 23.85600
N  -2.25300 17.44300 28.04900
C  -2.19100 16.47500 29.03800
C  -2.53100 17.08500 30.45500
C  -2.95300 18.56500 30.07200
C  -2.55300 18.65200 28.59200
C  -4.49800 18.80200 30.26400
C  -1.29300 17.04000 31.40100
C  -1.73900 16.46700 32.80000
H  -0.61100 16.68000 33.85100
N  -2.40200 19.25100 25.62900
C  -2.55400 20.18500 26.56400
C  -2.48800 21.54500 25.94400
C  -2.30200 21.36600 24.50600
C  -2.31700 19.87300 24.38200
C  -2.84900 22.82100 26.60900
C  -2.05900 22.43200 23.42400
O  -2.02700 22.16400 22.25000
C  -1.69600 23.89400 23.68800
N  -2.14700 16.82300 23.84700
C  -2.22400 17.84300 22.94900
C  -2.27000 17.21100 21.52200
C  -1.99400 15.73000 21.74700
C  -2.04300 15.66400 23.24300
C  -3.63000 17.57300 20.87300
C  -0.56100 15.37200 21.08700
C  0.81100 15.62200 21.74900
N  -1.92800 15.22900 26.11000
C  -1.83300 14.10200 25.22400
C  -1.75400 12.87300 25.92400
C  -1.75400 13.29400 27.23700
C  -1.84900 14.68100 27.34400
C  -1.98800 11.42500 25.38000
C  -1.80600 12.63200 28.59000
O  -1.67700 11.47300 28.89100
C  -1.99900 13.86000 29.59600
C  -0.88000 13.65700 30.59500
O  0.26700 14.13700 30.53200
O  -1.36100 12.85700 31.56700
C  -0.45400 12.73200 32.68500
H  -2.73500 20.79500 28.56900
H  -2.33800 19.81200 22.34300
H  -1.85200 13.51900 23.23800
H  -3.26700 16.47100 30.97400
H  -2.55700 19.34200 30.72600
H  -4.76300 19.50100 29.47000
H  -4.59500 19.20200 31.27300
H  -5.10600 17.91600 30.07900
H  -0.79500 18.00500 31.49200
H  -0.43900 16.43400 31.10100
H  -1.98100 15.40400 32.80400
H  -2.57400 17.07400 33.14900
H  -2.92700 22.69100 27.68800
H  -3.79700 23.18200 26.21000
H  -2.03500 23.52600 26.44200
H  -1.04000 23.66400 24.52700
H  -2.54700 24.51500 23.96600
H  -1.11100 24.36500 22.89800
H  -1.49500 17.70900 20.94000
H  -2.66400 14.94200 21.40400
H  -3.42400 17.99700 19.89000
H  -4.24700 18.28600 21.41900
H  -4.21700 16.69800 20.59200
H  -0.45600 15.97000 20.18200
H  -0.64500 14.30600 20.88000
H  1.12700 14.93500 22.53300
H  0.83500 16.60100 22.22800
H  1.51300 15.61300 20.91400
H  -1.94500 11.50000 24.29300
H  -3.00100 11.14400 25.66800
H  -1.18100 10.81100 25.77900
H  -2.93800 13.83300 30.15000
H  -0.41900 13.63900 33.28800
H  0.54400 12.49800 32.31400
H  -0.80700 11.92300 33.32500
Mg 47.98400 15.44700 28.18700
C  45.81000 15.38900 30.87100
C  50.03700 17.50000 29.79700
C  49.86600 15.53900 25.29900
C  45.42900 13.89800 26.16200
N  47.87300 16.36700 30.09100
C  46.96400 16.16700 31.09100
C  47.50400 16.74300 32.42000
C  48.50600 17.79200 31.89500
C  48.84200 17.26500 30.49700
C  47.99300 19.29700 31.88500
C  48.02300 15.73700 33.46400
C  47.81100 15.98000 35.03000
H  49.09800 16.12200 35.80400
N  49.79000 16.27000 27.68800
C  50.49700 17.11600 28.47100
C  51.68800 17.43300 27.80700
C  51.67900 16.82500 26.52600
C  50.44000 16.08600 26.44600
C  52.68600 18.38300 28.40900
C  52.79100 16.82500 25.41700
O  52.63700 16.17600 24.35200
C  54.10400 17.55000 25.65200
N  47.63000 14.98900 25.91400
C  48.66600 14.95100 25.04100
C  48.31100 14.25100 23.70900
C  46.81500 13.85300 24.00100
C  46.59100 14.24300 25.44200
C  48.41200 15.16800 22.46000
C  46.51700 12.33800 23.61500
C  46.92600 11.29700 24.64300
N  46.06800 14.71400 28.33200
C  45.18400 14.08300 27.49200
C  43.94900 13.79800 28.28200
C  44.19000 14.27500 29.57200
C  45.48300 14.85800 29.58800
C  42.72700 13.07900 27.75100
C  43.56600 14.40300 30.87200
O  42.48800 14.09400 31.27800
C  44.65000 15.10200 31.80700
C  44.01000 16.22800 32.50000
O  43.46200 17.15200 31.91200
O  43.85600 15.86700 33.76900
C  42.98100 16.74100 34.60800
H  50.63600 18.12800 30.46000
H  50.52100 15.49900 24.42600
H  44.73300 13.19300 25.70300
H  46.65500 17.27900 32.84400
H  49.40300 17.79700 32.51400
H  48.02300 19.62500 30.84600
H  48.74100 19.90500 32.39500
H  46.96300 19.37100 32.23500
H  49.08700 15.51700 33.37700
H  47.56500 14.77700 33.22400
H  47.17800 15.19500 35.44400
H  47.20900 16.85800 35.26500
H  52.51500 18.36800 29.48500
H  52.67600 19.32300 27.85900
H  53.70500 18.05500 28.20200
H  53.98900 18.59400 25.94300
H  54.57100 17.56200 24.66700
H  54.65800 17.00000 26.41300
H  48.90300 13.37900 23.43100
H  46.09100 14.39300 23.39000
H  48.77000 16.14900 22.77400
H  47.45500 15.22000 21.94100
H  49.15100 14.73200 21.78700
H  46.83200 12.06700 22.60700
H  45.43100 12.27500 23.55400
H  47.67400 11.72600 25.31100
H  47.42000 10.46700 24.13800
H  46.09500 11.03300 25.29600
H  42.59800 13.06100 26.66800
H  41.91900 13.49500 28.35300
H  42.70600 12.02400 28.02600
H  45.04100 14.36500 32.50800
H  42.53500 16.05700 35.33000
H  42.15000 17.20800 34.07900
H  43.46100 17.50000 35.22600

