158

Mg 8.61300 3.17300 27.39600
C  9.65600 1.78000 30.44500
C  6.24300 5.02900 29.12400
C  7.59300 4.46700 24.55000
C  10.32700 0.71700 25.81200
N  8.03500 3.29200 29.48400
C  8.64400 2.74100 30.55700
C  8.06400 3.16000 31.91800
C  6.90800 4.06200 31.42000
C  7.05200 4.16400 29.86000
C  5.44000 3.84200 31.91000
C  8.99600 3.91800 32.81600
C  8.51900 4.73000 34.02100
H  9.11800 4.55700 35.35700
N  7.06600 4.56200 26.85200
C  6.31600 5.32500 27.76000
C  5.52500 6.23700 26.98600
C  5.93900 6.19900 25.65000
C  6.91800 5.03000 25.56500
C  4.48700 7.16900 27.66900
C  5.61400 7.05700 24.43200
O  6.07900 6.86300 23.28500
C  4.59900 8.15900 24.64900
N  8.86100 2.65500 25.43400
C  8.58900 3.49600 24.44800
C  9.17400 2.97600 23.15000
C  9.87300 1.72200 23.49300
C  9.67200 1.71300 25.01400
C  8.13000 2.74400 22.03400
C  11.34700 1.54300 23.01400
C  11.48500 0.77200 21.66200
N  9.79100 1.58200 27.97100
C  10.43600 0.66800 27.21500
C  11.26200 -0.19900 28.02400
C  10.97700 0.19900 29.31500
C  10.02500 1.26200 29.22000
C  12.18200 -1.26600 27.45700
C  11.21100 0.00600 30.73800
O  11.85200 -0.89100 31.23400
C  10.34300 0.96400 31.53800
C  9.55100 0.05200 32.53800
O  8.73700 -0.80700 32.32300
O  10.10600 0.29900 33.75800
C  9.64800 -0.33400 34.97700
H  5.57300 5.62000 29.75300
H  7.35200 4.90300 23.57800
H  10.91800 -0.04600 25.30200
H  7.66700 2.28300 32.42800
H  7.13400 5.09300 31.69500
H  4.91400 3.33000 31.10500
H  5.02500 4.78000 32.28100
H  5.52900 3.30200 32.85300
H  9.57300 4.62000 32.21300
H  9.76400 3.20100 33.10700
H  7.46400 4.46800 34.09600
H  8.65700 5.76500 33.70800
H  3.55500 7.19200 27.10300
H  4.72500 8.23300 27.66600
H  4.22100 6.89100 28.68900
H  4.35700 8.71200 23.74200
H  5.03300 8.91900 25.29900
H  3.68600 7.68600 25.01100
H  9.85900 3.73100 22.76500
H  9.17600 0.92500 23.23200
H  7.85500 1.71300 21.81000
H  8.63600 3.01300 21.10600
H  7.34500 3.49000 22.15100
H  11.94300 1.20500 23.86100
H  11.66100 2.52800 22.66800
H  10.52200 0.50100 21.22900
H  12.09800 -0.11300 21.83400
H  11.84200 1.48700 20.92100
H  12.29900 -1.14300 26.38000
H  11.94700 -2.30400 27.69400
H  13.14200 -1.07700 27.93700
H  11.13600 1.52800 32.02900
H  9.42700 0.55000 35.57600
H  10.50900 -0.89700 35.33500
H  8.75500 -0.93900 34.82100
Mg 25.64400 1.46200 29.74200
C  27.58800 1.00300 32.64600
C  22.84900 1.52500 31.72100
C  23.69800 1.11100 26.94400
C  28.46300 0.67400 27.80200
N  25.19900 1.15600 31.95300
C  26.19100 1.09600 32.92000
C  25.56700 1.14200 34.33300
C  24.07400 1.51200 33.97700
C  23.99400 1.35600 32.49000
C  22.97900 0.83000 34.79300
C  26.27500 2.18600 35.28600
C  25.39000 3.03400 36.10300
H  25.91200 3.25700 37.62300
N  23.58700 1.51700 29.38200
C  22.57800 1.62800 30.35400
C  21.28300 1.79200 29.72300
C  21.51300 1.64500 28.37300
C  22.97400 1.40600 28.15000
C  20.00400 1.98800 30.55500
C  20.44900 1.75000 27.30100
O  20.62000 1.42600 26.09900
C  19.07300 2.30900 27.65300
N  26.02400 1.01100 27.69100
C  25.07500 0.94400 26.79300
C  25.77400 0.97500 25.37800
C  27.27900 0.83900 25.59400
C  27.22500 0.84400 27.14200
C  25.27800 0.05500 24.18500
C  28.06200 1.95200 25.01500
C  29.51500 1.67700 24.73500
N  27.62200 0.93000 30.11100
C  28.65800 0.64200 29.21500
C  29.82300 0.25100 29.90300
C  29.50300 0.48300 31.24900
C  28.13500 0.87500 31.29900
C  31.03400 -0.32700 29.29800
C  30.03000 0.39500 32.60300
O  31.15000 0.06100 33.00200
C  28.81700 0.67500 33.59000
C  28.60600 -0.54500 34.54000
O  27.86200 -1.49300 34.33100
O  29.18000 -0.31200 35.76100
C  29.14200 -1.54500 36.61900
H  22.06100 1.78000 32.43400
H  23.14700 0.97300 26.01200
H  29.30900 0.41200 27.16400
H  25.47100 0.19500 34.86300
H  23.82300 2.56700 34.09100
H  22.17100 1.54200 34.96300
H  23.37000 0.47700 35.74700
H  22.56900 0.03600 34.16900
H  26.68800 2.92600 34.60200
H  27.01600 1.70300 35.92400
H  24.42000 2.57100 36.28200
H  25.24000 3.97900 35.58100
H  20.25900 2.12800 31.60600
H  19.48500 1.03500 30.45700
H  19.30500 2.72200 30.15400
H  18.40800 1.98400 26.85300
H  19.14200 3.38500 27.81300
H  18.53400 1.79200 28.44600
H  25.56500 1.96100 24.96200
H  27.67800 -0.16700 25.46000
H  24.63100 -0.69400 24.64300
H  26.12800 -0.40200 23.67900
H  24.66800 0.70100 23.55300
H  27.95700 2.76300 25.73600
H  27.72300 2.30700 24.04200
H  30.10700 2.29100 25.41300
H  29.79900 1.84800 23.69600
H  29.65600 0.64300 25.04900
H  31.53600 0.59500 29.00400
H  30.97400 -0.82900 28.33200
H  31.60900 -0.96300 29.97100
H  29.10400 1.53300 34.19900
H  29.15700 -2.49600 36.08600
H  28.26800 -1.55800 37.27100
H  30.00600 -1.40300 37.26800

