158

Mg 1.29600 7.71300 26.88100
C  1.46900 9.82700 29.67000
C  2.42600 5.06900 28.94700
C  1.47300 5.72500 24.13400
C  0.92500 10.50000 24.87700
N  1.69900 7.49100 29.04900
C  1.51500 8.49600 30.00300
C  1.43800 7.84300 31.43000
C  1.83300 6.38800 31.15200
C  2.05200 6.30500 29.60100
C  3.12000 6.01700 31.93700
C  0.04000 8.06800 31.99300
C  -0.12000 8.13500 33.50300
H  1.05800 7.66300 34.38500
N  1.84800 5.68100 26.53500
C  2.31100 4.77600 27.50900
C  2.63500 3.49600 26.90400
C  2.31300 3.59100 25.49300
C  1.87500 5.04400 25.33500
C  3.03900 2.24400 27.69300
C  2.37500 2.55400 24.38800
O  2.03400 2.84400 23.24900
C  2.64700 1.14500 24.75200
N  1.13700 8.09300 24.78900
C  1.15400 7.08500 23.87300
C  0.77800 7.64200 22.47500
C  0.53200 9.18300 22.70900
C  0.76500 9.29400 24.23800
C  1.89300 7.33600 21.45900
C  -0.89600 9.67800 22.35700
C  -0.86300 10.38200 21.00400
N  1.30900 9.79300 27.10700
C  1.22300 10.82400 26.23200
C  1.50800 12.06900 26.98600
C  1.50300 11.75700 28.31400
C  1.42300 10.34100 28.32600
C  1.55300 13.42200 26.29600
C  1.55800 12.26300 29.69200
O  1.68500 13.41500 30.08900
C  1.44800 11.03500 30.57500
C  2.56000 11.13900 31.53300
O  3.76600 10.89700 31.38900
O  2.04800 11.65700 32.70500
C  2.99200 11.90900 33.77200
H  2.69600 4.26200 29.63100
H  1.45200 4.99400 23.32300
H  0.89300 11.33000 24.16800
H  2.21800 8.40600 31.94400
H  1.06000 5.77700 31.61800
H  4.00400 5.85500 31.32000
H  2.97100 4.99800 32.29300
H  3.38200 6.77100 32.67900
H  -0.56100 7.28300 31.53300
H  -0.37400 8.97400 31.55200
H  -1.02500 7.59600 33.78000
H  -0.31800 9.19800 33.64500
H  3.22100 2.42800 28.75200
H  3.95300 1.82100 27.27400
H  2.28900 1.47200 27.52500
H  1.81900 0.77800 25.35900
H  3.66100 1.02700 25.13400
H  2.61600 0.48900 23.88200
H  -0.10600 7.10300 22.13500
H  1.34500 9.68200 22.18000
H  2.33200 8.19000 20.94400
H  1.31000 6.77100 20.73200
H  2.77000 6.84600 21.88100
H  -1.17200 10.51700 22.99600
H  -1.64500 8.88600 22.34300
H  -1.71200 9.95300 20.47200
H  -0.02300 10.09700 20.37100
H  -0.94100 11.46900 21.03900
H  1.59500 13.38900 25.20700
H  2.38500 14.03800 26.63500
H  0.58900 13.91000 26.44400
H  0.47700 11.06900 31.06800
H  3.81000 12.49700 33.35500
H  3.40600 11.00100 34.21100
H  2.51900 12.68100 34.37800
Mg 35.28300 49.28100 25.05100
C  35.19500 47.66600 28.21300
C  33.70700 52.00200 26.67100
C  34.96700 50.74000 22.15000
C  36.56200 46.36300 23.65600
N  34.51200 49.78400 27.24100
C  34.71400 48.96400 28.32400
C  34.31200 49.60400 29.64200
C  33.71300 50.96400 29.08000
C  34.02200 50.95100 27.57500
C  32.25500 51.13300 29.49700
C  35.54400 49.80300 30.55200
C  35.36900 49.62200 32.10800
H  33.94300 49.72800 32.69800
N  34.52100 51.15700 24.48200
C  33.85000 52.07800 25.28700
C  33.47900 53.23000 24.45000
C  33.93900 52.90600 23.13200
C  34.54200 51.56500 23.25500
C  32.73100 54.35200 24.94000
C  33.82500 53.73400 21.85600
O  34.18700 53.27500 20.76100
C  33.44700 55.16200 21.91300
N  35.61000 48.60100 23.15100
C  35.50000 49.43800 22.11600
C  35.83700 48.71600 20.77100
C  36.52000 47.40900 21.28500
C  36.22400 47.41000 22.75200
C  34.60600 48.52300 19.81400
C  38.05900 47.61300 21.01100
C  38.99100 48.19700 22.12800
N  35.88400 47.43300 25.74900
C  36.37900 46.32800 25.03300
C  36.56500 45.20400 25.98400
C  36.06300 45.68400 27.18800
C  35.69100 47.00600 27.06500
C  36.87500 43.87200 25.49400
C  35.71300 45.23100 28.53200
O  35.83100 44.10500 29.00200
C  35.09700 46.50900 29.27300
C  33.71900 46.24000 29.75100
O  32.68000 46.50000 29.15100
O  33.78400 45.64900 31.02700
C  32.59200 45.22000 31.72300
H  33.45300 52.96300 27.12400
H  34.90900 51.17800 21.15100
H  37.00400 45.52600 23.11200
H  33.56100 49.02400 30.17900
H  34.21800 51.75900 29.62800
H  32.03300 52.05800 30.02800
H  31.83200 50.33100 30.10200
H  31.68100 51.22500 28.57400
H  35.98600 50.78700 30.39600
H  36.22100 49.06000 30.12900
H  35.89600 50.41200 32.64200
H  35.97000 48.74800 32.35900
H  33.30100 55.24000 24.66600
H  32.41200 54.18900 25.96900
H  31.80500 54.22200 24.37900
H  32.39300 55.32500 22.14000
H  33.61200 55.61800 20.93700
H  33.97000 55.60700 22.75900
H  36.50600 49.47100 20.35800
H  36.19100 46.53200 20.72700
H  34.58000 49.32300 19.07400
H  33.72600 48.44000 20.45100
H  34.76400 47.56600 19.31700
H  38.19100 48.07200 20.03100
H  38.44400 46.59300 21.03000
H  39.60900 48.91300 21.58700
H  39.65000 47.44800 22.56900
H  38.49600 48.74500 22.92900
H  36.19400 43.63700 24.67700
H  36.66800 43.18600 26.31600
H  37.94500 43.75700 25.32300
H  35.75600 46.63900 30.13200
H  32.37400 44.16000 31.59500
H  31.77700 45.93200 31.59200
H  32.87100 45.44400 32.75300

