158

Mg 35.79200 2.66300 30.66300
C  33.20700 3.70300 32.67100
C  37.91100 2.65000 33.46600
C  38.39200 1.68200 28.66800
C  33.68000 2.55900 28.04400
N  35.51900 3.10700 32.79300
C  34.41800 3.59600 33.37100
C  34.74100 3.61700 34.95600
C  36.26400 3.74600 35.03200
C  36.62700 3.07300 33.66300
C  36.74200 5.20700 35.16300
C  34.00100 2.36800 35.53100
C  33.95100 2.27600 37.09400
H  34.07400 3.55400 37.86000
N  37.89200 2.21400 31.03400
C  38.53600 2.24800 32.22300
C  39.92500 1.80700 32.06300
C  40.08500 1.62800 30.64800
C  38.78600 1.79800 30.04300
C  40.89800 1.64400 33.20000
C  41.32400 1.24800 29.87600
O  41.33100 1.16100 28.64200
C  42.68800 1.03700 30.50500
N  36.10000 2.41200 28.63100
C  37.20100 1.91400 28.01400
C  36.92100 1.69800 26.46800
C  35.38900 1.67300 26.39000
C  35.00000 2.24500 27.79200
C  37.56400 2.86900 25.66300
C  34.62900 0.31700 26.03700
C  33.53900 0.54200 24.94000
N  33.80900 3.22200 30.32100
C  33.10700 3.13100 29.18900
C  31.68600 3.51600 29.39800
C  31.64300 3.72100 30.79300
C  32.97000 3.50200 31.27900
C  30.66100 3.62700 28.29400
C  30.83400 4.03400 31.94400
O  29.68000 4.27100 32.08200
C  31.85700 3.96800 33.20500
C  31.76600 5.22200 33.98100
O  31.90800 6.35400 33.54000
O  31.53000 4.93700 35.35700
C  31.33400 6.19200 36.13200
H  38.43500 2.67600 34.42400
H  39.05600 1.22500 27.93200
H  33.03400 2.70600 27.17600
H  34.24500 4.48400 35.39300
H  36.65400 3.20100 35.89200
H  37.32000 5.41800 34.26300
H  37.37100 5.27400 36.05000
H  35.96600 5.96900 35.24600
H  34.64300 1.52200 35.28700
H  33.00900 2.26600 35.09200
H  34.58300 1.55900 37.61800
H  32.96100 1.88200 37.32400
H  41.49600 0.73300 33.15800
H  40.40800 1.64800 34.17400
H  41.58500 2.48800 33.13000
H  43.47200 1.15300 29.75600
H  42.62100 0.00800 30.85800
H  42.81400 1.73700 31.33100
H  37.41400 0.78400 26.13600
H  35.06700 2.48800 25.74200
H  36.92000 3.22100 24.85700
H  38.50900 2.47700 25.28600
H  37.92200 3.61800 26.36900
H  34.16300 -0.14800 26.90500
H  35.34400 -0.41400 25.65800
H  33.76500 0.03400 24.00200
H  33.37100 1.59600 24.71800
H  32.61900 0.08100 25.29900
H  29.88400 2.89100 28.49900
H  31.12100 3.66200 27.30600
H  30.07600 4.54700 28.30200
H  31.60500 3.14500 33.87400
H  32.23200 6.79100 36.28200
H  30.93600 5.85900 37.09100
H  30.53700 6.83100 35.75300
Mg 9.57100 48.44500 25.99000
C  7.11100 48.99400 28.36200
C  11.95300 49.47100 28.22300
C  11.85900 47.96800 23.68200
C  7.05500 48.22800 23.54300
N  9.54500 49.08100 28.08100
C  8.41800 49.07600 28.90100
C  8.85500 49.31800 30.37100
C  10.28200 49.95100 30.11300
C  10.62900 49.46100 28.73100
C  10.45500 51.49200 30.25400
C  8.79300 47.97300 31.10400
C  9.45200 47.82400 32.42800
H  8.64300 47.36600 33.69200
N  11.66200 48.58700 25.96700
C  12.46900 49.09900 26.93900
C  13.87700 49.11300 26.50000
C  13.80300 48.58600 25.13800
C  12.40000 48.28900 24.91800
C  15.12700 49.41600 27.31700
C  14.92400 48.23400 24.16300
O  14.84100 47.64200 23.12800
C  16.34600 48.69900 24.53400
N  9.46900 48.25600 23.95500
C  10.56300 47.93800 23.20700
C  10.29300 47.57700 21.72800
C  8.73200 47.83500 21.64200
C  8.34400 48.07900 23.13200
C  11.02600 48.31700 20.68100
C  7.97900 46.75300 20.81700
C  7.19800 47.10600 19.64800
N  7.48400 48.38600 25.94200
C  6.60500 48.33600 24.89300
C  5.25500 48.34800 25.37600
C  5.43000 48.58500 26.74900
C  6.80400 48.66000 27.01500
C  4.04200 48.06100 24.50100
C  4.65400 48.78400 27.99800
O  3.47800 48.80000 28.17300
C  5.71500 49.25700 29.03500
C  5.57700 48.42000 30.24800
O  5.29300 47.26200 30.26900
O  5.36100 49.21800 31.27600
C  4.83900 48.70300 32.60600
H  12.70000 49.83900 28.93000
H  12.57800 47.75900 22.88700
H  6.32500 48.04400 22.75200
H  8.19400 50.03100 30.86400
H  10.87200 49.53700 30.93000
H  9.62200 52.04000 30.69300
H  10.48200 51.84400 29.22300
H  11.32800 51.69000 30.87500
H  9.21500 47.28300 30.37400
H  7.78000 47.60500 31.26500
H  9.94600 48.72500 32.79200
H  10.25600 47.09800 32.31000
H  15.82000 50.05900 26.77300
H  15.61400 48.46700 27.54100
H  14.88000 49.92300 28.25000
H  16.67400 48.28200 25.48600
H  16.39800 49.78800 24.53900
H  17.06400 48.30400 23.81400
H  10.60700 46.53400 21.68800
H  8.63000 48.77900 21.10500
H  12.10200 48.21400 20.82100
H  10.89700 49.38900 20.83600
H  10.64400 48.03400 19.70100
H  7.24000 46.31000 21.48400
H  8.61500 45.89400 20.60100
H  6.13000 46.89000 19.67300
H  7.66200 46.63600 18.78100
H  7.24800 48.18500 19.49700
H  3.53700 48.98000 24.20200
H  3.21500 47.58200 25.02400
H  4.36800 47.50200 23.62400
H  5.63100 50.31600 29.28000
H  4.12700 49.44200 32.97400
H  5.67600 48.72600 33.30500
H  4.26800 47.77700 32.65800

