158

Mg 46.81100 24.31100 28.58700
C  47.58800 26.77000 31.15400
C  46.27700 22.09300 31.20500
C  46.60100 21.90900 26.24500
C  48.19000 26.52200 26.27300
N  46.85500 24.45900 30.90600
C  47.06800 25.59500 31.69500
C  46.91600 25.26400 33.21600
C  46.60300 23.68400 33.17800
C  46.59100 23.33300 31.64000
C  47.60000 22.86300 34.06600
C  45.72300 26.10100 33.88000
C  45.99000 26.53700 35.28600
H  44.72500 27.01200 36.09100
N  46.39400 22.30100 28.67700
C  46.12000 21.57500 29.86100
C  45.75500 20.24300 29.41000
C  45.90200 20.11800 28.02700
C  46.33700 21.40900 27.52500
C  45.28600 19.25900 30.39200
C  45.88900 18.84000 27.17400
O  46.24700 18.93100 25.98500
C  45.41100 17.57700 27.75900
N  47.34400 24.17000 26.59000
C  47.01500 23.14200 25.78000
C  47.37800 23.35000 24.28300
C  48.02000 24.77400 24.38400
C  47.79400 25.23700 25.77300
C  48.47000 22.27500 23.63400
C  47.36700 25.86200 23.34000
C  47.89500 25.73300 21.85600
N  47.60000 26.26100 28.57100
C  48.22200 27.01300 27.58100
C  48.78400 28.21000 28.09200
C  48.49400 28.14800 29.46200
C  47.81900 26.98300 29.75600
C  49.61000 29.29400 27.36600
C  48.80000 28.87500 30.72700
O  49.44900 29.88800 30.88600
C  48.17800 27.99100 31.83700
C  49.14800 27.63200 32.83800
O  50.13700 26.95900 32.70400
O  48.77800 28.13200 34.04200
C  49.64500 27.93100 35.25300
H  46.09400 21.46700 32.08100
H  46.33000 21.21000 25.45100
H  48.75700 27.14700 25.58100
H  47.79600 25.55900 33.78700
H  45.64800 23.42700 33.63700
H  48.08500 23.58500 34.72200
H  48.32700 22.45200 33.36500
H  47.17500 22.01100 34.59700
H  44.84400 25.46300 33.79600
H  45.47500 26.98900 33.29800
H  46.64100 27.40500 35.19200
H  46.53800 25.72200 35.76000
H  45.05400 19.78500 31.31800
H  46.05000 18.51300 30.61300
H  44.36700 18.83400 29.98800
H  46.12100 17.14300 28.46300
H  45.30400 16.94400 26.87800
H  44.37600 17.73800 28.06100
H  46.47600 23.37600 23.67300
H  49.10200 24.85500 24.28000
H  49.17300 22.88800 23.07000
H  47.97300 21.56200 22.97600
H  48.99800 21.75000 24.43000
H  47.54700 26.87000 23.71300
H  46.27800 25.80600 23.31300
H  47.00600 25.59300 21.24200
H  48.60600 24.91400 21.74100
H  48.30900 26.70200 21.57900
H  50.19900 28.72600 26.64500
H  50.25100 29.59500 28.19400
H  49.10900 30.10000 26.83000
H  47.46100 28.51800 32.46600
H  49.17000 27.28900 35.99400
H  49.80000 28.89800 35.73200
H  50.58600 27.50300 34.90500
Mg 36.11400 48.94500 24.65700
C  36.34700 47.04700 27.78000
C  35.13100 51.51000 26.34700
C  35.26200 50.15500 21.65200
C  37.04200 45.91700 23.01400
N  35.77100 49.18000 26.83800
C  36.03500 48.42500 27.91500
C  35.80200 49.20200 29.24600
C  35.39300 50.64900 28.75600
C  35.42100 50.44900 27.19300
C  34.01500 51.20500 29.31900
C  36.83300 49.11200 30.40500
C  36.30000 48.49500 31.72800
H  34.88500 48.75600 32.20100
N  35.29100 50.58400 24.12000
C  34.97100 51.59600 24.93400
C  34.42900 52.62100 24.18500
C  34.46300 52.27500 22.77500
C  35.00700 50.94900 22.77300
C  33.96300 53.90400 24.78900
C  34.12400 53.11400 21.56200
O  34.07700 52.74300 20.35900
C  33.59100 54.47300 21.73800
N  36.03000 48.06700 22.63100
C  35.66900 48.83600 21.55700
C  36.03200 48.15000 20.17400
C  36.71900 46.87500 20.69300
C  36.65200 46.96100 22.23700
C  34.88700 47.92500 19.17700
C  38.18300 46.68900 20.18200
C  39.32900 47.45600 20.96200
N  36.54800 46.76500 25.21300
C  37.01200 45.79400 24.41900
C  37.26100 44.62000 25.19800
C  36.92800 45.03900 26.52900
C  36.61600 46.39400 26.48600
C  37.68400 43.22400 24.73200
C  36.70600 44.55900 27.89100
O  36.60300 43.44600 28.39300
C  36.53900 45.90600 28.80500
C  35.36600 45.67100 29.59700
O  34.18200 45.95900 29.31100
O  35.73300 45.10400 30.78900
C  34.69300 44.54300 31.61200
H  34.82800 52.40300 26.89700
H  35.21600 50.73000 20.72500
H  37.35700 45.07300 22.39800
H  34.92300 48.66800 29.60700
H  36.22200 51.33700 28.91500
H  34.23700 52.25700 29.49800
H  33.74800 50.69600 30.24500
H  33.21100 51.15400 28.58500
H  37.26400 50.09400 30.60100
H  37.62400 48.52300 29.94200
H  36.98300 48.83600 32.50600
H  36.45500 47.42600 31.57500
H  32.99900 54.28400 24.45100
H  34.64200 54.74600 24.65200
H  33.91000 53.83500 25.87600
H  34.35500 54.90300 22.38500
H  32.61500 54.44100 22.22200
H  33.48400 55.06500 20.82900
H  36.74900 48.83600 19.72400
H  36.12900 45.97700 20.51300
H  34.03700 48.54300 19.46800
H  34.59200 46.88200 19.06200
H  35.27900 48.23900 18.20900
H  38.23400 46.95600 19.12600
H  38.38900 45.62300 20.27800
H  38.89600 48.07200 21.75100
H  39.89300 48.14500 20.33300
H  40.09900 46.79800 21.36400
H  37.05800 42.87800 23.90900
H  37.60200 42.50100 25.54300
H  38.74600 43.27500 24.49100
H  37.47000 45.94600 29.37100
H  33.96400 43.94000 31.07100
H  34.03600 45.28400 32.06700
H  35.10200 43.82000 32.31700

