158

Mg 40.90900 8.94400 29.52200
C  42.47700 9.74100 32.45900
C  38.66700 7.21600 31.06100
C  39.61100 8.12700 26.47800
C  43.64400 10.49100 27.75900
N  40.77400 8.40900 31.46600
C  41.40800 8.88400 32.60500
C  40.80000 8.39200 33.88300
C  39.86900 7.26200 33.29200
C  39.72500 7.65500 31.82300
C  40.55500 5.80600 33.34200
C  40.03500 9.55800 34.64600
C  40.12400 9.38500 36.19000
H  39.92000 10.67500 37.05500
N  39.20400 8.02900 28.83400
C  38.37600 7.39400 29.64600
C  37.27800 6.92400 28.89500
C  37.50400 7.15100 27.53300
C  38.88700 7.77400 27.55400
C  36.11500 6.12500 29.57100
C  36.65900 6.78900 26.35700
O  37.10900 6.99200 25.22300
C  35.24400 6.31800 26.56400
N  41.54100 9.22600 27.39400
C  40.86800 8.67200 26.36700
C  41.66400 8.83200 24.97900
C  42.91500 9.74000 25.44900
C  42.67600 9.86900 26.94600
C  42.06900 7.46200 24.24900
C  42.86300 11.14400 24.74900
C  41.58400 12.00400 24.93100
N  42.68800 9.92600 30.00100
C  43.71800 10.47300 29.19800
C  44.60900 11.17800 30.14300
C  44.16900 10.89400 31.43700
C  43.06600 10.12200 31.26100
C  45.78300 11.90300 29.71800
C  44.46200 11.17800 32.84000
O  45.32400 11.85000 33.48600
C  43.32200 10.37000 33.53700
C  43.83700 9.46900 34.59700
O  44.54300 8.52300 34.41200
O  43.44600 9.94600 35.88100
C  44.00600 9.13800 37.05400
H  37.94000 6.71400 31.70200
H  39.20500 7.81800 25.51300
H  44.56600 10.82100 27.27500
H  41.47600 7.91300 34.59000
H  38.89400 7.31100 33.77800
H  39.92100 5.05100 33.80900
H  41.40200 5.88800 34.02300
H  40.95800 5.59500 32.35200
H  38.97900 9.37800 34.44400
H  40.38600 10.51000 34.24800
H  41.07300 8.91100 36.44200
H  39.34000 8.73300 36.57400
H  36.31900 6.15500 30.64200
H  36.18900 5.08600 29.25100
H  35.20600 6.67900 29.33500
H  35.28500 5.40900 27.16300
H  34.87700 6.05600 25.57100
H  34.71600 7.17900 26.97400
H  41.01100 9.33900 24.26900
H  43.91800 9.32400 25.35900
H  41.52700 7.31900 23.31400
H  41.82200 6.71900 25.00700
H  43.12500 7.33000 24.01500
H  43.01900 11.00600 23.67900
H  43.74200 11.72100 25.03800
H  41.32100 12.20000 23.89100
H  41.94400 12.94000 25.35800
H  40.72800 11.70900 25.53800
H  46.55000 11.15900 29.50300
H  46.21500 12.52700 30.50000
H  45.59200 12.37900 28.75600
H  42.94400 11.20900 34.12200
H  44.27100 8.14800 36.68300
H  43.36900 9.20100 37.93600
H  44.96100 9.57700 37.34200
Mg -9.35100 37.45300 41.13700
C  -7.28800 34.87900 40.11700
C  -7.10900 39.70900 39.75900
C  -11.53500 39.93600 41.75100
C  -11.83900 35.09300 41.89900
N  -7.44500 37.29100 39.99500
C  -6.80000 36.12400 39.82600
C  -5.51200 36.37000 39.06600
C  -5.33600 37.90800 39.15400
C  -6.70900 38.37700 39.65200
C  -4.07500 38.48700 39.86700
C  -5.37200 35.70600 37.73700
C  -6.53900 35.97800 36.74100
H  -6.20400 35.93900 35.22300
N  -9.21100 39.56700 40.91800
C  -8.26200 40.26300 40.31700
C  -8.67200 41.60900 40.20100
C  -9.77600 41.82000 41.05200
C  -10.24000 40.40600 41.25100
C  -7.87400 42.63800 39.45300
C  -10.47500 43.09900 41.39300
O  -10.03600 44.12400 40.86200
C  -11.73700 43.19500 42.20900
N  -11.33700 37.50900 41.88800
C  -12.02500 38.69500 42.02000
C  -13.52100 38.40300 42.47200
C  -13.58200 36.84200 42.40600
C  -12.14100 36.41900 42.09300
C  -13.91700 39.08000 43.77400
C  -14.71100 36.13300 41.51200
C  -15.32200 34.80300 42.05100
N  -9.53200 35.39700 41.16500
C  -10.54900 34.51000 41.55300
C  -10.07600 33.19000 41.58200
C  -8.85000 33.29900 40.86400
C  -8.50900 34.65000 40.76400
C  -10.80700 32.02800 42.00800
C  -7.72600 32.50500 40.33200
O  -7.51800 31.31300 40.40100
C  -6.63000 33.56200 39.84700
C  -5.38700 33.31000 40.51600
O  -4.85000 34.02200 41.35100
O  -4.91200 32.19800 39.97300
C  -3.61400 31.83900 40.57700
H  -6.33200 40.41900 39.47000
H  -12.29300 40.66300 42.04700
H  -12.57400 34.30800 42.09000
H  -4.73300 35.94100 39.69700
H  -5.22800 38.45100 38.21500
H  -3.65700 39.27000 39.23500
H  -3.34000 37.73900 40.16500
H  -4.37700 38.92200 40.82000
H  -5.05500 34.67700 37.90800
H  -4.50600 36.24200 37.34700
H  -6.98600 36.93700 37.00400
H  -7.30200 35.23000 36.95800
H  -7.12100 43.03100 40.13600
H  -8.50000 43.39900 38.98600
H  -7.41500 42.14100 38.59900
H  -11.51900 42.64500 43.12500
H  -12.46700 42.72000 41.55400
H  -12.07700 44.21400 42.39300
H  -14.25400 38.81300 41.77600
H  -13.70800 36.54200 43.44600
H  -14.22300 38.41400 44.58100
H  -14.72800 39.79400 43.63000
H  -13.01100 39.53200 44.17800
H  -14.32000 35.97400 40.50700
H  -15.44200 36.87600 41.19500
H  -16.40500 34.75900 42.16700
H  -14.94500 34.76400 43.07300
H  -14.91500 33.91600 41.56500
H  -10.33600 31.11000 41.65400
H  -11.80800 32.16900 41.60100
H  -10.86200 31.99600 43.09600
H  -6.54300 33.35100 38.78100
H  -3.64500 31.71900 41.66000
H  -2.92300 32.68200 40.59100
H  -3.35700 30.97000 39.97100

