158

Mg 9.26300 2.63000 27.72100
C  10.74100 1.00500 30.56600
C  7.23500 4.32000 29.93200
C  7.38500 3.66600 25.19700
C  11.01300 0.42800 25.72800
N  9.01300 2.61400 29.91100
C  9.77700 1.96500 30.90000
C  9.42100 2.45900 32.36300
C  8.15900 3.34100 32.10900
C  8.12400 3.40800 30.57700
C  6.84500 2.78000 32.68600
C  10.63400 3.24700 33.04400
C  10.41800 4.17000 34.31000
H  11.05400 3.61400 35.57800
N  7.61100 3.95100 27.60500
C  6.91300 4.56600 28.61900
C  5.83300 5.35300 28.08300
C  5.88500 5.24700 26.59300
C  6.96300 4.21400 26.40600
C  4.81500 6.12800 28.83800
C  5.06300 5.85700 25.44200
O  5.23200 5.54400 24.22900
C  4.05200 6.97100 25.74700
N  9.29700 2.16700 25.69300
C  8.44900 2.76000 24.84400
C  8.70300 2.26000 23.39100
C  9.89900 1.33400 23.56000
C  10.13900 1.32400 25.08900
C  7.43200 1.56400 22.75500
C  11.14300 1.75000 22.76400
C  11.79200 0.58600 22.09800
N  10.55400 0.95900 27.99400
C  11.22100 0.22300 27.08300
C  12.11700 -0.70200 27.73300
C  11.96300 -0.46800 29.08900
C  11.04500 0.65100 29.21800
C  13.02800 -1.71900 27.10800
C  12.41600 -0.80400 30.41400
O  13.29000 -1.56500 30.76900
C  11.60200 0.14400 31.47100
C  10.78900 -0.67200 32.37500
O  10.24200 -1.70600 32.03800
O  10.73200 -0.20200 33.66000
C  10.22300 -1.17100 34.62900
H  6.58900 4.83300 30.64700
H  6.81300 3.87800 24.29200
H  11.54600 -0.25700 25.06500
H  9.12700 1.60100 32.96700
H  8.38300 4.34400 32.47200
H  6.27600 3.55500 33.19900
H  7.05100 1.83600 33.19100
H  6.15600 2.57500 31.86600
H  11.15300 3.89500 32.33800
H  11.32200 2.44000 33.29400
H  9.36600 4.42000 34.44800
H  10.84600 5.16100 34.16200
H  4.99000 7.20300 28.79900
H  4.82800 5.81200 29.88200
H  3.92200 5.82100 28.29300
H  3.62400 7.30300 24.80100
H  4.46400 7.79200 26.33400
H  3.25200 6.44800 26.27200
H  8.86500 3.05800 22.66700
H  9.59800 0.34600 23.21200
H  6.74600 2.37300 22.50300
H  6.93100 0.98300 23.52900
H  7.59800 0.80000 21.99500
H  11.88600 2.12800 23.46600
H  10.96200 2.67700 22.21800
H  11.56700 0.75900 21.04600
H  11.50200 -0.39400 22.47600
H  12.84800 0.57900 22.37000
H  13.65500 -1.39200 26.27800
H  12.54900 -2.63100 26.75300
H  13.77000 -2.02600 27.84500
H  12.25600 0.76500 32.08300
H  10.53000 -2.20400 34.46000
H  9.14900 -1.08800 34.79000
H  10.68100 -0.94300 35.59100
Mg 16.12000 51.41600 24.83400
C  17.45400 50.61000 27.88700
C  13.14600 52.33400 26.66400
C  14.63500 52.44900 22.07300
C  18.70800 50.20700 23.14000
N  15.45600 51.74700 27.10300
C  16.26400 51.30800 28.12400
C  15.68700 51.83000 29.45100
C  14.24100 52.20300 29.07900
C  14.27800 52.10100 27.54000
C  13.16100 51.36500 29.79700
C  16.53700 53.02800 30.11500
C  16.71100 53.08500 31.61800
H  15.55700 52.33100 32.48100
N  14.24900 52.26600 24.39200
C  13.12700 52.56800 25.26500
C  12.05100 53.06200 24.58200
C  12.48900 53.14300 23.17300
C  13.79000 52.61200 23.15200
C  10.74100 53.42700 25.24000
C  11.72700 53.63800 21.94000
O  12.20400 53.84300 20.83800
C  10.35000 54.05900 22.10800
N  16.58000 51.15800 22.79100
C  15.79100 51.69000 21.83800
C  16.43100 51.43600 20.45200
C  17.85800 50.94000 20.87100
C  17.76800 50.81600 22.35400
C  15.83800 50.37500 19.51400
C  18.98200 52.01100 20.50300
C  18.92500 52.52400 19.09000
N  17.76300 50.59700 25.34500
C  18.77500 50.06900 24.54500
C  19.84900 49.51700 25.39700
C  19.31600 49.70000 26.65100
C  18.08700 50.29900 26.58100
C  21.08200 48.90200 24.90800
C  19.68500 49.53600 28.04600
O  20.66500 49.12300 28.61900
C  18.52400 50.11300 28.87900
C  18.07500 49.17800 29.99800
O  17.19400 48.34800 29.90400
O  18.86300 49.42600 31.11200
C  18.36700 48.89200 32.38000
H  12.21100 52.59800 27.16300
H  14.28400 52.96500 21.17800
H  19.65800 49.97900 22.65200
H  15.72700 51.05400 30.21500
H  13.94700 53.23700 29.26100
H  12.33500 52.01300 30.08900
H  13.50300 50.86600 30.70400
H  12.84100 50.56500 29.13000
H  15.94200 53.85300 29.72200
H  17.52800 53.08200 29.66500
H  16.93200 54.07200 32.02400
H  17.66800 52.57700 31.73800
H  10.31700 54.31300 24.76700
H  10.75000 53.69000 26.29800
H  10.13000 52.54200 25.06200
H  9.60800 53.41300 22.57800
H  10.01000 54.34500 21.11200
H  10.46600 54.95900 22.71100
H  16.45500 52.44000 20.03000
H  18.14700 49.97000 20.46800
H  15.24700 49.68800 20.11900
H  16.55800 49.82700 18.90600
H  15.09400 50.78600 18.83200
H  19.90700 51.44100 20.58600
H  18.93600 52.78900 21.26400
H  18.44400 51.79700 18.43600
H  19.98700 52.54600 18.84400
H  18.41900 53.47900 18.95100
H  21.88000 49.64400 24.95000
H  20.87500 48.48500 23.92300
H  21.46700 48.11900 25.56100
H  18.97600 50.95500 29.40200
H  17.59800 49.55800 32.77000
H  19.09200 48.90100 33.19400
H  18.05200 47.85100 32.30900

