158

Mg 8.50500 3.55800 27.03700
C  9.83000 1.69100 29.85700
C  6.72600 5.39600 29.07800
C  7.10800 4.80100 24.28600
C  9.90100 0.90700 24.90000
N  8.32400 3.45500 29.23900
C  8.98000 2.75300 30.23200
C  8.63300 3.33000 31.64100
C  7.60200 4.44900 31.26800
C  7.46600 4.40200 29.76400
C  6.26100 4.42300 31.98700
C  9.86100 3.92500 32.38700
C  9.54800 4.40800 33.77000
H  10.65700 5.09500 34.60700
N  7.07400 4.94300 26.70200
C  6.55400 5.67000 27.68700
C  5.81400 6.70500 27.06000
C  5.91200 6.57300 25.67600
C  6.73800 5.39100 25.50300
C  4.94400 7.76800 27.84500
C  5.40500 7.45700 24.57000
O  5.71800 7.27700 23.38700
C  4.41300 8.55800 24.92600
N  8.43900 2.88600 24.91100
C  7.79700 3.65900 23.98500
C  8.11900 3.28000 22.55800
C  9.08900 2.08600 22.76000
C  9.23100 1.95900 24.21900
C  6.90600 2.97000 21.69300
C  10.37000 2.09500 21.92200
C  10.60700 0.80200 21.18900
N  9.65200 1.74600 27.24300
C  10.16800 0.80600 26.26900
C  10.78900 -0.32300 26.95500
C  10.83300 0.13800 28.34500
C  10.09100 1.27300 28.45200
C  11.61800 -1.41100 26.32800
C  11.33700 -0.21800 29.72600
O  12.04000 -1.14700 30.02700
C  10.70200 0.84200 30.71900
C  9.97800 0.15300 31.81900
O  8.88000 -0.42300 31.76400
O  10.64300 0.39000 33.00500
C  10.01600 -0.04500 34.27200
H  6.21300 6.10900 29.72600
H  6.63400 5.21900 23.39500
H  10.25600 0.12300 24.22800
H  8.10700 2.62800 32.28700
H  7.90600 5.47500 31.47500
H  5.52800 3.87500 31.39500
H  5.91500 5.45400 32.07200
H  6.36500 4.03700 33.00100
H  10.40400 4.62000 31.74600
H  10.45400 3.01400 32.46800
H  9.29000 3.46100 34.24400
H  8.78600 5.18800 33.75000
H  5.54900 8.67200 27.78600
H  4.78700 7.47600 28.88400
H  3.93800 7.81500 27.42700
H  3.61600 8.07400 25.49000
H  4.08800 9.05800 24.01400
H  4.92000 9.29600 25.54700
H  8.63700 4.15600 22.16800
H  8.44800 1.21500 22.62600
H  6.05700 2.64300 22.29300
H  7.20500 2.21300 20.96800
H  6.61200 3.87400 21.15900
H  11.20800 2.28900 22.59200
H  10.32000 2.99800 21.31400
H  9.83200 0.04700 21.31600
H  11.47900 0.27600 21.57700
H  10.88800 1.02800 20.16000
H  11.08400 -1.95700 25.55000
H  11.77200 -2.27000 26.98100
H  12.54600 -1.00800 25.92400
H  11.50900 1.42100 31.16800
H  9.79200 0.87200 34.81700
H  10.76000 -0.44300 34.96200
H  9.13300 -0.68300 34.24600
Mg 47.30800 44.16800 42.37800
C  43.81000 43.77700 41.86800
C  47.58800 40.72800 42.07000
C  50.69000 44.45100 41.95600
C  46.85400 47.51100 42.36100
N  45.81700 42.39700 41.90300
C  44.47900 42.52700 41.86400
C  43.83600 41.12100 41.81800
C  45.01700 40.23200 42.38100
C  46.22400 41.13100 42.06200
C  44.93800 39.74500 43.84100
C  43.28200 40.74400 40.42900
C  43.95700 39.74300 39.46000
H  43.76500 39.90500 37.95300
N  48.89700 42.80700 41.94700
C  48.77100 41.43900 41.91500
C  50.10600 40.87800 41.82600
C  51.04300 41.93100 41.69800
C  50.19700 43.11700 41.80800
C  50.34800 39.45400 41.58900
C  52.54400 41.78200 41.51400
O  53.02600 40.66100 41.43500
C  53.46800 42.91800 41.67100
N  48.56400 45.72400 42.11200
C  49.92300 45.60800 42.06800
C  50.60700 47.04100 42.17900
C  49.31000 48.02800 42.25700
C  48.21500 47.05800 42.22500
C  51.66700 47.26000 43.36100
C  49.11600 48.96400 40.99100
C  49.05400 50.47800 41.27300
N  45.70100 45.45200 42.29300
C  45.65100 46.82100 42.30900
C  44.29500 47.26200 42.23700
C  43.52100 46.10000 42.12100
C  44.42800 45.02600 42.11500
C  43.73200 48.62600 42.25900
C  42.18600 45.53100 41.98400
O  41.08500 46.03700 42.00500
C  42.32900 44.00400 41.88800
C  41.65400 43.43100 43.16100
O  40.57800 42.88900 43.13000
O  42.31400 43.71500 44.33400
C  41.68100 43.62200 45.60300
H  47.74100 39.66000 42.23700
H  51.73800 44.73500 41.83700
H  46.71800 48.58200 42.53000
H  43.00700 41.09000 42.52600
H  45.07400 39.31500 41.79400
H  44.04200 40.12000 44.33700
H  45.74600 40.27100 44.35000
H  45.01200 38.65800 43.82500
H  43.22900 41.59300 39.74800
H  42.28500 40.47000 40.77400
H  43.67500 38.71900 39.70600
H  45.04500 39.73900 39.53400
H  50.90800 39.44400 40.65400
H  49.43100 38.88600 41.43000
H  50.97800 38.99800 42.35300
H  53.31400 43.67600 40.90200
H  54.42400 42.44300 41.45300
H  53.31500 43.28100 42.68700
H  51.16000 47.30000 41.27600
H  49.27300 48.59600 43.18600
H  51.45300 48.17400 43.91500
H  52.68100 47.38600 42.97900
H  51.71300 46.33400 43.93400
H  48.27500 48.77700 40.32400
H  49.98200 48.82200 40.34500
H  48.04200 50.85200 41.12200
H  49.60800 51.07900 40.55300
H  49.42800 50.67700 42.27800
H  42.98500 48.79700 41.48400
H  44.43600 49.36900 41.88400
H  43.27300 48.73500 43.24200
H  41.84300 43.51200 41.04500
H  41.68700 42.53800 45.71100
H  40.70000 44.09600 45.57200
H  42.36500 43.89100 46.40800

