158

Mg 36.10000 50.30500 25.64400
C  35.96700 48.33200 28.55400
C  34.42300 52.72900 27.59800
C  36.00200 52.07900 22.93800
C  37.19400 47.40900 23.85600
N  35.19600 50.45100 27.83000
C  35.46200 49.59100 28.82500
C  35.00800 50.15800 30.13700
C  34.15300 51.37200 29.74400
C  34.52500 51.47200 28.23700
C  32.59800 51.24800 30.13800
C  36.19900 50.63500 30.99600
C  36.46700 49.75300 32.25800
H  35.16800 49.38300 33.05500
N  35.31800 52.19000 25.28100
C  34.75900 53.05200 26.21500
C  34.65000 54.34500 25.62200
C  35.08400 54.24100 24.21300
C  35.48600 52.80600 24.07000
C  34.20300 55.52800 26.42500
C  35.08100 55.28100 23.09900
O  35.54300 54.97200 21.97900
C  34.60300 56.69500 23.38800
N  36.30600 49.76600 23.61600
C  36.32800 50.74200 22.73200
C  36.91100 50.25600 21.40400
C  37.46200 48.85600 21.73200
C  36.91900 48.58300 23.16400
C  35.99900 50.34400 20.16100
C  38.95000 48.62200 21.58900
C  39.39000 47.92800 20.31700
N  36.53500 48.29400 26.02900
C  36.97000 47.22900 25.24300
C  37.26900 46.07300 26.06200
C  36.81300 46.45500 27.33800
C  36.46100 47.82800 27.31900
C  37.77400 44.67000 25.64200
C  36.63500 46.02200 28.70700
O  36.74200 44.86500 29.07100
C  36.15300 47.21200 29.56800
C  34.96500 46.75700 30.30800
O  33.81000 46.79600 29.88100
O  35.33900 46.24100 31.51300
C  34.36200 45.33400 32.14500
H  34.02700 53.54400 28.20800
H  36.23300 52.65400 22.03800
H  37.73300 46.65500 23.27900
H  34.31000 49.49400 30.64600
H  34.63000 52.28400 30.10200
H  32.25100 50.22200 30.25900
H  32.01600 51.65500 29.31100
H  32.37400 51.91100 30.97400
H  36.15600 51.65600 31.37700
H  37.07300 50.53500 30.35200
H  37.19800 50.23800 32.90600
H  36.98900 48.92900 31.77200
H  33.60500 55.15600 27.25700
H  33.46000 56.09600 25.86500
H  35.04300 56.12100 26.78600
H  35.31300 57.24800 24.00300
H  33.60800 56.69600 23.83400
H  34.47000 57.23100 22.44800
H  37.74000 50.94700 21.25200
H  36.95100 48.10400 21.13100
H  36.48100 51.08300 19.52100
H  35.06900 50.71700 20.59000
H  35.96900 49.40400 19.61200
H  39.27800 47.98400 22.40900
H  39.48800 49.52900 21.86300
H  39.28200 48.69700 19.55200
H  38.84100 46.99500 20.19200
H  40.43000 47.61200 20.40300
H  38.50100 44.35600 26.39100
H  38.25700 44.71200 24.66600
H  37.03700 43.86800 25.65200
H  36.91900 47.38500 30.32400
H  34.92700 44.76100 32.88000
H  33.98100 44.60600 31.42800
H  33.51200 45.85100 32.58900
Mg 0.97700 42.17600 25.97100
C  2.12000 42.31700 29.32000
C  -1.99600 41.18300 27.05000
C  0.19600 41.54700 22.78800
C  4.26300 42.98100 24.92400
N  0.24400 41.77100 27.98100
C  0.77400 42.01400 29.19900
C  -0.27300 41.88300 30.28200
C  -1.56100 41.34900 29.63500
C  -1.13100 41.45000 28.11800
C  -1.88200 39.87500 30.02900
C  -0.39700 43.27700 30.93500
C  -0.42900 43.29500 32.52800
H  -0.54400 41.90800 33.29900
N  -0.69200 41.43500 25.01000
C  -1.81100 41.04100 25.66100
C  -2.80700 40.66100 24.73100
C  -2.20200 40.87400 23.41700
C  -0.82800 41.35700 23.72400
C  -4.21800 40.22300 25.11200
C  -2.68800 40.57100 22.00800
O  -2.12600 40.93300 20.96900
C  -4.02900 39.79400 21.81400
N  2.13500 42.31300 24.15600
C  1.51600 42.03300 22.96400
C  2.46100 42.08700 21.76900
C  3.73200 42.74500 22.36000
C  3.38300 42.69900 23.88400
C  2.79800 40.70900 21.16500
C  3.90900 44.22100 21.95900
C  4.03200 44.57200 20.52200
N  2.82700 42.60500 26.90500
C  4.03800 42.99300 26.35400
C  5.00000 43.19000 27.42400
C  4.23300 43.03700 28.61600
C  2.98100 42.60100 28.22700
C  6.46600 43.54100 27.26000
C  4.29600 43.22900 30.04300
O  5.13900 43.64200 30.78400
C  2.92700 42.62000 30.54600
C  3.26700 41.35300 31.34600
O  3.16800 40.18300 30.98900
O  3.41000 41.67300 32.66900
C  3.25700 40.78400 33.83400
H  -3.01700 41.00900 27.39700
H  0.00500 41.25100 21.75400
H  5.28800 43.21900 24.63300
H  0.11800 41.13800 30.97500
H  -2.34300 42.05900 29.90800
H  -2.08100 39.35400 29.09200
H  -2.73500 39.82500 30.70500
H  -1.06500 39.33900 30.51300
H  -1.25500 43.79000 30.49900
H  0.45200 43.92300 30.71000
H  -1.31500 43.82400 32.87800
H  0.46800 43.76200 32.93400
H  -4.58800 39.34700 24.58000
H  -4.85100 41.08200 24.88900
H  -4.23200 39.95700 26.16900
H  -3.75700 38.75700 22.01300
H  -4.17500 40.05600 20.76600
H  -4.76900 40.31700 22.42000
H  2.09900 42.75200 20.98500
H  4.56600 42.07400 22.15300
H  2.25200 40.60900 20.22700
H  2.49600 39.83000 21.73500
H  3.85900 40.64900 20.92400
H  4.58100 44.74100 22.64100
H  2.94000 44.62100 22.25800
H  3.12800 45.12300 20.26100
H  4.28000 43.69900 19.91800
H  4.89900 45.22400 20.41000
H  7.03300 42.61100 27.22500
H  6.74500 44.11800 28.14200
H  6.52900 44.09100 26.32100
H  2.47700 43.42200 31.13200
H  2.73600 39.87200 33.54400
H  2.71800 41.26800 34.64800
H  4.20400 40.53000 34.31000

