158

Mg 2.81400 -0.35500 43.74900
C  6.27100 -0.17400 43.13000
C  2.43400 2.71200 42.09700
C  -0.45000 -1.08200 43.32600
C  3.31100 -3.58800 44.83900
N  4.23000 0.98700 42.73300
C  5.54900 0.90100 42.66000
C  6.13300 2.27000 42.13100
C  4.93900 3.18700 42.07000
C  3.76800 2.17400 42.23700
C  4.86100 4.26800 43.20300
C  6.85000 2.07700 40.74000
C  6.03800 1.32500 39.63800
H  5.97000 1.99700 38.26400
N  1.17100 0.83400 42.96300
C  1.21700 2.05800 42.39400
C  -0.17800 2.42700 42.05300
C  -0.99100 1.26500 42.35100
C  -0.07200 0.24100 42.87600
C  -0.59300 3.73900 41.42600
C  -2.44700 1.13100 42.00600
O  -2.99300 2.19000 41.72800
C  -3.26300 -0.15000 42.11200
N  1.66500 -2.02400 43.93200
C  0.32800 -2.13600 43.85000
C  -0.25500 -3.53400 44.09400
C  0.99100 -4.29800 44.61900
C  2.07100 -3.22800 44.45500
C  -1.53500 -3.51500 44.99100
C  1.33100 -5.74900 44.11800
C  1.46100 -6.88300 45.24100
N  4.43000 -1.64000 44.08500
C  4.44200 -2.86900 44.62700
C  5.84500 -3.31700 44.80700
C  6.62000 -2.29200 44.28600
C  5.71700 -1.28800 43.82700
C  6.35100 -4.60900 45.23100
C  7.99800 -1.76700 43.92100
O  9.09200 -2.24900 44.19200
C  7.82800 -0.44300 43.10800
C  8.66500 0.73900 43.69000
O  9.77800 1.07200 43.26800
O  8.05900 1.26200 44.70100
C  8.74800 2.34800 45.41800
H  2.15300 3.68200 41.68100
H  -1.49400 -1.36800 43.18200
H  3.48700 -4.53500 45.35300
H  6.88200 2.56800 42.86500
H  4.84500 3.59900 41.06500
H  4.49100 3.92500 44.16900
H  4.44900 5.14300 42.70100
H  5.89800 4.53400 43.40900
H  7.81700 1.63000 40.97200
H  7.06300 3.06700 40.33600
H  5.00900 1.16500 39.95800
H  6.40000 0.31600 39.44100
H  -0.66100 3.65700 40.34100
H  0.09900 4.53900 41.68900
H  -1.49900 4.05200 41.94500
H  -3.32000 -0.34700 43.18200
H  -2.67200 -0.86800 41.54300
H  -4.27600 -0.12500 41.70900
H  -0.58300 -3.98700 43.15800
H  1.11400 -4.28300 45.70200
H  -1.58600 -2.65100 45.65400
H  -1.51600 -4.41200 45.61000
H  -2.43600 -3.51000 44.37600
H  2.28300 -5.70000 43.59000
H  0.59800 -6.02900 43.36100
H  0.49800 -7.38700 45.32700
H  1.57000 -6.30200 46.15700
H  2.29800 -7.55900 45.07200
H  5.70600 -5.12700 45.94000
H  7.36300 -4.55200 45.63100
H  6.39200 -5.30100 44.39000
H  8.20000 -0.42200 42.08300
H  8.89900 3.18800 44.74000
H  9.76500 2.11100 45.73100
H  8.04100 2.80100 46.11300
Mg 25.03600 -7.14600 47.82800
C  27.55200 -5.01300 46.72400
C  23.01200 -6.19200 45.29400
C  23.25500 -9.93700 48.37300
C  27.73600 -8.85000 49.63100
N  25.39400 -5.84000 46.10400
C  26.45700 -5.05700 45.90900
C  26.20300 -4.10600 44.68400
C  24.64800 -4.41600 44.37900
C  24.30100 -5.60200 45.27700
C  23.61600 -3.31000 44.56600
C  27.26800 -4.40200 43.63700
C  27.96300 -3.20600 43.06500
H  27.60500 -2.86300 41.64200
N  23.21300 -7.83200 47.08500
C  22.56800 -7.31000 45.97200
C  21.32200 -7.97600 45.87000
C  21.29700 -9.10800 46.77300
C  22.64600 -9.04800 47.44300
C  20.37100 -7.58900 44.81500
C  20.18900 -10.15800 46.85700
O  19.27600 -10.09900 46.04500
C  20.13600 -11.17400 47.97400
N  25.43800 -9.13600 48.83600
C  24.45200 -10.09100 49.02500
C  24.87700 -11.31600 49.83100
C  26.44900 -10.96200 50.03100
C  26.53000 -9.57500 49.48500
C  24.17700 -11.55300 51.18200
C  27.44300 -11.89600 49.28900
C  27.82500 -11.76300 47.75900
N  27.11700 -6.90500 48.31700
C  28.02800 -7.61300 49.06300
C  29.35100 -6.84800 49.12500
C  29.14900 -5.77900 48.32200
C  27.86500 -5.96800 47.72100
C  30.58300 -7.21700 49.94800
C  29.75100 -4.62300 47.85200
O  30.76600 -4.02900 48.06700
C  28.71700 -4.01100 46.75200
C  28.36500 -2.62900 47.09500
O  28.20600 -2.19300 48.20400
O  28.34300 -1.84300 45.98700
C  27.93400 -0.44000 46.36400
H  22.23000 -5.88800 44.59600
H  22.72700 -10.86000 48.62100
H  28.54400 -9.38600 50.13200
H  26.22700 -3.13300 45.17500
H  24.56300 -4.94600 43.43100
H  24.18300 -2.38600 44.67600
H  23.04100 -3.47500 45.47700
H  22.97100 -3.22300 43.69100
H  26.73200 -4.99200 42.89300
H  28.05900 -5.02200 44.05800
H  29.03700 -3.31300 43.21800
H  27.70200 -2.29400 43.60200
H  19.82900 -6.64700 44.90500
H  19.59100 -8.30800 44.56800
H  20.93700 -7.54900 43.88300
H  20.52800 -10.82700 48.93000
H  20.61800 -12.11100 47.69500
H  19.10100 -11.44600 48.18100
H  24.76600 -12.26100 49.29900
H  26.64600 -10.84400 51.09700
H  24.79900 -11.45400 52.07100
H  23.76200 -12.56100 51.17000
H  23.35500 -10.83900 51.23800
H  27.16400 -12.94800 49.34500
H  28.31800 -11.89200 49.93900
H  27.73900 -12.75700 47.32000
H  28.78400 -11.24600 47.71900
H  27.13800 -11.07100 47.27200
H  30.73200 -8.28500 50.11000
H  30.58000 -6.78100 50.94700
H  31.55400 -7.01800 49.49400
H  29.24300 -4.00700 45.79800
H  26.96300 -0.39000 46.85800
H  27.77500 0.01800 45.38800
H  28.76900 -0.00200 46.91100

