158

Mg 30.34900 57.99100 40.66700
C  27.29000 56.38000 39.59000
C  31.87800 55.02600 39.53300
C  33.21400 59.71200 40.34900
C  28.54700 60.78500 41.15600
N  29.65000 55.92100 39.67800
C  28.39100 55.55500 39.30400
C  28.40400 54.25600 38.56500
C  29.76400 53.63600 38.87700
C  30.48900 54.88600 39.46900
C  29.88700 52.34800 39.81100
C  28.13200 54.46000 36.99200
C  27.11300 53.61900 36.19300
H  26.08300 54.34600 35.19600
N  32.33800 57.38400 40.07600
C  32.71100 56.14700 39.76700
C  34.11000 56.25000 39.49400
C  34.57800 57.52000 39.85700
C  33.34700 58.28100 40.09100
C  34.88700 55.17400 38.89100
C  36.03400 58.05100 39.66500
O  36.90500 57.24000 39.32500
C  36.43500 59.41500 39.98500
N  30.81400 60.04600 40.79600
C  32.05500 60.50700 40.71200
C  32.10500 62.00100 41.13500
C  30.59500 62.29100 41.45900
C  29.92800 60.97400 41.09300
C  33.07900 62.40900 42.21300
C  30.03500 63.48800 40.74500
C  29.68900 63.42900 39.27100
N  28.28900 58.50200 40.65300
C  27.77600 59.69900 40.86900
C  26.37300 59.64000 40.51000
C  26.14300 58.35400 40.04600
C  27.32300 57.66900 40.10300
C  25.24500 60.72200 40.53700
C  25.10800 57.50100 39.54000
O  23.95000 57.76800 39.29800
C  25.79900 56.12400 39.16900
C  25.32500 55.03100 40.06100
O  25.21500 55.07400 41.31500
O  24.87700 53.94800 39.39400
C  24.36500 52.83800 40.19700
H  32.24500 54.04000 39.23900
H  34.03600 60.41200 40.18400
H  28.05300 61.69700 41.49500
H  27.58800 53.66300 38.97700
H  30.30000 53.47100 37.94200
H  30.82800 52.43600 40.35500
H  29.63600 51.48100 39.20100
H  28.99800 52.42900 40.43700
H  29.10100 54.57700 36.50700
H  27.73200 55.46800 36.88600
H  26.43400 53.20600 36.93900
H  27.68500 52.82500 35.71300
H  35.37100 55.48900 37.96700
H  34.33000 54.28100 38.60700
H  35.55300 54.76200 39.64900
H  37.48100 59.32000 40.27800
H  35.85500 59.67600 40.87000
H  36.28700 60.16600 39.20800
H  32.27400 62.48800 40.17500
H  30.54800 62.35300 42.54600
H  33.69500 63.17600 41.74400
H  33.67300 61.50400 42.34300
H  32.80100 62.95200 43.11700
H  30.71200 64.34100 40.81000
H  29.17500 63.91200 41.26300
H  30.26300 64.17100 38.71600
H  28.64600 63.56200 38.98600
H  29.97200 62.42000 38.97000
H  25.45300 61.65400 40.01200
H  24.99100 60.97000 41.56700
H  24.28900 60.36400 40.15400
H  25.50900 55.90900 38.14000
H  24.98200 52.73500 41.09000
H  24.60400 51.89000 39.71400
H  23.27900 52.90900 40.25700
Mg 8.94900 47.01500 25.42600
C  6.80900 46.86000 28.07300
C  11.49800 48.21400 27.43100
C  10.90100 47.32600 22.71400
C  6.25200 46.36700 23.25100
N  9.10100 47.54400 27.43100
C  8.15000 47.17000 28.41200
C  8.65500 47.52200 29.82400
C  10.00200 48.27000 29.61600
C  10.21300 48.02600 28.09300
C  9.96200 49.76400 29.93900
C  8.69700 46.34900 30.85600
C  9.70300 46.41500 32.04400
H  9.38900 45.63200 33.35700
N  10.91300 47.64100 25.13500
C  11.82200 48.00200 26.12800
C  13.19800 48.02700 25.52000
C  13.04800 47.66500 24.19500
C  11.59300 47.56100 23.93300
C  14.41900 48.29200 26.42200
C  14.10900 47.19600 23.15300
O  13.75500 47.01100 21.97000
C  15.51800 46.97300 23.54800
N  8.55300 47.06200 23.23900
C  9.57100 47.21100 22.36800
C  9.09700 47.04700 20.91500
C  7.54200 46.82400 21.06200
C  7.42900 46.75300 22.59300
C  9.38100 48.16500 19.87200
C  6.97100 45.59100 20.27700
C  5.61500 45.88100 19.52700
N  6.92500 46.80700 25.60800
C  5.93400 46.48400 24.65900
C  4.64000 46.39700 25.35700
C  4.97200 46.50800 26.74700
C  6.34700 46.74700 26.81600
C  3.30100 46.05900 24.71500
C  4.37000 46.50800 28.09600
O  3.26300 46.36600 28.51800
C  5.60300 46.58200 28.98400
C  5.76500 45.23300 29.73900
O  6.34900 44.26500 29.33200
O  5.25700 45.31200 30.96000
C  5.35500 44.19800 31.88500
H  12.26000 48.47300 28.16900
H  11.44000 47.35400 21.76500
H  5.33700 46.41900 22.65700
H  7.86400 48.11800 30.27800
H  10.87900 47.84200 30.10300
H  9.52500 50.37200 29.14700
H  10.96200 50.16500 30.10300
H  9.42600 49.95000 30.87000
H  8.99700 45.56600 30.15900
H  7.70600 46.30000 31.30700
H  9.87500 47.44500 32.35600
H  10.67100 46.06000 31.69000
H  14.09900 48.62600 27.40900
H  15.05800 49.04800 25.96700
H  14.98700 47.38500 26.62900
H  15.39700 46.42000 24.48000
H  16.13200 47.82800 23.83100
H  16.05300 46.42100 22.77600
H  9.56800 46.12000 20.58600
H  6.99100 47.68100 20.67500
H  9.60100 49.09400 20.39800
H  8.57400 48.20000 19.14000
H  10.28300 47.96600 19.29300
H  6.68200 44.77600 20.94000
H  7.66900 45.20800 19.53200
H  5.54300 46.94800 19.31800
H  4.77600 45.63200 20.17700
H  5.52900 45.39400 18.55600
H  3.35700 46.23900 23.64200
H  2.52400 46.61400 25.24000
H  3.18200 44.98900 24.88500
H  5.51200 47.38500 29.71600
H  6.33900 43.74500 32.00400
H  4.62700 43.42600 31.63500
H  5.39800 44.59600 32.89800

