158

Mg 41.13500 8.12400 29.53500
C  42.52300 9.74000 32.21700
C  38.79600 6.88800 31.83300
C  39.85200 6.41300 27.02600
C  43.73200 9.36700 27.47200
N  40.77900 8.11200 31.79500
C  41.46600 8.99400 32.61000
C  40.90200 9.00500 33.99900
C  39.71300 7.99600 33.91600
C  39.62900 7.69900 32.42800
C  39.90000 6.67600 34.75900
C  40.44600 10.44500 34.51300
C  39.48700 10.48000 35.72100
H  39.96500 11.50000 36.79000
N  39.56300 6.93900 29.46500
C  38.70400 6.51300 30.47700
C  37.68200 5.68900 29.93600
C  37.95600 5.53700 28.58700
C  39.20200 6.26800 28.28900
C  36.73200 4.93300 30.87400
C  37.15500 4.83300 27.46000
O  37.52100 4.64200 26.30800
C  35.88100 4.15000 27.62700
N  41.66100 7.97500 27.53800
C  40.92700 7.19800 26.68800
C  41.63100 7.18300 25.33900
C  42.62900 8.37200 25.41400
C  42.65000 8.65300 26.90900
C  42.25100 5.76900 25.05600
C  42.32500 9.65400 24.68800
C  40.94100 10.22300 25.01000
N  42.84600 9.23600 29.73100
C  43.73600 9.68000 28.81600
C  44.63800 10.54900 29.44600
C  44.29100 10.58000 30.82600
C  43.14700 9.74100 30.94900
C  45.72500 11.35100 28.74200
C  44.54200 11.11700 32.06300
O  45.42300 11.89400 32.48100
C  43.36200 10.59900 33.05200
C  43.98500 9.92300 34.16300
O  44.61600 8.88600 34.11700
O  43.75400 10.53900 35.40300
C  44.18900 9.82900 36.61800
H  38.03500 6.56300 32.54600
H  39.48200 5.88600 26.14400
H  44.50700 9.77200 26.81800
H  41.68700 8.67700 34.68000
H  38.79300 8.49400 34.21900
H  40.24300 5.84600 34.14100
H  38.96900 6.36100 35.23000
H  40.62900 6.75200 35.56600
H  40.13700 10.91900 33.58100
H  41.33900 10.98700 34.82500
H  39.43800 9.47700 36.14300
H  38.54300 10.89800 35.37000
H  35.81400 4.66100 30.35300
H  36.36900 5.56300 31.68600
H  37.24100 4.09700 31.35300
H  35.15100 4.73300 28.18800
H  36.12300 3.22100 28.14400
H  35.44600 4.05900 26.63100
H  40.87500 7.38900 24.58200
H  43.61700 8.07900 25.05800
H  43.28800 5.88600 24.74100
H  41.58100 5.25300 24.36700
H  42.24100 5.11000 25.92400
H  42.21200 9.42800 23.62800
H  43.13600 10.36500 24.84600
H  41.08600 11.30100 25.08100
H  40.51000 9.93300 25.96900
H  40.31300 10.00600 24.14600
H  46.00600 12.23800 29.31000
H  45.46500 11.45000 27.68800
H  46.60900 10.71700 28.67100
H  42.99500 11.54700 33.44400
H  44.41500 8.77300 36.46700
H  43.48200 9.89000 37.44500
H  45.06000 10.34900 37.01800
Mg -5.91300 24.55200 26.69700
C  -4.16500 26.11500 29.38700
C  -7.05300 22.28300 29.08000
C  -7.64800 23.18800 24.29300
C  -4.14000 26.55100 24.49600
N  -5.53200 24.19200 28.97600
C  -4.93800 25.03900 29.80800
C  -5.19400 24.68800 31.24900
C  -5.78500 23.22200 31.16400
C  -6.23100 23.22200 29.64800
C  -4.69000 22.20700 31.41200
C  -6.20700 25.63100 31.94200
C  -5.93600 26.02100 33.46500
H  -5.94200 24.76400 34.43000
N  -7.16500 23.00700 26.73300
C  -7.49400 22.21900 27.78300
C  -8.40300 21.14600 27.27700
C  -8.56600 21.38800 25.91500
C  -7.76300 22.58300 25.55400
C  -8.75000 19.93500 28.10200
C  -9.45600 20.62600 24.90600
O  -9.46700 20.86200 23.70500
C  -10.42200 19.59000 25.35400
N  -5.89700 24.79500 24.66600
C  -6.73300 24.21300 23.86400
C  -6.54800 24.53800 22.39400
C  -5.37300 25.60100 22.37700
C  -5.12300 25.71100 23.93200
C  -6.25600 23.24000 21.49100
C  -5.71500 27.01700 21.77600
C  -6.76900 27.05600 20.62600
N  -4.45500 25.92700 26.84800
C  -3.87900 26.67600 25.83100
C  -2.96000 27.58500 26.44700
C  -3.01000 27.37500 27.77900
C  -3.95400 26.38200 28.00000
C  -2.12200 28.62900 25.67400
C  -2.50300 27.87500 29.12000
O  -1.70900 28.73300 29.49000
C  -3.25700 27.03500 30.16500
C  -2.32200 26.38800 31.02000
O  -1.81600 25.34000 30.80200
O  -2.12200 27.07700 32.23300
C  -1.34700 26.40100 33.32500
H  -7.49700 21.55700 29.76400
H  -8.40100 22.84300 23.58200
H  -3.61100 27.28100 23.87900
H  -4.31300 24.59700 31.88500
H  -6.48800 23.13700 31.99300
H  -4.77900 21.93800 32.46500
H  -3.71300 22.65500 31.22800
H  -4.83600 21.32400 30.79000
H  -7.15600 25.09700 31.98400
H  -6.46400 26.55500 31.42400
H  -6.67400 26.77200 33.74700
H  -5.00500 26.55800 33.64900
H  -9.82500 19.95300 28.27800
H  -8.23400 19.79800 29.05200
H  -8.44700 19.02100 27.59000
H  -10.85900 19.93900 26.28900
H  -9.82900 18.68200 25.46800
H  -11.28800 19.41500 24.71600
H  -7.53500 24.92400 22.13700
H  -4.48000 25.20000 21.89900
H  -7.05500 23.23800 20.75000
H  -6.43600 22.35500 22.10300
H  -5.26600 23.24700 21.03300
H  -4.72900 27.39200 21.50000
H  -6.05700 27.67600 22.57300
H  -7.61500 27.44900 21.19000
H  -6.97400 26.13300 20.08200
H  -6.38000 27.77200 19.90200
H  -1.17200 28.25300 25.29300
H  -1.88700 29.40700 26.40100
H  -2.66300 28.94300 24.78200
H  -3.93600 27.68900 30.71300
H  -0.75600 27.13700 33.86900
H  -0.62700 25.63600 33.03600
H  -2.07300 26.03900 34.05300

