158

Mg 0.96600 8.07600 26.32400
C  1.71700 10.28400 29.05000
C  1.24500 5.40000 28.68900
C  0.69400 5.99500 23.80600
C  1.02600 10.76200 24.26100
N  1.45100 7.88200 28.60300
C  1.62600 8.95800 29.48700
C  1.76700 8.47500 30.92100
C  1.87200 6.91100 30.75500
C  1.47900 6.70400 29.27100
C  3.30300 6.35900 30.98400
C  0.53400 8.91700 31.74900
C  0.85000 9.27900 33.24100
H  1.96100 8.60900 34.11900
N  0.90300 5.99600 26.24300
C  0.99400 5.07100 27.28800
C  0.82700 3.78400 26.77600
C  0.70700 3.88400 25.38000
C  0.82100 5.34600 25.06500
C  0.73500 2.53000 27.68500
C  0.67900 2.81700 24.31600
O  0.64500 2.99700 23.07000
C  0.74900 1.43300 24.74100
N  0.95700 8.36300 24.31100
C  0.77900 7.32800 23.47200
C  0.82300 7.81700 22.04400
C  0.53200 9.32000 22.22100
C  0.86200 9.51700 23.70400
C  2.22400 7.51400 21.38400
C  -0.91000 9.75200 22.05700
C  -1.21800 10.38600 20.75000
N  1.34400 10.17800 26.53500
C  1.33300 11.13500 25.64000
C  1.65100 12.51800 26.21800
C  1.80100 12.18200 27.58000
C  1.57200 10.77700 27.73700
C  1.64600 13.77000 25.45300
C  2.07500 12.72600 28.83600
O  2.40400 13.87500 29.10000
C  2.00000 11.53300 29.86400
C  3.30900 11.50500 30.61400
O  4.41100 11.29700 30.14400
O  3.00900 11.72500 31.90200
C  4.10800 11.99900 32.83200
H  1.39100 4.60400 29.42100
H  0.67600 5.38900 22.89800
H  0.91000 11.56700 23.53100
H  2.66100 8.97200 31.29800
H  1.05800 6.52200 31.36700
H  3.99300 7.12200 31.34700
H  3.65000 5.83100 30.09600
H  3.15500 5.61600 31.76800
H  -0.24800 8.16200 31.67400
H  0.07700 9.72400 31.17600
H  -0.03600 9.41200 33.86100
H  1.20800 10.30400 33.13800
H  -0.04100 1.79100 27.49000
H  0.59100 2.75900 28.74100
H  1.68000 1.99500 27.78200
H  1.63200 1.31500 25.36900
H  0.91100 0.81200 23.85900
H  -0.15600 1.04600 25.21000
H  -0.08500 7.38900 21.61800
H  1.16100 9.90100 21.54700
H  2.99100 7.59900 22.15400
H  2.41000 8.12600 20.50200
H  2.03000 6.47700 21.10800
H  -1.24500 10.47700 22.79800
H  -1.62300 8.93200 22.14000
H  -0.36200 10.15600 20.11600
H  -1.44600 11.43900 20.91200
H  -2.02600 9.96400 20.15300
H  0.59800 13.90200 25.18300
H  2.32900 13.75200 24.60400
H  1.97400 14.60400 26.07400
H  1.20000 11.82300 30.54400
H  4.86900 12.50100 32.23400
H  4.70000 11.18900 33.25800
H  3.81600 12.70800 33.60700
Mg 35.51300 48.90400 25.00500
C  35.73100 47.41100 28.31000
C  34.78100 51.82800 26.57000
C  35.64900 50.23600 22.09400
C  36.70500 45.81900 23.75600
N  35.24400 49.54000 27.21900
C  35.45200 48.78300 28.35600
C  35.37100 49.64700 29.59400
C  35.11100 51.05600 29.02500
C  34.95100 50.79700 27.52900
C  33.96600 51.85400 29.77800
C  36.70300 49.65900 30.51400
C  36.56600 49.13400 31.97900
H  35.18000 49.23500 32.64400
N  35.32800 50.83400 24.37600
C  34.91400 51.87300 25.14200
C  34.68400 52.99900 24.29000
C  34.96300 52.58900 22.98700
C  35.27200 51.18000 23.06300
C  34.33100 54.38500 24.84400
C  34.83400 53.40800 21.75700
O  35.20400 52.93600 20.62800
C  34.14200 54.72600 21.76100
N  36.25400 48.17500 23.24300
C  36.12100 48.90300 22.10800
C  36.66500 48.20500 20.84600
C  37.26000 46.94900 21.50700
C  36.64900 46.93500 22.91300
C  35.52000 47.81800 19.73600
C  38.78900 46.96300 21.59700
C  39.53400 45.60900 21.50400
N  35.83300 46.91500 25.78300
C  36.36900 45.79700 25.15200
C  36.59700 44.71600 26.09600
C  36.40800 45.32400 27.35000
C  35.94500 46.65400 27.10900
C  37.01600 43.27000 25.71000
C  36.44200 45.08900 28.76900
O  36.81200 44.16700 29.42300
C  35.90100 46.41700 29.46800
C  34.66000 46.12400 30.25700
O  33.50500 46.24500 29.88800
O  35.01500 45.58100 31.48700
C  33.91300 45.04000 32.33600
H  34.42400 52.69700 27.12600
H  35.67300 50.65200 21.08500
H  37.10400 44.96700 23.20100
H  34.48300 49.41600 30.18400
H  36.01200 51.66600 29.08200
H  34.48200 52.66100 30.29700
H  33.23100 51.35100 30.40700
H  33.37300 52.24700 28.95200
H  37.16400 50.64200 30.60200
H  37.37000 48.89200 30.11900
H  37.31800 49.64100 32.58300
H  36.85900 48.08700 32.05900
H  34.90300 55.15000 24.31900
H  34.68200 54.47600 25.87200
H  33.26700 54.60900 24.76900
H  33.12800 54.56700 22.12800
H  33.94200 55.06400 20.74400
H  34.69900 55.56800 22.17100
H  37.47700 48.70000 20.31300
H  36.97300 46.02100 21.01200
H  36.10500 47.59600 18.84400
H  34.91300 48.70700 19.56600
H  34.83100 47.04000 20.06400
H  39.08500 47.47000 22.51500
H  39.23900 47.55300 20.79900
H  40.24900 45.65400 22.32500
H  40.08100 45.47000 20.57100
H  38.95200 44.69800 21.64500
H  36.27600 42.76900 25.08700
H  37.07000 42.65700 26.61000
H  37.97800 43.37800 25.20900
H  36.66600 46.69500 30.19300
H  33.10800 44.65700 31.70900
H  33.51300 45.91800 32.84200
H  34.18500 44.30300 33.09100

