158

Mg 35.44700 2.52400 30.26100
C  32.83300 3.57400 32.48500
C  37.63200 2.86200 32.83900
C  37.83600 1.96900 28.07500
C  33.03300 2.66800 27.69700
N  35.23000 3.13700 32.38400
C  34.03400 3.30700 33.07000
C  34.31200 3.26400 34.57200
C  35.85200 3.38300 34.62200
C  36.27400 3.04500 33.24500
C  36.39100 4.75400 35.13900
C  33.86300 1.98500 35.26800
C  33.99700 2.08700 36.77800
H  34.60800 3.20900 37.55500
N  37.50600 2.50800 30.43700
C  38.24700 2.58800 31.59500
C  39.63300 2.29900 31.30200
C  39.72300 2.05000 29.88100
C  38.32300 2.17700 29.36500
C  40.67000 2.10000 32.35400
C  40.91900 1.58300 28.99200
O  40.85100 1.44400 27.78000
C  42.27600 1.30000 29.62300
N  35.46400 2.35800 28.15200
C  36.55800 2.03500 27.50600
C  36.32100 1.76900 26.03100
C  34.71800 1.99900 25.93700
C  34.36100 2.32600 27.35000
C  37.14800 2.58300 24.97500
C  34.01700 0.72800 25.37500
C  33.31800 0.90100 23.93500
N  33.30900 2.90500 30.04900
C  32.47000 3.01100 28.94200
C  31.10900 3.38400 29.31800
C  31.26300 3.68700 30.73100
C  32.56500 3.39900 31.09800
C  29.94300 3.55500 28.38500
C  30.55100 4.12500 31.96800
O  29.44500 4.65200 32.02100
C  31.47000 3.88900 33.16000
C  31.51800 5.09100 34.03400
O  31.90900 6.22200 33.72400
O  31.06500 4.78800 35.33700
C  31.00500 5.83200 36.40400
H  38.45400 2.89700 33.55800
H  38.51300 1.46200 27.38400
H  32.34400 2.65900 26.84900
H  33.85200 4.05000 35.17200
H  36.31300 2.57100 35.18500
H  35.65100 5.55000 35.21200
H  37.03100 5.06800 34.31500
H  37.04800 4.52300 35.97700
H  34.62700 1.29500 34.91000
H  32.83600 1.73600 34.99900
H  34.24700 1.07100 37.08500
H  32.94200 2.11300 37.05200
H  40.96500 1.05100 32.36900
H  40.26900 2.29000 33.34900
H  41.58500 2.68700 32.27900
H  42.78800 2.21600 29.92100
H  42.79400 0.68100 28.89200
H  42.19800 0.66900 30.50800
H  36.53500 0.70700 25.91300
H  34.36000 2.80000 25.29000
H  36.59100 3.24100 24.30900
H  37.80500 1.96300 24.36500
H  37.71800 3.23900 25.63300
H  33.31700 0.49800 26.17700
H  34.73200 -0.09400 25.33900
H  32.28100 0.59800 24.08100
H  33.78300 0.17000 23.27300
H  33.38900 1.85900 23.42000
H  29.98700 2.82100 27.58000
H  30.09200 4.54600 27.95700
H  28.99100 3.34900 28.87500
H  31.01800 3.03700 33.66800
H  31.14900 5.41400 37.40000
H  30.04100 6.28500 36.63700
H  31.68700 6.66700 36.24600
Mg 35.95400 48.67100 26.09900
C  36.36100 46.75800 29.06900
C  34.74800 51.29500 27.93900
C  35.31900 50.13600 23.33600
C  36.45300 45.45600 24.39500
N  35.64100 48.95300 28.28200
C  35.99400 48.06100 29.28000
C  35.59400 48.70800 30.64600
C  34.68600 49.92400 30.25600
C  34.99800 50.12500 28.75600
C  33.20100 49.73300 30.55000
C  36.89700 49.04200 31.37300
C  37.12600 48.49800 32.77700
H  36.90600 49.49600 33.93500
N  35.32300 50.60000 25.69700
C  34.94100 51.54400 26.60400
C  34.63400 52.74900 25.86000
C  34.89200 52.43200 24.50400
C  35.11600 51.00900 24.46600
C  34.24600 54.05200 26.48700
C  35.01100 53.34700 23.29200
O  35.28600 52.96800 22.16000
C  34.86400 54.88800 23.41600
N  36.09900 47.92300 24.13100
C  35.68800 48.79100 23.17400
C  35.74100 48.12500 21.81600
C  36.11700 46.63100 22.11000
C  36.28600 46.65600 23.63300
C  34.46600 48.14000 20.96800
C  37.53500 46.25300 21.49700
C  37.75000 46.53900 19.99100
N  36.41500 46.53700 26.53600
C  36.61300 45.45500 25.76200
C  36.77500 44.23800 26.62200
C  36.78100 44.73700 27.88800
C  36.49000 46.09800 27.85200
C  36.76400 42.75800 26.16300
C  36.98400 44.32400 29.31200
O  37.31900 43.29100 29.89400
C  36.65300 45.62300 30.05100
C  35.47300 45.14900 30.88900
O  34.30700 45.10500 30.51000
O  35.89200 44.96100 32.20900
C  34.79800 44.85500 33.20000
H  34.22100 52.01400 28.56900
H  35.06500 50.64400 22.40300
H  36.60900 44.46900 23.95600
H  35.04000 47.95600 31.20800
H  35.21900 50.70700 30.79600
H  32.57000 50.31200 29.87600
H  33.02900 50.02000 31.58800
H  33.05600 48.65700 30.45100
H  37.06000 50.11900 31.41700
H  37.74400 48.67700 30.79300
H  38.16300 48.17300 32.86200
H  36.51800 47.59800 32.87000
H  34.34100 53.93300 27.56600
H  33.23400 54.29600 26.16400
H  34.93900 54.80300 26.10600
H  35.66300 55.29600 24.03500
H  33.83800 55.13400 23.69100
H  34.91900 55.19700 22.37200
H  36.51500 48.65000 21.25700
H  35.32400 45.94900 21.80300
H  34.83100 48.33000 19.95800
H  33.73300 48.88100 21.28600
H  33.97000 47.18800 20.77800
H  37.82200 45.24200 21.78600
H  38.19800 47.00800 21.92000
H  36.81300 46.70800 19.46200
H  38.20800 45.63600 19.58700
H  38.48900 47.32100 19.81300
H  37.82200 42.54800 26.00700
H  36.23200 42.78300 25.21200
H  36.18400 42.08400 26.79400
H  37.53000 45.78300 30.67900
H  35.27900 44.83200 34.17700
H  34.16300 43.99600 32.98000
H  34.16000 45.71100 32.97900

