158

Mg 10.00900 47.34400 26.19600
C  7.79600 47.34100 29.02800
C  12.30800 48.67500 28.29800
C  12.00400 47.57800 23.61700
C  7.25400 46.84200 24.18400
N  10.03200 47.87100 28.48900
C  9.04000 47.74300 29.44300
C  9.54300 48.19900 30.82300
C  10.73700 49.11700 30.32000
C  11.07500 48.56000 28.94600
C  10.41900 50.66800 30.19400
C  10.10700 46.98000 31.80700
C  9.58200 46.94400 33.29000
H  9.75400 45.72700 34.12000
N  11.89200 47.86400 25.93200
C  12.69100 48.28800 26.96200
C  14.09700 48.27600 26.45800
C  13.99500 47.90200 25.11700
C  12.61900 47.79100 24.83900
C  15.27300 48.71000 27.24100
C  15.11700 47.57200 24.09800
O  14.81300 47.34500 22.94100
C  16.47800 47.51000 24.54900
N  9.62500 47.37500 24.14400
C  10.64500 47.39400 23.27400
C  10.24100 47.19600 21.73900
C  8.70100 46.98000 22.01700
C  8.48600 47.12100 23.54600
C  10.58400 48.41200 20.82700
C  7.95800 45.75700 21.42700
C  8.19600 44.42700 22.08200
N  7.96400 47.04700 26.46400
C  6.99300 46.85700 25.54300
C  5.71000 46.73400 26.18200
C  6.00600 46.76000 27.50900
C  7.35700 47.10100 27.68100
C  4.38000 46.41700 25.49200
C  5.43400 46.62400 28.84200
O  4.27900 46.29700 29.18600
C  6.58500 47.02200 29.84700
C  6.88300 45.81600 30.73400
O  7.70800 44.99000 30.41400
O  5.97900 45.76700 31.77000
C  6.10900 44.59100 32.64500
H  13.16200 49.13700 28.79700
H  12.62700 47.53600 22.72100
H  6.41900 46.75700 23.48500
H  8.81500 48.76200 31.40800
H  11.64800 48.97100 30.90200
H  11.27300 51.17700 30.64200
H  9.50800 50.92800 30.73300
H  10.32900 51.02200 29.16800
H  11.18600 47.08800 31.92200
H  10.06900 45.98900 31.35500
H  8.51900 47.18200 33.23800
H  10.20200 47.72900 33.72200
H  15.06700 48.88600 28.29700
H  15.69900 49.66200 26.92600
H  16.02400 47.92500 27.16100
H  17.16000 47.32300 23.71900
H  16.51800 46.65400 25.22300
H  16.87500 48.39700 25.04200
H  10.63900 46.32800 21.21500
H  8.12200 47.80900 21.61100
H  11.17900 49.12800 21.39300
H  9.71200 48.99900 20.53700
H  11.22000 48.25700 19.95500
H  8.39700 45.62100 20.43900
H  6.89800 46.00200 21.36800
H  7.23900 44.05000 22.44300
H  8.84900 44.48600 22.95300
H  8.65300 43.68700 21.42600
H  4.62600 45.96200 24.53300
H  3.73400 47.29500 25.47300
H  3.88700 45.61200 26.03700
H  6.26700 47.80500 30.53500
H  6.41400 44.92600 33.63600
H  6.72900 43.75700 32.31800
H  5.09300 44.21200 32.75400
Mg -2.57300 34.16000 26.43900
C  -3.91700 32.35800 29.18600
C  -1.08600 36.20500 28.71400
C  -1.57900 35.77000 23.76400
C  -4.58900 32.21400 24.32400
N  -2.65000 34.33400 28.66000
C  -3.09900 33.41900 29.60600
C  -2.75500 33.84700 31.08500
C  -1.90600 35.16500 30.81800
C  -1.94300 35.25500 29.29200
C  -2.39100 36.45500 31.46200
C  -1.87900 32.94700 32.00400
C  -2.56000 32.47000 33.25900
H  -1.74100 32.15400 34.53800
N  -1.50600 35.70100 26.27900
C  -0.90800 36.44000 27.30100
C  0.05800 37.29600 26.68800
C  -0.00800 37.07700 25.29100
C  -1.13300 36.16300 25.03000
C  0.94400 38.13600 27.51500
C  0.94800 37.60700 24.19300
O  0.72400 37.54200 23.02900
C  2.19800 38.40500 24.55200
N  -3.29000 34.26700 24.39000
C  -2.61000 34.88500 23.48000
C  -3.08400 34.57600 22.03800
C  -3.95900 33.38000 22.27600
C  -3.98200 33.26300 23.74600
C  -3.71200 35.77000 21.19500
C  -3.53200 32.04900 21.54100
C  -2.63200 30.88600 22.19200
N  -3.92700 32.58400 26.61200
C  -4.63200 31.81700 25.70500
C  -5.32800 30.73300 26.32900
C  -5.17000 31.01400 27.65700
C  -4.26500 32.08200 27.82700
C  -6.18600 29.76400 25.65700
C  -5.48900 30.50700 28.96700
O  -6.25600 29.60100 29.29900
C  -4.64400 31.28600 29.97600
C  -5.53400 31.92000 31.05500
O  -6.21200 32.91700 31.03200
O  -5.53700 31.02300 32.16700
C  -6.50900 31.39700 33.15600
H  -0.63200 36.88400 29.43800
H  -1.15600 36.25700 22.88300
H  -5.12800 31.62600 23.57800
H  -3.63300 34.00200 31.71300
H  -0.85400 35.01500 31.05900
H  -1.72800 36.69500 32.29300
H  -3.32600 36.33200 32.00900
H  -2.33900 37.32700 30.81000
H  -0.87600 33.33900 32.17100
H  -1.63300 32.08400 31.38600
H  -2.80900 31.44200 32.99600
H  -3.45100 33.06500 33.46200
H  1.11100 39.05500 26.95100
H  1.97000 37.77000 27.48100
H  0.55500 38.34500 28.51100
H  2.73200 38.14700 25.46700
H  1.90300 39.44300 24.70500
H  2.84500 38.17800 23.70500
H  -2.19500 34.23200 21.50900
H  -5.00600 33.50300 21.99900
H  -2.89600 36.35600 20.77200
H  -4.14800 36.55200 21.81700
H  -4.37200 35.43400 20.39500
H  -2.96400 32.39300 20.67700
H  -4.46200 31.53200 21.30300
H  -1.98900 31.29100 22.97300
H  -1.91800 30.47100 21.48000
H  -3.28100 30.08500 22.54600
H  -6.46300 29.94200 24.61800
H  -7.05900 29.61900 26.29300
H  -5.62000 28.83400 25.69200
H  -3.87600 30.68300 30.46100
H  -6.07700 32.12900 33.83900
H  -6.63900 30.50600 33.77000
H  -7.48500 31.67400 32.75700

