158

Mg 2.34600 -2.34300 45.16700
C  5.65900 -1.62000 44.57900
C  1.43900 -0.21200 42.65300
C  -0.86800 -3.68800 45.37500
C  3.49000 -5.22000 47.04400
N  3.47400 -1.12900 43.71200
C  4.81100 -0.83700 43.77500
C  5.24400 0.19300 42.74800
C  3.84200 0.80400 42.31900
C  2.83600 -0.29700 42.83300
C  3.47400 2.13200 43.08400
C  6.07400 -0.41300 41.59800
C  7.29000 0.39800 41.09200
H  7.48000 0.56500 39.58900
N  0.50500 -1.87700 44.23200
C  0.35400 -1.01400 43.18700
C  -1.11300 -0.85600 42.91700
C  -1.76800 -1.76000 43.83100
C  -0.69700 -2.51600 44.54400
C  -1.59100 0.01700 41.78300
C  -3.21900 -1.87700 43.93000
O  -3.97100 -1.20000 43.26400
C  -3.88100 -2.65700 45.04000
N  1.42800 -4.10700 46.16500
C  0.12900 -4.42200 46.04600
C  -0.19100 -5.77400 46.79200
C  1.15500 -6.19800 47.33600
C  2.08900 -5.10300 46.88900
C  -1.36600 -5.72300 47.87500
C  1.50700 -7.64900 46.90000
C  2.62800 -8.44400 47.66900
N  4.20400 -3.20200 45.83600
C  4.52600 -4.35600 46.61800
C  5.95700 -4.41400 46.75600
C  6.40500 -3.28000 46.08700
C  5.29300 -2.64000 45.45500
C  6.68700 -5.49300 47.61600
C  7.58700 -2.54100 45.71000
O  8.76300 -2.75600 46.03100
C  7.13200 -1.42600 44.73200
C  7.44600 -0.14900 45.41300
O  6.88400 0.32700 46.35700
O  8.45300 0.47800 44.71400
C  8.56600 1.91200 45.21100
H  1.27800 0.47400 41.81900
H  -1.82000 -4.21400 45.28200
H  3.78100 -6.16500 47.50700
H  5.81700 0.96700 43.26000
H  3.70400 0.86000 41.23900
H  2.52100 2.09700 43.61300
H  3.37800 2.86800 42.28500
H  4.19800 2.36000 43.86600
H  5.37700 -0.50900 40.76600
H  6.41400 -1.41600 41.85800
H  8.20800 -0.03500 41.49100
H  7.25300 1.35900 41.60400
H  -1.91800 -0.59700 40.94400
H  -0.75400 0.64800 41.48400
H  -2.41200 0.63200 42.15200
H  -3.82400 -3.69700 44.72100
H  -4.92100 -2.33500 45.10900
H  -3.31700 -2.47200 45.95400
H  -0.50800 -6.53700 46.08200
H  1.01000 -6.23000 48.41500
H  -1.83000 -4.74900 47.71900
H  -0.92000 -5.79000 48.86700
H  -2.13900 -6.46800 47.69100
H  1.82200 -7.65500 45.85700
H  0.66000 -8.33300 46.95900
H  2.93900 -7.85800 48.53300
H  3.50000 -8.61300 47.03800
H  2.17300 -9.40100 47.92800
H  7.74700 -5.47400 47.36000
H  6.22900 -6.43200 47.30400
H  6.50700 -5.14900 48.63400
H  7.62000 -1.48700 43.76000
H  9.20900 2.43100 44.50000
H  9.06300 1.93400 46.18100
H  7.64400 2.49200 45.21900
Mg 17.26400 52.13900 26.86400
C  19.08600 50.57400 29.42500
C  14.90200 52.97900 29.13000
C  15.58200 53.49900 24.33200
C  19.50800 50.77300 24.55900
N  16.97200 51.79100 29.05900
C  17.99800 51.27700 29.91200
C  17.46900 51.24400 31.38800
C  15.93400 51.66200 31.18300
C  15.92100 52.17100 29.70300
C  14.98200 50.43600 31.40400
C  18.26600 52.24900 32.32300
C  17.63700 52.72300 33.67700
H  16.63400 51.88800 34.44300
N  15.51000 53.21200 26.73100
C  14.64800 53.44100 27.80100
C  13.55800 54.32900 27.34500
C  13.84900 54.60200 25.94600
C  14.97000 53.70400 25.57600
C  12.35000 54.77900 28.22100
C  13.10600 55.57000 24.94800
O  13.58200 55.93200 23.88400
C  11.96300 56.28400 25.41400
N  17.41300 51.93700 24.72100
C  16.59200 52.66700 23.91500
C  17.05400 52.67600 22.48500
C  18.47700 51.94800 22.61900
C  18.49200 51.55100 24.03300
C  16.06400 51.90900 21.52300
C  19.68500 52.90800 22.21200
C  20.92100 52.34000 21.43900
N  18.89300 50.82700 26.94600
C  19.72700 50.44300 25.93500
C  20.83500 49.71500 26.49500
C  20.67300 49.70800 27.91200
C  19.46200 50.41500 28.09700
C  21.84000 49.09600 25.77200
C  21.16400 49.34000 29.11900
O  22.20100 48.77100 29.47400
C  20.18100 49.94600 30.21700
C  19.74400 48.83200 31.06600
O  19.43600 47.71400 30.61800
O  19.84000 49.24900 32.38400
C  19.10800 48.31300 33.24700
H  14.08200 53.12300 29.83500
H  15.02600 54.09500 23.60500
H  20.26800 50.44000 23.84800
H  17.43100 50.22100 31.76200
H  15.57400 52.44500 31.85100
H  14.11900 50.83700 31.93500
H  15.31100 49.72800 32.16500
H  14.72700 49.86900 30.50800
H  18.39200 53.06100 31.60700
H  19.26000 51.83500 32.49300
H  17.29500 53.75100 33.56100
H  18.49200 52.91600 34.32300
H  11.48700 54.12300 28.10800
H  12.20300 55.83600 28.00000
H  12.63700 54.83300 29.27100
H  11.53500 56.58300 24.45700
H  12.26300 57.12800 26.03500
H  11.25700 55.65600 25.95700
H  17.14800 53.75500 22.36200
H  18.56700 50.94400 22.20500
H  16.59900 51.07600 21.06700
H  15.75400 52.58300 20.72500
H  15.17600 51.59900 22.07400
H  19.97700 53.24400 23.20700
H  19.42800 53.81100 21.65900
H  21.82200 52.42900 22.04500
H  21.17600 52.94000 20.56500
H  20.64100 51.31900 21.17900
H  21.45500 48.18900 25.30500
H  22.70100 49.11100 26.43900
H  22.11900 49.75700 24.95200
H  20.62900 50.71600 30.84600
H  18.92800 48.78700 34.21200
H  19.59400 47.35500 33.43500
H  18.10200 48.16400 32.85500

