158

Mg 26.08200 0.93600 28.92200
C  27.95500 0.02400 31.76800
C  23.27100 0.97500 31.04400
C  24.27900 1.35900 26.28500
C  28.85600 0.23700 26.96800
N  25.73100 0.47100 31.16200
C  26.62000 0.21300 32.12400
C  26.10300 0.53700 33.59900
C  24.56100 0.65500 33.26000
C  24.50600 0.76900 31.74500
C  23.74400 -0.55600 33.65800
C  26.90500 1.67700 34.36900
C  27.72200 1.17500 35.53800
H  27.41400 1.91700 36.84200
N  24.08600 1.18100 28.70300
C  23.09300 1.10400 29.66900
C  21.82200 1.33700 29.05500
C  22.04500 1.48900 27.66600
C  23.52300 1.33800 27.46400
C  20.46200 1.27600 29.83500
C  21.09400 1.51600 26.53200
O  21.40200 1.68400 25.34600
C  19.58000 1.46900 26.80100
N  26.49000 0.52500 26.85900
C  25.53800 0.93600 25.98300
C  26.08400 0.93300 24.54400
C  27.61000 0.55000 24.73900
C  27.69600 0.51500 26.30100
C  25.42600 -0.11600 23.51900
C  28.63000 1.64100 24.17700
C  29.90300 1.07300 23.48400
N  28.07700 0.34900 29.26600
C  29.07900 0.11000 28.38300
C  30.32500 -0.13900 29.06300
C  29.95800 -0.21200 30.40500
C  28.58500 0.09600 30.52200
C  31.66600 -0.47100 28.51000
C  30.39100 -0.45800 31.77200
O  31.51800 -0.76300 32.13800
C  29.13900 -0.35500 32.68900
C  29.05900 -1.63000 33.40900
O  28.54500 -2.64200 32.98600
O  29.60000 -1.41900 34.63800
C  29.34900 -2.37100 35.71400
H  22.41500 0.96900 31.72300
H  23.78900 1.59600 25.33800
H  29.77300 0.17500 26.37900
H  26.28300 -0.39600 34.13400
H  24.09600 1.57200 33.62100
H  23.06800 -0.85000 32.85600
H  23.15500 -0.29400 34.53800
H  24.46300 -1.33600 33.90900
H  26.10400 2.26100 34.82200
H  27.54900 2.23900 33.69200
H  28.76500 1.43600 35.35700
H  27.61900 0.10100 35.69200
H  20.14500 0.23600 29.76100
H  19.82000 2.01200 29.34900
H  20.54300 1.60800 30.87000
H  18.95200 1.55200 25.91400
H  19.17000 2.26400 27.42400
H  19.36300 0.52000 27.29100
H  25.84000 1.89700 24.09800
H  27.96500 -0.42500 24.40600
H  24.91500 -0.81200 24.18500
H  26.11900 -0.74400 22.96000
H  24.74400 0.33100 22.79600
H  28.88400 2.37500 24.94200
H  28.03600 2.15300 23.42000
H  30.71700 1.79100 23.38400
H  29.54600 0.70500 22.52200
H  30.18100 0.20900 24.08700
H  31.38500 -1.37300 27.96600
H  32.44700 -0.55000 29.26600
H  31.91600 0.33300 27.81800
H  29.41400 0.52500 33.27100
H  28.57200 -1.89300 36.31000
H  30.20900 -2.62700 36.33300
H  28.84700 -3.27500 35.37000
Mg 44.83900 4.30200 46.35400
C  43.06200 7.25700 46.27000
C  41.90000 2.55100 45.72600
C  46.69500 1.53000 45.76900
C  47.86600 6.15300 46.52900
N  42.78500 4.84900 45.84900
C  42.24700 6.17000 45.83600
C  40.73100 6.13500 45.74200
C  40.32300 4.61800 45.76000
C  41.71300 3.98200 45.78900
C  39.31100 4.17500 46.89800
C  40.19900 6.80300 44.39800
C  40.93400 6.60800 43.06600
H  40.08700 6.46900 41.78300
N  44.34800 2.31700 45.79000
C  43.09700 1.76700 45.71900
C  43.19100 0.36200 45.54700
C  44.55600 0.02800 45.62600
C  45.29700 1.32800 45.72200
C  41.96100 -0.53200 45.35300
C  45.12000 -1.38700 45.65200
O  44.32100 -2.29100 45.65800
C  46.52900 -1.80800 45.84500
N  46.91600 3.89300 46.00500
C  47.46600 2.66400 45.88200
C  49.00700 2.62100 46.10000
C  49.25400 4.06600 46.52800
C  47.91800 4.76800 46.25600
C  49.60900 1.59200 47.08300
C  50.49600 4.71700 45.87400
C  51.60300 4.97500 46.90700
N  45.41700 6.36800 46.62000
C  46.65500 6.94400 46.63800
C  46.42900 8.38000 46.70900
C  45.01100 8.55000 46.69500
C  44.46200 7.28100 46.51500
C  47.52600 9.35800 46.70900
C  43.99200 9.51800 46.76800
O  44.01200 10.72900 47.00500
C  42.61600 8.73600 46.49100
C  41.74000 8.91200 47.67300
O  41.65000 8.09800 48.56900
O  40.82100 9.94200 47.52600
C  39.68900 9.98600 48.45400
H  40.97300 1.98400 45.62300
H  47.38400 0.68300 45.79000
H  48.82700 6.63200 46.72900
H  40.31800 6.73900 46.55000
H  39.83600 4.42700 44.80300
H  39.54600 3.25800 47.43700
H  38.40400 3.97100 46.32900
H  39.20800 5.01800 47.58100
H  40.26700 7.87200 44.60200
H  39.13300 6.60000 44.29800
H  41.55000 5.72600 43.24400
H  41.59400 7.47300 43.00800
H  42.10800 -1.08100 44.42300
H  40.95400 -0.12200 45.26800
H  42.05000 -1.40200 46.00200
H  47.17600 -1.49100 45.02600
H  46.59100 -2.89200 45.75600
H  46.77400 -1.31600 46.78600
H  49.53100 2.53800 45.14900
H  49.26800 3.99600 47.61600
H  50.13700 0.83200 46.50700
H  48.82600 1.13900 47.69100
H  50.38200 2.01200 47.72800
H  50.34600 5.66100 45.35100
H  50.93300 4.05100 45.13000
H  52.58700 4.79000 46.47500
H  51.41900 4.47000 47.85600
H  51.50600 6.02500 47.18100
H  48.30700 9.27600 47.46600
H  47.17600 10.36400 46.94100
H  47.99800 9.38400 45.72700
H  42.02500 9.22700 45.71800
H  40.01900 10.05200 49.49000
H  39.17700 9.02400 48.42200
H  38.96700 10.75900 48.19200

