158

Mg 48.19300 46.01400 43.27200
C  45.02100 44.46100 43.58900
C  49.52200 42.79700 42.85700
C  51.01300 47.40100 42.45600
C  46.44700 49.09700 42.91700
N  47.36800 43.82100 43.31700
C  46.07200 43.49800 43.56700
C  45.91400 41.95200 43.49600
C  47.36700 41.45900 43.13000
C  48.18400 42.70700 43.20500
C  47.88400 40.31900 44.10400
C  44.81000 41.37800 42.55000
C  44.78600 41.83100 41.13700
H  45.14700 40.79100 40.07200
N  50.04200 45.18900 42.75700
C  50.38700 43.89000 42.64600
C  51.81000 43.83900 42.32800
C  52.29500 45.18500 42.24100
C  51.06600 45.98600 42.45900
C  52.56200 42.54000 42.20700
C  53.67000 45.58600 41.88200
O  54.52200 44.73100 41.93900
C  54.03500 46.97200 41.51500
N  48.57900 47.95300 42.44500
C  49.90700 48.29600 42.43100
C  50.11600 49.83100 42.56200
C  48.60500 50.35400 42.52100
C  47.76200 49.07200 42.58300
C  50.91100 50.19200 43.86800
C  48.05200 51.32000 41.41900
C  47.93700 52.78600 41.90900
N  46.15700 46.70500 43.28200
C  45.64900 47.93700 43.18200
C  44.26100 47.86500 43.42000
C  43.91600 46.54700 43.55100
C  45.14200 45.84600 43.45000
C  43.37100 49.05000 43.46200
C  42.90800 45.56300 43.84100
O  41.71000 45.75700 44.03100
C  43.53600 44.18800 43.89700
C  43.28700 43.78100 45.28700
O  43.54700 44.43500 46.31900
O  43.02300 42.43800 45.27000
C  43.23700 41.83700 46.58400
H  49.98700 41.83900 42.61600
H  51.93800 47.98100 42.41000
H  45.89200 50.03700 42.94600
H  45.70900 41.64400 44.52100
H  47.27800 41.12200 42.09700
H  46.99600 39.72600 44.31800
H  48.24500 40.76400 45.03100
H  48.73400 39.75900 43.71300
H  43.84100 41.41700 43.04800
H  44.82600 40.29400 42.43000
H  45.43800 42.69800 41.03300
H  43.78700 42.21700 40.93500
H  52.93700 42.39700 41.19300
H  52.08700 41.63500 42.58500
H  53.45900 42.58100 42.82400
H  53.26800 47.37600 40.85400
H  55.01300 47.02300 41.03600
H  54.24500 47.55700 42.41000
H  50.62900 50.13000 41.64800
H  48.40600 50.90500 43.44000
H  50.63400 51.10600 44.39500
H  51.94900 50.34300 43.57100
H  50.86100 49.36600 44.57700
H  47.18100 50.90200 40.91400
H  48.73700 51.22100 40.57700
H  48.02500 53.24400 40.92400
H  48.75900 53.03200 42.58200
H  46.99700 52.85800 42.45700
H  42.33600 48.70800 43.49100
H  43.57000 49.57600 42.52800
H  43.66900 49.71500 44.27200
H  43.01600 43.51000 43.22100
H  44.25700 41.65200 46.92000
H  42.87100 40.81100 46.54900
H  42.74100 42.40700 47.36900
Mg 9.18300 47.00400 27.20600
C  7.48300 46.49100 30.25300
C  12.07100 47.50300 28.95700
C  10.64400 48.18800 24.37500
C  6.19600 47.17300 25.55400
N  9.76500 46.76400 29.54500
C  8.85000 46.63400 30.55800
C  9.56100 46.97300 31.88600
C  10.97000 47.52600 31.41700
C  10.97700 47.24200 29.85700
C  11.33400 48.96100 31.77900
C  9.68600 45.80700 32.91300
C  9.37500 46.16000 34.34600
H  9.70800 45.01200 35.32900
N  11.08800 47.69800 26.77700
C  12.16700 47.68200 27.57000
C  13.40700 47.89600 26.74300
C  12.95400 48.12100 25.42000
C  11.53900 47.94900 25.45600
C  14.85900 47.87600 27.27700
C  13.78500 48.36000 24.18800
O  13.24000 48.58700 23.12000
C  15.33900 48.28200 24.26200
N  8.45300 47.60600 25.22400
C  9.30800 48.01400 24.24700
C  8.56300 48.20200 22.89000
C  7.12700 47.66400 23.26500
C  7.22600 47.43300 24.72800
C  8.52400 49.75100 22.39700
C  6.76100 46.39600 22.51800
C  5.35700 46.45100 21.83400
N  7.23200 46.73100 27.70900
C  6.10600 46.79600 26.94500
C  4.90200 46.71000 27.79000
C  5.45300 46.48300 29.05300
C  6.85800 46.56200 29.00300
C  3.41100 46.61300 27.29100
C  5.05800 46.19900 30.43200
O  3.96100 46.02400 30.95300
C  6.37000 46.25800 31.27300
C  6.55800 45.00200 31.97200
O  6.66600 43.90100 31.47700
O  6.49000 45.20900 33.33400
C  6.46300 43.91400 34.08700
H  12.92100 47.65600 29.62600
H  10.99200 48.51900 23.39400
H  5.26500 47.33400 25.00600
H  8.94300 47.71700 32.38900
H  11.72100 46.89600 31.89500
H  11.57300 49.67200 30.98800
H  12.19400 48.87200 32.44300
H  10.59600 49.41500 32.44000
H  10.69500 45.40100 32.98400
H  9.01200 45.02500 32.56300
H  8.34400 46.47000 34.51600
H  9.88900 47.09500 34.57100
H  15.44700 47.08300 26.81600
H  14.78400 47.65700 28.34200
H  15.21300 48.89600 27.12500
H  15.86700 48.89800 24.99100
H  15.56700 48.76000 23.30900
H  15.67700 47.24600 24.24600
H  8.99900 47.50800 22.17100
H  6.38800 48.46500 23.26900
H  9.45900 50.24500 22.66000
H  7.67000 50.26800 22.83500
H  8.52500 49.73700 21.30700
H  6.76600 45.47000 23.09200
H  7.49800 46.32100 21.71900
H  5.40000 46.32000 20.75200
H  4.81000 47.37900 22.00700
H  4.92800 45.56600 22.30300
H  2.79500 45.90600 27.84700
H  3.26200 46.29800 26.25800
H  2.95600 47.57600 27.51900
H  6.28700 47.13700 31.91200
H  7.30900 43.26500 33.86200
H  5.58200 43.29600 33.91300
H  6.43100 44.12000 35.15700

