158

Mg 16.47000 -2.02300 27.93100
C  15.43600 0.17300 30.56900
C  18.59300 -3.55500 30.14900
C  17.92700 -3.43500 25.23800
C  14.90600 0.37100 25.79600
N  16.97100 -1.62600 30.05800
C  16.35800 -0.78100 30.95100
C  16.91800 -0.93300 32.38700
C  18.10200 -1.98100 32.15000
C  17.87800 -2.49000 30.70800
C  19.61600 -1.64300 32.41900
C  15.80700 -1.36800 33.33600
C  15.89800 -0.84600 34.77000
H  17.12800 -0.04500 35.15100
N  17.95400 -3.41700 27.71500
C  18.58500 -4.03500 28.74900
C  19.22700 -5.25000 28.17200
C  19.21800 -5.15200 26.76500
C  18.37200 -3.96400 26.45700
C  19.89100 -6.34700 29.01400
C  19.76600 -6.09500 25.66100
O  19.56300 -5.85200 24.52000
C  20.55800 -7.30700 26.04100
N  16.31900 -1.66400 25.87500
C  17.03800 -2.32400 24.90000
C  16.79800 -1.78300 23.47100
C  15.64900 -0.73800 23.65800
C  15.67800 -0.63900 25.25900
C  18.07800 -1.23500 22.68300
C  14.25700 -1.14300 23.02900
C  14.13500 -0.88500 21.50900
N  15.18900 -0.23400 28.06800
C  14.59400 0.58900 27.11300
C  13.74700 1.58100 27.75900
C  14.08100 1.38900 29.09300
C  14.97700 0.34100 29.22500
C  12.97900 2.63500 27.12000
C  13.90200 2.03600 30.32700
O  13.28300 3.04200 30.58900
C  14.67700 1.08400 31.41900
C  15.34900 2.00800 32.32100
O  16.36600 2.64000 32.15100
O  14.46200 2.29200 33.38500
C  14.69200 3.50200 34.09300
H  19.17600 -4.14300 30.86100
H  18.20500 -3.97300 24.32900
H  14.48000 1.10200 25.10500
H  17.28800 0.08800 32.48200
H  17.88300 -2.84600 32.77700
H  20.23800 -1.86300 31.55100
H  19.95000 -2.26300 33.25000
H  19.51100 -0.62600 32.79600
H  15.76000 -2.45400 33.42400
H  14.86300 -1.07100 32.87800
H  15.80500 -1.73300 35.39600
H  14.94300 -0.38900 35.02800
H  19.45900 -7.29600 28.69600
H  19.62300 -6.14100 30.05000
H  20.97900 -6.36900 28.94700
H  21.47700 -7.01100 26.54600
H  20.82600 -7.87000 25.14700
H  20.11700 -7.98000 26.77600
H  16.48600 -2.59300 22.81200
H  15.97000 0.23000 23.27500
H  19.03100 -1.39000 23.18900
H  17.97500 -0.16100 22.53000
H  18.12400 -1.57100 21.64700
H  13.42200 -0.70000 23.57100
H  14.11600 -2.21900 23.13200
H  13.30500 -0.21800 21.28000
H  13.84200 -1.87100 21.14700
H  15.03000 -0.49800 21.02200
H  13.45600 3.03800 26.22600
H  13.08800 3.45800 27.82500
H  11.91600 2.43600 26.98700
H  13.92600 0.62100 32.05900
H  15.50200 3.40500 34.81600
H  13.87600 3.83900 34.73100
H  14.91100 4.34000 33.43100
Mg -6.10800 25.09600 25.64500
C  -4.41900 26.16900 28.60200
C  -7.91600 22.94000 27.47300
C  -6.85700 23.55700 22.92800
C  -3.64900 27.07100 23.90800
N  -6.03700 24.51800 27.71600
C  -5.35200 25.08100 28.78800
C  -5.80800 24.50500 30.17400
C  -6.67200 23.36400 29.71900
C  -6.96200 23.65600 28.21400
C  -6.04300 21.91400 30.06300
C  -6.67600 25.60900 30.90300
C  -6.55400 25.60500 32.46600
H  -5.88700 24.45100 33.16400
N  -7.41200 23.64600 25.25500
C  -8.21100 22.98100 26.13900
C  -9.19800 22.16700 25.47500
C  -8.77100 22.23900 24.10900
C  -7.62800 23.14300 24.03800
C  -10.24600 21.31700 26.09900
C  -9.37700 21.55300 22.85400
O  -8.89500 21.64400 21.71900
C  -10.56500 20.70100 22.97800
N  -5.32100 25.25600 23.70400
C  -5.82700 24.51000 22.71400
C  -5.23700 24.84200 21.33800
C  -4.19000 25.98800 21.67700
C  -4.37100 26.13100 23.18900
C  -4.60300 23.64700 20.59100
C  -4.37400 27.30300 20.82500
C  -3.16200 28.16500 20.43300
N  -4.45900 26.51800 26.09700
C  -3.57000 27.16600 25.29700
C  -2.75400 28.01600 26.11700
C  -3.01000 27.67300 27.45900
C  -4.02000 26.68500 27.36200
C  -1.84000 29.08900 25.57800
C  -2.67500 27.91900 28.85800
O  -1.89300 28.73800 29.38100
C  -3.62900 26.92200 29.67100
C  -2.77600 26.04700 30.53200
O  -2.35500 24.94400 30.29700
O  -2.35100 26.69500 31.69900
C  -1.33700 26.09200 32.65000
H  -8.53900 22.19200 27.96800
H  -7.12900 23.15500 21.95000
H  -2.86000 27.61700 23.38700
H  -4.86500 24.31700 30.68600
H  -7.54100 23.50000 30.36300
H  -5.58300 21.52500 29.15400
H  -6.80500 21.23300 30.44300
H  -5.39100 22.02600 30.93000
H  -7.72400 25.68600 30.61200
H  -6.16600 26.47300 30.47800
H  -7.55800 25.69200 32.88000
H  -5.97400 26.51800 32.60400
H  -9.98800 20.25900 26.06200
H  -11.21300 21.36100 25.59800
H  -10.45700 21.64200 27.11800
H  -11.37600 21.27700 23.42600
H  -10.23700 19.82700 23.54000
H  -10.81900 20.34700 21.97900
H  -5.92300 25.32600 20.64200
H  -3.12400 25.78200 21.58400
H  -3.62400 23.89000 20.17700
H  -5.30100 23.31600 19.82200
H  -4.57700 22.89000 21.37500
H  -5.05700 27.86800 21.45900
H  -4.90300 27.00500 19.92000
H  -3.48700 29.16500 20.14700
H  -2.79800 27.83700 19.45900
H  -2.24600 28.17300 21.02400
H  -2.41500 29.64600 24.83900
H  -0.94200 28.59100 25.21200
H  -1.45300 29.77700 26.33000
H  -4.23000 27.45100 30.41000
H  -0.42400 26.67700 32.54000
H  -1.08600 25.03300 32.58500
H  -1.85600 26.30800 33.58300

