158

Mg 3.02200 -1.15400 43.58200
C  6.43500 -0.43500 43.30000
C  2.34900 1.83400 42.06800
C  -0.04600 -2.30300 43.09900
C  3.98100 -4.32000 44.93900
N  4.29800 0.45600 42.67200
C  5.65200 0.58200 42.72300
C  6.16400 1.85500 42.14900
C  4.79000 2.61000 41.89300
C  3.71600 1.57600 42.22600
C  4.59300 4.01900 42.60100
C  7.06300 1.71600 40.84800
C  6.56700 0.93000 39.69400
H  6.33700 1.67900 38.41500
N  1.35400 -0.33200 42.81600
C  1.33000 0.91500 42.26000
C  -0.12300 1.17800 41.91200
C  -0.81800 -0.02900 42.12600
C  0.15900 -0.94400 42.70900
C  -0.51400 2.59700 41.45200
C  -2.35200 -0.20200 41.93500
O  -2.95500 0.83200 41.63900
C  -3.12900 -1.47400 42.28600
N  2.15000 -3.04300 43.94500
C  0.81600 -3.26800 43.75100
C  0.37000 -4.63000 44.31200
C  1.68700 -5.16300 44.97700
C  2.67000 -4.13800 44.52600
C  -0.94400 -4.56700 45.16700
C  2.17100 -6.61700 44.59100
C  2.58000 -7.54900 45.71600
N  4.80500 -2.22700 44.11600
C  5.04500 -3.44900 44.66000
C  6.42600 -3.62500 44.90400
C  7.02100 -2.41800 44.41100
C  5.98600 -1.60800 43.94600
C  7.02800 -4.75800 45.63400
C  8.30500 -1.75300 44.30500
O  9.40000 -2.20200 44.64500
C  7.94600 -0.33400 43.63700
C  8.26700 0.69600 44.58800
O  7.96500 0.78800 45.73700
O  9.14000 1.64200 43.98100
C  9.62400 2.76600 44.75800
H  2.09200 2.76900 41.56500
H  -1.03700 -2.70900 42.88400
H  4.28900 -5.23100 45.45600
H  6.70200 2.35500 42.95500
H  4.73300 2.91500 40.84900
H  3.67500 4.07100 43.18600
H  4.55700 4.87400 41.92600
H  5.40900 4.23800 43.28900
H  8.06900 1.38200 41.10200
H  7.15400 2.76200 40.55800
H  5.62600 0.43200 39.92500
H  7.30300 0.12700 39.68200
H  0.13500 2.96400 40.65600
H  -0.42500 3.28500 42.29200
H  -1.53200 2.55900 41.06300
H  -2.83400 -2.26000 41.59200
H  -4.18400 -1.20500 42.33900
H  -2.76500 -1.70900 43.28600
H  0.09100 -5.20400 43.42900
H  1.69700 -4.89800 46.03400
H  -0.93300 -5.21300 46.04500
H  -1.81100 -4.79700 44.54800
H  -1.07700 -3.52900 45.47400
H  3.03800 -6.51500 43.93800
H  1.41300 -7.10900 43.98200
H  3.54700 -7.97400 45.45000
H  1.87700 -8.38200 45.72900
H  2.55300 -6.99300 46.65300
H  7.39500 -5.52800 44.95500
H  6.33500 -5.18100 46.36200
H  7.92500 -4.44800 46.17000
H  8.44800 -0.20600 42.67800
H  10.54000 2.47600 45.27200
H  8.93100 3.05000 45.55000
H  9.69000 3.67400 44.15800
Mg 17.23700 -1.88500 27.60600
C  16.42000 0.01600 30.38100
C  19.02400 -3.99600 29.60100
C  18.32000 -3.34900 24.83000
C  15.66100 0.61000 25.63300
N  17.62500 -2.01500 29.74700
C  17.31500 -1.03100 30.68100
C  17.95300 -1.36400 32.04600
C  18.93800 -2.49600 31.64100
C  18.44600 -2.93600 30.28200
C  20.41700 -2.01700 31.68600
C  16.91400 -1.87800 33.08900
C  17.40300 -1.76800 34.68100
H  18.88400 -1.33000 34.88700
N  18.39200 -3.62100 27.25500
C  18.91600 -4.37300 28.21400
C  19.60600 -5.46300 27.57000
C  19.51100 -5.20800 26.14600
C  18.71400 -4.02700 26.02100
C  20.45900 -6.40300 28.40100
C  20.10100 -6.00000 25.05000
O  19.94300 -5.77800 23.86300
C  20.76000 -7.29000 25.45400
N  17.10100 -1.36500 25.53500
C  17.62600 -2.17200 24.60200
C  17.56300 -1.55000 23.18600
C  16.53600 -0.43300 23.37400
C  16.36900 -0.42500 24.94500
C  18.91800 -1.08700 22.63000
C  15.22400 -0.61700 22.68000
C  14.96900 0.47000 21.63800
N  16.15500 -0.10200 27.91900
C  15.49100 0.81000 27.06100
C  14.75100 1.75000 27.77800
C  15.11800 1.53400 29.14500
C  15.89600 0.33100 29.14900
C  13.90600 2.83000 27.20400
C  14.92200 1.93100 30.49000
O  14.22800 2.86200 30.92200
C  15.88400 1.09900 31.35100
C  16.92800 1.96500 31.87700
O  17.75700 2.55200 31.16700
O  16.99900 1.93600 33.21900
C  17.99200 2.89000 33.79700
H  19.62700 -4.63200 30.25200
H  18.66200 -3.80200 23.89700
H  15.08300 1.34800 25.07300
H  18.40100 -0.46300 32.46700
H  18.86200 -3.40000 32.24600
H  20.53300 -1.04900 32.17400
H  21.05800 -2.10400 30.80900
H  20.87000 -2.74700 32.35600
H  16.66500 -2.89900 32.80100
H  15.99100 -1.30400 33.00500
H  17.26500 -2.70000 35.22900
H  16.78100 -0.95200 35.05000
H  20.24300 -6.26200 29.46000
H  21.53100 -6.27700 28.24700
H  20.07100 -7.38900 28.14700
H  21.68200 -7.10700 26.00700
H  21.01600 -7.82300 24.53800
H  20.07000 -7.98600 25.93100
H  17.16900 -2.30900 22.51000
H  17.04600 0.48800 23.08900
H  19.50800 -0.89400 23.52600
H  18.81800 -0.12200 22.13300
H  19.40100 -1.73400 21.89700
H  14.37100 -0.66600 23.35600
H  15.21800 -1.53300 22.09000
H  14.17400 -0.00700 21.06500
H  15.80100 0.69900 20.97300
H  14.64400 1.40000 22.10500
H  12.90200 2.42100 27.09100
H  14.14000 3.17000 26.19500
H  13.81400 3.67300 27.89000
H  15.27700 0.86500 32.22600
H  18.92900 2.37600 34.00900
H  17.58300 3.19300 34.76000
H  18.19500 3.74700 33.15500

