158

Mg 2.35800 -2.05700 44.86700
C  5.80800 -1.70300 44.42300
C  1.91600 0.68700 42.70800
C  -0.92300 -2.97000 44.46100
C  3.07900 -5.27900 46.28900
N  3.66800 -0.84800 43.50800
C  5.07400 -0.84500 43.57400
C  5.64100 0.35200 42.75000
C  4.34300 1.27100 42.51200
C  3.23600 0.32800 42.95300
C  4.29100 2.55600 43.38200
C  6.39800 -0.19000 41.39300
C  7.93700 0.16000 41.31900
H  8.47600 0.60100 39.95900
N  0.62600 -1.18100 43.93700
C  0.69400 -0.03800 43.10700
C  -0.61600 0.41900 42.91300
C  -1.49100 -0.58300 43.43000
C  -0.60700 -1.63500 44.00800
C  -0.86400 1.77700 42.20200
C  -3.03100 -0.50200 43.46300
O  -3.67400 0.49900 43.05800
C  -3.97300 -1.64600 44.02100
N  1.23300 -3.86200 45.38400
C  -0.13200 -3.94200 45.12900
C  -0.65900 -5.33200 45.57400
C  0.59500 -6.05300 46.27600
C  1.69500 -5.03100 45.99900
C  -2.00000 -5.46200 46.31300
C  0.88700 -7.50500 45.84700
C  1.22900 -8.52400 46.99100
N  4.00000 -3.20600 45.57100
C  4.12100 -4.45100 46.14700
C  5.49100 -4.71700 46.46100
C  6.18000 -3.62500 45.89900
C  5.30800 -2.75100 45.28200
C  5.93900 -5.90700 47.15400
C  7.44200 -2.96200 45.66500
O  8.56400 -3.19000 46.10700
C  7.30400 -1.74900 44.73100
C  7.82000 -0.48700 45.37100
O  7.46900 0.06500 46.40800
O  8.82100 0.03300 44.50000
C  9.21900 1.40900 44.83300
H  1.90900 1.57100 42.06700
H  -1.94100 -3.28700 44.22600
H  3.20500 -6.22400 46.82100
H  6.37400 0.99100 43.24300
H  4.34800 1.61700 41.47800
H  3.41800 2.63300 44.02900
H  4.32900 3.51300 42.86200
H  5.14200 2.72400 44.04200
H  5.88700 0.23300 40.52900
H  6.25300 -1.26300 41.26900
H  8.55200 -0.71600 41.52600
H  8.22700 0.91600 42.04900
H  -0.44700 2.44900 42.95200
H  -1.89900 2.02600 41.96800
H  -0.30200 1.87000 41.27300
H  -5.01200 -1.31700 44.04700
H  -3.65600 -1.88800 45.03600
H  -3.96200 -2.53900 43.39700
H  -0.82800 -5.87200 44.64300
H  0.41500 -6.05900 47.35100
H  -2.63100 -5.99100 45.60000
H  -2.34700 -4.44100 46.47300
H  -1.97900 -6.11100 47.18900
H  1.74900 -7.48100 45.18000
H  0.10200 -7.94000 45.23000
H  1.53200 -8.01200 47.90400
H  2.10000 -9.10500 46.68500
H  0.34800 -9.16500 47.03000
H  5.57800 -6.80100 46.64600
H  5.58100 -5.91900 48.18400
H  7.02900 -5.91300 47.14200
H  7.73000 -1.85800 43.73300
H  8.39500 2.06400 44.54900
H  10.19400 1.58700 44.37900
H  9.37100 1.59100 45.89700
Mg 56.00800 23.10200 44.36500
C  53.77100 25.60400 43.24600
C  53.92600 20.69200 43.18900
C  58.43400 20.82000 44.69800
C  58.27500 25.58700 45.27400
N  54.06900 23.13600 43.29600
C  53.31300 24.24200 43.03100
C  51.90400 23.82700 42.53000
C  51.90400 22.26000 42.81500
C  53.40300 21.97500 43.17400
C  50.94100 21.75800 43.93600
C  51.64400 24.14800 41.03300
C  50.26300 24.60700 40.81000
H  49.49700 23.84100 39.73000
N  56.12200 21.02300 44.05400
C  55.14600 20.27100 43.63500
C  55.54800 18.92600 43.71100
C  56.95900 18.90900 44.01000
C  57.23600 20.25700 44.24900
C  54.69100 17.67700 43.36000
C  57.80800 17.60100 44.16200
O  57.36500 16.48600 44.02800
C  59.19200 17.69800 44.62200
N  58.05300 23.21200 44.87300
C  58.79800 22.14900 44.95100
C  60.23600 22.53000 45.41500
C  60.07700 23.99900 45.87400
C  58.74500 24.27100 45.38700
C  60.92500 21.66200 46.53800
C  61.20000 24.98500 45.22700
C  61.98300 25.89800 46.18300
N  56.06700 25.23100 44.32300
C  57.00000 26.04200 44.74300
C  56.53600 27.39900 44.57900
C  55.23200 27.27800 44.04300
C  55.03700 25.89500 43.82500
C  57.29100 28.57900 44.98600
C  54.12300 27.98400 43.58500
O  53.95500 29.21200 43.60100
C  53.09200 26.93800 43.07100
C  52.74900 27.32700 41.59400
O  53.36300 27.11400 40.55600
O  51.52500 27.87100 41.63600
C  51.05700 28.53000 40.37400
H  53.16900 19.93500 42.97100
H  59.21800 20.06200 44.65700
H  58.93500 26.37900 45.63400
H  51.09100 24.23100 43.13300
H  51.64200 21.75800 41.88400
H  51.52900 21.59500 44.83900
H  50.64500 20.75300 43.63300
H  50.06000 22.38200 44.08600
H  51.88600 23.26400 40.44300
H  52.32100 24.92600 40.67800
H  50.35100 25.67300 40.59900
H  49.65300 24.75500 41.70200
H  54.58300 17.16700 44.31700
H  55.16800 17.01600 42.63700
H  53.69600 17.90700 42.98100
H  59.93200 17.97100 43.87000
H  59.47800 16.66100 44.79800
H  59.23200 18.06200 45.64900
H  60.88400 22.43000 44.54400
H  60.12900 23.98800 46.96200
H  61.95100 21.42900 46.25300
H  60.46800 20.67200 46.53500
H  60.90200 22.15700 47.50800
H  60.74700 25.62500 44.47000
H  61.86800 24.33100 44.66700
H  61.46600 25.94200 47.14200
H  62.14800 26.90500 45.80000
H  62.98100 25.51300 46.39700
H  58.20600 28.62700 44.39500
H  57.52900 28.45800 46.04300
H  56.68800 29.45500 44.74900
H  52.21600 26.78400 43.70100
H  51.72200 28.31400 39.53900
H  51.04700 29.59800 40.59100
H  50.02500 28.26300 40.14600

