158

Mg 47.17000 15.98100 28.32000
C  45.40100 15.69000 31.25200
C  49.44200 18.02900 29.97900
C  48.77800 16.63700 25.35800
C  44.80800 14.21100 26.55500
N  47.23800 16.96100 30.37000
C  46.46900 16.57300 31.37700
C  47.10600 17.03500 32.74300
C  48.27100 18.00300 32.33000
C  48.34200 17.63500 30.78700
C  48.09000 19.54100 32.52300
C  47.61800 15.84700 33.52000
C  48.03100 16.06200 34.99800
H  47.59200 17.31700 35.72100
N  48.90800 17.14900 27.83600
C  49.78100 17.76900 28.70400
C  50.90100 18.28500 27.97800
C  50.81600 17.78700 26.58900
C  49.45800 17.18800 26.51900
C  51.99600 19.06100 28.62300
C  51.70700 18.01100 25.37100
O  51.47300 17.40800 24.34100
C  52.98800 18.86800 25.46600
N  46.70100 15.68400 26.15700
C  47.58400 15.95600 25.18600
C  47.04700 15.46100 23.78300
C  45.80100 14.59900 24.16600
C  45.74800 14.85200 25.66200
C  46.78500 16.65300 22.78500
C  45.74000 13.10600 23.73800
C  44.74300 12.71600 22.63900
N  45.39700 15.22200 28.74800
C  44.58100 14.47900 27.95800
C  43.46300 14.07700 28.76500
C  43.69000 14.48500 30.09000
C  44.93100 15.16200 30.03100
C  42.24600 13.32700 28.22500
C  43.27300 14.43100 31.45000
O  42.30500 13.92300 31.91700
C  44.38000 15.16600 32.27600
C  43.67800 16.12700 33.19400
O  43.56500 17.30800 32.95800
O  43.16800 15.48000 34.29700
C  42.73700 16.43600 35.27600
H  50.26900 18.44100 30.56100
H  49.22200 16.79100 24.37200
H  44.08700 13.56000 26.05700
H  46.36400 17.65600 33.24600
H  49.20300 17.65700 32.77600
H  48.84300 20.08100 33.09700
H  47.18600 19.63200 33.12400
H  47.94800 20.04300 31.56500
H  48.50700 15.52600 32.97700
H  46.93900 14.99600 33.47300
H  49.11400 16.03500 34.87300
H  47.78600 15.20300 35.62200
H  52.04000 20.04100 28.14800
H  52.92200 18.56200 28.33800
H  51.93900 19.15000 29.70800
H  53.26600 19.09000 24.43500
H  53.84700 18.27800 25.78700
H  52.71700 19.78800 25.98300
H  47.85400 14.85900 23.36500
H  44.86900 15.02900 23.79800
H  47.18600 16.47800 21.78600
H  47.27800 17.54500 23.17100
H  45.73400 16.89000 22.62100
H  45.40000 12.42400 24.51800
H  46.75000 12.82100 23.44300
H  45.02000 11.81200 22.09500
H  44.79000 13.47800 21.86100
H  43.70300 12.53800 22.91300
H  42.59300 12.31000 28.04100
H  41.96200 13.81200 27.29100
H  41.36400 13.40400 28.86100
H  44.78700 14.36600 32.89500
H  43.59500 17.09100 35.42400
H  42.55700 15.98600 36.25200
H  41.86600 17.03700 35.01500
Mg -1.80700 34.83000 27.16000
C  -3.82100 33.12300 29.27300
C  -0.77200 36.97900 29.47600
C  -0.03100 36.57000 24.77800
C  -2.84100 32.64600 24.45200
N  -2.37200 35.00600 29.07200
C  -3.01200 34.08800 29.86100
C  -2.78400 34.38300 31.36200
C  -2.02500 35.75400 31.37300
C  -1.69400 35.97600 29.87300
C  -3.13000 36.83200 31.94600
C  -1.96900 33.25700 31.95900
C  -2.11900 32.98700 33.47800
H  -2.51400 34.12000 34.46000
N  -0.44600 36.43300 27.15100
C  -0.24400 37.20800 28.24100
C  0.62300 38.31000 27.86800
C  0.97800 38.19400 26.49200
C  0.22300 36.98600 26.07400
C  0.90100 39.45700 28.79200
C  1.76900 39.03300 25.52600
O  2.11200 38.62200 24.38400
C  2.46500 40.31200 26.07300
N  -1.38300 34.60900 24.92500
C  -0.62500 35.47700 24.23600
C  -0.48500 35.02900 22.74200
C  -1.44100 33.87700 22.67200
C  -1.90300 33.67600 24.08000
C  -0.73000 36.11700 21.63000
C  -0.84200 32.58000 22.08400
C  0.32400 32.04000 22.93100
N  -3.13500 33.25900 26.83300
C  -3.45600 32.48800 25.70200
C  -4.35100 31.44000 26.11000
C  -4.56500 31.67400 27.50000
C  -3.82000 32.79600 27.91800
C  -5.02200 30.32900 25.23300
C  -5.30700 31.19900 28.65500
O  -6.15100 30.32300 28.80100
C  -4.62700 32.05700 29.85800
C  -5.70400 32.60500 30.64900
O  -6.51500 33.44900 30.29600
O  -5.55700 32.32700 31.97100
C  -6.69000 32.74000 32.85100
H  -0.39000 37.63200 30.26400
H  0.49200 37.11500 23.99000
H  -3.08300 31.88600 23.70600
H  -3.80400 34.48200 31.73300
H  -1.10100 35.79000 31.94900
H  -2.79000 37.20100 32.91400
H  -4.12500 36.41100 32.08600
H  -3.05800 37.74400 31.35300
H  -0.93900 33.17200 31.61300
H  -2.37900 32.34900 31.51700
H  -1.09900 32.69600 33.73100
H  -2.86900 32.23800 33.73200
H  1.70900 40.13300 28.51600
H  1.06900 39.16900 29.83000
H  -0.02800 40.02700 28.77100
H  1.65500 40.93200 26.45600
H  2.99700 40.80100 25.25600
H  3.17900 39.95100 26.81300
H  0.54500 34.68600 22.64600
H  -2.32200 34.18400 22.10700
H  -1.38200 35.78700 20.82100
H  0.20600 36.03600 21.07700
H  -0.95200 37.15800 21.86400
H  -0.40400 32.72200 21.09500
H  -1.56100 31.80100 21.83100
H  0.46800 32.52000 23.89900
H  1.22000 32.15600 22.32200
H  0.31000 30.99600 23.24300
H  -5.19500 30.60600 24.19300
H  -5.99400 30.13400 25.68600
H  -4.43500 29.41100 25.27900
H  -3.98200 31.46700 30.50800
H  -6.32900 33.63500 33.35700
H  -6.85400 31.87100 33.48900
H  -7.65200 32.99100 32.40400

