158

Mg 16.96500 -1.68200 28.12200
C  15.96700 0.79500 30.36500
C  18.89200 -3.11800 30.52000
C  18.49600 -3.47200 25.66000
C  15.44500 0.28800 25.46700
N  17.22400 -1.26000 30.24700
C  16.62500 -0.25800 30.95000
C  16.91500 -0.42800 32.48800
C  18.15000 -1.43500 32.41500
C  18.06500 -2.01000 30.97600
C  19.57400 -0.78900 32.67000
C  15.72500 -1.00000 33.32400
C  15.78100 -0.56400 34.83500
H  17.09000 -0.10900 35.50200
N  18.31100 -3.23200 28.11100
C  18.99700 -3.65500 29.21600
C  19.87400 -4.67600 28.75500
C  19.71600 -4.87600 27.35400
C  18.84900 -3.80000 26.97100
C  20.83200 -5.42600 29.67400
C  20.37100 -5.89000 26.36900
O  20.27900 -5.88500 25.16700
C  21.14700 -7.02900 26.95300
N  16.95500 -1.57800 25.92900
C  17.66700 -2.45100 25.17700
C  17.44200 -2.20700 23.68600
C  16.31400 -1.12700 23.70000
C  16.22700 -0.79000 25.17800
C  18.74500 -1.74400 22.95900
C  14.99400 -1.60500 23.04500
C  14.02200 -2.28400 23.99300
N  15.84900 0.15500 27.87300
C  15.23800 0.77200 26.78800
C  14.48200 1.95000 27.25600
C  14.82800 2.01200 28.65900
C  15.61100 0.91400 28.98600
C  13.76300 2.80200 26.29200
C  14.64400 2.74800 29.83400
O  14.09800 3.86400 29.99600
C  15.15900 1.85900 31.06000
C  15.96400 2.82800 31.79200
O  16.86300 3.43900 31.28800
O  15.39200 3.04700 33.09000
C  16.12400 3.92700 33.95400
H  19.46100 -3.57200 31.33500
H  19.04600 -3.95700 24.85100
H  15.04700 0.90300 24.65700
H  17.25600 0.47700 32.99100
H  18.05800 -2.20000 33.18600
H  20.09900 -1.56200 33.23100
H  19.53700 0.16700 33.19200
H  20.10700 -0.69000 31.72500
H  15.71800 -2.08300 33.19900
H  14.82000 -0.56600 32.89700
H  15.43800 -1.46100 35.34900
H  15.05900 0.23200 35.01800
H  21.86300 -5.33800 29.33000
H  20.62600 -6.47900 29.86600
H  20.79100 -4.93100 30.64400
H  20.48700 -7.56400 27.63600
H  22.02000 -6.62700 27.46800
H  21.40500 -7.73700 26.16500
H  17.04500 -3.15100 23.31300
H  16.63500 -0.22600 23.17700
H  18.56500 -1.28300 21.98800
H  19.41400 -2.59100 22.81000
H  19.21900 -0.87200 23.41100
H  15.31300 -2.27700 22.24900
H  14.48800 -0.73200 22.63200
H  13.24300 -1.58200 24.29100
H  14.52600 -2.66000 24.88300
H  13.61700 -3.14600 23.46300
H  13.72900 2.47300 25.25400
H  14.45100 3.64600 26.25600
H  12.81300 3.13900 26.70800
H  14.36300 1.53000 31.72800
H  16.18800 3.49000 34.95000
H  15.59100 4.87700 34.00600
H  17.13200 4.12500 33.59000
Mg 53.25200 23.89200 44.68200
C  50.81600 26.09600 43.51300
C  51.44600 21.27800 43.29000
C  55.87700 21.76400 45.20300
C  55.18600 26.54400 45.45900
N  51.43400 23.73100 43.44700
C  50.60200 24.78700 43.06000
C  49.67500 24.25700 42.03600
C  49.42400 22.80500 42.48300
C  50.88200 22.55700 43.19100
C  48.16200 22.46700 43.39200
C  50.26500 24.34800 40.51700
C  49.43400 24.98000 39.44000
H  50.17000 25.72900 38.30300
N  53.58400 21.79800 44.38800
C  52.69400 20.89800 43.88000
C  53.36000 19.56200 43.79800
C  54.62600 19.67100 44.33700
C  54.78100 21.10900 44.66000
C  52.68600 18.30800 43.31000
C  55.65700 18.46200 44.40800
O  55.37900 17.39600 43.89100
C  57.05600 18.62100 44.93900
N  55.28600 24.13000 45.14000
C  56.13000 23.13200 45.41900
C  57.42200 23.66800 46.01700
C  57.29700 25.14000 45.77300
C  55.77100 25.28900 45.58000
C  57.97200 23.11200 47.32500
C  57.98500 25.70100 44.48400
C  58.33500 27.22600 44.65900
N  53.06000 25.97400 44.63300
C  53.89600 26.95400 45.13300
C  53.15600 28.19400 45.16400
C  51.95000 27.90000 44.54800
C  51.93400 26.53200 44.24100
C  53.61400 29.53300 45.71700
C  50.75800 28.56700 44.07900
O  50.54500 29.74300 44.01200
C  49.98900 27.43400 43.40100
C  49.64200 27.88400 42.03600
O  50.50100 28.16800 41.17000
O  48.32000 28.13300 41.90300
C  47.92500 28.92800 40.77200
H  50.80900 20.47500 42.91300
H  56.72200 21.12800 45.47300
H  55.84800 27.33500 45.81700
H  48.72700 24.78400 42.14600
H  49.45500 22.05500 41.69300
H  47.55000 21.71200 42.89900
H  47.55100 23.34000 43.61800
H  48.45400 22.19700 44.40700
H  50.33500 23.32100 40.15900
H  51.22800 24.86100 40.51700
H  48.79200 25.73500 39.89400
H  48.64100 24.34100 39.05200
H  53.18100 17.78800 42.49000
H  51.73700 18.51400 42.81500
H  52.44500 17.65500 44.14900
H  57.59500 17.70300 44.70100
H  56.96700 18.72600 46.02100
H  57.46500 19.44400 44.35400
H  58.19000 23.35500 45.31000
H  57.55700 25.73600 46.64800
H  58.85400 22.49000 47.17300
H  57.16900 22.52300 47.76800
H  58.19700 24.01500 47.89300
H  57.31100 25.58100 43.63600
H  58.88600 25.13400 44.25100
H  57.53200 27.91100 44.38400
H  59.29100 27.48000 44.20300
H  58.40400 27.45700 45.72200
H  53.73700 30.17100 44.84200
H  54.61500 29.42600 46.13500
H  53.03100 29.98100 46.52200
H  49.07600 27.31500 43.98400
H  48.09700 28.27400 39.91700
H  48.49000 29.83700 40.56800
H  46.85200 29.11700 40.81200

