158

Mg 3.54600 -0.05600 44.43100
C  6.91900 0.12800 43.96700
C  3.21400 2.72800 42.25300
C  0.16700 -0.62700 43.96200
C  3.81500 -2.97100 46.17000
N  4.95000 1.20000 43.18200
C  6.31900 1.09300 43.14200
C  6.98600 2.09200 42.25300
C  5.76300 3.07600 42.03400
C  4.54200 2.29900 42.54800
C  5.87600 4.47100 42.80000
C  7.64500 1.44400 40.96900
C  8.29700 2.45100 39.99500
H  7.62200 2.72700 38.73800
N  1.93300 1.03900 43.44600
C  2.01200 2.13200 42.62800
C  0.69300 2.48800 42.03800
C  -0.18800 1.53100 42.50200
C  0.63300 0.61800 43.38700
C  0.47800 3.71500 41.20400
C  -1.65700 1.45000 42.18600
O  -2.18900 2.23600 41.41000
C  -2.57800 0.33800 42.74000
N  2.17200 -1.59500 44.98900
C  0.81800 -1.52200 44.71700
C  0.16900 -2.86600 45.18300
C  1.25900 -3.55500 45.96200
C  2.51600 -2.68000 45.70900
C  -1.14200 -2.61000 46.10400
C  1.58500 -5.07000 45.66700
C  0.37400 -5.91500 45.22300
N  5.00400 -1.18100 45.05800
C  4.98900 -2.34800 45.81700
C  6.37200 -2.70200 46.06000
C  7.14700 -1.71300 45.41600
C  6.27000 -0.83600 44.76100
C  6.76700 -3.89700 46.83100
C  8.50300 -1.23900 45.07500
O  9.59400 -1.66600 45.43600
C  8.43400 -0.07400 44.11800
C  9.02300 1.13500 44.84200
O  8.73400 1.56300 45.91600
O  9.86200 1.66500 43.91600
C  10.31000 3.00000 44.29500
H  3.29200 3.67300 41.71100
H  -0.88400 -0.91100 43.87500
H  3.86300 -3.83600 46.83500
H  7.81000 2.55700 42.79500
H  5.64800 3.31800 40.97800
H  6.69600 4.51200 43.51700
H  4.96300 4.65600 43.36500
H  6.05000 5.24900 42.05600
H  6.84400 0.86200 40.51200
H  8.51000 0.83200 41.22300
H  9.34000 2.20400 39.79700
H  8.32700 3.44500 40.44100
H  1.03800 3.59400 40.27700
H  0.97400 4.62700 41.53600
H  -0.53500 3.94500 40.87500
H  -3.60500 0.36800 42.37600
H  -2.63200 0.38600 43.82800
H  -2.24300 -0.67100 42.50000
H  -0.07100 -3.36100 44.24200
H  1.08000 -3.51200 47.03600
H  -1.84500 -3.35000 45.72100
H  -1.49000 -1.58100 46.18600
H  -0.95800 -2.92800 47.13100
H  2.04200 -5.54100 46.53700
H  2.35300 -5.05700 44.89400
H  0.61000 -6.53800 44.36100
H  -0.57400 -5.39300 45.09600
H  0.22300 -6.66300 46.00200
H  7.69200 -3.78900 47.39700
H  6.99300 -4.78300 46.23700
H  5.99100 -4.25600 47.50700
H  8.94800 -0.44600 43.23100
H  10.57400 3.47600 43.35100
H  11.16100 3.11400 44.96700
H  9.58600 3.68500 44.73800
Mg 25.99200 50.62200 26.59000
C  24.09300 51.83500 29.26600
C  28.53500 49.81200 28.86500
C  28.14900 49.81400 24.00100
C  23.65100 51.77300 24.37900
N  26.27800 50.90300 28.80900
C  25.33000 51.28500 29.75200
C  25.76900 50.91200 31.20500
C  27.23200 50.51700 30.99400
C  27.37500 50.36300 29.47300
C  28.29700 51.28600 31.83800
C  24.81300 49.76300 31.73600
C  24.05900 50.15900 32.97400
H  24.39100 49.56500 34.28900
N  27.96900 49.81900 26.47600
C  28.84200 49.51000 27.51100
C  30.03800 48.87300 27.03100
C  29.88400 48.80400 25.64400
C  28.64100 49.51000 25.29900
C  31.16700 48.45400 27.93900
C  30.88200 48.17200 24.57500
O  30.62900 48.12600 23.37400
C  32.19900 47.58800 25.07600
N  25.98800 50.95400 24.46600
C  26.92700 50.40000 23.59400
C  26.43500 50.33200 22.15400
C  24.99700 50.94600 22.33700
C  24.83800 51.24400 23.83900
C  27.23100 51.23000 21.05100
C  23.85300 50.12000 21.66800
C  23.70800 50.28900 20.12700
N  24.31800 51.75200 26.76800
C  23.42800 52.07100 25.75600
C  22.24800 52.65400 26.36300
C  22.44300 52.55200 27.71700
C  23.70200 52.02900 27.91000
C  21.05100 53.16100 25.66700
C  21.79500 52.70300 29.04500
O  20.65600 53.01800 29.38100
C  22.88900 52.22400 30.10400
C  23.15500 53.40000 31.03500
O  23.90200 54.33000 30.79200
O  22.64500 53.17000 32.32000
C  22.98400 54.20400 33.36400
H  29.20200 49.62600 29.71000
H  28.74300 49.32900 23.22400
H  22.85200 52.01500 23.67500
H  25.64500 51.74100 31.90200
H  27.27900 49.49300 31.36400
H  28.93700 50.52300 32.27900
H  27.82500 51.94900 32.56300
H  28.99900 51.85600 31.23000
H  25.37000 48.83800 31.88400
H  24.12900 49.47500 30.93800
H  23.06600 49.76100 32.76500
H  23.99900 51.23400 33.14300
H  31.29600 47.37400 28.01300
H  30.97100 48.75700 28.96700
H  32.10400 48.89400 27.59500
H  32.88600 48.39800 25.32200
H  32.58900 46.99800 24.24600
H  31.99100 46.96900 25.94800
H  26.41900 49.26300 21.93900
H  24.97300 51.90800 21.82500
H  28.01800 51.73300 21.61200
H  26.54500 51.98600 20.66800
H  27.61200 50.63700 20.21900
H  22.88800 50.28800 22.14700
H  24.08300 49.05700 21.73500
H  24.72300 50.35000 19.73300
H  23.01800 51.09800 19.89000
H  23.37000 49.35000 19.69000
H  21.01300 52.72800 24.66800
H  21.07100 54.24900 25.60500
H  20.21200 52.79500 26.26000
H  22.51700 51.47500 30.80200
H  23.77300 54.91100 33.10800
H  23.38100 53.59800 34.17800
H  22.06400 54.66500 33.72100

