158

Mg 35.98100 49.33100 25.87600
C  35.85900 48.00400 29.01200
C  34.90800 52.43300 27.14400
C  35.83000 50.53300 22.75000
C  36.45700 46.08300 24.55300
N  35.43000 50.10400 27.85800
C  35.63900 49.40900 28.99300
C  35.59200 50.29000 30.28800
C  35.18500 51.71900 29.65600
C  35.12000 51.42600 28.15400
C  34.04800 52.56600 30.29600
C  36.90800 50.38100 31.07500
C  36.62300 50.25900 32.60200
H  35.23900 50.57800 33.23100
N  35.40500 51.21400 25.06200
C  34.97800 52.30800 25.72300
C  34.73000 53.38700 24.80300
C  34.98600 52.81700 23.53100
C  35.46300 51.48200 23.72700
C  34.29000 54.79800 25.22300
C  34.79400 53.47100 22.22600
O  35.05800 52.94600 21.13700
C  34.30100 54.91500 22.10000
N  36.01100 48.39900 23.92800
C  35.93800 49.15400 22.77600
C  36.21000 48.32900 21.55100
C  36.28700 46.86400 22.17800
C  36.29600 47.13600 23.65400
C  35.23100 48.43600 20.37200
C  37.56500 46.02600 21.73700
C  39.00300 46.59800 21.97500
N  36.13600 47.44400 26.59800
C  36.40100 46.22800 25.98500
C  36.63700 45.19200 26.92800
C  36.39800 45.83400 28.18800
C  36.09700 47.18900 27.92300
C  37.00800 43.74700 26.60600
C  36.52600 45.72600 29.67800
O  36.67000 44.78600 30.45400
C  36.12300 47.12700 30.20500
C  34.90500 46.92800 31.05200
O  33.81800 46.58200 30.65300
O  35.27000 46.90900 32.36200
C  34.21300 46.62400 33.33200
H  34.56100 53.43400 27.40900
H  35.96000 50.89200 21.72700
H  36.64200 45.06900 24.19100
H  34.79900 49.88300 30.91600
H  35.92700 52.50400 29.80300
H  33.79600 52.19300 31.28900
H  33.17400 52.57900 29.64500
H  34.30300 53.61500 30.44900
H  37.46600 51.29100 30.85600
H  37.53300 49.55600 30.73300
H  37.35700 50.94100 33.03200
H  36.99800 49.28100 32.90400
H  34.72900 55.58400 24.60800
H  34.59800 55.07700 26.23000
H  33.21000 54.84900 25.08200
H  33.47600 55.10000 22.78800
H  34.04200 55.00500 21.04500
H  35.04400 55.62900 22.45400
H  37.15100 48.70700 21.15100
H  35.45400 46.19100 21.97400
H  34.39500 49.09700 20.60100
H  34.80700 47.51200 19.97600
H  35.68500 49.05800 19.60000
H  37.40300 45.83300 20.67600
H  37.51200 45.07800 22.27200
H  38.95800 47.39300 22.72000
H  39.49500 46.87100 21.04100
H  39.67100 45.75800 22.16400
H  37.39200 43.62600 25.59300
H  36.29100 42.94200 26.77000
H  37.81900 43.42900 27.26000
H  36.86100 47.63700 30.82400
H  33.47800 47.42800 33.29000
H  34.59500 46.61300 34.35200
H  33.64100 45.70600 33.20200
Mg 0.12700 43.79000 26.75000
C  2.49800 43.57800 29.24500
C  -2.22700 42.65400 28.78700
C  -1.92000 43.41000 24.00300
C  2.72500 44.33300 24.54000
N  0.15400 43.14200 28.75900
C  1.18500 43.29700 29.66500
C  0.71400 43.00500 31.05800
C  -0.78000 42.54200 30.98500
C  -0.98900 42.79800 29.37400
C  -1.20800 41.18100 31.51400
C  0.81700 44.30700 31.95800
C  0.92600 44.15400 33.51500
H  0.84500 42.67300 34.08500
N  -1.90000 43.13400 26.50300
C  -2.71700 42.71400 27.46600
C  -4.03400 42.55100 26.92200
C  -3.98800 42.77300 25.51700
C  -2.60100 43.15000 25.26300
C  -5.28000 42.49000 27.77100
C  -5.09700 42.84000 24.48800
O  -4.90000 43.28400 23.35100
C  -6.48500 42.40900 24.80400
N  0.39000 43.83200 24.46800
C  -0.62700 43.65600 23.64400
C  -0.13300 43.92900 22.13500
C  1.33100 44.40000 22.34700
C  1.49600 44.12200 23.87000
C  -0.43900 42.79100 21.16500
C  1.69100 45.86500 21.91600
C  1.74300 47.01900 22.96700
N  2.19500 44.06100 26.86900
C  3.13700 44.21000 25.82400
C  4.51000 44.23200 26.34400
C  4.32600 43.93300 27.70300
C  2.89600 43.83800 27.94000
C  5.84100 44.39200 25.50100
C  4.94200 43.58700 29.02800
O  6.09700 43.36100 29.31300
C  3.79000 43.44000 30.05000
C  4.01700 42.05600 30.52300
O  3.87300 40.99600 29.91900
O  4.37600 42.15900 31.85700
C  4.91200 40.93800 32.48300
H  -2.98500 42.30100 29.49000
H  -2.64900 43.40200 23.19000
H  3.52600 44.64100 23.86500
H  1.33400 42.17900 31.40500
H  -1.34800 43.31800 31.50000
H  -1.58900 40.60800 30.66800
H  -2.03800 41.27600 32.21300
H  -0.44900 40.56200 31.99400
H  -0.07100 44.93900 31.97300
H  1.63000 45.00000 31.74200
H  0.03200 44.56700 33.98400
H  1.76900 44.70900 33.92500
H  -6.23900 42.80200 27.35800
H  -5.11700 42.98800 28.72600
H  -5.51600 41.44000 27.94600
H  -6.91500 42.13400 23.84100
H  -7.15500 43.17800 25.19000
H  -6.48200 41.51100 25.42000
H  -0.78200 44.75800 21.85100
H  2.01200 43.66400 21.92100
H  -0.36400 41.87400 21.74900
H  0.29300 42.67000 20.36600
H  -1.45300 43.01800 20.83800
H  0.92300 46.17800 21.20800
H  2.65200 45.84100 21.40300
H  2.77500 47.36500 23.02200
H  1.40400 46.75400 23.96900
H  1.11600 47.81100 22.55800
H  6.47800 43.54300 25.74900
H  6.30000 45.36900 25.65500
H  5.57500 44.39500 24.44400
H  3.72700 44.04500 30.95500
H  5.97100 41.04400 32.71900
H  4.94900 40.10300 31.78400
H  4.22500 40.74700 33.30800

