158

Mg 0.16800 7.99800 26.55900
C  0.81900 10.16700 29.32900
C  0.20900 5.30400 29.08600
C  -0.05200 5.71200 24.23600
C  0.63300 10.53400 24.36000
N  0.55400 7.78600 28.94900
C  0.60800 8.85200 29.76300
C  0.38600 8.46100 31.23600
C  0.35200 6.85400 31.16500
C  0.44000 6.59600 29.62600
C  1.36400 6.11500 32.02300
C  -0.92400 9.04800 31.92000
C  -0.77500 9.20000 33.49000
H  -1.46400 8.14900 34.35700
N  0.03300 5.86300 26.65800
C  0.05600 4.96600 27.68400
C  -0.10500 3.68500 27.16900
C  -0.14000 3.70800 25.76700
C  -0.08400 5.15300 25.51100
C  -0.23700 2.44100 27.99300
C  -0.15900 2.57500 24.68700
O  -0.08200 2.78400 23.47000
C  -0.29500 1.23700 25.13300
N  0.40000 8.11400 24.55900
C  0.07200 7.04200 23.85300
C  -0.00400 7.45700 22.32700
C  -0.14400 8.99700 22.41300
C  0.30300 9.29300 23.86600
C  1.27800 6.99800 21.55200
C  -1.49400 9.61800 22.14400
C  -1.53600 10.43100 20.87800
N  0.80400 9.91100 26.69400
C  0.88700 10.83600 25.70200
C  1.24900 12.16600 26.25600
C  1.12500 11.92500 27.65000
C  0.86100 10.55500 27.90500
C  1.46600 13.41600 25.55500
C  1.11400 12.58300 28.90300
O  1.27800 13.76100 29.21900
C  0.89800 11.50400 30.02800
C  2.00400 11.56500 31.05200
O  3.12800 11.20600 30.86500
O  1.48300 11.94300 32.22600
C  2.48300 12.37100 33.28500
H  0.24400 4.47600 29.79700
H  0.01200 5.02700 23.38700
H  0.65100 11.33900 23.62200
H  1.34300 8.75500 31.66700
H  -0.63600 6.66000 31.58200
H  1.67800 6.74300 32.85600
H  2.20700 5.85500 31.38400
H  0.79800 5.27200 32.42000
H  -1.73800 8.35600 31.70900
H  -1.12000 9.98200 31.39300
H  -1.20400 10.15100 33.80500
H  0.29600 9.10800 33.67300
H  -1.08400 1.83700 27.66700
H  -0.60100 2.69200 28.98900
H  0.68700 1.86400 27.95700
H  0.65200 0.95700 25.59400
H  -0.42700 0.64300 24.22900
H  -1.25400 1.07800 25.62500
H  -0.83700 6.94800 21.84300
H  0.54900 9.41900 21.68500
H  1.11700 6.15900 20.87400
H  2.17500 6.82300 22.14600
H  1.48500 7.78200 20.82400
H  -1.76900 10.18000 23.03700
H  -2.27700 8.87900 21.97800
H  -1.26700 9.93100 19.94800
H  -1.01000 11.37900 20.99300
H  -2.55800 10.73300 20.64800
H  2.30800 13.93400 26.01500
H  0.52500 13.94900 25.68600
H  1.69500 13.32100 24.49400
H  -0.01100 11.75400 30.57500
H  2.94000 11.54300 33.82700
H  2.17000 12.97400 34.13800
H  3.28400 12.83900 32.71300
Mg -6.47500 25.53200 26.02400
C  -4.64900 26.34600 28.83700
C  -8.32900 23.41900 27.86400
C  -7.34900 23.89600 23.09400
C  -4.01700 27.30100 24.11700
N  -6.40900 24.97800 28.06600
C  -5.78000 25.52300 29.04300
C  -6.24600 25.03900 30.39900
C  -7.31200 23.91800 30.12300
C  -7.35200 24.07400 28.58800
C  -6.78200 22.53000 30.38200
C  -6.89600 26.22200 31.16600
C  -6.96200 26.21500 32.65700
H  -6.35500 25.12300 33.49000
N  -7.72300 23.92000 25.56500
C  -8.43800 23.22000 26.49900
C  -9.25100 22.23800 25.75000
C  -9.03600 22.40300 24.38800
C  -7.94000 23.44000 24.32800
C  -10.00800 21.16000 26.46500
C  -9.54800 21.59700 23.14100
O  -9.06000 21.86600 22.03100
C  -10.50700 20.39900 23.25300
N  -5.64700 25.44400 23.92000
C  -6.30200 24.80300 22.93100
C  -5.74600 25.23100 21.60100
C  -4.71600 26.28500 21.92400
C  -4.76200 26.42400 23.42800
C  -5.12500 23.89300 20.92200
C  -4.85700 27.76100 21.22100
C  -3.69100 28.26600 20.30100
N  -4.78700 26.82200 26.37500
C  -3.96300 27.48100 25.53300
C  -3.04800 28.23000 26.32700
C  -3.18300 27.80600 27.65100
C  -4.25100 26.94700 27.58500
C  -1.94800 29.16300 25.74700
C  -2.69300 27.87400 29.03200
O  -1.71500 28.45900 29.58500
C  -3.67100 26.98400 29.86000
C  -2.84100 26.08100 30.72500
O  -2.33800 24.98800 30.41300
O  -2.75900 26.63200 31.94900
C  -1.93800 26.00000 32.97600
H  -9.06300 22.85500 28.44300
H  -7.73300 23.67100 22.09700
H  -3.41200 28.02200 23.56400
H  -5.43300 24.71400 31.04900
H  -8.30100 24.11700 30.53700
H  -5.88600 22.53700 31.00300
H  -6.49200 22.18800 29.38800
H  -7.44600 21.88600 30.95900
H  -7.94900 26.09500 30.91300
H  -6.59400 27.18100 30.74600
H  -8.02600 26.12700 32.87600
H  -6.59100 27.16400 33.04300
H  -10.92500 21.13100 25.87700
H  -10.27800 21.36200 27.50100
H  -9.53600 20.19400 26.28400
H  -10.10500 19.46000 23.63300
H  -10.75500 20.09200 22.23700
H  -11.31600 20.82700 23.84500
H  -6.54200 25.55100 20.92900
H  -3.76300 25.84500 21.63100
H  -5.73100 23.64300 20.05100
H  -5.27500 23.05700 21.60600
H  -4.09400 23.97800 20.57900
H  -5.01400 28.48200 22.02300
H  -5.79800 27.76800 20.67100
H  -4.17500 28.33900 19.32700
H  -3.01600 27.46600 19.99800
H  -3.16800 29.17800 20.59100
H  -2.26900 29.59900 24.80100
H  -1.03700 28.60700 25.52400
H  -1.77600 29.96600 26.46400
H  -4.18700 27.66900 30.53200
H  -0.92400 26.36800 32.82000
H  -1.95700 24.91300 32.90200
H  -2.21900 26.25800 33.99700

