158

Mg 34.73700 2.65900 29.37500
C  32.72400 3.71600 32.07600
C  37.47200 2.57400 31.48600
C  36.80300 2.46000 26.70700
C  32.11300 3.44400 27.17100
N  34.99900 3.27100 31.56000
C  34.05400 3.53200 32.48400
C  34.64700 3.38300 33.91000
C  36.17500 3.18100 33.68600
C  36.27100 3.03600 32.13000
C  37.06800 4.31800 34.28000
C  33.87100 2.24700 34.73800
C  33.58100 2.35800 36.27200
H  34.20300 3.53000 37.07500
N  36.81100 2.42600 29.11500
C  37.77000 2.37700 30.15100
C  39.08000 2.17000 29.54200
C  38.91700 2.02700 28.13200
C  37.47200 2.22000 27.91200
C  40.35100 2.12700 30.34900
C  39.93200 1.69800 27.06200
O  39.55700 1.60500 25.90300
C  41.38000 1.40500 27.37500
N  34.44800 2.90100 27.23400
C  35.47900 2.76800 26.32400
C  35.05300 3.03800 24.86900
C  33.48900 3.13000 25.08700
C  33.28900 3.11700 26.56500
C  35.70100 4.27500 24.25000
C  32.62200 2.04800 24.41800
C  31.16500 2.35200 24.16100
N  32.75700 3.16900 29.53600
C  31.83500 3.45400 28.54600
C  30.55200 3.91200 29.15100
C  30.92300 3.95700 30.52900
C  32.25600 3.55200 30.76500
C  29.21500 4.21700 28.44800
C  30.32100 4.31400 31.83800
O  29.18800 4.79000 32.13800
C  31.51300 4.13700 32.85400
C  31.69000 5.50000 33.58000
O  32.10200 6.58700 33.16300
O  31.23200 5.31500 34.80800
C  31.00700 6.51200 35.61600
H  38.33300 2.45800 32.14800
H  37.47300 2.47700 25.84400
H  31.27100 3.68600 26.52000
H  34.59700 4.27000 34.54300
H  36.53700 2.21500 34.03700
H  37.83100 3.88800 34.92900
H  36.66100 5.12800 34.88600
H  37.62600 4.78400 33.46800
H  34.48900 1.38200 34.49700
H  32.95300 1.96000 34.22600
H  33.82700 1.39800 36.72500
H  32.51100 2.55800 36.33400
H  40.21400 2.77100 31.21800
H  41.16900 2.56200 29.77600
H  40.58000 1.12000 30.69900
H  41.52200 0.78000 28.25700
H  41.87300 2.32100 27.69900
H  41.82800 0.97500 26.47900
H  35.11200 2.12400 24.27700
H  33.10100 4.07400 24.70400
H  36.49000 4.68000 24.88400
H  34.97900 5.05300 24.00200
H  36.32900 3.94400 23.42300
H  32.81200 1.14500 24.99800
H  32.94700 1.88800 23.39000
H  30.94300 2.12200 23.11900
H  30.82400 3.35100 24.43500
H  30.59600 1.66200 24.78300
H  28.43600 4.57900 29.11900
H  28.87700 3.22600 28.14500
H  29.30100 4.78000 27.51800
H  31.35700 3.30700 33.54300
H  29.97600 6.86300 35.56700
H  31.72200 7.33300 35.56900
H  31.11600 6.08500 36.61300
Mg 40.98400 9.35400 30.07100
C  43.06300 10.42600 32.48100
C  38.67900 8.24200 32.48600
C  39.00800 7.95300 27.69700
C  43.54700 9.68100 27.70100
N  40.98500 9.19900 32.32600
C  41.89700 9.91500 33.02300
C  41.43300 9.93400 34.45000
C  40.13900 8.97000 34.43700
C  39.85800 8.91600 32.99800
C  40.23200 7.58200 35.12400
C  41.08700 11.37000 34.97200
C  40.64000 11.36900 36.40500
H  41.30800 12.37500 37.45600
N  39.02800 8.39500 30.10600
C  38.28200 7.99600 31.17200
C  36.97000 7.56900 30.73300
C  37.03900 7.43500 29.31700
C  38.39700 7.88600 28.98500
C  35.86700 7.15900 31.67200
C  35.97800 7.05900 28.29000
O  36.09300 7.10700 27.00900
C  34.71400 6.45400 28.81000
N  41.27700 8.70300 28.00000
C  40.32800 8.25200 27.24100
C  40.82900 8.12700 25.75400
C  42.15300 8.84600 25.79200
C  42.37600 9.08600 27.25900
C  40.85000 6.71300 25.19700
C  42.15400 10.25100 24.97900
C  41.67300 11.51200 25.66000
N  42.93300 9.91100 30.00900
C  43.87400 10.07700 29.03400
C  45.06400 10.72900 29.53900
C  44.75800 10.95800 30.93700
C  43.48600 10.37500 31.14800
C  46.37600 11.09100 28.88500
C  45.30200 11.52600 32.20200
O  46.34700 12.09200 32.48600
C  44.19500 11.13900 33.22600
C  44.83700 10.20000 34.09100
O  44.95900 8.99800 34.00000
O  45.33400 10.98400 35.13900
C  45.97200 10.27500 36.17800
H  38.00600 7.94600 33.29300
H  38.40900 7.58200 26.86200
H  44.17500 10.13100 26.92900
H  42.22200 9.48400 35.05200
H  39.22800 9.38200 34.87300
H  39.69500 7.56500 36.07200
H  41.25300 7.22700 35.26400
H  39.74700 6.85500 34.47300
H  40.37000 11.82800 34.29100
H  42.03300 11.91200 34.96600
H  40.76000 10.34600 36.76100
H  39.61600 11.74100 36.35500
H  35.63900 6.09300 31.69600
H  34.91800 7.65400 31.46700
H  36.17200 7.39700 32.69100
H  34.87900 5.51200 29.33300
H  34.04300 6.12500 28.01600
H  34.04600 7.16200 29.30000
H  40.06600 8.80400 25.37100
H  42.88000 8.10600 25.45600
H  41.02800 5.97600 25.98100
H  41.60000 6.52800 24.42800
H  39.94600 6.50700 24.62400
H  41.41100 9.97900 24.22900
H  43.15000 10.27600 24.53700
H  41.19700 11.34100 26.62600
H  40.83700 11.83300 25.03800
H  42.44000 12.26400 25.84300
H  46.58300 10.29900 28.16500
H  47.24000 11.13200 29.54700
H  46.18300 11.94100 28.23100
H  43.81700 12.02500 33.73700
H  46.58200 9.38900 36.00300
H  45.25000 9.89300 36.90000
H  46.55500 11.04700 36.67800

