158

Mg -2.33600 17.72200 26.26400
C  -2.70400 15.42200 28.89600
C  -2.31200 20.17700 28.60100
C  -2.26300 20.01800 23.69200
C  -2.09100 15.16700 23.96600
N  -2.45100 17.80800 28.51700
C  -2.65000 16.72400 29.34100
C  -2.66800 17.21200 30.88500
C  -2.62200 18.77400 30.72300
C  -2.45400 18.95900 29.21400
C  -3.89900 19.52500 31.28000
C  -1.49400 16.55800 31.73300
C  -1.07600 17.24100 33.00500
H  -0.96300 16.50300 34.35200
N  -2.30000 19.76000 26.11700
C  -2.29000 20.59000 27.18200
C  -2.31300 21.98900 26.75900
C  -2.23300 21.97600 25.35500
C  -2.25400 20.54900 24.98900
C  -2.52900 23.11600 27.67100
C  -2.00600 23.16200 24.35300
O  -1.87600 22.93900 23.15100
C  -1.92500 24.59100 24.85900
N  -2.32400 17.61400 24.16000
C  -2.40700 18.68200 23.34900
C  -2.45200 18.25600 21.89800
C  -2.19400 16.76000 21.94900
C  -2.12900 16.46900 23.43200
C  -3.88300 18.53700 21.33100
C  -0.93800 16.35000 21.23700
C  0.42200 16.69400 21.79100
N  -2.56300 15.67000 26.30600
C  -2.41000 14.73800 25.26500
C  -2.42700 13.46400 25.84000
C  -2.59800 13.65000 27.23000
C  -2.56600 15.03000 27.50800
C  -2.34800 12.13300 25.02200
C  -2.73800 12.92300 28.44900
O  -2.78600 11.68800 28.54500
C  -2.79100 14.07500 29.57100
C  -1.57600 13.73100 30.32800
O  -0.44200 13.95400 30.00400
O  -1.82700 13.03200 31.47000
C  -0.72300 12.71100 32.37900
H  -2.13200 20.98800 29.30900
H  -2.22100 20.67500 22.82000
H  -2.08400 14.41000 23.17900
H  -3.64000 16.92200 31.28400
H  -1.79300 19.32600 31.16600
H  -3.56800 20.43400 31.78300
H  -4.47500 18.81000 31.86700
H  -4.48400 19.93700 30.45700
H  -0.61500 16.25500 31.16400
H  -2.02800 15.72400 32.18800
H  -1.72200 18.05900 33.32500
H  -0.15200 17.77900 32.79500
H  -1.65800 23.77100 27.65900
H  -2.74100 22.77900 28.68500
H  -3.37100 23.71200 27.31700
H  -1.07900 24.60800 25.54600
H  -2.88900 24.80900 25.31800
H  -1.66800 25.28900 24.06100
H  -1.70600 18.88200 21.40900
H  -3.00500 16.10800 21.62300
H  -4.31700 17.65300 20.86300
H  -3.88200 19.30400 20.55700
H  -4.66400 18.92600 21.98500
H  -0.94900 16.69100 20.20100
H  -1.07500 15.26900 21.19100
H  1.00700 17.00500 20.92400
H  0.91200 15.76800 22.09000
H  0.47500 17.54900 22.46500
H  -2.61100 12.30200 23.97800
H  -2.97900 11.36200 25.46500
H  -1.32100 11.79700 24.87800
H  -3.68500 13.87700 30.16300
H  -1.12900 12.24800 33.27800
H  -0.35800 13.69100 32.68700
H  -0.00800 11.98800 31.98600
Mg 16.31600 51.53700 26.90000
C  18.28800 50.34200 29.52700
C  13.98400 52.48600 29.11900
C  14.43700 52.55700 24.25600
C  18.94500 50.66900 24.70900
N  16.18700 51.47300 29.05300
C  17.12600 50.98400 29.92000
C  16.66900 51.22400 31.39900
C  15.14800 51.57800 31.31300
C  15.09600 51.86100 29.76100
C  14.04900 50.45600 31.68100
C  17.60300 52.38200 32.01500
C  17.93500 52.33300 33.57000
H  17.02500 51.40500 34.46000
N  14.42100 52.40000 26.69100
C  13.65900 52.76300 27.74400
C  12.59100 53.52100 27.21700
C  12.60900 53.48000 25.83500
C  13.82200 52.74300 25.47700
C  11.64700 54.23600 28.08200
C  11.68200 54.12100 24.86700
O  11.81500 53.99900 23.67000
C  10.56900 55.04200 25.35500
N  16.66100 51.59800 24.83000
C  15.67300 52.02200 23.88500
C  16.34900 52.21000 22.53900
C  17.73100 51.60600 22.70700
C  17.81700 51.29400 24.19200
C  15.50800 51.80300 21.28100
C  18.88800 52.44900 22.11100
C  20.03100 51.73400 21.29800
N  18.22100 50.58300 27.00500
C  19.19900 50.32900 26.09400
C  20.38800 49.67100 26.70600
C  20.04900 49.77400 28.06600
C  18.75100 50.27800 28.21200
C  21.72600 49.23700 26.01400
C  20.58000 49.51500 29.32500
O  21.70800 49.10900 29.65000
C  19.46800 49.89400 30.37900
C  19.17500 48.54000 30.95300
O  19.14200 47.42800 30.40200
O  18.92600 48.66300 32.34400
C  18.11900 47.56600 32.86800
H  13.18200 52.82400 29.77900
H  13.81200 53.02600 23.49300
H  19.73000 50.38100 24.00800
H  16.59400 50.35200 32.04800
H  15.01500 52.43200 31.97600
H  13.41800 50.59700 32.55800
H  14.55900 49.49500 31.75900
H  13.40900 50.53400 30.80300
H  17.05500 53.32300 31.96600
H  18.56100 52.36400 31.49500
H  17.96200 53.35700 33.94200
H  18.93800 51.92600 33.69600
H  11.72700 54.11700 29.16200
H  10.70100 53.71800 27.92400
H  11.34100 55.24100 27.78800
H  9.96900 55.43100 24.53200
H  10.77700 55.98100 25.86800
H  9.93800 54.48800 26.05000
H  16.55200 53.28100 22.51200
H  17.80700 50.59300 22.31200
H  15.47500 52.65100 20.59700
H  14.46300 51.54400 21.45100
H  16.03100 51.00100 20.75900
H  19.40600 52.87100 22.97200
H  18.42200 53.24700 21.53300
H  20.43800 52.47000 20.60400
H  19.77700 50.78300 20.83000
H  20.84300 51.54600 22.00100
H  22.47500 48.90500 26.73300
H  22.13900 50.09300 25.47800
H  21.53000 48.39800 25.34600
H  19.86100 50.55700 31.15000
H  17.64200 47.91300 33.78500
H  18.63600 46.62800 33.06900
H  17.21600 47.43800 32.27100

