158

Mg 35.85000 1.42900 30.19200
C  33.54400 2.53600 32.63400
C  38.04700 0.83300 32.66700
C  37.95600 0.86400 27.81100
C  33.28600 2.05700 27.79700
N  35.75500 1.77300 32.40400
C  34.70600 2.11300 33.20700
C  35.14400 2.05400 34.70700
C  36.71900 1.78800 34.61700
C  36.83300 1.34500 33.13000
C  37.62000 3.07300 34.90300
C  34.26400 1.07300 35.53000
C  33.86200 1.51600 36.93200
H  34.60800 2.72700 37.50100
N  37.77600 0.87700 30.21500
C  38.55700 0.62600 31.33800
C  39.86200 0.26300 30.91200
C  39.98100 0.39700 29.48300
C  38.53900 0.72400 29.12600
C  40.95200 -0.09900 32.04200
C  41.12700 0.07200 28.53800
O  40.93200 0.25000 27.32200
C  42.48400 -0.25600 29.11600
N  35.56900 1.25900 28.10800
C  36.68000 1.21000 27.35100
C  36.38200 1.27500 25.78900
C  34.80600 1.50200 25.78600
C  34.50500 1.60200 27.31900
C  37.20200 2.32900 24.95800
C  33.89000 0.35900 25.20800
C  32.91200 0.66300 24.08300
N  33.75600 2.12400 30.14800
C  32.85700 2.22300 29.11300
C  31.51600 2.65800 29.61500
C  31.78200 2.85800 31.00900
C  33.16900 2.56800 31.28300
C  30.22500 2.77700 28.88800
C  31.16800 3.24900 32.26200
O  30.01900 3.65000 32.47800
C  32.23200 2.98800 33.32600
C  32.49400 4.26800 34.12100
O  33.27400 5.15600 33.81800
O  31.67100 4.20400 35.21800
C  31.82500 5.38700 36.02900
H  38.74300 0.47200 33.42700
H  38.67000 0.78000 26.98900
H  32.59200 2.44900 27.05100
H  34.94100 3.08300 35.00500
H  37.09300 0.89100 35.11000
H  38.32700 3.27900 34.09900
H  38.21600 2.80100 35.77400
H  37.06200 3.98500 35.11300
H  34.82400 0.15600 35.71400
H  33.39500 0.76700 34.94700
H  34.08000 0.65900 37.57000
H  32.78000 1.61200 36.83800
H  41.78800 0.60000 32.07300
H  41.48100 -0.97000 31.65600
H  40.53800 -0.32600 33.02400
H  43.24200 -0.31100 28.33500
H  42.43000 -1.25300 29.55400
H  42.70000 0.46600 29.90400
H  36.59500 0.27400 25.41500
H  34.65000 2.45400 25.27800
H  37.52500 1.85800 24.03000
H  38.07400 2.52600 25.58200
H  36.66200 3.23800 24.69100
H  33.42300 -0.18300 26.03000
H  34.63100 -0.33300 24.80800
H  31.93000 0.24600 24.30800
H  33.10200 0.17400 23.12800
H  32.88600 1.73300 23.87900
H  29.48900 2.31900 29.54900
H  30.27400 2.11900 28.02100
H  29.90200 3.76000 28.54400
H  31.78200 2.28900 34.03100
H  31.25000 6.27300 35.75700
H  32.80900 5.85400 36.07800
H  31.56600 5.06600 37.03800
Mg -9.37000 39.98300 43.33900
C  -8.24000 36.91300 42.20000
C  -6.71600 41.52900 41.90800
C  -10.94900 42.90800 43.85400
C  -12.57600 38.32400 43.98900
N  -7.71300 39.27100 42.23200
C  -7.45900 37.97300 41.78600
C  -6.22600 37.95200 40.93200
C  -5.71100 39.45900 40.82700
C  -6.69400 40.14200 41.81700
C  -4.21600 39.73500 41.09600
C  -6.33300 37.29400 39.51700
C  -5.28300 36.12100 39.28200
H  -4.30700 36.40900 38.07900
N  -8.84700 41.97000 42.93000
C  -7.65500 42.38500 42.45600
C  -7.61300 43.89900 42.46700
C  -8.84800 44.32400 43.08800
C  -9.60600 43.04500 43.32200
C  -6.42500 44.73500 41.92700
C  -9.14200 45.69200 43.37000
O  -8.28200 46.53000 43.23100
C  -10.41300 46.11000 43.96700
N  -11.46900 40.52300 43.87400
C  -11.84300 41.81400 44.00500
C  -13.18200 41.97100 44.66600
C  -13.73300 40.52600 44.55400
C  -12.51700 39.73200 44.08200
C  -13.08800 42.39200 46.16100
C  -14.90000 40.30600 43.55100
C  -16.12000 39.71600 44.27400
N  -10.16900 38.02600 43.33100
C  -11.45800 37.52900 43.65800
C  -11.45800 36.06200 43.65000
C  -10.23100 35.75000 42.97500
C  -9.49900 36.99100 42.88800
C  -12.58600 35.16600 43.90100
C  -9.33600 34.73600 42.49600
O  -9.50200 33.52000 42.55800
C  -8.02100 35.38900 41.93000
C  -6.90300 34.88800 42.75300
O  -6.51200 35.23500 43.88300
O  -6.26200 33.98800 41.93300
C  -5.17900 33.13800 42.57400
H  -5.99100 42.03400 41.26600
H  -11.40300 43.88500 44.03700
H  -13.51600 37.88600 44.32900
H  -5.60200 37.42700 41.65600
H  -6.03800 39.80100 39.84500
H  -3.64700 38.83200 41.32100
H  -4.15500 40.29500 42.02900
H  -3.76800 40.19400 40.21400
H  -6.18400 37.99800 38.69900
H  -7.31400 36.85500 39.33200
H  -5.84100 35.22700 39.00400
H  -4.74100 35.88000 40.19700
H  -6.71300 45.28800 41.03400
H  -5.65000 44.02200 41.64500
H  -6.15500 45.39000 42.75600
H  -10.44600 47.19800 43.90900
H  -10.67400 45.76500 44.96700
H  -11.23500 45.77100 43.33700
H  -13.71300 42.74000 44.10500
H  -14.12500 40.19300 45.51500
H  -12.11100 42.82100 46.38600
H  -13.20200 41.56200 46.85800
H  -13.87900 43.08000 46.45600
H  -14.53800 39.66500 42.74700
H  -15.18500 41.19600 42.98900
H  -16.92300 40.22200 43.73700
H  -16.24400 39.94000 45.33400
H  -16.27400 38.65400 44.08500
H  -13.25300 34.91100 43.07700
H  -13.25100 35.61700 44.63700
H  -12.12500 34.26300 44.30000
H  -7.75100 35.17300 40.89700
H  -4.80000 32.25500 42.06000
H  -5.58800 32.78600 43.52100
H  -4.29500 33.72000 42.83700

