158

Mg 7.66100 3.28300 27.02300
C  8.59800 1.50600 29.95900
C  5.80800 5.46600 29.03200
C  6.53400 4.82200 24.28400
C  9.23300 0.93200 25.16500
N  7.31300 3.50000 29.13300
C  7.87400 2.69000 30.15400
C  7.64900 3.30200 31.57200
C  6.57600 4.40800 31.25100
C  6.52300 4.43800 29.70700
C  5.20300 4.12200 31.88400
C  8.92000 3.84800 32.22400
C  8.71500 4.63500 33.58200
H  9.47000 4.06400 34.77600
N  6.30300 4.81100 26.71100
C  5.70900 5.61100 27.66300
C  4.95000 6.65800 26.99700
C  5.12900 6.50800 25.63500
C  6.00200 5.34100 25.46700
C  3.95700 7.53200 27.83200
C  4.59400 7.44700 24.56800
O  4.74700 7.15600 23.36700
C  3.80200 8.65900 24.89300
N  7.88900 2.89000 25.00000
C  7.31400 3.70100 24.06000
C  7.69800 3.29500 22.63700
C  8.62800 2.03800 22.84600
C  8.59900 1.91000 24.41600
C  6.50600 3.10600 21.66600
C  9.99300 2.12400 22.24300
C  10.39800 0.87800 21.50100
N  8.69500 1.54300 27.42900
C  9.34700 0.71600 26.56800
C  9.98200 -0.38100 27.26900
C  9.70600 -0.11800 28.62800
C  8.96800 1.09000 28.67100
C  10.83200 -1.45600 26.58400
C  9.90900 -0.55400 29.96700
O  10.53300 -1.53100 30.40500
C  9.21600 0.46300 30.91200
C  8.25300 -0.26400 31.71600
O  7.31300 -0.89300 31.34600
O  8.38900 0.03700 33.14000
C  7.19400 -0.32100 34.00000
H  5.45900 6.23300 29.72600
H  6.16700 5.35900 23.40700
H  9.85100 0.25500 24.57100
H  7.21700 2.44700 32.09100
H  6.83000 5.41400 31.58400
H  5.24000 3.14100 32.35700
H  4.44200 4.09000 31.10500
H  5.05200 4.89400 32.63900
H  9.34100 4.50900 31.46600
H  9.57700 3.00900 32.45400
H  7.65700 4.65200 33.84600
H  8.94200 5.69600 33.48500
H  2.99700 7.33600 27.35500
H  4.16400 8.59500 27.71200
H  3.86200 7.29100 28.89100
H  2.83400 8.47800 25.36000
H  3.63400 9.10100 23.91100
H  4.35300 9.33700 25.54400
H  8.31200 4.10500 22.24500
H  8.10400 1.14900 22.49500
H  5.52100 3.43000 22.00300
H  6.34300 2.04500 21.47400
H  6.66100 3.73300 20.78800
H  10.79000 2.31300 22.96200
H  9.95500 2.98700 21.57800
H  10.48600 1.16500 20.45300
H  9.74300 0.00700 21.48000
H  11.35700 0.58200 21.92600
H  10.53400 -1.47400 25.53600
H  10.55100 -2.45900 26.90700
H  11.90600 -1.27700 26.62100
H  9.95500 0.89300 31.58800
H  6.87000 0.60800 34.46900
H  7.42000 -1.02500 34.80100
H  6.33600 -0.67000 33.42700
Mg 49.20500 47.96400 42.61500
C  45.89100 47.58900 41.32200
C  49.79400 44.82800 41.43400
C  52.26100 48.48100 43.54600
C  48.23200 51.19000 43.58700
N  48.02200 46.53600 41.25400
C  46.70000 46.56900 40.94500
C  46.31000 45.32800 40.11900
C  47.54500 44.38200 40.37800
C  48.48900 45.31300 41.06200
C  47.11800 43.20800 41.33600
C  46.07600 45.77900 38.67300
C  44.77600 45.36700 37.89400
H  44.93000 44.51900 36.62800
N  50.80100 46.84400 42.46000
C  50.85300 45.57300 41.95400
C  52.22600 45.13200 41.93700
C  52.99800 46.14300 42.57900
C  52.03000 47.25300 42.89200
C  52.63800 43.78500 41.31800
C  54.47800 46.08000 42.79000
O  55.14800 45.12300 42.45500
C  55.21600 47.17000 43.49800
N  50.16500 49.66600 43.34300
C  51.46800 49.61100 43.62500
C  51.92900 50.93700 44.32900
C  50.61100 51.78100 44.36700
C  49.62900 50.87800 43.72800
C  52.58300 50.85400 45.74900
C  50.73700 53.17800 43.67600
C  50.80500 54.27300 44.78500
N  47.45700 49.13100 42.55700
C  47.24200 50.38100 43.02700
C  45.85300 50.77500 42.78200
C  45.24100 49.65800 42.23500
C  46.30900 48.76400 42.01300
C  45.29400 52.12200 43.05400
C  43.99500 49.16000 41.60600
O  42.88200 49.60100 41.44600
C  44.41500 47.72700 41.02700
C  43.54700 46.73900 41.64500
O  43.71400 46.41100 42.80200
O  42.61100 46.30400 40.72500
C  41.65100 45.38600 41.28600
H  50.07300 43.79300 41.22600
H  53.22700 48.58700 44.04400
H  47.86300 52.13700 43.98700
H  45.40200 44.97100 40.60600
H  47.84500 44.07400 39.37600
H  46.16500 43.32700 41.85000
H  47.85800 43.21400 42.13700
H  47.22000 42.20900 40.91100
H  46.84300 45.41100 37.99200
H  46.17400 46.86500 38.66600
H  44.28900 46.21400 37.41000
H  44.03400 44.86800 38.51800
H  52.63400 43.83900 40.23000
H  51.95900 42.99400 41.63700
H  53.60400 43.45700 41.70200
H  55.06100 48.10400 42.95900
H  56.30200 47.07500 43.50900
H  54.78900 47.15400 44.50100
H  52.72700 51.27800 43.67000
H  50.34800 51.99300 45.40300
H  52.50900 49.82600 46.10200
H  52.24100 51.55600 46.51000
H  53.59000 51.19500 45.50800
H  49.82000 53.28700 43.09500
H  51.60500 53.11200 43.02000
H  50.26900 55.14500 44.41000
H  51.84100 54.50300 45.03400
H  50.35900 54.13700 45.77000
H  45.16800 52.78400 42.19700
H  45.85200 52.66800 43.81500
H  44.34600 52.09700 43.59100
H  44.23600 47.79000 39.95400
H  41.90800 44.32700 41.29600
H  40.68600 45.30900 40.78600
H  41.37500 45.56200 42.32500

