158

Mg 16.39000 -2.29100 27.67000
C  15.33600 -0.13500 30.28100
C  18.53700 -3.80100 29.81100
C  17.82700 -3.63800 25.07700
C  14.58700 -0.08000 25.52700
N  16.78000 -2.03300 29.87900
C  16.21500 -1.18000 30.69200
C  16.66900 -1.41500 32.14100
C  17.74800 -2.49300 32.00400
C  17.66100 -2.83700 30.50200
C  19.16200 -2.19000 32.46500
C  15.52900 -1.82500 33.10300
C  15.49600 -0.88100 34.37900
H  16.84900 -0.36700 35.05800
N  17.90100 -3.69300 27.46300
C  18.62500 -4.22600 28.46600
C  19.52900 -5.31600 27.92700
C  19.32300 -5.33400 26.46300
C  18.28400 -4.22400 26.23800
C  20.42700 -6.19800 28.75100
C  19.86900 -6.14400 25.32100
O  19.55500 -5.94800 24.14800
C  20.73900 -7.35100 25.77900
N  16.10400 -2.02900 25.56600
C  16.93400 -2.65400 24.72400
C  16.93900 -2.01200 23.31500
C  15.80100 -1.02300 23.44300
C  15.43500 -1.04700 24.90900
C  18.30300 -1.32800 22.90600
C  14.51300 -1.12300 22.54100
C  14.14900 0.01500 21.55700
N  15.06800 -0.52000 27.81500
C  14.33600 0.15200 26.82900
C  13.56400 1.19200 27.44400
C  14.01400 1.16600 28.79400
C  14.91200 0.10600 28.96000
C  12.51700 2.04500 26.82200
C  13.75900 1.75100 30.10300
O  12.92100 2.54300 30.48500
C  14.71700 0.96100 31.10600
C  15.72800 1.92700 31.59300
O  16.56300 2.51500 30.89400
O  15.44900 2.32900 32.89900
C  16.22400 3.50600 33.31200
H  19.30300 -4.17700 30.49300
H  18.31100 -4.14200 24.23800
H  13.99200 0.44300 24.77500
H  17.09600 -0.47000 32.47700
H  17.35600 -3.42600 32.40900
H  19.98400 -2.04900 31.76400
H  19.28700 -2.96000 33.22700
H  19.18900 -1.25500 33.02500
H  15.60700 -2.87300 33.39200
H  14.54300 -1.66500 32.66700
H  14.91200 -1.43000 35.11700
H  14.80200 -0.07200 34.15400
H  20.07200 -7.22600 28.82700
H  20.61400 -5.78500 29.74200
H  21.40300 -6.15400 28.26800
H  20.15300 -7.86200 26.54300
H  21.61500 -6.77500 26.07800
H  20.93200 -7.92700 24.87400
H  16.65900 -2.73700 22.55000
H  16.20000 -0.00900 23.40800
H  18.94400 -1.54500 23.76100
H  18.27400 -0.24200 22.80800
H  18.68000 -1.90400 22.06100
H  13.55700 -1.26200 23.04600
H  14.62100 -2.01000 21.91700
H  13.84100 -0.41100 20.60100
H  15.12400 0.47400 21.39300
H  13.47500 0.76800 21.96400
H  12.07800 2.83200 27.43600
H  11.66400 1.42400 26.54800
H  12.89800 2.58900 25.95800
H  14.19900 0.42900 31.90400
H  16.14200 4.39400 32.68500
H  17.28400 3.25500 33.34200
H  15.89100 3.86700 34.28500
Mg 10.24100 47.13000 26.05200
C  7.74900 47.31200 28.21900
C  12.50700 48.20100 28.37600
C  12.66800 46.91500 23.57300
C  7.86000 46.62100 23.37900
N  10.03200 47.77000 28.03300
C  8.94200 47.71000 28.76100
C  9.30400 47.89700 30.23200
C  10.75900 48.48600 30.21500
C  11.13000 48.19100 28.76900
C  10.85800 49.98800 30.52800
C  9.07300 46.77700 31.21900
C  9.73500 47.02900 32.53700
H  9.07100 46.38100 33.77800
N  12.25600 47.59200 25.91000
C  13.01200 47.92500 27.01300
C  14.39900 48.02900 26.66100
C  14.50300 47.61200 25.27500
C  13.06900 47.36500 24.81200
C  15.51800 48.57100 27.59600
C  15.77400 47.40800 24.42300
O  15.69600 47.03200 23.28400
C  17.14200 47.77600 24.99600
N  10.26500 46.93000 23.80400
C  11.38400 46.80500 23.03700
C  11.13000 46.38200 21.55000
C  9.62900 46.38500 21.50400
C  9.19400 46.65300 22.98300
C  11.81500 47.30500 20.56000
C  9.03200 45.05100 20.84900
C  7.67400 45.20500 20.17500
N  8.20300 46.84700 25.83200
C  7.37000 46.78600 24.68000
C  5.99500 46.62400 25.15000
C  6.09200 46.85600 26.56700
C  7.45200 47.00400 26.84400
C  4.72400 46.39100 24.34200
C  5.31300 46.90300 27.83400
O  4.13700 46.78900 28.04500
C  6.41900 47.17400 28.95500
C  6.27800 46.01200 29.77700
O  6.86800 45.01500 29.63100
O  5.37900 46.23100 30.74600
C  5.07800 45.23100 31.71700
H  13.20000 48.46100 29.17900
H  13.42000 46.78400 22.79200
H  7.11900 46.52800 22.58200
H  8.70700 48.76600 30.51000
H  11.47100 47.83000 30.71700
H  11.43300 50.41900 29.70800
H  11.52400 50.13200 31.38000
H  9.88300 50.47000 30.59300
H  9.36100 45.81600 30.79300
H  7.99100 46.75400 31.34900
H  9.91000 48.09600 32.67400
H  10.72000 46.56400 32.52000
H  15.10300 48.90200 28.54800
H  16.01600 49.47600 27.24600
H  16.31600 47.83100 27.65500
H  17.58500 47.06100 25.68900
H  17.20600 48.76700 25.44500
H  17.84700 47.74700 24.16400
H  11.45800 45.37300 21.30100
H  9.37000 47.30500 20.97900
H  11.51900 48.32700 20.79600
H  11.35800 47.14200 19.58400
H  12.87400 47.04900 20.51600
H  8.94600 44.34100 21.67200
H  9.81500 44.70600 20.17400
H  7.34400 46.23300 20.02000
H  6.90800 44.60400 20.66400
H  7.85400 44.82200 19.17100
H  4.96200 45.78000 23.47000
H  4.34100 47.33700 23.95900
H  3.97200 45.91700 24.97200
H  6.31100 48.10200 29.51700
H  4.53600 44.34500 31.38500
H  4.39000 45.55800 32.49700
H  5.95400 44.99400 32.32000

