158

Mg 35.48500 2.83200 30.51500
C  33.09200 3.83700 32.85100
C  37.85700 2.77300 32.97800
C  37.72000 1.97700 28.24200
C  33.08800 3.36900 27.93400
N  35.41300 3.20800 32.70900
C  34.31100 3.47700 33.44800
C  34.63100 3.12900 34.97000
C  36.24300 3.33900 34.94100
C  36.54300 3.05800 33.50300
C  36.76800 4.74700 35.39100
C  34.06600 1.73100 35.34700
C  33.99900 1.40000 36.83200
H  34.74400 2.17200 37.81700
N  37.51900 2.38700 30.59500
C  38.33900 2.41300 31.70200
C  39.65300 2.03100 31.34000
C  39.59700 1.75400 29.95400
C  38.27300 2.07000 29.50800
C  40.74000 1.94000 32.35700
C  40.73200 1.22800 29.00800
O  40.66900 1.09200 27.80000
C  41.92300 0.71100 29.58800
N  35.34000 2.52400 28.44300
C  36.44400 2.22200 27.71100
C  36.16400 2.23800 26.18700
C  34.62200 2.46600 26.19800
C  34.35000 2.89300 27.60300
C  37.02000 3.33800 25.43700
C  33.67900 1.26400 25.81500
C  32.55500 1.52100 24.75700
N  33.51000 3.56700 30.37200
C  32.68100 3.70700 29.26900
C  31.35900 4.25600 29.70900
C  31.51000 4.31800 31.11600
C  32.79600 3.81800 31.48900
C  30.18300 4.67900 28.90900
C  30.85600 4.68400 32.28900
O  29.76600 5.22500 32.49900
C  31.73600 4.12900 33.47000
C  31.95900 5.20000 34.45100
O  32.56600 6.25400 34.32700
O  31.08800 4.82900 35.49800
C  31.00800 5.77500 36.55900
H  38.64500 2.90300 33.72400
H  38.51600 1.86500 27.50200
H  32.42200 3.53300 27.08400
H  34.13700 3.86100 35.60900
H  36.70100 2.55000 35.53700
H  35.90000 5.17400 35.89300
H  37.11400 5.20800 34.46600
H  37.67000 4.61300 35.98900
H  34.59400 0.90000 34.87800
H  33.07000 1.78000 34.90700
H  34.13000 0.32700 36.97300
H  32.96300 1.59000 37.11400
H  40.57200 0.98200 32.85000
H  40.79700 2.73900 33.09600
H  41.71300 1.98000 31.86900
H  42.44800 0.07200 28.87900
H  41.69500 0.19400 30.52000
H  42.55800 1.55000 29.87300
H  36.30600 1.20400 25.87200
H  34.45800 3.31600 25.53500
H  36.40900 4.06900 24.90800
H  37.58600 2.91900 24.60500
H  37.59800 3.92300 26.15300
H  33.27100 0.68000 26.64000
H  34.24400 0.46500 25.33500
H  32.86400 1.19800 23.76300
H  32.35700 2.59300 24.77100
H  31.65700 0.99600 25.08200
H  29.55600 5.33400 29.51300
H  29.64500 3.75800 28.68600
H  30.49800 5.20200 28.00600
H  31.30400 3.25300 33.95500
H  30.45900 5.36200 37.40600
H  30.56400 6.74100 36.31900
H  32.04800 5.92700 36.84700
Mg -12.06700 16.48300 41.14900
C  -8.93000 14.97000 41.00500
C  -10.85600 19.30500 39.99000
C  -15.25300 17.55000 40.94200
C  -13.29600 13.26100 42.12600
N  -10.09600 16.94400 40.39600
C  -8.91100 16.29100 40.53000
C  -7.74800 17.13600 40.16700
C  -8.39900 18.54700 40.15500
C  -9.90100 18.26300 40.14000
C  -7.95700 19.35600 41.38000
C  -7.05200 16.69100 38.84300
C  -5.50100 16.94100 38.76500
H  -5.02400 17.24400 37.30400
N  -12.99800 18.16900 40.47700
C  -12.30800 19.24300 40.00700
C  -13.20300 20.28200 39.68700
C  -14.52000 19.80900 39.93100
C  -14.31200 18.49200 40.50300
C  -12.62500 21.56200 39.14500
C  -15.72100 20.58600 39.73600
O  -15.78500 21.69700 39.20300
C  -17.04300 19.99600 39.92800
N  -14.09200 15.42400 41.16500
C  -15.17700 16.18900 41.29400
C  -16.36000 15.44600 41.95000
C  -15.67100 14.15000 42.43400
C  -14.26900 14.26100 41.80200
C  -17.20300 16.22900 43.00800
C  -16.43400 12.82500 42.25200
C  -16.76800 12.06300 43.52800
N  -11.34500 14.39700 41.37500
C  -11.92200 13.27900 41.87300
C  -10.93000 12.24200 42.15500
C  -9.67700 12.89200 41.83100
C  -10.02000 14.17900 41.35300
C  -11.24600 10.90000 42.62200
C  -8.24800 12.68800 41.76300
O  -7.53000 11.72500 42.08400
C  -7.71200 14.00700 41.06700
C  -6.53900 14.58800 41.79300
O  -6.55200 14.85600 42.95400
O  -5.42400 14.50200 41.00600
C  -4.20700 14.88900 41.66100
H  -10.40700 20.28500 39.81400
H  -16.23500 17.97200 41.16900
H  -13.79600 12.41100 42.59700
H  -7.00100 17.02300 40.95300
H  -8.11000 19.05700 39.23700
H  -8.83800 19.56600 41.98600
H  -7.44800 20.25400 41.02600
H  -7.29200 18.77800 42.02100
H  -7.53800 17.15200 37.98300
H  -7.17000 15.62100 38.67700
H  -4.95400 16.03200 39.01300
H  -5.41000 17.78800 39.44500
H  -11.72100 21.40200 38.55800
H  -12.34900 22.22200 39.96700
H  -13.31200 22.12100 38.51100
H  -17.85700 20.49300 39.39900
H  -17.21900 19.88500 40.99800
H  -16.92800 19.02800 39.44000
H  -16.98500 15.25300 41.07800
H  -15.40700 14.31700 43.47800
H  -16.73000 17.19600 43.17900
H  -17.22200 15.67600 43.94700
H  -18.15200 16.47100 42.52900
H  -15.82600 12.19400 41.60500
H  -17.36600 13.02900 41.72400
H  -16.51600 12.65900 44.40600
H  -16.30000 11.07900 43.50300
H  -17.84400 11.90700 43.60000
H  -10.30800 10.36400 42.76400
H  -11.92700 10.25500 42.06500
H  -11.77000 10.84800 43.57600
H  -7.35200 13.58500 40.12900
H  -3.57500 14.01200 41.52100
H  -4.17000 14.99000 42.74600
H  -3.82200 15.80100 41.20400

