158

Mg -2.25900 17.36900 25.86400
C  -2.80200 15.17900 28.65000
C  -2.61100 20.00800 28.12800
C  -2.04700 19.41900 23.32700
C  -2.81400 14.61100 23.70600
N  -2.83500 17.53600 28.21300
C  -2.83300 16.50800 29.13500
C  -2.94500 17.03900 30.55200
C  -3.08000 18.61400 30.31100
C  -2.80200 18.76500 28.81800
C  -4.47100 19.11200 30.74000
C  -1.72600 16.54800 31.41300
C  -1.02500 17.37500 32.47000
H  -0.64500 16.58100 33.74800
N  -2.23500 19.40700 25.72800
C  -2.34500 20.33200 26.79200
C  -2.22400 21.70200 26.19400
C  -1.98300 21.60800 24.78400
C  -2.09800 20.05600 24.53800
C  -2.30700 22.94800 27.00800
C  -1.80600 22.62800 23.72700
O  -1.90100 22.39700 22.55500
C  -1.77200 24.03600 24.02200
N  -2.40500 17.08700 23.80400
C  -2.17100 18.11000 22.94000
C  -2.11500 17.65000 21.50300
C  -2.58200 16.14500 21.64700
C  -2.54500 15.87200 23.15000
C  -3.04200 18.47100 20.55700
C  -1.75300 15.10700 20.81000
C  -1.40100 15.45600 19.43700
N  -2.51600 15.26800 26.09800
C  -2.77400 14.32200 25.08600
C  -2.91100 12.98200 25.80900
C  -2.90700 13.30900 27.13400
C  -2.76900 14.70300 27.30800
C  -2.95800 11.67300 25.26100
C  -2.96100 12.75500 28.45500
O  -3.11600 11.57500 28.80100
C  -2.83900 13.92900 29.45500
C  -1.54300 13.71500 30.11700
O  -0.48400 14.15900 29.74100
O  -1.63100 12.97200 31.26300
C  -0.56100 12.73800 32.19700
H  -2.71300 20.88500 28.77000
H  -1.78100 20.13700 22.54900
H  -2.97100 13.70700 23.11400
H  -3.84800 16.56400 30.93700
H  -2.43000 19.28600 30.87100
H  -5.03500 18.33200 31.25000
H  -4.94800 19.29000 29.77600
H  -4.45700 20.00500 31.36500
H  -0.92000 16.42300 30.69000
H  -1.99600 15.58600 31.84700
H  -1.60200 18.26100 32.73400
H  -0.05300 17.79600 32.21000
H  -2.65300 22.72000 28.01700
H  -3.05300 23.64400 26.62400
H  -1.27700 23.30400 26.99200
H  -1.74100 24.72200 23.17600
H  -0.84800 24.14100 24.59000
H  -2.61300 24.29300 24.66600
H  -1.10100 17.63100 21.10300
H  -3.63700 15.98200 21.42300
H  -3.49500 19.38000 20.95400
H  -3.75100 17.81700 20.04800
H  -2.37700 18.84200 19.77700
H  -2.34100 14.19900 20.67700
H  -0.81300 14.86800 21.30800
H  -2.24400 15.95500 18.96000
H  -1.05300 14.64200 18.80100
H  -0.68100 16.27400 19.47500
H  -2.17500 11.08100 25.73300
H  -2.54800 11.65000 24.25100
H  -3.90500 11.13400 25.28700
H  -3.55900 13.89700 30.27300
H  -0.76000 13.16600 33.17900
H  0.39500 13.03200 31.76400
H  -0.58700 11.68000 32.45700
Mg 54.10500 24.16000 44.91500
C  51.66300 26.47300 44.16300
C  52.39800 21.74900 43.17500
C  56.94200 22.18800 44.93200
C  55.93200 26.70000 46.29100
N  52.35400 24.17100 43.65300
C  51.45200 25.20100 43.60300
C  50.19300 24.80700 42.76200
C  50.34300 23.27500 42.83900
C  51.84900 23.03500 43.13500
C  49.50000 22.54100 43.96900
C  50.24000 25.36200 41.27300
C  50.87000 24.64300 40.08000
H  50.98300 25.41300 38.78700
N  54.64400 22.23400 44.28100
C  53.76100 21.42400 43.61400
C  54.30200 20.09200 43.46700
C  55.71300 20.21600 43.88400
C  55.82700 21.58900 44.42000
C  53.64900 18.99100 42.57000
C  56.78100 19.03400 43.72900
O  56.46900 17.98100 43.14600
C  58.22200 19.19100 44.25100
N  56.16900 24.39400 45.48700
C  57.09900 23.45100 45.48900
C  58.27300 23.90600 46.33400
C  57.80200 25.23600 47.01200
C  56.54700 25.51100 46.20300
C  58.72000 22.87800 47.39000
C  58.95000 26.23600 46.93700
C  58.99600 27.11200 45.67700
N  53.81500 26.22700 45.19400
C  54.68700 27.11900 45.78100
C  54.02700 28.42300 45.84700
C  52.80600 28.23800 45.22200
C  52.78800 26.88600 44.82900
C  54.51000 29.65000 46.51400
C  51.50700 28.82300 44.94800
O  51.09400 29.96000 45.25500
C  50.78000 27.69800 44.12600
C  50.44400 28.23000 42.81100
O  51.26300 28.72300 42.06600
O  49.16800 28.18800 42.45900
C  48.75700 28.68900 41.14200
H  51.78000 20.91800 42.83000
H  57.88500 21.63900 44.97600
H  56.49100 27.52100 46.74600
H  49.29200 25.02200 43.33700
H  50.18200 22.76200 41.89000
H  48.89200 23.25100 44.52900
H  50.17500 22.16800 44.73900
H  48.87700 21.78100 43.49900
H  50.89800 26.18200 41.55700
H  49.30400 25.76300 40.88300
H  50.28600 23.74000 39.90700
H  51.83000 24.22500 40.38300
H  54.15500 18.04300 42.74900
H  53.51100 19.21900 41.51300
H  52.65700 18.85800 43.00200
H  58.96600 18.42300 44.04200
H  58.08000 19.44100 45.30300
H  58.52200 20.04500 43.64300
H  59.14700 24.13200 45.72300
H  57.60100 25.19500 48.08300
H  59.80100 23.01300 47.38700
H  58.34100 21.88200 47.16200
H  58.37400 23.13900 48.39000
H  59.85500 25.64100 47.06600
H  58.87800 26.86100 47.82700
H  58.57200 26.58100 44.82500
H  60.02900 27.39400 45.47600
H  58.47200 28.05500 45.84000
H  55.59900 29.67800 46.54000
H  54.26100 29.54300 47.57000
H  54.14800 30.61100 46.14800
H  49.87900 27.53000 44.71700
H  49.52200 28.58800 40.37300
H  48.50400 29.74300 41.26200
H  47.86100 28.15700 40.82100

