158

Mg 8.29500 4.40800 27.38200
C  9.61600 2.83700 30.29600
C  6.36300 6.24700 29.65000
C  6.97300 5.85100 24.76400
C  10.18000 2.21900 25.41900
N  7.93200 4.41200 29.74900
C  8.68300 3.80000 30.68000
C  8.29300 4.24500 32.11800
C  7.15600 5.24000 31.87400
C  7.09400 5.27100 30.33900
C  5.72600 5.06400 32.50900
C  9.55500 4.77000 32.85000
C  9.19500 5.30300 34.23200
H  9.60600 4.64000 35.48300
N  6.81500 5.78400 27.27700
C  6.22900 6.52300 28.24000
C  5.33000 7.51700 27.64700
C  5.43700 7.39500 26.23500
C  6.45100 6.35700 26.02300
C  4.57800 8.55800 28.42300
C  4.57700 7.99300 25.08000
O  4.62300 7.70500 23.90600
C  3.76400 9.10600 25.41300
N  8.47500 4.04800 25.40300
C  7.80600 4.82500 24.48400
C  8.10900 4.29100 23.03000
C  9.29300 3.35600 23.24900
C  9.33900 3.14400 24.76400
C  6.87600 3.56900 22.37800
C  10.68500 3.86000 22.76200
C  11.61200 2.84600 22.11900
N  9.56600 2.78100 27.70400
C  10.29900 2.03400 26.82800
C  11.17300 1.16900 27.53700
C  10.99100 1.40800 28.92600
C  9.98800 2.43900 28.95600
C  12.07800 0.13600 26.88500
C  11.40500 1.06600 30.27500
O  12.15100 0.21300 30.68300
C  10.53600 2.06300 31.20000
C  9.83100 1.07100 32.09100
O  9.11700 0.14300 31.74300
O  10.05500 1.45700 33.41700
C  9.35800 0.69900 34.46500
H  5.75000 6.94900 30.22000
H  6.62400 6.36600 23.86600
H  10.86600 1.70900 24.74000
H  7.90300 3.35800 32.61700
H  7.51600 6.25700 32.02400
H  5.02700 4.88000 31.69200
H  5.50900 5.97300 33.07000
H  5.66400 4.09800 33.01100
H  10.12200 5.44000 32.20300
H  10.21300 4.00700 33.26400
H  8.11000 5.26700 34.32800
H  9.52800 6.34100 34.25700
H  3.52500 8.34600 28.60900
H  4.67200 9.55000 27.98000
H  5.12700 8.89500 29.30200
H  3.17300 9.39800 24.54500
H  4.28000 9.99400 25.77800
H  2.99200 8.88100 26.14900
H  8.38300 5.14500 22.41100
H  9.12000 2.34900 22.87000
H  6.07200 3.73400 23.09600
H  7.14100 2.52600 22.20000
H  6.57000 3.90100 21.38600
H  11.32400 4.23900 23.55900
H  10.57700 4.75900 22.15500
H  11.83800 3.20100 21.11300
H  11.20800 1.83400 22.08000
H  12.61000 2.87100 22.55600
H  11.57900 -0.77000 26.54000
H  12.83800 -0.15900 27.60800
H  12.57300 0.53600 26.00000
H  11.11700 2.75700 31.80700
H  8.99800 -0.22900 34.02100
H  8.49700 1.16100 34.94800
H  10.17000 0.45600 35.15100
Mg 25.59900 1.64200 29.02200
C  27.74100 1.24000 31.89200
C  22.98500 2.08200 31.10300
C  23.64400 1.69000 26.31700
C  28.33100 0.65400 27.05500
N  25.39900 1.39900 31.22800
C  26.37700 1.54700 32.25300
C  25.78700 1.74200 33.61700
C  24.21100 1.80000 33.35000
C  24.15400 1.81100 31.82300
C  23.32900 0.60300 33.91100
C  26.28200 3.03900 34.25200
C  26.79100 2.87700 35.67100
H  26.31800 3.83500 36.75900
N  23.54200 1.78900 28.76700
C  22.64400 1.99800 29.76500
C  21.34900 2.26200 29.19000
C  21.49900 2.15500 27.70600
C  22.92500 1.84200 27.58100
C  20.18400 2.70700 30.13900
C  20.42200 2.27300 26.62100
O  20.66300 2.15200 25.43800
C  19.03600 2.60000 27.06700
N  25.88400 1.11800 27.02100
C  24.99900 1.34400 26.06100
C  25.64900 1.37300 24.64300
C  27.04400 0.84900 24.99400
C  27.12000 0.84800 26.44100
C  24.66800 0.72400 23.58900
C  28.11000 1.79400 24.30000
C  28.63100 3.05200 25.01400
N  27.68900 1.20100 29.33800
C  28.61300 0.77100 28.40600
C  29.89500 0.60800 29.06200
C  29.61100 0.75900 30.45200
C  28.26800 1.06800 30.56800
C  31.21700 0.43400 28.53900
C  30.09800 0.65300 31.80000
O  31.12800 0.32000 32.30300
C  28.91800 1.03200 32.79400
C  28.77200 -0.10300 33.82400
O  28.13500 -1.12100 33.72300
O  29.47700 0.27500 34.95900
C  29.42400 -0.77700 36.03100
H  22.16700 2.36300 31.76900
H  23.02200 1.95600 25.45900
H  29.16300 0.22900 26.48900
H  25.92100 0.86700 34.25400
H  23.75500 2.65600 33.84800
H  23.89100 -0.11400 34.51000
H  22.85200 0.01900 33.12400
H  22.66800 0.99400 34.68600
H  25.51500 3.81100 34.19600
H  27.18200 3.36300 33.72900
H  27.86900 3.04000 35.69500
H  26.62900 1.84500 35.98000
H  19.37700 3.28300 29.68700
H  20.42800 3.40500 30.94000
H  19.77300 1.89400 30.73700
H  18.84500 1.89400 27.87500
H  18.31300 2.60800 26.25100
H  19.13200 3.65500 27.32200
H  25.59100 2.44200 24.43700
H  27.16600 -0.17100 24.63000
H  24.26300 1.44200 22.87600
H  23.87700 0.24200 24.16300
H  25.21200 -0.03000 23.02000
H  27.61300 2.23700 23.43700
H  28.89700 1.08500 24.04100
H  29.67700 2.96800 25.31100
H  28.03400 3.24800 25.90400
H  28.44300 3.92000 24.38200
H  31.31700 0.55100 27.45900
H  31.61500 -0.50800 28.91600
H  31.82600 1.23300 28.96100
H  29.26900 1.94600 33.27200
H  30.44300 -0.85300 36.41200
H  28.95700 -1.73700 35.80800
H  28.96800 -0.31600 36.90600

