158

Mg -11.57300 38.69700 42.57300
C  -9.96700 35.79200 41.42000
C  -9.12300 40.51200 40.79700
C  -13.56200 41.38400 42.59600
C  -14.20300 36.67900 43.46900
N  -9.90300 38.18100 41.28300
C  -9.46600 36.95400 40.87800
C  -8.19500 37.02400 40.11600
C  -7.76200 38.51600 40.22200
C  -9.01200 39.16200 40.76400
C  -6.42400 38.75900 41.05400
C  -8.41600 36.54500 38.66900
C  -7.26700 35.45400 38.34500
H  -5.99300 35.95300 37.64500
N  -11.35200 40.65800 41.86200
C  -10.23500 41.21400 41.24300
C  -10.42100 42.67900 41.09300
C  -11.68300 42.99600 41.73800
C  -12.23400 41.68200 42.12800
C  -9.38700 43.47700 40.46700
C  -12.26000 44.45500 41.89400
O  -11.65100 45.38100 41.27600
C  -13.48200 44.80500 42.66300
N  -13.63000 39.03700 42.82000
C  -14.14600 40.25300 43.03200
C  -15.48300 40.18600 43.66500
C  -15.82600 38.71900 43.67900
C  -14.41900 38.08400 43.43600
C  -15.50500 40.80700 45.13600
C  -16.75000 38.29600 42.62200
C  -18.17800 38.23200 43.25000
N  -11.92900 36.67500 42.82800
C  -13.00000 36.01200 43.14000
C  -12.80400 34.57100 43.18600
C  -11.47300 34.42300 42.53600
C  -11.07500 35.71500 42.24600
C  -13.84900 33.61100 43.59700
C  -10.45200 33.50700 42.07500
O  -10.32700 32.28600 42.15000
C  -9.52700 34.30800 41.30400
C  -8.28800 34.21200 42.14900
O  -8.20400 34.63100 43.29900
O  -7.32800 33.51800 41.44200
C  -5.95800 33.45500 41.95200
H  -8.27700 41.04400 40.35600
H  -14.12300 42.31800 42.65900
H  -15.03200 36.03100 43.76200
H  -7.55100 36.38900 40.72400
H  -7.57000 38.92400 39.23000
H  -5.86400 37.82900 41.15700
H  -6.55700 39.23000 42.02700
H  -5.80000 39.37900 40.41000
H  -8.37300 37.42300 38.02400
H  -9.39400 36.07900 38.55200
H  -7.87100 34.92300 37.60900
H  -7.02700 34.69400 39.08800
H  -8.39800 43.12800 40.76300
H  -9.41500 44.48600 40.87800
H  -9.44600 43.54100 39.38000
H  -14.31000 44.36000 42.11200
H  -13.64600 45.88300 42.66200
H  -13.37200 44.39700 43.66800
H  -16.12300 40.71900 42.96100
H  -16.15100 38.33000 44.64400
H  -14.53000 41.04700 45.56100
H  -16.05600 40.16800 45.82700
H  -16.06100 41.74000 45.23200
H  -16.55600 37.40900 42.01900
H  -16.75600 39.13400 41.92500
H  -18.57500 37.23900 43.04100
H  -18.64600 39.06000 42.71700
H  -18.29500 38.50300 44.30000
H  -14.46700 33.95900 44.42500
H  -13.36100 32.70700 43.96200
H  -14.45700 33.42300 42.71300
H  -9.43400 33.99500 40.26400
H  -5.30600 33.07000 41.16700
H  -5.93300 32.71400 42.75000
H  -5.56800 34.41500 42.29200
Mg -1.85200 34.77900 25.39400
C  -3.64500 33.34400 28.06500
C  -0.46300 36.81600 27.72200
C  -0.53900 36.59400 22.82900
C  -3.67400 32.84900 23.11900
N  -2.19400 35.15500 27.70300
C  -2.79800 34.32200 28.57400
C  -2.48500 34.56400 30.06700
C  -1.54800 35.82700 29.88400
C  -1.40600 35.98700 28.38000
C  -1.95600 37.15600 30.51100
C  -1.85900 33.34700 30.77700
C  -2.60200 32.76200 32.06800
H  -1.66900 32.61200 33.26900
N  -0.62300 36.38300 25.26400
C  -0.14100 37.07200 26.33600
C  0.84400 38.02300 25.85300
C  0.97100 37.91000 24.47000
C  -0.10900 36.95000 24.17200
C  1.64100 38.97000 26.80800
C  1.85300 38.66900 23.44500
O  1.61400 38.58000 22.22900
C  2.91500 39.69400 23.97500
N  -2.12200 34.75100 23.26200
C  -1.45500 35.55900 22.44100
C  -1.62700 35.13800 20.98200
C  -2.34700 33.71000 21.16700
C  -2.75300 33.75200 22.59000
C  -2.25400 36.17200 20.02600
C  -1.45900 32.35700 20.91500
C  -0.19800 32.26500 21.65400
N  -3.36400 33.45200 25.50300
C  -3.97200 32.67200 24.50600
C  -4.91800 31.81500 25.04300
C  -4.77200 31.97700 26.47800
C  -3.89200 33.03900 26.67400
C  -5.70000 30.66500 24.39900
C  -5.21800 31.51800 27.78900
O  -6.01000 30.66100 28.15500
C  -4.47700 32.35100 28.85600
C  -5.41300 33.03600 29.79700
O  -5.85800 34.15800 29.76500
O  -5.58500 32.14200 30.83600
C  -6.33300 32.70900 32.03700
H  0.27500 37.25600 28.39500
H  -0.13100 37.19300 22.01200
H  -4.20200 32.10100 22.52400
H  -3.41000 34.86900 30.55600
H  -0.62400 35.55900 30.39600
H  -2.27800 37.90400 29.78700
H  -1.15300 37.56300 31.12500
H  -2.77000 36.87300 31.17800
H  -0.85300 33.50300 31.16500
H  -1.80000 32.59000 29.99500
H  -3.20700 31.87300 31.88900
H  -3.30100 33.49100 32.47900
H  1.34900 39.99900 26.59800
H  2.70300 38.88600 26.57700
H  1.62300 38.83100 27.88900
H  3.26200 40.39000 23.21100
H  3.74100 39.20400 24.49100
H  2.32900 40.34600 24.62400
H  -0.64000 34.89500 20.58800
H  -3.30000 33.74900 20.64000
H  -3.13000 35.74900 19.53500
H  -1.57100 36.48600 19.23700
H  -2.66900 37.03000 20.55500
H  -1.19800 32.42300 19.85900
H  -2.12800 31.50900 21.06300
H  0.58400 32.25300 20.89500
H  -0.33200 31.36800 22.25800
H  -0.05300 33.11600 22.32000
H  -6.62400 31.00300 23.93000
H  -5.95600 29.91400 25.14600
H  -5.05000 30.20400 23.65400
H  -3.86800 31.61700 29.38300
H  -7.22200 33.32500 31.90400
H  -5.58900 33.30400 32.56900
H  -6.54700 31.85700 32.68200

