158

Mg 29.39900 58.78400 41.17200
C  26.45200 57.13900 40.30100
C  31.22700 56.23700 39.87700
C  32.05400 60.95000 40.90600
C  27.45600 61.65900 41.98100
N  28.84300 57.01600 40.15500
C  27.57700 56.43600 39.99300
C  27.69300 55.15300 39.20500
C  29.18900 54.73200 39.47300
C  29.83200 56.08700 39.87000
C  29.33800 53.54100 40.49800
C  27.32300 55.38000 37.66900
C  26.35700 54.42600 36.94900
H  25.62700 55.01100 35.69900
N  31.40400 58.52200 40.75200
C  31.96500 57.35100 40.26500
C  33.38800 57.60800 40.21200
C  33.66300 58.94300 40.53300
C  32.36200 59.54400 40.75500
C  34.39900 56.51000 39.68900
C  35.08000 59.50800 40.72500
O  36.00800 58.75200 40.66200
C  35.26200 60.86100 41.27300
N  29.72900 61.07000 41.52500
C  30.96300 61.58200 41.41700
C  30.98100 63.07900 41.73700
C  29.45200 63.35700 42.02400
C  28.80600 61.99100 41.93800
C  31.94400 63.40200 42.98000
C  28.77300 64.33800 41.05600
C  27.99700 65.48800 41.83600
N  27.38900 59.29900 41.22900
C  26.73200 60.48500 41.59800
C  25.25900 60.25600 41.47100
C  25.08200 59.00900 40.99800
C  26.44600 58.45000 40.86100
C  24.24700 61.35900 41.79000
C  24.12400 57.98700 40.58100
O  22.91500 58.01000 40.62700
C  24.97000 56.85300 40.13400
C  24.57900 55.67600 41.09200
O  24.51300 55.77400 42.33200
O  24.16300 54.52700 40.37800
C  23.86000 53.32800 41.11800
H  31.62700 55.28900 39.51200
H  32.88700 61.56400 40.55800
H  26.90100 62.53300 42.32700
H  26.96800 54.40100 39.51600
H  29.58700 54.38100 38.52000
H  29.57400 53.86200 41.51300
H  30.15700 52.88800 40.19600
H  28.41300 52.96500 40.50700
H  28.22900 55.35700 37.06300
H  26.98600 56.40500 37.51000
H  25.58300 54.11400 37.65100
H  26.88900 53.51700 36.67100
H  35.00400 56.97800 38.91200
H  33.89300 55.62600 39.30100
H  35.08700 56.09600 40.42700
H  35.16400 61.59800 40.47600
H  36.29900 60.92500 41.60500
H  34.59900 61.04200 42.12000
H  31.20200 63.59500 40.80300
H  29.38200 63.79000 43.02200
H  31.38300 63.91900 43.75900
H  32.72400 64.09000 42.65300
H  32.41200 62.49800 43.36900
H  28.10800 63.83100 40.35700
H  29.45900 64.76200 40.32300
H  26.91900 65.47300 41.67700
H  28.27900 66.50300 41.55400
H  28.26600 65.51000 42.89200
H  24.53100 62.27400 41.27100
H  24.45400 61.49400 42.85100
H  23.22000 61.04800 41.59500
H  24.70500 56.58100 39.11300
H  23.27300 52.76500 40.39300
H  23.36400 53.54500 42.06400
H  24.69200 52.64900 41.30300
Mg -5.82700 24.51200 27.30000
C  -3.98300 26.30900 29.66400
C  -6.85500 22.39800 29.84700
C  -7.59100 22.77500 25.05300
C  -4.66600 26.58300 24.80200
N  -5.38200 24.35500 29.48600
C  -4.71600 25.26000 30.21300
C  -5.03000 25.15400 31.69200
C  -5.71200 23.73300 31.83900
C  -6.03700 23.48000 30.30000
C  -4.86800 22.62000 32.47800
C  -5.99600 26.31600 32.11800
C  -5.54000 26.92800 33.48200
H  -6.23100 26.29900 34.78000
N  -6.98600 22.82300 27.44200
C  -7.29400 22.09600 28.56200
C  -8.18600 21.02700 28.20600
C  -8.44600 21.08000 26.83900
C  -7.70300 22.28200 26.42500
C  -8.73400 20.04100 29.24500
C  -9.34400 20.21400 25.95600
O  -9.50200 20.44500 24.76000
C  -10.01900 19.08400 26.62400
N  -6.00700 24.61400 25.20800
C  -6.91500 23.87800 24.56200
C  -6.79800 24.22800 23.05600
C  -5.87600 25.45600 23.00800
C  -5.60200 25.63900 24.48000
C  -6.28900 23.16800 22.00900
C  -6.55400 26.74200 22.34000
C  -5.75600 27.38200 21.16300
N  -4.45300 26.05100 27.23800
C  -4.11600 26.78100 26.12000
C  -3.23800 27.85900 26.59800
C  -3.09000 27.70400 27.90700
C  -3.87100 26.60300 28.29400
C  -2.61200 28.88500 25.70400
C  -2.47500 28.18000 29.14400
O  -1.76700 29.13600 29.19800
C  -3.12400 27.32900 30.36300
C  -1.87600 26.88400 31.11400
O  -1.03900 26.08700 30.70700
O  -1.89300 27.54200 32.34900
C  -0.87400 27.00000 33.28900
H  -7.23300 21.86500 30.72200
H  -8.11200 22.24900 24.25000
H  -4.33000 27.35400 24.10500
H  -4.01300 25.10900 32.08000
H  -6.64500 23.75100 32.40300
H  -5.61700 22.11600 33.09000
H  -4.10400 22.98700 33.16300
H  -4.44600 21.86800 31.81200
H  -6.97900 25.85700 32.22500
H  -6.18100 27.04900 31.33300
H  -5.76200 27.99200 33.39900
H  -4.48400 26.84000 33.73600
H  -9.82200 19.99500 29.19700
H  -8.38600 20.19100 30.26700
H  -8.33700 19.05500 29.00200
H  -10.47700 18.46600 25.85200
H  -10.76600 19.49200 27.30500
H  -9.34000 18.44900 27.19300
H  -7.82700 24.50200 22.82300
H  -4.92500 25.32200 22.49200
H  -7.03500 22.70800 21.36100
H  -5.77100 22.29600 22.40800
H  -5.53600 23.66500 21.39600
H  -6.69400 27.47900 23.13100
H  -7.61600 26.63100 22.12000
H  -5.05100 26.65600 20.75700
H  -5.33300 28.34700 21.44300
H  -6.40800 27.64900 20.33100
H  -1.92600 28.41800 24.99700
H  -1.91500 29.37300 26.38500
H  -3.43000 29.49600 25.32100
H  -3.67100 28.01500 31.01000
H  0.09800 26.63000 32.96100
H  -1.31100 26.01700 33.47000
H  -0.83100 27.37100 34.31200

