158

Mg 0.85400 42.72800 26.42400
C  1.98900 43.42500 29.65000
C  -2.13500 41.52000 27.81400
C  -0.12300 41.99100 23.32200
C  3.88700 43.63500 25.16300
N  -0.04000 42.63000 28.59600
C  0.61800 43.04400 29.69500
C  -0.32300 42.91500 30.92100
C  -1.52500 42.17000 30.35500
C  -1.15700 41.97000 28.81700
C  -2.01100 40.76900 31.05100
C  -0.69900 44.24300 31.77900
C  0.01100 44.39700 33.07600
H  -0.61200 43.73500 34.46100
N  -0.82900 41.92600 25.71700
C  -1.96200 41.53800 26.41300
C  -2.93900 41.05800 25.52300
C  -2.39400 41.25400 24.21100
C  -1.06800 41.82700 24.37000
C  -4.41300 40.55900 25.93400
C  -3.05600 40.85800 22.88100
O  -2.75400 41.18600 21.79100
C  -4.33400 39.95500 22.89900
N  1.84600 42.59600 24.51500
C  1.16700 42.39900 23.36200
C  1.96700 42.64100 22.11500
C  3.16800 43.37800 22.76900
C  2.94300 43.20700 24.21900
C  2.37600 41.31300 21.35000
C  3.24600 44.83400 22.22700
C  3.26100 45.07200 20.72900
N  2.63100 43.28700 27.21800
C  3.79300 43.57300 26.55000
C  4.79600 43.99700 27.52300
C  4.08400 43.95000 28.73600
C  2.77500 43.48400 28.49800
C  6.15700 44.51900 27.32600
C  4.29100 44.17900 30.16000
O  5.26000 44.56800 30.82900
C  2.93800 43.75300 30.84900
C  3.08500 42.57000 31.79300
O  3.15500 41.43000 31.34800
O  3.26400 43.00500 33.04500
C  3.57300 41.93000 34.02200
H  -3.06900 41.06900 28.15800
H  -0.55900 41.91300 22.32400
H  4.72500 44.24400 24.81700
H  0.00200 42.22500 31.70100
H  -2.45600 42.70400 30.54600
H  -2.02600 39.93700 30.34600
H  -3.00800 40.88600 31.47600
H  -1.41100 40.44500 31.90200
H  -1.78000 44.31500 31.90500
H  -0.43100 45.13200 31.20800
H  -0.00100 45.47800 33.21600
H  1.06500 44.13200 32.99400
H  -5.18500 40.94600 25.26800
H  -4.74400 40.90700 26.91300
H  -4.45100 39.47000 25.94800
H  -5.23600 40.39100 23.32900
H  -4.01400 38.96900 23.23700
H  -4.51100 39.72800 21.84800
H  1.37400 43.30100 21.48300
H  4.14200 42.97100 22.49600
H  1.99000 40.46100 21.90900
H  3.41700 41.13500 21.08000
H  1.82600 41.29300 20.40900
H  4.16600 45.29000 22.59200
H  2.47700 45.47900 22.65300
H  4.08000 45.78300 20.62400
H  2.41800 45.64900 20.35000
H  3.64600 44.22600 20.16000
H  6.41700 45.24900 28.09200
H  6.11200 45.02900 26.36400
H  6.92300 43.74600 27.26100
H  2.43300 44.50300 31.45700
H  3.21000 40.97400 33.64700
H  3.05800 42.03300 34.97800
H  4.65400 41.89800 34.15400
Mg -11.84200 16.66800 43.58200
C  -9.12300 14.71200 42.66600
C  -10.37200 19.36100 41.89500
C  -14.86200 18.07400 43.29500
C  -13.40700 13.62700 44.56300
N  -10.00500 16.94700 42.28500
C  -9.04600 16.03300 42.16400
C  -7.79400 16.64800 41.56600
C  -8.06900 18.20800 41.66600
C  -9.55900 18.24400 42.04500
C  -7.20400 18.98100 42.69800
C  -7.54400 16.14300 40.06900
C  -6.29600 15.34600 39.74100
H  -5.29500 16.08000 38.85300
N  -12.47600 18.60500 42.90900
C  -11.76400 19.50400 42.17700
C  -12.62800 20.53500 41.71700
C  -13.95400 20.22000 42.08200
C  -13.84500 18.92500 42.80200
C  -12.09500 21.74000 41.04900
C  -15.21300 21.08700 41.76900
O  -15.14200 22.15000 41.18500
C  -16.58900 20.62700 42.23100
N  -13.79700 15.99300 43.87100
C  -14.91500 16.73800 43.66600
C  -16.19600 16.08000 44.09300
C  -15.64900 14.83400 44.85500
C  -14.17700 14.79600 44.43500
C  -17.18200 16.85300 44.95800
C  -16.39000 13.48700 44.72800
C  -16.42800 12.70200 46.07300
N  -11.37200 14.58200 43.75400
C  -12.06100 13.49300 44.25100
C  -11.19100 12.34400 44.45600
C  -9.98800 12.79200 43.82700
C  -10.23500 14.11700 43.35800
C  -11.52100 11.04300 44.97800
C  -8.58700 12.40300 43.52100
O  -7.90000 11.47500 43.91600
C  -8.01400 13.58100 42.69000
C  -6.75200 14.03800 43.36600
O  -6.72200 14.68700 44.38900
O  -5.65900 13.59800 42.64500
C  -4.33300 13.98500 43.25000
H  -9.85500 20.21600 41.45400
H  -15.87200 18.48900 43.30600
H  -13.82700 12.73700 45.03600
H  -6.95700 16.32300 42.18400
H  -8.04900 18.58900 40.64500
H  -6.74400 19.77100 42.10500
H  -6.56400 18.31500 43.27600
H  -7.74500 19.53700 43.46300
H  -7.56200 16.95600 39.34400
H  -8.32000 15.41500 39.83400
H  -6.57500 14.42500 39.22900
H  -5.74100 15.02800 40.62400
H  -12.44000 21.72400 40.01500
H  -11.00800 21.73600 40.97000
H  -12.27900 22.55400 41.75100
H  -16.81400 20.64200 43.29800
H  -16.62900 19.66700 41.71600
H  -17.25000 21.28900 41.67300
H  -16.68800 15.67100 43.21000
H  -15.56900 15.01200 45.92800
H  -18.14500 16.97400 44.46200
H  -16.82700 17.88200 45.01300
H  -17.26500 16.37900 45.93500
H  -15.93200 12.75700 44.06200
H  -17.39600 13.72300 44.38300
H  -16.20300 11.64200 45.96400
H  -17.35500 12.87400 46.62100
H  -15.67500 13.09700 46.75600
H  -10.69400 10.59400 45.52800
H  -11.72700 10.44000 44.09300
H  -12.46200 11.01600 45.52800
H  -7.77300 13.42700 41.63800
H  -4.04200 14.96500 42.87100
H  -3.58000 13.27700 42.90500
H  -4.23600 13.92800 44.33400

