158

Mg 25.33100 1.60100 30.10100
C  27.52500 1.28600 32.99100
C  22.87900 2.34000 32.42500
C  23.08100 1.34300 27.68200
C  27.81700 0.61800 28.09100
N  25.23300 1.58100 32.48400
C  26.25200 1.70500 33.30400
C  25.83500 2.16900 34.69500
C  24.35200 2.37000 34.56500
C  24.07800 2.01500 33.05800
C  23.48400 1.45300 35.42500
C  26.67500 3.43600 35.07100
C  27.40200 3.23500 36.44800
H  26.82600 4.03000 37.62500
N  23.28600 1.84400 30.00500
C  22.49600 2.25300 31.01600
C  21.11600 2.35200 30.52400
C  21.13600 1.99200 29.16300
C  22.50100 1.71900 28.88400
C  19.96200 2.70800 31.43300
C  19.94200 1.97200 28.13500
O  20.07000 1.44100 27.01300
C  18.63900 2.42200 28.57600
N  25.40700 1.02400 28.12400
C  24.35500 1.07500 27.29200
C  24.79200 0.86200 25.87300
C  26.39300 0.86200 25.93900
C  26.60400 0.87300 27.51100
C  24.18100 -0.32400 25.10900
C  27.06000 2.09100 25.24300
C  27.38800 3.34700 26.06600
N  27.30800 1.06300 30.34200
C  28.22200 0.67400 29.48200
C  29.54100 0.51000 30.08400
C  29.24800 0.75300 31.49500
C  27.87100 1.01800 31.58200
C  30.79300 0.24200 29.28400
C  29.89000 0.84100 32.81300
O  31.07600 0.69000 33.13900
C  28.74200 1.11900 33.85300
C  28.66100 -0.04000 34.75800
O  28.47800 -1.18900 34.49900
O  28.92900 0.37800 36.01600
C  29.13100 -0.64700 37.08300
H  22.13500 2.67900 33.14800
H  22.44000 1.23000 26.80500
H  28.70900 0.42100 27.49400
H  26.13900 1.29000 35.26300
H  24.07000 3.41100 34.72600
H  22.94900 2.14400 36.07700
H  24.13300 0.83000 36.04100
H  22.87100 0.72300 34.89700
H  26.06300 4.29000 35.36000
H  27.31700 3.61800 34.20800
H  28.38300 3.66100 36.24100
H  27.51200 2.20500 36.78600
H  20.24800 3.17800 32.37400
H  19.43200 1.76600 31.57100
H  19.31900 3.35500 30.83700
H  17.86200 2.07400 27.89400
H  18.61800 3.48500 28.81600
H  18.47900 1.86900 29.50200
H  24.43200 1.78300 25.41300
H  26.82000 -0.05800 25.54100
H  23.39500 -0.68800 25.77000
H  24.91800 -1.11600 24.97800
H  23.75300 0.02700 24.16900
H  26.46200 2.49700 24.42700
H  27.98100 1.71700 24.79700
H  27.52400 3.15900 27.13100
H  26.54900 4.03800 25.98600
H  28.26800 3.81500 25.62500
H  31.70400 0.44500 29.84600
H  30.84200 0.84000 28.37300
H  30.81700 -0.81600 29.02200
H  29.05400 1.97500 34.45100
H  28.74500 -0.37300 38.06400
H  30.20900 -0.67800 37.24000
H  28.67500 -1.61500 36.87500
Mg 48.86400 35.98800 28.63500
C  46.69500 34.39900 30.91000
C  49.09100 38.68900 30.61400
C  50.54900 37.48000 26.18500
C  48.29900 33.33700 26.42900
N  47.97100 36.50900 30.60300
C  47.25300 35.63200 31.39900
C  47.09800 36.28600 32.78900
C  47.60200 37.77000 32.60400
C  48.24000 37.71400 31.18800
C  46.50200 38.80500 32.74800
C  47.68500 35.49500 33.93500
C  49.02600 34.81400 33.64100
H  50.31000 35.64900 33.74600
N  49.78300 37.78200 28.47300
C  49.75400 38.79900 29.38000
C  50.60800 39.87500 28.94500
C  51.16500 39.49300 27.73500
C  50.53500 38.16300 27.40000
C  50.80200 41.09500 29.80400
C  52.09700 40.27000 26.79200
O  52.48200 39.78800 25.75700
C  52.54600 41.62700 27.21300
N  49.38500 35.45200 26.55400
C  50.07500 36.22600 25.79200
C  50.37400 35.66400 24.39000
C  49.79300 34.18700 24.53500
C  49.14700 34.30700 25.97700
C  49.64600 36.43300 23.19900
C  50.71200 32.89400 24.49400
C  50.06200 31.59000 23.90300
N  47.81500 34.20600 28.69200
C  47.66800 33.25600 27.71000
C  46.88900 32.14900 28.24500
C  46.43800 32.58200 29.44800
C  46.98100 33.86000 29.66900
C  46.51700 30.78000 27.55600
C  45.64600 32.20600 30.51600
O  44.97200 31.16600 30.78200
C  45.63200 33.42700 31.44900
C  45.95300 32.93400 32.77800
O  46.90900 32.18400 33.10200
O  44.97600 33.23700 33.56100
C  44.85300 32.63400 34.90200
H  49.18700 39.53300 31.30100
H  50.96000 38.08300 25.37300
H  47.98400 32.51900 25.77800
H  46.04000 36.36300 33.03800
H  48.45800 37.91600 33.26300
H  46.69000 39.27600 33.71200
H  45.50100 38.38600 32.85900
H  46.46600 39.59100 31.99400
H  46.95900 34.87400 34.46000
H  47.99000 36.23400 34.67600
H  48.98400 34.52300 32.59100
H  49.16800 33.87800 34.18000
H  51.80800 41.31400 30.16000
H  50.22300 41.17500 30.72400
H  50.50800 41.93300 29.17200
H  51.71800 42.33100 27.30400
H  53.27900 42.03700 26.51800
H  52.94800 41.51500 28.21900
H  51.44700 35.70800 24.20600
H  48.98200 34.01900 23.82600
H  50.26700 36.71100 22.34700
H  49.01700 37.22200 23.61300
H  48.98500 35.71500 22.71300
H  50.97900 32.70000 25.53300
H  51.57500 33.13900 23.87500
H  50.53000 30.82100 24.51800
H  50.44400 31.52300 22.88400
H  48.97700 31.65700 23.98800
H  45.43500 30.66000 27.60800
H  46.87300 29.96100 28.18000
H  46.89000 30.65600 26.53900
H  44.66100 33.92200 31.46000
H  43.87200 32.15900 34.86700
H  45.00900 33.43500 35.62400
H  45.59100 31.85200 35.07900

