158

Mg 49.53300 46.16800 42.88400
C  45.97200 46.46900 41.89700
C  49.23300 42.87400 42.01000
C  52.80500 45.96100 43.08000
C  49.63400 49.64100 43.03000
N  47.81500 44.87800 42.00700
C  46.47200 45.21500 41.54800
C  45.70300 43.95500 41.08000
C  46.64000 42.77600 41.48300
C  47.96400 43.59800 41.87000
C  46.15600 42.00000 42.75600
C  45.23700 43.84000 39.57500
C  46.31400 44.38800 38.52800
H  46.69800 43.54100 37.30000
N  50.87900 44.63300 42.55100
C  50.53600 43.30400 42.28000
C  51.77800 42.50500 42.34500
C  52.87900 43.38600 42.53700
C  52.23000 44.76800 42.76700
C  51.76600 41.02700 42.10300
C  54.28400 42.97000 42.36900
O  54.54100 41.84100 41.93100
C  55.40900 43.93200 42.52500
N  50.97100 47.59900 42.87500
C  52.28200 47.28300 43.15100
C  53.09900 48.51100 43.56800
C  52.03800 49.65200 43.35900
C  50.79300 48.92500 42.95300
C  53.53700 48.32200 45.09300
C  52.31900 50.76700 42.28200
C  52.11400 52.21100 42.82400
N  48.06700 47.80500 42.73900
C  48.34100 49.13500 42.76900
C  46.99400 49.82400 42.67600
C  46.12900 48.86300 42.23500
C  46.79000 47.55100 42.34200
C  46.73900 51.28500 42.79500
C  44.75600 48.60900 41.81100
O  43.84600 49.34600 41.69000
C  44.64800 47.06700 41.44000
C  43.41300 46.44200 42.01900
O  42.42200 46.05100 41.40400
O  43.50600 46.52500 43.40000
C  42.25100 46.08800 44.11500
H  49.10000 41.83000 41.72000
H  53.86700 45.88900 43.32600
H  49.72800 50.71800 43.18700
H  44.82100 43.98200 41.72000
H  46.75100 42.20300 40.56200
H  46.88200 42.04900 43.56700
H  46.22800 40.92700 42.57500
H  45.22400 42.40700 43.14900
H  44.39900 44.49600 39.33700
H  44.88200 42.82600 39.39300
H  47.29300 44.59900 38.95900
H  45.91900 45.32000 38.12300
H  52.48300 40.48100 42.71700
H  52.15400 40.86500 41.09700
H  50.81900 40.49000 42.15400
H  55.34500 44.71100 41.76500
H  56.35000 43.39200 42.42000
H  55.40900 44.40000 43.50900
H  53.95200 48.59000 42.89400
H  51.97300 50.24900 44.26800
H  54.05500 47.40000 45.35800
H  52.62100 48.26500 45.68100
H  54.13700 49.17500 45.41000
H  51.64100 50.72500 41.42900
H  53.34300 50.73200 41.91100
H  52.07100 52.23800 43.91300
H  51.19900 52.69600 42.48400
H  53.01100 52.76600 42.54700
H  46.81200 51.57800 41.74800
H  47.46700 51.68300 43.50200
H  45.75000 51.52700 43.18200
H  44.60100 46.96900 40.35500
H  41.83500 45.25600 43.54900
H  41.66000 47.00300 44.08400
H  42.35200 45.84700 45.17300
Mg 43.70000 42.32600 26.29100
C  43.16200 44.85900 28.80400
C  44.83200 40.24400 28.74700
C  44.34300 40.14600 23.90400
C  42.38700 44.63200 23.93300
N  44.08800 42.58100 28.48700
C  43.72800 43.63400 29.33300
C  43.85000 43.17500 30.77700
C  44.73000 41.85100 30.68900
C  44.46100 41.50900 29.21100
C  46.26400 42.23000 30.81200
C  42.38100 43.05100 31.45400
C  42.13200 43.83900 32.70700
H  42.94500 43.47100 33.98300
N  44.37500 40.34900 26.32300
C  44.80800 39.69800 27.37200
C  45.14500 38.33200 27.01500
C  45.00400 38.24100 25.55200
C  44.55000 39.63500 25.17200
C  45.54300 37.31400 28.13600
C  45.28800 37.16500 24.56800
O  45.38700 37.34500 23.36200
C  45.48100 35.80000 25.12900
N  43.51800 42.45000 24.27300
C  43.91100 41.42300 23.45600
C  43.77000 41.73800 21.94800
C  42.87000 43.01300 22.01400
C  42.89400 43.41400 23.52700
C  45.04100 41.90100 21.13300
C  41.35100 42.78400 21.51100
C  40.60900 41.52800 22.07200
N  43.07900 44.35900 26.28900
C  42.56400 45.16900 25.27000
C  42.19800 46.39400 25.82900
C  42.34000 46.28200 27.23600
C  42.87800 45.07100 27.45100
C  41.62000 47.54800 25.06200
C  42.07700 47.04900 28.40500
O  41.40400 48.02400 28.63200
C  42.58900 46.07100 29.52400
C  43.51200 46.72000 30.55800
O  44.73200 46.69400 30.58300
O  42.79100 47.28100 31.52300
C  43.57800 48.09600 32.52800
H  45.06200 39.59600 29.59500
H  44.42100 39.46500 23.05300
H  42.02900 45.36400 23.20600
H  44.39800 43.93700 31.33200
H  44.45600 41.11500 31.44400
H  46.36200 43.29800 30.61700
H  46.98300 41.69000 30.19600
H  46.53000 42.03500 31.85100
H  42.26400 41.98700 31.66300
H  41.55200 43.26200 30.77900
H  41.05200 43.75700 32.83300
H  42.28800 44.90500 32.53900
H  45.17400 37.52300 29.14000
H  46.62600 37.19100 28.12700
H  45.25600 36.28200 27.93700
H  44.54500 35.68200 25.67400
H  46.20000 36.04000 25.91200
H  45.85300 35.06000 24.42000
H  43.28600 40.91500 21.42200
H  43.27900 43.79000 21.36800
H  45.79900 41.23700 21.54900
H  45.25100 42.97000 21.16000
H  44.89600 41.50800 20.12600
H  41.25200 42.87500 20.42900
H  40.81400 43.61500 21.96900
H  40.40500 40.85600 21.23900
H  39.63100 41.70000 22.52100
H  41.32600 40.95200 22.65800
H  40.60000 47.37000 24.72100
H  42.14800 47.57200 24.10900
H  41.64700 48.46600 25.64900
H  41.73500 45.75700 30.12500
H  43.97400 47.45600 33.31700
H  42.93700 48.87100 32.94900
H  44.39100 48.57300 31.98000

