158

Mg 50.20700 45.10100 43.47600
C  46.76900 45.23500 42.42500
C  50.18700 41.77800 42.89900
C  53.61600 45.27100 43.56200
C  50.10900 48.58300 43.53400
N  48.71000 43.70200 42.46900
C  47.29700 43.92700 42.38100
C  46.58200 42.58400 42.17500
C  47.60600 41.47300 42.68100
C  48.92900 42.34800 42.75500
C  47.44500 40.95700 44.14700
C  46.14300 42.31400 40.69000
C  46.73300 43.34100 39.63300
H  46.74800 42.81000 38.22000
N  51.71600 43.65700 43.29000
C  51.46800 42.33100 43.03800
C  52.71500 41.68700 43.08700
C  53.76600 42.67100 43.25300
C  53.10200 43.97400 43.37400
C  52.87700 40.18800 42.95400
C  55.32400 42.44300 43.21500
O  55.73900 41.30500 43.11100
C  56.36500 43.46700 43.15900
N  51.67600 46.67500 43.55200
C  52.99800 46.52500 43.68300
C  53.77800 47.86200 43.77700
C  52.59400 48.89800 43.70800
C  51.42900 47.99400 43.56600
C  54.59600 47.95700 45.04500
C  52.67100 49.90400 42.47900
C  52.39700 51.40200 42.90700
N  48.72600 46.61500 43.25900
C  48.90900 47.97000 43.22500
C  47.72600 48.63200 42.90000
C  46.81000 47.65300 42.61800
C  47.51500 46.44400 42.73200
C  47.47800 50.14500 42.86300
C  45.50500 47.30600 42.27800
O  44.56600 48.01800 42.01300
C  45.34500 45.74400 42.12100
C  44.38500 45.25800 43.13100
O  44.62200 45.16100 44.32500
O  43.17400 44.88100 42.56000
C  42.14500 44.57600 43.51900
H  50.20500 40.68900 42.97500
H  54.69400 45.38100 43.69700
H  49.98700 49.66600 43.60800
H  45.72200 42.75400 42.82300
H  47.64600 40.69700 41.91600
H  46.42400 41.10400 44.49900
H  48.00100 41.61400 44.81600
H  47.78000 39.92500 44.25300
H  45.06200 42.43200 40.61400
H  46.37400 41.28900 40.39800
H  47.75900 43.61100 39.88400
H  46.05100 44.19000 39.58500
H  53.89700 39.90900 42.68900
H  52.13500 39.83500 42.23700
H  52.60500 39.67700 43.87700
H  56.27400 43.97800 44.11700
H  56.14900 44.22700 42.40800
H  57.35700 43.10300 42.89200
H  54.47500 48.03300 42.95700
H  52.52000 49.43000 44.65700
H  55.62600 47.84000 44.70900
H  54.48400 47.16800 45.78800
H  54.44500 48.94600 45.47900
H  51.81300 49.66600 41.85000
H  53.63600 49.73000 42.00400
H  51.66900 51.79200 42.19500
H  53.37800 51.81500 42.67100
H  52.17500 51.66300 43.94100
H  47.70700 50.70700 43.76800
H  46.50300 50.46800 42.50000
H  48.11000 50.70300 42.17200
H  44.79900 45.50200 41.21000
H  42.46800 43.90400 44.31400
H  41.28400 44.20100 42.96500
H  41.87300 45.53900 43.95100
Mg 29.07700 57.86500 40.54700
C  26.39400 55.98300 39.59500
C  31.16200 55.75800 38.81200
C  31.45500 60.25300 40.60700
C  26.76300 60.33100 41.79700
N  28.75400 56.30900 39.06600
C  27.56700 55.56000 38.97200
C  27.72500 54.48100 37.91000
C  29.26300 54.20700 38.01800
C  29.83600 55.44100 38.71000
C  29.77300 52.88400 38.74600
C  27.14100 54.84300 36.59400
C  27.76800 56.06000 35.87200
H  27.88900 56.00600 34.33900
N  31.04900 57.90400 39.95200
C  31.72700 56.94800 39.31600
C  33.13300 57.18100 39.31600
C  33.25900 58.46600 39.94400
C  31.89200 58.97900 40.17500
C  34.21200 56.25900 38.78100
C  34.53900 59.11500 40.21100
O  35.56500 58.72500 39.78200
C  34.58200 60.24500 41.13900
N  29.08500 60.02000 41.07400
C  30.18200 60.76300 40.95400
C  30.02500 62.15200 41.53800
C  28.55000 62.10500 42.13700
C  28.07900 60.71800 41.68000
C  31.09600 62.53900 42.66200
C  27.67400 63.38900 41.81000
C  26.73200 63.78300 42.92100
N  27.00800 58.04100 40.83200
C  26.20300 59.08700 41.34200
C  24.88400 58.57900 41.39800
C  24.87500 57.41700 40.68100
C  26.19900 57.15100 40.33400
C  23.71900 59.21900 42.13400
C  24.08300 56.23500 40.21900
O  22.90900 55.97000 40.44000
C  25.09100 55.32300 39.34500
C  25.16100 54.00800 39.99700
O  25.45400 53.84600 41.19500
O  24.80800 53.06300 39.11400
C  24.70400 51.66700 39.61200
H  31.78900 54.93900 38.45300
H  32.32000 60.90700 40.73400
H  26.10000 61.13200 42.12900
H  27.19400 53.63400 38.34500
H  29.59300 54.16800 36.97900
H  30.42400 53.10400 39.59200
H  30.28400 52.22900 38.04000
H  28.99300 52.24100 39.15200
H  26.06900 54.99200 36.71600
H  27.28600 53.89500 36.07700
H  28.78700 56.15900 36.24600
H  27.26100 56.93400 36.27900
H  33.90500 55.21400 38.71900
H  35.12700 56.25900 39.37300
H  34.40900 56.63800 37.77800
H  34.48600 61.17100 40.57100
H  35.61600 60.17100 41.47600
H  33.91500 60.14800 41.99500
H  30.09000 62.79500 40.66000
H  28.65400 61.98800 43.21500
H  30.52700 62.63300 43.58700
H  31.63800 63.46200 42.45600
H  31.81000 61.71800 42.73000
H  27.10700 63.10600 40.92300
H  28.39100 64.16200 41.53400
H  26.88000 64.80400 43.27500
H  26.86300 63.19400 43.82900
H  25.68200 63.77500 42.62900
H  23.03400 58.40800 42.38400
H  23.25700 59.88000 41.40200
H  24.17400 59.75600 42.96600
H  24.73100 55.30400 38.31700
H  25.68200 51.26500 39.87300
H  24.32200 50.91900 38.91800
H  24.21500 51.65800 40.58700

