158

Mg -1.93400 17.19900 26.24300
C  -2.14200 14.92500 28.97000
C  -2.47600 19.84700 28.54600
C  -2.37800 19.23900 23.66500
C  -2.44500 14.44000 24.20600
N  -2.04400 17.36700 28.50200
C  -2.07000 16.32000 29.39100
C  -2.41200 16.88100 30.84100
C  -2.49000 18.44800 30.66500
C  -2.35800 18.58700 29.11600
C  -3.84700 19.09800 31.13000
C  -1.37900 16.38800 31.91500
C  -1.08900 17.32800 33.08600
H  -0.41100 16.75000 34.21300
N  -2.27400 19.17700 26.13300
C  -2.44500 20.12700 27.15500
C  -2.55800 21.40500 26.60400
C  -2.40000 21.31400 25.16600
C  -2.35500 19.85300 24.92800
C  -2.88300 22.61300 27.44600
C  -2.61400 22.32200 24.09200
O  -2.62100 22.12900 22.88700
C  -2.82500 23.68700 24.49200
N  -2.46300 16.86400 24.17200
C  -2.46700 17.87000 23.30200
C  -2.63400 17.44700 21.83600
C  -2.63500 15.89200 22.04300
C  -2.51400 15.69200 23.60300
C  -3.96800 18.00400 21.29800
C  -1.56900 15.18400 21.29900
C  -1.78300 15.21900 19.76200
N  -2.31300 15.14500 26.45800
C  -2.32500 14.15200 25.55700
C  -2.40000 12.84500 26.11700
C  -2.29200 13.10800 27.52700
C  -2.27700 14.50200 27.64900
C  -2.69300 11.54400 25.41100
C  -2.27800 12.48600 28.80800
O  -2.20800 11.28100 29.05900
C  -2.26300 13.69100 29.83100
C  -1.20900 13.30800 30.78300
O  -0.02500 13.45600 30.58600
O  -1.83900 12.78100 31.91900
C  -0.92100 12.35700 32.96900
H  -2.65800 20.60800 29.30800
H  -2.48400 19.85300 22.76800
H  -2.52700 13.66200 23.44400
H  -3.35700 16.36000 30.99600
H  -1.72200 18.96000 31.24500
H  -4.46500 19.37600 30.27600
H  -3.58100 20.01800 31.65000
H  -4.33600 18.38000 31.78900
H  -0.54400 16.14100 31.26100
H  -1.78100 15.46700 32.33900
H  -1.95100 17.94700 33.33400
H  -0.37400 18.10200 32.80900
H  -3.92400 22.88600 27.27300
H  -2.32600 23.50400 27.15600
H  -2.81100 22.48400 28.52600
H  -2.96500 24.36600 23.65100
H  -1.90100 24.00500 24.97300
H  -3.68300 23.76500 25.16000
H  -1.82600 17.81600 21.20500
H  -3.64700 15.52400 21.87100
H  -4.17400 18.91700 21.85800
H  -4.69900 17.19800 21.25000
H  -3.69500 18.37800 20.31200
H  -1.31900 14.14900 21.53100
H  -0.67100 15.78500 21.43600
H  -1.17900 16.04200 19.37800
H  -2.83200 15.45400 19.58100
H  -1.45800 14.33500 19.21400
H  -2.09200 11.41700 24.51100
H  -3.74400 11.64600 25.13900
H  -2.48200 10.66200 26.01500
H  -3.25100 13.76900 30.28600
H  -0.26000 13.19000 33.20800
H  -0.36100 11.49900 32.59600
H  -1.52400 12.27400 33.87300
Mg 6.50100 54.22500 41.17700
C  5.94700 50.81800 41.21400
C  9.88000 53.59600 40.30300
C  7.02800 57.53700 40.76500
C  3.19700 54.70400 41.92700
N  7.66800 52.34600 40.65800
C  7.29900 51.08500 40.83200
C  8.47300 50.08700 40.47200
C  9.73300 51.00100 40.59500
C  9.06100 52.45600 40.55600
C  10.52800 50.79900 41.93400
C  8.32500 49.43800 39.03200
C  8.54700 50.08700 37.68500
H  7.58900 49.73700 36.49200
N  8.19400 55.43700 40.57100
C  9.47800 55.01300 40.28500
C  10.34900 56.08700 40.10300
C  9.56400 57.28600 40.19800
C  8.17300 56.83200 40.46800
C  11.88200 55.90700 40.06300
C  10.12500 58.73300 40.09900
O  11.32100 58.94800 39.84400
C  9.22200 59.86900 40.42300
N  5.21300 55.84600 41.14000
C  5.69700 57.18000 41.04900
C  4.57000 58.17400 41.33900
C  3.40300 57.22800 41.83400
C  3.94000 55.81000 41.56200
C  4.83400 59.26300 42.41100
C  2.09500 57.52900 41.18000
C  0.82200 57.59300 42.11400
N  4.83400 53.03800 41.52600
C  3.63600 53.36300 42.01700
C  2.81400 52.19200 42.33200
C  3.73700 51.13800 42.01800
C  4.92500 51.73800 41.52000
C  1.50200 52.12200 42.95600
C  3.91200 49.71700 42.04100
O  3.14600 48.89600 42.43700
C  5.32200 49.43100 41.41700
C  5.05300 48.79200 40.10300
O  4.52700 49.35200 39.15900
O  5.31600 47.44000 40.18800
C  4.78000 46.62900 39.09100
H  10.93100 53.29900 40.27900
H  7.17900 58.59900 40.96800
H  2.15400 54.89200 42.19100
H  8.41500 49.27100 41.19300
H  10.44500 51.01900 39.76900
H  10.34000 51.73900 42.45300
H  11.60100 50.65800 41.80700
H  10.17700 49.87700 42.39700
H  7.29200 49.09400 39.01200
H  8.98300 48.56900 39.05400
H  9.49200 49.70500 37.29800
H  8.75800 51.13000 37.92300
H  12.33600 56.18800 41.01300
H  12.47200 56.40100 39.29100
H  12.22800 54.87600 39.98800
H  8.30400 59.91700 39.83900
H  9.75700 60.79800 40.22500
H  9.04400 59.97300 41.49400
H  4.31500 58.65600 40.39500
H  3.48700 57.26200 42.92000
H  5.67900 59.04100 43.06300
H  3.91800 59.45800 42.97000
H  5.04000 60.18700 41.86900
H  1.90600 56.72000 40.47500
H  2.21000 58.47100 40.64500
H  0.93300 56.95400 42.99000
H  -0.04900 57.29800 41.52900
H  0.71500 58.63900 42.40500
H  1.03700 51.14100 43.05000
H  0.68200 52.63000 42.44700
H  1.64200 52.58400 43.93300
H  5.83700 48.72100 42.06400
H  3.82500 46.14700 39.30100
H  5.42600 45.79900 38.80400
H  4.70800 47.24100 38.19200

