158

Mg 24.11600 -6.82400 46.22700
C  26.60800 -4.72900 45.10900
C  21.91800 -5.13700 43.90800
C  21.98800 -9.40800 46.23400
C  26.61200 -8.72100 47.84900
N  24.26500 -5.22800 44.69300
C  25.43300 -4.53800 44.44100
C  25.20600 -3.28700 43.54800
C  23.61300 -3.28800 43.42700
C  23.19800 -4.58700 44.07400
C  22.88100 -2.06400 44.11600
C  26.00800 -3.52700 42.16000
C  27.08800 -2.46900 41.80700
H  27.00700 -1.74800 40.50200
N  22.20300 -7.20600 45.18100
C  21.49500 -6.33100 44.40000
C  20.14700 -6.82100 44.13600
C  20.18100 -8.16100 44.69800
C  21.53100 -8.31800 45.41000
C  19.01900 -6.01500 43.41800
C  19.08500 -9.22400 44.44800
O  18.05400 -8.89900 43.86900
C  19.19300 -10.60000 44.99700
N  24.39300 -8.94600 46.66400
C  23.26500 -9.66600 46.76400
C  23.51900 -10.88700 47.64400
C  25.00800 -10.82000 48.04300
C  25.45900 -9.43300 47.46200
C  22.47700 -10.92900 48.80700
C  25.90900 -11.95500 47.49200
C  26.20500 -13.15300 48.35600
N  26.11600 -6.62100 46.64100
C  27.03100 -7.49600 47.29800
C  28.33500 -6.77600 47.26100
C  28.17700 -5.68200 46.43400
C  26.83100 -5.63500 46.07400
C  29.57200 -7.16400 48.03200
C  28.86600 -4.58500 45.85900
O  30.04700 -4.33600 45.96100
C  27.83700 -3.88800 44.96500
C  27.73000 -2.45800 45.43000
O  26.86600 -1.94500 46.15000
O  28.85300 -1.73000 45.00800
C  29.03600 -0.35400 45.35500
H  21.15500 -4.58100 43.36000
H  21.32900 -10.24800 46.46100
H  27.27500 -9.39100 48.40000
H  25.44100 -2.30300 43.95600
H  23.39700 -3.24700 42.35900
H  22.32400 -1.47300 43.38800
H  23.63100 -1.45500 44.62100
H  22.15800 -2.39900 44.86000
H  25.29300 -3.66300 41.34900
H  26.53500 -4.48100 42.16400
H  28.12600 -2.80200 41.81000
H  26.97300 -1.67100 42.54100
H  18.04500 -6.37500 43.75000
H  19.20000 -6.11200 42.34800
H  19.13800 -4.96100 43.66700
H  20.19200 -10.94700 44.73300
H  18.51400 -11.31500 44.53200
H  19.02000 -10.76000 46.06100
H  23.42200 -11.73000 46.96000
H  25.07500 -10.86900 49.13000
H  22.92900 -10.66900 49.76400
H  22.11600 -11.95300 48.71200
H  21.69700 -10.17600 48.69000
H  26.86400 -11.48700 47.25500
H  25.37700 -12.27800 46.59700
H  26.06300 -14.05500 47.76100
H  25.61000 -13.19600 49.26800
H  27.22500 -13.14500 48.73800
H  29.27300 -7.85300 48.82100
H  30.06100 -6.27800 48.43700
H  30.29800 -7.59600 47.34300
H  28.21700 -3.84800 43.94400
H  30.11000 -0.18800 45.26400
H  28.81800 -0.21200 46.41300
H  28.39600 0.31000 44.77400
Mg 40.86700 41.22700 27.20500
C  40.24100 43.55600 29.80200
C  41.39000 38.92500 29.67900
C  42.17300 39.21000 24.92900
C  40.68300 43.81000 24.92100
N  40.79000 41.29800 29.44700
C  40.33400 42.25000 30.26500
C  40.26000 41.84600 31.76000
C  40.69200 40.35800 31.67500
C  41.01300 40.16000 30.17900
C  41.98900 39.93700 32.53500
C  38.91100 42.18500 32.50200
C  38.40900 41.21000 33.52400
H  37.87500 41.86000 34.68900
N  41.61400 39.30400 27.29400
C  41.68800 38.48000 28.35900
C  42.33000 37.21800 28.04900
C  42.63300 37.32300 26.69700
C  42.19700 38.68000 26.25500
C  42.59100 36.07600 29.03900
C  43.25200 36.22400 25.78500
O  43.66800 36.35000 24.62900
C  43.39500 34.90800 26.32800
N  41.43500 41.48900 25.19500
C  41.86800 40.46100 24.38800
C  42.01100 40.92000 22.89500
C  41.39100 42.37700 22.98900
C  41.14900 42.57900 24.44300
C  43.36900 40.88000 22.30400
C  40.17700 42.53700 22.10300
C  38.84600 41.83400 22.63700
N  40.40900 43.22400 27.26900
C  40.47100 44.17200 26.28700
C  40.15700 45.46200 26.82800
C  40.06600 45.28600 28.23300
C  40.23000 43.89400 28.40600
C  40.02000 46.75300 26.08900
C  39.80900 45.86100 29.45700
O  39.60300 47.01100 29.81700
C  39.90300 44.77300 30.58800
C  41.01400 45.14000 31.48800
O  42.19500 45.32100 31.25500
O  40.50500 45.27300 32.76400
C  41.42700 45.69500 33.82100
H  41.53200 38.20400 30.48700
H  42.67300 38.50900 24.25700
H  40.73200 44.50300 24.07800
H  41.09500 42.29600 32.29800
H  39.86400 39.69200 31.91700
H  41.68900 39.02200 33.04600
H  42.26900 40.70700 33.25500
H  42.85800 39.75900 31.90200
H  38.07300 42.24800 31.80900
H  39.02600 43.16900 32.95600
H  39.25600 40.62000 33.87300
H  37.71500 40.51100 33.05700
H  42.54000 36.39800 30.08000
H  43.50600 35.49400 28.92700
H  41.88000 35.26500 28.88200
H  42.52700 34.54900 26.88100
H  44.18000 35.06100 27.06900
H  43.61600 34.11200 25.61700
H  41.40400 40.30600 22.23000
H  42.18100 43.06700 22.69400
H  43.39200 41.75900 21.66100
H  43.37800 40.02000 21.63300
H  44.15800 40.83400 23.05500
H  40.40700 41.94900 21.21500
H  40.01000 43.59000 21.87900
H  38.57800 41.09700 21.88000
H  38.05900 42.53000 22.92500
H  39.05300 41.32500 23.57800
H  39.70900 46.55900 25.06300
H  41.01700 47.19300 26.10800
H  39.35400 47.51800 26.48900
H  39.00600 44.70200 31.20400
H  41.98200 46.57300 33.49000
H  42.20100 44.93000 33.88800
H  40.96800 45.92900 34.78100

