158

Mg -8.86600 18.51800 42.39900
C  -5.34000 18.23500 42.10800
C  -8.43600 21.92800 41.76900
C  -12.00900 18.68300 42.02200
C  -8.94600 14.92700 42.25000
N  -7.04800 19.89900 42.03200
C  -5.76400 19.54800 41.95800
C  -4.87200 20.77300 41.73600
C  -5.81200 21.99200 41.81100
C  -7.15600 21.26300 41.96500
C  -5.54000 23.06300 42.94300
C  -4.09400 20.76800 40.39800
C  -4.87800 20.56800 39.09400
H  -4.26000 19.81200 37.92800
N  -10.05700 20.12600 42.12500
C  -9.76100 21.39500 41.78400
C  -10.99000 22.17000 41.41700
C  -12.02800 21.23600 41.62700
C  -11.39100 19.91400 41.91800
C  -10.96800 23.63000 41.06200
C  -13.42100 21.60500 41.44700
O  -13.73700 22.76600 41.25700
C  -14.66500 20.70000 41.44500
N  -10.19600 16.89600 41.85600
C  -11.52700 17.34400 42.01700
C  -12.55700 16.12700 41.83000
C  -11.52200 14.92200 41.76500
C  -10.13700 15.62600 41.88300
C  -13.68300 16.06700 43.02600
C  -11.56300 14.02400 40.50200
C  -11.86400 12.49500 40.76800
N  -7.49000 16.83100 42.29700
C  -7.66800 15.48500 42.36600
C  -6.33500 14.84800 42.51200
C  -5.35400 15.87900 42.29600
C  -6.17500 17.07000 42.23900
C  -6.09900 13.38800 42.70500
C  -3.95600 16.17900 42.23800
O  -2.93900 15.48500 42.32000
C  -3.88000 17.69300 42.07000
C  -3.14100 18.28900 43.28300
O  -2.12300 18.97900 43.22500
O  -3.74800 18.12300 44.51000
C  -3.16800 18.76600 45.68500
H  -8.32000 22.99300 41.55400
H  -13.08700 18.81500 41.91000
H  -9.05700 13.84300 42.31200
H  -4.18400 20.70200 42.57900
H  -5.77000 22.52400 40.86000
H  -6.45200 23.26700 43.50400
H  -5.10700 23.95300 42.48700
H  -4.75000 22.77800 43.63800
H  -3.28800 20.04600 40.53600
H  -3.56600 21.70300 40.21300
H  -4.97200 21.59600 38.74300
H  -5.88800 20.19300 39.26100
H  -10.94900 23.80400 39.98600
H  -10.00600 24.06900 41.32900
H  -11.80100 24.16000 41.52300
H  -14.63900 20.13100 42.37400
H  -14.76400 20.04000 40.58300
H  -15.47600 21.41700 41.31200
H  -12.97000 16.36200 40.84900
H  -11.55300 14.30800 42.66500
H  -13.40300 16.65300 43.90100
H  -13.77400 15.00000 43.23000
H  -14.66600 16.29000 42.61000
H  -10.65600 14.02600 39.89900
H  -12.23800 14.54300 39.82100
H  -12.17100 12.32100 41.79900
H  -10.97200 11.91300 40.53700
H  -12.59700 12.05100 40.09400
H  -6.99400 12.82600 42.43500
H  -5.89900 13.35700 43.77600
H  -5.16900 13.10800 42.21200
H  -3.39100 18.01900 41.15200
H  -3.77600 19.50200 46.21100
H  -2.18800 19.23500 45.58500
H  -3.21600 17.87800 46.31500
Mg -4.75900 24.58800 26.47400
C  -2.82500 26.35400 28.70700
C  -5.79600 22.62200 29.09500
C  -6.17400 22.54000 24.11600
C  -3.11600 26.34800 23.94100
N  -4.43200 24.57700 28.64700
C  -3.56700 25.40800 29.33800
C  -3.81300 25.23200 30.78000
C  -4.40600 23.79400 30.98900
C  -4.94600 23.63100 29.50900
C  -3.35600 22.68100 31.35700
C  -4.64800 26.38600 31.40500
C  -4.34200 26.77300 32.86500
H  -5.34000 26.41200 33.91300
N  -5.72700 22.78500 26.61700
C  -6.05300 22.19100 27.75800
C  -6.79300 21.01500 27.35400
C  -7.08500 20.97800 25.95900
C  -6.34000 22.21400 25.51700
C  -7.17900 19.98700 28.45900
C  -7.88800 20.06100 25.13100
O  -8.17200 20.36900 23.97300
C  -8.40200 18.76100 25.78200
N  -4.71800 24.49400 24.36900
C  -5.37400 23.56800 23.60200
C  -5.23500 23.86900 22.05700
C  -4.27100 25.10900 22.06400
C  -3.93800 25.27200 23.57600
C  -4.77300 22.67900 21.23900
C  -4.88000 26.40100 21.43200
C  -4.09900 27.11200 20.35000
N  -3.44800 26.10900 26.32000
C  -2.85100 26.70900 25.19500
C  -1.91900 27.76300 25.59100
C  -1.87000 27.65600 26.96600
C  -2.79800 26.60600 27.32900
C  -1.11300 28.67900 24.61800
C  -1.25500 28.15400 28.20300
O  -0.41300 29.05000 28.34100
C  -1.85300 27.34100 29.37600
C  -0.74000 26.64100 30.17900
O  0.02900 25.86200 29.66200
O  -0.75000 27.05900 31.46300
C  0.27200 26.36400 32.28900
H  -6.14100 22.08100 29.97900
H  -6.82000 22.13600 23.33300
H  -2.75000 26.89900 23.07200
H  -2.81100 25.19700 31.20600
H  -5.29400 23.84300 31.61900
H  -3.38100 21.75500 30.78400
H  -3.24000 22.56300 32.43400
H  -2.37500 23.08000 31.09700
H  -5.67400 26.02300 31.34600
H  -4.64800 27.29000 30.79600
H  -4.28300 27.85300 32.73700
H  -3.31300 26.41600 32.92600
H  -7.34100 20.33400 29.48000
H  -6.41000 19.23400 28.28400
H  -8.17700 19.60500 28.24400
H  -8.75600 18.02600 25.06000
H  -9.16100 19.04800 26.50900
H  -7.58300 18.25600 26.29600
H  -6.25000 24.10500 21.73700
H  -3.31100 24.76900 21.67700
H  -4.36900 21.79100 21.72300
H  -4.08200 22.93300 20.43400
H  -5.66900 22.45600 20.65900
H  -5.05700 27.06600 22.27600
H  -5.88900 26.12000 21.13200
H  -3.10000 26.71400 20.17000
H  -3.90200 28.14700 20.63000
H  -4.64800 27.07300 19.41000
H  -0.63300 29.52900 25.10400
H  -1.88700 29.11100 23.98500
H  -0.36900 27.97700 24.24200
H  -2.39200 28.00700 30.04900
H  1.16000 26.97800 32.14100
H  0.35600 25.30900 32.02600
H  0.00800 26.53800 33.33200

