158

Mg 41.61200 8.47600 29.79900
C  43.54600 9.47600 32.50400
C  39.24500 7.34800 32.12800
C  39.90300 7.17500 27.25000
C  44.26700 9.18200 27.66600
N  41.55000 8.29500 32.04300
C  42.36600 8.90600 32.95000
C  41.86000 8.86500 34.38800
C  40.51500 8.01100 34.22100
C  40.40200 7.84100 32.69900
C  40.61500 6.65500 34.99100
C  41.57000 10.34100 34.87600
C  40.67700 10.49700 36.10700
H  41.19000 11.30200 37.27400
N  39.82000 7.41100 29.69700
C  38.95300 7.09300 30.76600
C  37.77100 6.48500 30.21000
C  37.84200 6.61300 28.74000
C  39.23900 7.05700 28.51300
C  36.55200 5.85100 31.07200
C  36.71200 6.42400 27.73000
O  36.98900 6.41100 26.46400
C  35.31500 6.27500 28.23100
N  42.06500 8.04400 27.75300
C  41.12900 7.57200 26.92300
C  41.51800 7.64400 25.48400
C  42.95600 8.35000 25.55100
C  43.11600 8.60800 27.07100
C  41.59900 6.20500 24.78900
C  42.98700 9.65700 24.73400
C  42.19400 10.92500 25.16000
N  43.53500 9.16800 29.99000
C  44.45500 9.50400 29.03000
C  45.63500 10.01300 29.65300
C  45.30000 10.11000 30.99800
C  44.02500 9.54600 31.12900
C  46.88700 10.34800 29.04200
C  45.78500 10.49500 32.30900
O  46.85900 11.00600 32.62300
C  44.59400 10.21400 33.31200
C  45.15200 9.41100 34.40700
O  45.79500 8.35300 34.26300
O  45.06100 10.05400 35.61200
C  45.67800 9.42000 36.75400
H  38.47900 7.14300 32.87800
H  39.34600 7.01800 26.32400
H  45.13500 9.44800 27.05900
H  42.58500 8.35300 35.02100
H  39.68700 8.61600 34.59200
H  40.72000 5.80100 34.32100
H  39.78700 6.51900 35.68600
H  41.46800 6.54600 35.66100
H  41.37900 10.92500 33.97500
H  42.48800 10.67700 35.35600
H  40.47700 9.49100 36.47400
H  39.76000 11.00200 35.80400
H  36.78900 5.94000 32.13200
H  36.30400 4.82000 30.81900
H  35.65500 6.42500 30.84100
H  34.67800 6.13900 27.35700
H  34.91700 7.06600 28.86700
H  35.41400 5.35200 28.80200
H  40.88500 8.31900 24.90800
H  43.76800 7.72300 25.18300
H  41.47100 5.33900 25.43900
H  42.47300 6.05400 24.15600
H  40.81100 6.21900 24.03600
H  42.55000 9.53200 23.74300
H  44.01400 9.89100 24.45400
H  41.40400 11.17700 24.45300
H  42.88200 11.76900 25.14900
H  41.74100 10.80500 26.14500
H  46.75800 10.97200 28.15800
H  47.44000 9.48800 28.66300
H  47.44500 10.88800 29.80700
H  44.25400 11.16100 33.73000
H  46.41900 10.09900 37.17700
H  46.31700 8.56900 36.51900
H  44.91400 9.12200 37.47100
Mg 29.88600 57.95300 38.81400
C  27.31800 55.65000 37.85400
C  32.11000 55.57800 38.30900
C  32.30800 60.34200 38.93300
C  27.41500 60.57700 38.29900
N  29.67700 55.87500 38.20200
C  28.59100 55.08000 37.95800
C  28.97500 53.62100 37.85500
C  30.45700 53.58100 38.27100
C  30.79900 55.12700 38.22100
C  30.92600 52.97300 39.61500
C  28.61800 52.99900 36.42700
C  29.07000 53.79300 35.25800
H  28.05000 54.13500 34.14400
N  31.97100 57.92900 38.86700
C  32.67900 56.83500 38.59400
C  34.11300 57.12100 38.61500
C  34.23900 58.53600 38.83000
C  32.81700 59.02400 38.92200
C  35.13000 56.12400 38.46600
C  35.57500 59.31300 38.83800
O  36.68000 58.79000 38.73200
C  35.59400 60.77000 39.02700
N  29.93600 60.14700 38.48700
C  31.01700 60.85200 38.71200
C  30.80000 62.35100 38.66000
C  29.25400 62.44900 38.45800
C  28.83000 60.93700 38.47000
C  31.21800 63.21000 39.99000
C  28.69600 63.12000 37.14500
C  27.62200 64.19400 37.39200
N  27.75200 58.13800 38.29100
C  26.89200 59.20900 38.15900
C  25.56700 58.72200 37.78300
C  25.72900 57.36900 37.65100
C  27.04100 57.02900 38.04000
C  24.34900 59.52700 37.53800
C  24.95600 56.16000 37.41300
O  23.79700 55.96800 37.07800
C  25.99500 55.02500 37.60500
C  25.58400 54.08700 38.64400
O  25.59900 54.36700 39.82200
O  25.15000 52.88200 38.16800
C  25.02000 51.84300 39.16900
H  32.78500 54.77100 38.01600
H  33.11300 61.08000 38.95100
H  26.66500 61.36600 38.21400
H  28.32100 53.13400 38.57900
H  31.03500 53.14300 37.45700
H  31.47700 52.03700 39.52400
H  30.04600 52.73500 40.21200
H  31.56500 53.65500 40.17600
H  27.53700 52.85800 36.40700
H  29.15100 52.05000 36.37000
H  29.88600 53.25000 34.78000
H  29.58300 54.74500 35.39600
H  35.47900 55.98900 37.44200
H  34.73100 55.13100 38.67600
H  36.01100 56.30500 39.08200
H  35.08800 61.03100 39.95700
H  35.02100 61.36300 38.31500
H  36.62400 61.10000 39.16200
H  31.37600 62.59100 37.76600
H  28.80000 62.86800 39.35600
H  32.00500 62.66800 40.51500
H  30.34800 63.26900 40.64400
H  31.68400 64.14600 39.68200
H  28.34800 62.48700 36.32800
H  29.54100 63.67700 36.74300
H  26.64400 63.79300 37.12500
H  27.84300 65.13100 36.88000
H  27.55800 64.43700 38.45200
H  23.59500 59.26100 38.27900
H  24.03400 59.32500 36.51400
H  24.48500 60.60600 37.61000
H  26.15600 54.49600 36.66600
H  24.27800 52.13300 39.91300
H  25.95900 51.69300 39.70200
H  24.72600 50.90900 38.69000

