158

Mg -2.30200 17.74000 27.74000
C  -2.40400 15.73700 30.56100
C  -2.93100 20.48600 29.73700
C  -2.25400 19.49300 24.98100
C  -2.48300 14.74000 25.77500
N  -2.67200 18.04000 29.94200
C  -2.48700 17.09700 30.95900
C  -2.68500 17.76700 32.36200
C  -3.05000 19.23300 32.02000
C  -2.86700 19.28800 30.48600
C  -4.33900 19.87200 32.54900
C  -1.73000 17.39100 33.47600
C  -1.55500 18.36300 34.68600
H  -1.18700 17.74600 36.06000
N  -2.32500 19.69400 27.39000
C  -2.58100 20.67300 28.33900
C  -2.51600 21.91900 27.67800
C  -2.30500 21.73500 26.28400
C  -2.31700 20.25100 26.16700
C  -2.83100 23.25700 28.37900
C  -2.10800 22.69200 25.14400
O  -1.88000 22.26300 23.97100
C  -2.06400 24.12500 25.40500
N  -2.30200 17.17100 25.66000
C  -2.26100 18.09700 24.70500
C  -2.39800 17.49900 23.30700
C  -2.22100 15.99600 23.67100
C  -2.44500 15.94600 25.13600
C  -3.70600 17.75200 22.56500
C  -0.88800 15.38900 23.10900
C  0.39400 15.92600 23.85900
N  -2.40900 15.65000 28.01000
C  -2.47300 14.58300 27.15700
C  -2.55400 13.36700 27.83300
C  -2.50000 13.73100 29.17600
C  -2.41700 15.18000 29.26100
C  -2.83100 12.03700 27.30100
C  -2.45300 13.27000 30.58900
O  -2.43900 12.13900 31.02900
C  -2.33500 14.57700 31.51100
C  -1.04000 14.51900 32.30000
O  -0.02700 15.07900 31.94000
O  -1.23500 14.00800 33.54300
C  -0.06900 14.00300 34.38800
H  -3.20800 21.36700 30.32000
H  -2.04400 20.06200 24.07300
H  -2.51100 13.83100 25.17000
H  -3.65800 17.33600 32.60000
H  -2.23700 19.85100 32.40100
H  -5.11700 20.07100 31.81200
H  -4.03300 20.86200 32.88800
H  -4.67800 19.11300 33.25400
H  -0.80600 17.54900 32.92000
H  -1.85600 16.35100 33.78000
H  -2.44600 18.99100 34.68900
H  -0.73700 19.04700 34.46100
H  -1.87400 23.60500 28.76900
H  -3.46600 23.11600 29.25400
H  -3.31400 23.95200 27.69200
H  -3.07100 24.51300 25.56500
H  -1.64000 24.60500 24.52400
H  -1.38400 24.36500 26.22200
H  -1.58600 17.83600 22.66200
H  -3.03700 15.36300 23.32200
H  -3.49800 18.57500 21.88100
H  -4.53100 18.11500 23.17900
H  -4.05900 16.89900 21.98500
H  -0.73800 15.73400 22.08600
H  -0.94500 14.30200 23.16000
H  1.07400 15.07400 23.86700
H  0.22600 16.21500 24.89600
H  0.78900 16.71200 23.21500
H  -3.59400 12.10100 26.52500
H  -3.27200 11.44500 28.10200
H  -1.96000 11.62600 26.78900
H  -3.20100 14.63600 32.16900
H  0.44500 14.95600 34.51100
H  0.68800 13.32900 33.98800
H  -0.48900 13.46300 35.23600
Mg 41.44400 8.79900 30.11200
C  43.30900 10.13800 32.76800
C  39.11300 7.65400 32.49000
C  39.51000 7.67100 27.57600
C  43.96900 9.62600 27.89700
N  41.24700 8.74900 32.34400
C  42.12100 9.43700 33.22800
C  41.68600 9.29800 34.69700
C  40.42800 8.46800 34.57000
C  40.25200 8.24300 33.06100
C  40.39800 7.09900 35.45800
C  41.46800 10.71700 35.33500
C  40.39600 10.90500 36.36500
H  40.77400 11.99800 37.32800
N  39.50800 8.05600 30.00300
C  38.69300 7.54100 31.07000
C  37.48600 6.99200 30.59500
C  37.56700 7.15000 29.14400
C  38.88700 7.59800 28.82300
C  36.38000 6.28700 31.42500
C  36.49900 6.88100 28.09500
O  36.63000 6.94300 26.87800
C  35.11300 6.63200 28.54900
N  41.72500 8.53000 27.95600
C  40.83100 7.93000 27.13500
C  41.43500 7.91200 25.70900
C  42.69900 8.82100 25.76900
C  42.86400 8.90800 27.30700
C  41.65600 6.45000 25.23700
C  42.54700 10.20500 25.07000
C  41.27400 10.94800 25.39300
N  43.26400 9.58800 30.22700
C  44.23600 9.87300 29.27200
C  45.19500 10.77300 29.81700
C  44.89700 10.86500 31.14400
C  43.73300 10.14600 31.40000
C  46.38500 11.32000 29.01200
C  45.28500 11.60800 32.37200
O  46.15800 12.42200 32.52100
C  44.38100 11.06700 33.46800
C  45.17300 10.39000 34.47500
O  45.80100 9.37100 34.41500
O  45.11600 11.10500 35.61500
C  46.02400 10.80400 36.65900
H  38.24800 7.43900 33.12100
H  38.91100 7.27000 26.75600
H  44.71400 9.95700 27.17100
H  42.49700 8.87800 35.29200
H  39.57900 9.05300 34.92400
H  39.96400 7.37000 36.42000
H  41.39500 6.72700 35.69200
H  39.89800 6.29900 34.91300
H  41.31100 11.42500 34.52200
H  42.41300 10.95100 35.82500
H  40.18300 9.95100 36.84700
H  39.50200 11.24200 35.84000
H  36.75700 6.08700 32.42800
H  36.21600 5.30200 30.98800
H  35.42100 6.80300 31.47600
H  35.06500 5.63800 28.99200
H  34.29000 6.78500 27.85100
H  34.86600 7.40800 29.27400
H  40.72400 8.29200 24.97500
H  43.57400 8.37100 25.29900
H  40.86800 5.83100 25.66600
H  42.60500 6.02300 25.56200
H  41.50600 6.41000 24.15800
H  42.78100 10.17500 24.00500
H  43.33100 10.87500 25.42100
H  40.77100 10.41400 26.19900
H  40.67600 11.03100 24.48600
H  41.48400 11.92000 25.84000
H  46.79200 12.20300 29.50400
H  46.09100 11.53300 27.98400
H  47.15300 10.56900 28.82900
H  43.97500 12.02500 33.79000
H  45.57100 10.16900 37.42100
H  46.46300 11.62600 37.22400
H  46.91800 10.27600 36.32800

