158

Mg 8.47700 4.33700 28.12400
C  10.02900 2.72200 30.96200
C  6.82200 6.18300 30.36700
C  6.90800 5.77200 25.53900
C  9.82700 1.85900 26.10800
N  8.49900 4.34100 30.38500
C  9.21500 3.72000 31.35600
C  9.06300 4.28300 32.76200
C  7.82900 5.23200 32.47500
C  7.68500 5.29100 30.94400
C  6.50200 4.85600 33.23600
C  10.38800 4.87400 33.35600
C  10.48800 5.94300 34.42900
H  11.11100 5.46400 35.72500
N  7.04900 5.81600 27.96800
C  6.50000 6.45600 29.04600
C  5.53600 7.43800 28.54500
C  5.57600 7.34700 27.09900
C  6.61600 6.30200 26.84200
C  4.58100 8.28300 29.35900
C  4.74800 8.07300 26.04600
O  5.08200 8.00800 24.93800
C  3.59100 8.97400 26.36100
N  8.41300 3.89100 26.10800
C  7.72900 4.63300 25.17100
C  7.97000 4.10500 23.80100
C  9.05900 2.97400 23.97800
C  9.04400 2.88600 25.48800
C  6.62400 3.68800 23.10100
C  10.43500 3.33500 23.38600
C  11.53300 4.13000 24.14100
N  9.70400 2.64500 28.40600
C  10.16300 1.75000 27.49100
C  10.92400 0.70600 28.12100
C  10.91600 1.12400 29.47000
C  10.16200 2.27500 29.61000
C  11.58400 -0.40500 27.44500
C  11.59900 0.78400 30.71900
O  12.37700 -0.14300 30.91500
C  10.91600 1.79100 31.79000
C  10.05400 0.93300 32.75500
O  9.15500 0.20500 32.42100
O  10.58400 1.03900 33.98200
C  9.84400 0.30200 35.07700
H  6.17600 6.74900 31.04200
H  6.50700 6.33600 24.69400
H  10.23100 1.10500 25.42900
H  8.72400 3.46000 33.39000
H  8.11100 6.19600 32.89700
H  5.70000 4.69000 32.51700
H  6.27400 5.65600 33.94000
H  6.47500 3.89900 33.75600
H  11.04400 5.11200 32.51900
H  10.67400 3.95600 33.86900
H  9.54100 6.35500 34.77800
H  11.05200 6.78900 34.03500
H  4.85500 9.32700 29.20800
H  4.58500 8.01300 30.41500
H  3.52700 8.22800 29.08600
H  3.10600 9.16500 25.40400
H  3.84100 9.79200 27.03600
H  2.82500 8.36400 26.84100
H  8.26500 4.82200 23.03400
H  8.70700 2.01100 23.60800
H  6.40000 4.32800 22.24700
H  5.77600 3.82100 23.77200
H  6.54500 2.64000 22.81300
H  10.14200 4.06000 22.62700
H  11.00500 2.61800 22.79400
H  11.05100 4.38300 25.08500
H  11.79100 5.09700 23.71000
H  12.41700 3.50100 24.24500
H  12.08200 0.05100 26.58900
H  10.94800 -1.24200 27.15800
H  12.38500 -0.68800 28.12800
H  11.64300 2.30800 32.41600
H  8.96900 -0.23600 34.71500
H  9.33600 0.95400 35.78800
H  10.55400 -0.31900 35.62400
Mg 30.80900 58.06800 40.44100
C  28.34500 55.92100 38.91500
C  33.21900 56.06300 39.20500
C  33.06300 60.58400 41.17200
C  28.19900 60.46200 40.83400
N  30.78700 56.03800 39.38000
C  29.65200 55.50000 38.67500
C  30.14900 54.35300 37.79600
C  31.67400 54.26600 38.22000
C  31.95200 55.54000 38.95500
C  31.93100 52.98900 39.06400
C  29.86200 54.69800 36.39400
C  29.63000 53.55400 35.37700
H  28.61000 53.85700 34.29100
N  32.92400 58.20600 40.30400
C  33.70400 57.27900 39.82300
C  35.09100 57.68100 39.97200
C  35.03800 58.95000 40.59500
C  33.65100 59.31300 40.66800
C  36.26200 56.80300 39.47000
C  36.28400 59.72900 40.96400
O  37.38500 59.17900 40.77600
C  36.35200 61.10800 41.50700
N  30.65800 60.24600 40.84900
C  31.73600 60.97900 41.26100
C  31.41400 62.34300 41.75200
C  29.81000 62.41700 41.52800
C  29.51900 60.98400 40.95100
C  31.73200 62.52600 43.19500
C  29.26800 63.57500 40.68400
C  28.79600 64.88500 41.51000
N  28.70500 58.16700 40.09500
C  27.83800 59.26900 40.23000
C  26.49200 58.85200 39.89800
C  26.63200 57.48700 39.45600
C  27.99400 57.14700 39.57700
C  25.30400 59.72700 40.04700
C  25.94600 56.35400 38.85300
O  24.71300 56.24500 38.63600
C  27.04000 55.34600 38.46600
C  26.81500 53.94200 38.95800
O  27.05900 53.57900 40.12700
O  26.48800 53.14800 37.93800
C  26.03700 51.77900 38.29800
H  34.01000 55.55500 38.65000
H  33.70100 61.38400 41.55300
H  27.48000 61.20600 41.18300
H  29.58700 53.46400 38.08200
H  32.35900 54.31400 37.37300
H  32.86800 52.55600 38.71400
H  31.14200 52.24200 38.98800
H  32.02900 53.22300 40.12400
H  30.72800 55.23400 36.00700
H  29.04300 55.41500 36.33800
H  29.46500 52.60300 35.88300
H  30.58700 53.46500 34.86300
H  37.09300 57.45200 39.19200
H  35.94900 56.23200 38.59600
H  36.63600 56.16400 40.27000
H  37.41300 61.23200 41.72200
H  35.79500 61.14000 42.44400
H  36.08100 61.86100 40.76700
H  31.85100 63.09800 41.09900
H  29.27700 62.40500 42.47900
H  32.64200 61.98400 43.45300
H  31.02200 62.10100 43.90500
H  31.79000 63.55100 43.56300
H  28.31100 63.39400 40.19400
H  30.13300 63.67400 40.02900
H  29.01300 64.70100 42.56200
H  27.75600 65.07200 41.24100
H  29.32000 65.70700 41.02400
H  25.48200 60.72600 39.64900
H  25.14000 59.70500 41.12400
H  24.47100 59.25800 39.52300
H  26.97800 55.35800 37.37800
H  26.80900 51.13800 38.72200
H  25.59200 51.33200 37.40900
H  25.20400 51.87700 38.99400

