158

Mg 2.30600 -0.65400 44.35100
C  5.86400 -0.24900 43.64500
C  1.87200 2.21800 42.40600
C  -0.98900 -1.29100 44.35000
C  2.97200 -3.58600 46.05700
N  3.72900 0.94800 43.32000
C  5.10100 0.72900 42.97300
C  5.65100 1.85600 42.07600
C  4.41500 2.85500 42.04200
C  3.23500 2.02000 42.63600
C  4.59200 4.12200 42.81800
C  5.92900 1.29700 40.68300
C  7.29900 1.73000 40.08500
H  7.20600 2.68600 38.92500
N  0.69500 0.33800 43.57200
C  0.75400 1.50800 42.86000
C  -0.63100 2.00600 42.53800
C  -1.52500 0.88900 42.88700
C  -0.62500 -0.09900 43.56900
C  -0.93200 3.30800 41.84600
C  -2.95700 0.89300 42.51600
O  -3.47300 1.86400 42.00800
C  -3.75900 -0.32800 42.81500
N  1.14700 -2.27500 45.02500
C  -0.21200 -2.31600 44.99100
C  -0.82200 -3.53100 45.71400
C  0.49800 -4.12500 46.35600
C  1.66500 -3.28800 45.77900
C  -1.96700 -3.21500 46.70900
C  0.59600 -5.71600 46.03400
C  1.24400 -6.59500 47.24900
N  4.00100 -1.76200 44.79000
C  4.15600 -2.90100 45.57300
C  5.52600 -3.22000 45.73700
C  6.18200 -2.21400 45.04600
C  5.26300 -1.31000 44.42700
C  6.11100 -4.39100 46.50200
C  7.43200 -1.68600 44.74000
O  8.53200 -2.16500 45.05700
C  7.32700 -0.37100 43.75900
C  7.88600 0.75500 44.46800
O  7.60100 1.06800 45.64100
O  8.82000 1.49400 43.71100
C  9.22100 2.76800 44.31200
H  1.67600 3.18800 41.94500
H  -2.07400 -1.41200 44.39200
H  3.15000 -4.47600 46.66500
H  6.51800 2.25200 42.60500
H  4.17800 3.15700 41.02200
H  4.11000 3.99700 43.78700
H  4.19400 5.01000 42.32700
H  5.61300 4.47700 42.96100
H  5.18800 1.77400 40.04100
H  5.87300 0.21400 40.79100
H  7.85600 0.87600 39.70100
H  7.91700 2.09500 40.90600
H  -1.87700 3.64300 42.27300
H  -0.91700 3.19300 40.76200
H  -0.19000 4.08500 42.03000
H  -4.70100 -0.34900 42.26700
H  -3.79400 -0.49400 43.89100
H  -3.07000 -1.10200 42.47700
H  -1.22400 -4.26400 45.01500
H  0.47400 -4.07200 47.44500
H  -1.72200 -3.65600 47.67500
H  -2.78100 -3.85100 46.36100
H  -2.30800 -2.18300 46.79500
H  0.90500 -5.98800 45.02500
H  -0.44600 -6.01700 45.92400
H  2.05700 -7.24900 46.93300
H  0.46000 -7.27200 47.58700
H  1.43100 -5.93700 48.09800
H  5.46300 -5.26400 46.42100
H  6.46000 -4.22200 47.52100
H  6.97200 -4.78700 45.96400
H  7.88900 -0.53700 42.84000
H  10.11200 2.59500 44.91500
H  8.44300 3.13200 44.98400
H  9.44600 3.55300 43.59000
Mg 53.85000 23.17900 44.33800
C  50.90200 24.97000 43.51000
C  52.20400 20.29900 43.25100
C  56.70200 21.62700 44.48600
C  55.35000 26.23400 45.14600
N  51.82200 22.72500 43.07000
C  50.72700 23.65500 43.12500
C  49.43100 22.83300 42.81500
C  49.91000 21.33400 43.04900
C  51.40600 21.43600 43.18200
C  49.13200 20.57000 44.25400
C  49.04200 23.24800 41.34800
C  47.60200 23.46300 41.10200
H  47.05200 22.96700 39.73400
N  54.38800 21.20500 43.90000
C  53.60200 20.12100 43.52800
C  54.47500 18.96300 43.34200
C  55.82600 19.42000 43.58700
C  55.67200 20.80900 43.97000
C  54.08400 17.62300 42.76100
C  57.12300 18.57200 43.44300
O  56.98100 17.42600 43.02100
C  58.60200 19.02300 43.74400
N  55.77700 23.82600 44.73100
C  56.81900 23.01400 44.72600
C  58.15000 23.72100 45.01000
C  57.73400 25.22300 45.27200
C  56.23400 25.10800 45.01100
C  59.03400 23.06400 46.05500
C  58.46700 26.32100 44.39700
C  59.96300 26.13700 44.19100
N  53.30600 25.26200 44.42500
C  53.97500 26.31900 44.77900
C  53.13600 27.50100 44.90300
C  51.86800 26.97100 44.42700
C  52.06300 25.63600 44.09100
C  53.47300 28.89200 45.48000
C  50.46900 27.32000 44.24300
O  49.89900 28.37700 44.39600
C  49.86400 26.05300 43.52400
C  49.58800 26.44400 42.18300
O  50.33000 26.44000 41.20200
O  48.28700 26.89200 42.16300
C  47.76400 27.35800 40.86900
H  51.63600 19.46100 42.84100
H  57.73300 21.27900 44.58100
H  55.78200 27.17500 45.49200
H  48.63000 23.04300 43.52300
H  49.71500 20.72600 42.16600
H  48.69600 19.62700 43.92200
H  48.31200 21.19600 44.60500
H  49.79600 20.38000 45.09800
H  49.34900 22.53000 40.58800
H  49.54400 24.14700 40.99200
H  47.37300 24.51400 41.27800
H  46.99600 22.88500 41.80000
H  54.67600 17.43000 41.86600
H  53.05200 17.63000 42.41000
H  54.31800 16.78200 43.41300
H  58.82600 19.31700 44.76900
H  58.69200 19.85100 43.04100
H  59.22400 18.18700 43.42600
H  58.64600 23.67800 44.04000
H  57.80300 25.38400 46.34800
H  59.99400 22.63300 45.77100
H  58.47900 22.25600 46.53100
H  59.42300 23.86700 46.68000
H  58.20800 27.25500 44.89500
H  57.89300 26.28700 43.47100
H  60.54200 26.67000 44.94600
H  60.24200 26.58000 43.23500
H  60.18400 25.07300 44.27600
H  53.17000 28.86200 46.52600
H  52.92300 29.65600 44.93100
H  54.54400 29.08800 45.53600
H  48.94700 25.85000 44.07700
H  48.04900 28.40900 40.91100
H  46.67800 27.28100 40.92700
H  48.18500 26.76900 40.05400

