158

Mg 2.10800 -1.56800 43.56000
C  5.52000 -0.62100 43.06200
C  1.21700 1.58400 42.15800
C  -0.99400 -2.73800 42.90500
C  3.18200 -4.72700 44.39000
N  3.28300 0.39500 42.83900
C  4.67600 0.45600 42.62900
C  4.99800 1.64000 41.80000
C  3.68100 2.53900 41.98900
C  2.60400 1.45500 42.38300
C  3.80600 3.77600 42.95600
C  5.35700 1.16800 40.37300
C  6.69800 1.53300 39.79200
H  6.65600 2.25300 38.46400
N  0.27700 -0.71900 42.71000
C  0.15400 0.60300 42.29100
C  -1.24300 0.87200 41.99400
C  -1.95000 -0.40000 42.19800
C  -0.90000 -1.31500 42.54700
C  -1.84700 2.20300 41.71200
C  -3.46000 -0.59200 42.13000
O  -4.16800 0.41300 41.89900
C  -4.14300 -1.89800 42.34300
N  1.19000 -3.46900 43.78800
C  -0.07100 -3.71300 43.44800
C  -0.40400 -5.20500 43.59900
C  0.90900 -5.79500 44.08800
C  1.85600 -4.56500 44.12300
C  -1.68700 -5.52600 44.42000
C  1.55000 -6.98000 43.22500
C  1.37300 -8.42200 43.74900
N  3.98200 -2.51300 43.95100
C  4.23900 -3.77800 44.19300
C  5.66000 -3.95500 44.17800
C  6.18700 -2.73000 43.73300
C  5.08700 -1.86900 43.58200
C  6.47900 -5.14500 44.43700
C  7.43100 -1.99900 43.42600
O  8.58500 -2.43800 43.43100
C  7.01300 -0.63400 42.82000
C  7.79700 0.36900 43.52900
O  7.61700 0.77400 44.66600
O  8.83500 0.84100 42.66700
C  9.41000 2.00100 43.17300
H  0.89800 2.55900 41.78300
H  -1.99000 -3.17900 42.82500
H  3.69700 -5.68600 44.47300
H  5.79400 2.08600 42.39700
H  3.38000 3.05900 41.08000
H  4.64500 3.65700 43.64200
H  2.84100 3.78800 43.46400
H  3.95800 4.66100 42.33800
H  4.60500 1.61900 39.72500
H  5.17600 0.10100 40.23900
H  7.31100 0.64300 39.65600
H  7.18600 2.19800 40.50500
H  -2.74800 2.08900 41.11100
H  -1.15900 2.90900 41.24600
H  -2.20400 2.63100 42.64900
H  -5.22900 -1.81200 42.31000
H  -3.83100 -2.23700 43.33100
H  -3.87500 -2.66300 41.61500
H  -0.70500 -5.43500 42.57700
H  0.71100 -6.12200 45.10900
H  -1.55300 -6.25500 45.22000
H  -2.48300 -5.87900 43.76400
H  -1.93500 -4.54000 44.81400
H  2.60000 -6.77100 43.02300
H  1.04800 -6.93000 42.25900
H  2.19200 -8.67100 44.42400
H  1.24000 -9.00500 42.83800
H  0.43000 -8.60800 44.26300
H  7.51500 -4.86900 44.63500
H  6.55800 -5.71300 43.51000
H  6.11900 -5.80200 45.22800
H  7.25400 -0.58900 41.75800
H  10.09800 1.77500 43.98800
H  8.70600 2.77500 43.47700
H  9.98000 2.52700 42.40700
Mg 42.32500 41.02700 26.07500
C  41.43500 43.47700 28.54300
C  43.53900 39.05000 28.54100
C  43.22500 39.05600 23.66900
C  41.44300 43.50200 23.74300
N  42.43600 41.20900 28.25500
C  41.99800 42.29400 29.05600
C  42.09500 41.92000 30.53300
C  42.81900 40.48000 30.55000
C  42.94700 40.21500 29.02200
C  44.17300 40.49200 31.34900
C  40.71200 41.78400 31.27900
C  40.81400 41.69900 32.84400
H  40.19200 42.88700 33.63900
N  43.14800 39.14700 26.11400
C  43.59700 38.47000 27.26700
C  44.10100 37.22100 26.78400
C  43.93100 37.17600 25.33700
C  43.39200 38.45700 24.94300
C  44.80100 36.26700 27.70000
C  44.20800 35.97100 24.36800
O  44.01500 36.07600 23.18600
C  44.69100 34.56500 24.88900
N  42.33600 41.34000 24.03900
C  42.70000 40.25500 23.28700
C  42.35500 40.47300 21.76800
C  41.55400 41.86200 21.85300
C  41.78800 42.28800 23.29000
C  43.61000 40.53400 20.79700
C  40.02900 41.66100 21.49200
C  39.15400 40.99500 22.51200
N  41.65100 43.11500 26.08400
C  41.38100 43.99900 25.03000
C  41.00400 45.28800 25.53000
C  40.94000 45.11300 26.93600
C  41.30700 43.75400 27.19200
C  40.67100 46.47300 24.77200
C  40.61300 45.78400 28.19400
O  40.15500 46.87800 28.41300
C  40.81900 44.70300 29.25100
C  41.69500 45.26900 30.35600
O  42.89600 45.27200 30.29500
O  41.09300 45.78600 31.42000
C  41.84700 46.36200 32.45500
H  43.86100 38.44000 29.38800
H  43.54700 38.43300 22.83200
H  41.25500 44.27900 22.99900
H  42.63500 42.69400 31.07900
H  42.13600 39.77000 31.01700
H  44.38800 39.71900 32.08700
H  44.16600 41.46000 31.85000
H  45.03500 40.43200 30.68500
H  40.22800 40.90900 30.84500
H  40.16300 42.67100 30.96400
H  41.86100 41.59500 33.12700
H  40.33300 40.76500 33.13500
H  44.65600 35.23900 27.36700
H  44.28300 36.36500 28.65400
H  45.84100 36.45900 27.96300
H  44.08500 34.18300 25.71000
H  45.75200 34.70600 25.09800
H  44.69700 33.91800 24.01200
H  41.74600 39.67300 21.34600
H  42.00400 42.55100 21.13700
H  44.46600 40.37700 21.45400
H  43.71600 41.49200 20.28900
H  43.52800 39.70700 20.09200
H  40.01900 41.12300 20.54400
H  39.54800 42.60900 21.25000
H  38.99900 39.97700 22.15600
H  38.18500 41.49200 22.56100
H  39.58300 40.92400 23.51100
H  40.07800 46.38100 23.86200
H  41.62800 46.91000 24.48500
H  40.19400 47.20600 25.42300
H  39.87200 44.41900 29.71000
H  42.72400 46.86000 32.04100
H  42.18400 45.57700 33.13200
H  41.17300 46.98900 33.04000

