158

Mg -1.74100 17.33000 26.62400
C  -1.94800 14.87000 29.31800
C  -2.22200 19.84100 28.99000
C  -1.90800 19.48600 24.05900
C  -1.82200 14.63900 24.35600
N  -2.13900 17.25200 28.95000
C  -2.02200 16.19200 29.84300
C  -2.00100 16.75300 31.32500
C  -2.14200 18.32400 31.05800
C  -2.12600 18.50700 29.54500
C  -3.33900 19.01500 31.83600
C  -0.74200 16.21900 32.12900
C  -0.23400 17.06000 33.25800
H  0.05400 16.32400 34.54000
N  -2.06700 19.39300 26.56200
C  -2.19800 20.20900 27.64400
C  -2.23600 21.58000 27.12400
C  -1.95300 21.48000 25.71200
C  -1.98800 20.07900 25.40100
C  -2.50300 22.84300 28.03500
C  -1.59700 22.59600 24.67600
O  -1.42500 22.49400 23.44300
C  -1.57100 23.93300 25.17800
N  -1.84000 17.10500 24.54600
C  -1.83700 18.13600 23.67100
C  -1.68400 17.73000 22.23700
C  -1.64100 16.14900 22.36100
C  -1.80800 15.94200 23.85700
C  -2.87200 18.25900 21.40800
C  -0.33300 15.61700 21.82000
C  0.96800 15.87200 22.63100
N  -1.82800 15.21400 26.77400
C  -1.82400 14.25900 25.76700
C  -1.91100 12.96200 26.27800
C  -1.91700 13.14000 27.67000
C  -1.92100 14.53700 27.98800
C  -2.12100 11.68600 25.55700
C  -2.00600 12.41300 28.97600
O  -2.18900 11.26100 29.27300
C  -1.84700 13.55300 30.06100
C  -0.48000 13.34600 30.72100
O  0.60500 13.76300 30.31000
O  -0.56200 12.57200 31.94400
C  0.64500 12.27400 32.72000
H  -2.37600 20.63600 29.72300
H  -2.05400 20.13900 23.19600
H  -1.72100 13.84300 23.61500
H  -2.84500 16.31100 31.85500
H  -1.32800 18.84800 31.55800
H  -4.33100 18.92400 31.39400
H  -3.06100 20.03600 32.09900
H  -3.51300 18.56100 32.81200
H  0.00900 16.23700 31.33900
H  -0.90800 15.21100 32.50900
H  -0.91200 17.89800 33.42300
H  0.74900 17.45400 33.00300
H  -2.72900 22.62000 29.07800
H  -3.33600 23.37200 27.57200
H  -1.57100 23.40600 28.08400
H  -1.48400 24.77200 24.48900
H  -0.73700 23.88700 25.87800
H  -2.56100 24.06700 25.61500
H  -0.77100 18.15900 21.82400
H  -2.44600 15.73900 21.75000
H  -3.72600 18.45800 22.05500
H  -3.10500 17.46600 20.69700
H  -2.59700 19.14100 20.83000
H  -0.10300 16.09000 20.86500
H  -0.45900 14.56100 21.58200
H  0.81200 16.00500 23.70200
H  1.56400 16.73200 22.32300
H  1.58100 14.97600 22.53600
H  -2.13300 10.93000 26.34200
H  -1.39600 11.41600 24.78900
H  -3.14200 11.72000 25.17900
H  -2.63800 13.40800 30.79600
H  1.46700 12.94200 32.46400
H  1.00200 11.27500 32.46800
H  0.39400 12.29300 33.78100
Mg 6.09300 54.84800 42.03400
C  3.07500 52.89400 41.60700
C  7.81800 52.28800 40.55600
C  8.44800 56.87900 41.47000
C  3.87700 57.40100 42.97800
N  5.47900 52.92600 41.04300
C  4.25200 52.31400 41.06400
C  4.36800 50.88800 40.48400
C  5.89800 50.62800 40.48700
C  6.46500 52.00500 40.76700
C  6.41700 49.57100 41.53400
C  3.78600 50.91200 38.99000
C  3.23800 49.58100 38.41200
H  3.98000 48.84400 37.31100
N  7.91100 54.64900 41.11700
C  8.48400 53.50000 40.70100
C  9.89500 53.71700 40.37500
C  10.08000 55.15000 40.47400
C  8.84100 55.64200 40.99600
C  10.69200 52.65100 39.79700
C  11.41500 55.94700 40.12700
O  12.40200 55.32400 39.70900
C  11.40500 57.45900 40.14400
N  6.06200 56.85300 42.03900
C  7.25500 57.40800 42.00800
C  7.30100 58.74100 42.82200
C  5.79800 59.07700 43.00000
C  5.17400 57.70300 42.69900
C  8.06500 58.68200 44.15600
C  5.13100 60.19100 42.08700
C  4.40000 61.32500 42.86300
N  3.90800 55.09400 42.40500
C  3.22300 56.15600 42.89100
C  1.77400 55.81000 43.09500
C  1.70500 54.51900 42.57500
C  3.00500 54.13100 42.20400
C  0.71400 56.68600 43.67400
C  0.74900 53.42700 42.35600
O  -0.44000 53.32200 42.66300
C  1.70200 52.23000 41.83600
C  1.01700 51.48800 40.77100
O  0.57800 51.92600 39.69000
O  0.77500 50.24700 41.28000
C  -0.01800 49.37900 40.45600
H  8.36100 51.40000 40.22700
H  9.33800 57.42400 41.79100
H  3.23700 58.21700 43.32100
H  3.94100 50.16400 41.17800
H  6.27500 50.33900 39.50600
H  7.06900 48.86200 41.02400
H  5.58700 49.06800 42.02900
H  7.09400 49.95300 42.29900
H  4.53700 51.32400 38.31600
H  2.94400 51.60400 39.00700
H  2.20300 49.69800 38.09100
H  3.35500 48.84500 39.20800
H  11.71400 53.01700 39.69900
H  10.32900 52.44700 38.79000
H  10.56400 51.76400 40.41700
H  10.50100 57.83600 39.66500
H  12.22000 57.90800 39.57600
H  11.33400 57.71000 41.20200
H  7.70300 59.51100 42.16400
H  5.61500 59.45900 44.00500
H  9.00900 59.20000 43.99000
H  8.42500 57.73000 44.54500
H  7.40700 59.11200 44.91100
H  4.39900 59.77400 41.39500
H  5.97700 60.57900 41.52200
H  4.38400 61.14800 43.93800
H  3.33000 61.39200 42.66400
H  4.80600 62.31900 42.67400
H  1.17300 57.15600 44.54400
H  -0.12900 56.02000 43.85800
H  0.32700 57.43600 42.98400
H  1.80100 51.61800 42.73200
H  -0.36300 49.70900 39.47600
H  -0.94900 49.12600 40.96400
H  0.51800 48.43700 40.34000

