158

Mg 36.12100 0.90300 29.73300
C  33.72100 2.49400 31.84600
C  38.31400 1.12000 32.36100
C  38.37500 -0.28800 27.61100
C  33.66400 1.08100 27.11500
N  35.99800 1.74000 31.83800
C  34.97300 2.23500 32.51300
C  35.26100 2.40200 33.99100
C  36.78600 2.40300 34.03800
C  37.04000 1.76600 32.61000
C  37.62000 3.75200 34.15600
C  34.46700 1.41600 34.89600
C  33.61000 2.04800 36.02000
H  34.21800 3.14200 36.95900
N  38.11000 0.42100 29.99300
C  38.84700 0.61500 31.12700
C  40.15700 0.16800 30.90100
C  40.23300 -0.26100 29.55400
C  38.86600 0.02400 28.95500
C  41.24100 0.20400 31.98800
C  41.46000 -0.68400 28.78500
O  41.40900 -0.98700 27.60700
C  42.82800 -0.83300 29.49100
N  36.08000 0.63200 27.64300
C  37.10900 0.01300 27.05000
C  36.77000 -0.27000 25.56000
C  35.28600 0.09700 25.44700
C  34.97800 0.71200 26.79600
C  37.76100 0.45000 24.64100
C  34.46300 -1.07200 25.07000
C  34.18900 -2.12300 26.20400
N  34.16400 1.62400 29.45700
C  33.24200 1.58700 28.37300
C  31.98200 2.22700 28.79700
C  32.06200 2.54700 30.14700
C  33.42700 2.15100 30.50200
C  30.68800 2.37800 27.97800
C  31.40400 3.10500 31.31300
O  30.24300 3.54100 31.45400
C  32.46300 3.10500 32.45000
C  32.67800 4.49800 32.89300
O  33.55300 5.30100 32.64300
O  31.72500 4.76400 33.86200
C  31.95500 6.03400 34.61400
H  38.92400 1.03100 33.26300
H  39.14300 -0.66800 26.93400
H  32.86700 0.91000 26.38900
H  34.89600 3.39200 34.26400
H  37.18400 1.73300 34.79900
H  38.11300 4.00600 33.21800
H  38.40300 3.78900 34.91200
H  36.98900 4.57400 34.49200
H  35.08100 0.70800 35.45300
H  33.88800 0.77000 34.23700
H  33.31300 1.17900 36.60700
H  32.69200 2.46500 35.60400
H  41.51800 -0.74800 32.43900
H  40.89800 0.78300 32.84600
H  42.11800 0.73500 31.61800
H  43.16500 0.11500 29.91000
H  43.59100 -1.38000 28.93700
H  42.63300 -1.36900 30.42000
H  36.80200 -1.35900 25.51500
H  35.18700 0.87000 24.68500
H  38.08000 -0.27200 23.88900
H  38.60500 0.80000 25.23500
H  37.37800 1.30700 24.08700
H  35.08700 -1.53500 24.30500
H  33.59500 -0.68400 24.53600
H  35.01000 -2.79800 26.44200
H  33.37900 -2.73400 25.80700
H  33.82400 -1.60000 27.08800
H  30.64900 3.01900 27.09700
H  29.91900 2.75400 28.65300
H  30.31400 1.42800 27.59800
H  32.02500 2.48100 33.22900
H  31.10300 6.26600 35.25400
H  31.97200 6.92800 33.99100
H  32.82600 5.97900 35.26700
Mg 40.55000 41.49200 27.13200
C  39.98000 43.60600 29.75700
C  41.54500 39.13000 29.33800
C  41.49100 39.63200 24.53000
C  39.76600 44.02800 24.93500
N  40.59600 41.36300 29.27000
C  40.18800 42.33800 30.18300
C  40.11900 41.85500 31.63800
C  40.80200 40.37700 31.43900
C  41.00300 40.30500 29.90300
C  42.09900 40.16800 32.31800
C  38.61700 41.96500 32.14300
C  38.38600 41.17900 33.35600
H  37.62400 41.87500 34.50600
N  41.42400 39.64700 26.98600
C  41.79700 38.81000 28.02200
C  42.30600 37.58700 27.49200
C  42.29400 37.66400 26.08500
C  41.76300 39.03700 25.78500
C  42.73500 36.42300 28.34800
C  42.69500 36.68400 25.01500
O  42.56800 36.94600 23.82600
C  43.37200 35.49600 25.41000
N  40.57500 41.70600 25.01200
C  40.91900 40.77000 24.13000
C  40.75600 41.16900 22.66600
C  39.95200 42.58000 22.84600
C  40.10400 42.79700 24.35900
C  42.16800 41.46300 21.91200
C  38.42100 42.38600 22.41100
C  37.68200 41.19200 22.98400
N  40.02700 43.39600 27.24100
C  39.73100 44.36300 26.29200
C  39.46800 45.65900 26.91100
C  39.57100 45.36000 28.23400
C  39.96100 44.05100 28.40900
C  39.08500 46.89100 26.14700
C  39.49400 45.91500 29.54300
O  39.19500 47.02000 29.92100
C  39.73900 44.77800 30.61100
C  40.90600 45.16300 31.52000
O  41.89900 45.74900 31.13900
O  40.63400 44.75500 32.81300
C  41.72700 44.93600 33.75100
H  41.89500 38.44300 30.11200
H  41.67600 39.00000 23.65900
H  39.58800 44.77900 24.16400
H  40.77800 42.42600 32.29300
H  40.11900 39.55100 31.64100
H  42.84200 39.65700 31.70500
H  41.76400 39.48400 33.09700
H  42.61100 41.05400 32.69500
H  38.03700 41.48500 31.35500
H  38.25700 42.99200 32.19900
H  39.30100 40.76800 33.78200
H  37.76500 40.33100 33.06900
H  42.03700 35.60200 28.18600
H  42.81300 36.67700 29.40500
H  43.74200 36.23400 27.97500
H  42.70300 34.82900 25.95400
H  44.25600 35.71700 26.00700
H  43.83400 34.92400 24.60500
H  40.26900 40.39900 22.06800
H  40.36100 43.45700 22.34400
H  43.05900 41.11000 22.43100
H  42.31800 42.52400 21.70900
H  42.19900 41.10200 20.88400
H  38.47600 42.23200 21.33400
H  37.84700 43.30800 22.50800
H  38.25000 40.57500 23.68000
H  37.36400 40.54200 22.16900
H  36.77800 41.53800 23.48500
H  38.45500 46.73800 25.27000
H  39.99400 47.38700 25.80700
H  38.45300 47.46700 26.82400
H  38.86300 44.87400 31.25300
H  42.73900 45.11500 33.38800
H  41.71100 44.06000 34.39900
H  41.46400 45.77700 34.39200

