158

Mg -2.72600 16.99300 26.15900
C  -3.17200 14.88700 28.85600
C  -2.99500 19.67400 28.31100
C  -2.40000 19.03600 23.47500
C  -2.52600 14.31900 23.97200
N  -3.09900 17.19000 28.28700
C  -3.24200 16.17000 29.23500
C  -3.27900 16.79600 30.65900
C  -3.57800 18.31100 30.37900
C  -3.12000 18.42500 28.91200
C  -5.03900 18.65700 30.66000
C  -2.03200 16.36400 31.62100
C  -1.68100 17.28800 32.77600
H  -1.04800 16.67200 34.06800
N  -2.66900 19.07600 25.96400
C  -2.75600 20.05000 26.97200
C  -2.85200 21.34400 26.31600
C  -2.49200 21.13800 24.95300
C  -2.49400 19.68500 24.74600
C  -3.06200 22.57800 27.21200
C  -2.19200 22.23000 23.95100
O  -1.70800 21.92400 22.87600
C  -2.38600 23.71300 24.34600
N  -2.48500 16.64800 24.07400
C  -2.41200 17.72000 23.20900
C  -2.37700 17.23700 21.72300
C  -2.55300 15.72800 21.86300
C  -2.38600 15.49900 23.39500
C  -3.34800 17.99200 20.83100
C  -1.82300 14.82700 20.83800
C  -2.74800 14.35100 19.64100
N  -2.85100 14.96800 26.29600
C  -2.69600 14.01900 25.34800
C  -2.87100 12.73900 25.95400
C  -3.07000 13.01300 27.32400
C  -3.02300 14.39200 27.47200
C  -2.68300 11.45100 25.24600
C  -3.24800 12.34400 28.59200
O  -3.38600 11.16600 28.81500
C  -3.34700 13.57700 29.65300
C  -2.22400 13.33900 30.64500
O  -1.04900 13.59600 30.50100
O  -2.76400 12.76500 31.76500
C  -1.86100 12.53600 32.95600
H  -2.90600 20.41400 29.10900
H  -2.44400 19.71500 22.62200
H  -2.58500 13.43500 23.33400
H  -4.08400 16.20300 31.09400
H  -2.92000 18.90300 31.01600
H  -5.56400 17.86200 31.18900
H  -5.50100 18.82300 29.68700
H  -5.26100 19.59600 31.16700
H  -1.07900 16.26500 31.10000
H  -2.33700 15.43100 32.09400
H  -2.67300 17.62100 33.08200
H  -1.11600 18.13600 32.39000
H  -2.15700 23.16700 27.36200
H  -3.43900 22.34100 28.20700
H  -3.79000 23.25000 26.76000
H  -2.37400 24.27700 23.41300
H  -1.53300 24.08600 24.91200
H  -3.30300 24.01900 24.85100
H  -1.36600 17.42000 21.35900
H  -3.60700 15.56700 21.63500
H  -3.98900 18.76300 21.26200
H  -3.83300 17.27700 20.16600
H  -2.82000 18.67500 20.16700
H  -1.26000 14.03400 21.33200
H  -1.06700 15.33500 20.24000
H  -2.54600 15.05700 18.83600
H  -3.76900 14.41700 20.01700
H  -2.53500 13.32800 19.33100
H  -3.34100 11.34200 24.38400
H  -2.87300 10.62700 25.93300
H  -1.62400 11.50700 24.99500
H  -4.35300 13.62900 30.06900
H  -1.37700 11.56700 32.83000
H  -2.40800 12.41500 33.89100
H  -1.01500 13.22200 32.97400
Mg -0.24800 7.42500 26.74800
C  0.53900 9.57000 29.51300
C  -0.27400 4.88600 28.94300
C  -0.66000 5.49500 24.14600
C  0.58800 10.17700 24.58800
N  0.11800 7.20500 28.99700
C  0.32100 8.21900 29.90000
C  0.40900 7.77500 31.32900
C  0.49900 6.24800 31.10200
C  0.03700 6.05500 29.64600
C  1.87600 5.60500 31.21600
C  -0.87200 8.26300 32.06700
C  -0.75000 8.94500 33.44100
H  -0.23900 8.04700 34.66600
N  -0.56400 5.55700 26.59900
C  -0.56000 4.57500 27.59500
C  -0.93000 3.34300 27.06800
C  -1.12700 3.51200 25.69300
C  -0.83600 4.90000 25.40000
C  -1.14200 2.11500 27.92000
C  -1.49000 2.45000 24.70000
O  -1.90000 2.72300 23.55100
C  -1.26200 0.95400 25.02700
N  0.01900 7.80900 24.63200
C  -0.34500 6.78500 23.82700
C  -0.15000 7.16100 22.40400
C  -0.07200 8.73700 22.43100
C  0.30500 8.99800 23.95100
C  1.13400 6.49500 21.73300
C  -1.43700 9.42300 22.11100
C  -1.47900 10.75600 21.48300
N  0.36000 9.45800 26.91300
C  0.63000 10.37800 25.93000
C  0.99300 11.61700 26.57900
C  1.05200 11.32000 27.97900
C  0.59500 9.98100 28.13500
C  1.38300 12.81200 25.85600
C  1.35300 11.87200 29.32200
O  1.84200 12.87000 29.71900
C  0.95000 10.73300 30.36900
C  1.99000 10.59200 31.42400
O  3.09400 9.99900 31.30500
O  1.58300 11.17600 32.63300
C  2.41100 11.00000 33.83600
H  -0.25500 3.98300 29.55700
H  -0.73200 4.84900 23.26800
H  0.65900 11.06400 23.95500
H  1.31600 8.16800 31.78800
H  -0.23700 5.64600 31.63400
H  2.59000 6.09000 31.88200
H  2.35200 5.37100 30.26400
H  1.72100 4.59300 31.58800
H  -1.49900 7.40000 32.29300
H  -1.41900 8.94600 31.41600
H  -1.71100 9.26000 33.84700
H  -0.05600 9.77800 33.33100
H  -2.07600 1.55800 27.84600
H  -0.95000 2.27200 28.98200
H  -0.38100 1.35000 27.77000
H  -1.93800 0.46200 25.72500
H  -0.21700 0.71200 25.21800
H  -1.49200 0.40300 24.11500
H  -0.99300 6.83400 21.79500
H  0.72800 9.12000 21.79700
H  1.73500 7.22300 21.18800
H  0.72000 5.75200 21.05200
H  1.76100 6.12300 22.54400
H  -1.98400 9.54500 23.04500
H  -2.01200 8.73500 21.49100
H  -0.53600 11.09700 21.05600
H  -1.81900 11.49300 22.21000
H  -2.28800 10.73000 20.75400
H  2.16500 13.38500 26.35400
H  0.45500 13.38400 25.85500
H  1.62000 12.62800 24.80800
H  0.09200 11.25900 30.78800
H  2.67400 11.88700 34.41200
H  3.32900 10.52300 33.49500
H  1.72200 10.42500 34.45500

