158

Mg 1.80500 -1.17600 45.01300
C  5.22100 -0.51300 44.61100
C  0.98500 1.31600 42.93200
C  -1.47300 -2.26600 45.06400
C  2.78100 -4.26400 46.42800
N  2.97800 0.07900 43.84000
C  4.33400 0.25700 43.80700
C  4.78200 1.41700 42.88800
C  3.39000 2.02400 42.47600
C  2.40300 1.07100 43.13600
C  3.16100 3.56800 42.91700
C  5.80800 1.00800 41.64600
C  7.11200 1.81100 41.43400
H  7.69400 2.22600 40.09200
N  -0.06200 -0.47000 44.22100
C  -0.16100 0.62100 43.40800
C  -1.52100 0.88500 43.16800
C  -2.29600 -0.17300 43.73000
C  -1.28800 -1.03100 44.38800
C  -2.10100 2.06700 42.29600
C  -3.76200 -0.40100 43.54300
O  -4.44200 0.42100 42.94300
C  -4.61100 -1.54100 44.13400
N  0.86900 -3.02100 45.47700
C  -0.53900 -3.16000 45.55100
C  -0.90500 -4.40400 46.34200
C  0.42300 -5.11600 46.63400
C  1.41000 -4.02400 46.28500
C  -1.84700 -4.38100 47.55200
C  0.68400 -6.41900 45.74300
C  1.29500 -7.70600 46.38100
N  3.67600 -2.23100 45.53100
C  3.88500 -3.46100 46.14000
C  5.36000 -3.55200 46.42100
C  5.90000 -2.38700 45.97100
C  4.84700 -1.65300 45.36700
C  5.95400 -4.67100 47.18500
C  7.16100 -1.58100 45.87200
O  8.27900 -1.75100 46.25500
C  6.72600 -0.36500 44.88100
C  7.11300 1.00600 45.39900
O  6.52100 1.53800 46.30300
O  8.09100 1.51600 44.60800
C  8.16700 2.97700 44.73700
H  0.67500 2.09600 42.23400
H  -2.48000 -2.68700 45.09600
H  3.04600 -5.08800 47.09400
H  5.26100 2.24100 43.41800
H  3.15700 1.90300 41.41800
H  2.73300 4.13400 42.08900
H  4.05200 4.10600 43.24300
H  2.44900 3.54000 43.74100
H  5.20900 0.95300 40.73700
H  6.12900 -0.03300 41.68300
H  7.80500 1.13200 41.93100
H  7.02600 2.70300 42.05400
H  -2.75500 1.74900 41.48500
H  -1.36900 2.70700 41.80200
H  -2.74300 2.65700 42.95000
H  -4.38300 -1.64200 45.19500
H  -4.62400 -2.45200 43.53600
H  -5.62000 -1.12800 44.13100
H  -1.47600 -5.10000 45.72800
H  0.45800 -5.30900 47.70700
H  -2.73200 -4.98300 47.34900
H  -2.01200 -3.31900 47.73600
H  -1.40000 -4.88300 48.41000
H  1.39800 -6.15900 44.96200
H  -0.25200 -6.64400 45.23200
H  0.50800 -8.45800 46.33400
H  1.47900 -7.57000 47.44700
H  2.27900 -7.89000 45.95000
H  5.88400 -5.51600 46.50000
H  5.35500 -4.85200 48.07800
H  6.94600 -4.47400 47.59100
H  7.41000 -0.42500 44.03500
H  8.93700 3.17300 45.48300
H  7.28700 3.57200 44.97800
H  8.63400 3.38000 43.83800
Mg -5.92900 25.40600 25.40700
C  -4.65500 26.36900 28.63000
C  -7.95100 23.15800 27.22200
C  -6.98200 24.20000 22.41700
C  -3.57300 27.23200 23.94500
N  -6.27900 24.78800 27.68700
C  -5.76500 25.46800 28.76500
C  -6.39500 25.01500 30.03200
C  -7.12600 23.66800 29.60200
C  -7.18300 23.88400 28.10400
C  -6.40700 22.39400 30.01500
C  -7.34800 26.09500 30.56800
C  -7.31800 26.38400 32.09700
H  -6.68200 25.27700 33.00400
N  -7.27300 23.91300 24.87700
C  -8.03800 23.14600 25.76800
C  -8.94000 22.32100 24.99700
C  -8.71400 22.60600 23.56900
C  -7.57000 23.56900 23.57000
C  -9.93900 21.35000 25.67600
C  -9.40400 21.98900 22.23100
O  -9.06800 22.26300 21.06000
C  -10.65900 21.01000 22.33500
N  -5.45000 25.75500 23.53900
C  -6.00100 25.14400 22.39500
C  -5.32500 25.62300 21.12200
C  -4.48200 26.78700 21.64500
C  -4.49800 26.58600 23.16000
C  -4.53100 24.52400 20.32000
C  -5.05800 28.20100 21.29000
C  -5.07300 28.53500 19.81100
N  -4.49500 26.63000 26.14300
C  -3.54300 27.26100 25.33700
C  -2.62800 28.00500 26.22900
C  -3.02500 27.66400 27.53100
C  -4.15200 26.83200 27.37900
C  -1.49000 28.90400 25.86100
C  -2.73900 27.85800 29.00000
O  -1.85500 28.49000 29.53400
C  -3.85700 27.05600 29.74400
C  -3.15600 26.22200 30.60800
O  -2.67100 25.16200 30.35000
O  -3.11500 26.86900 31.81000
C  -2.39400 26.24400 32.88900
H  -8.44900 22.27300 27.62400
H  -7.37700 23.79400 21.48300
H  -2.93100 28.00200 23.51100
H  -5.57800 24.91400 30.74700
H  -8.13000 23.74700 30.01800
H  -6.30600 21.66400 29.21200
H  -7.02600 21.99900 30.82000
H  -5.39700 22.52200 30.40600
H  -8.35500 25.76300 30.31600
H  -7.33800 27.05100 30.04500
H  -8.31600 26.60900 32.47500
H  -6.72800 27.29000 32.23700
H  -9.44600 20.37800 25.70900
H  -10.87300 21.25200 25.12200
H  -10.24600 21.63400 26.68200
H  -11.17500 20.90200 21.38200
H  -11.41800 21.39500 23.01700
H  -10.39700 19.99800 22.64600
H  -6.12500 25.90700 20.43700
H  -3.43000 26.66000 21.39000
H  -5.12200 24.04700 19.53800
H  -4.03200 23.75100 20.90500
H  -3.86900 25.17000 19.74400
H  -4.40700 28.88800 21.83000
H  -6.05300 28.37500 21.69900
H  -4.53000 29.46600 19.64600
H  -6.11300 28.76100 19.57900
H  -4.66000 27.71400 19.22500
H  -1.82500 29.93400 25.98100
H  -1.21700 28.63900 24.84000
H  -0.62500 28.56700 26.43300
H  -4.44700 27.78700 30.29800
H  -2.95200 26.21500 33.82500
H  -1.48500 26.82700 33.03400
H  -2.15300 25.23200 32.56600

