158

Mg 48.33400 34.65600 26.76400
C  46.23000 33.79900 29.45800
C  49.03500 37.54000 28.31000
C  49.77600 35.64600 23.91400
C  47.15500 31.74600 25.06800
N  47.81400 35.40800 28.74100
C  46.99000 34.95300 29.72400
C  47.33700 35.62600 31.03200
C  47.91900 37.03000 30.57100
C  48.30700 36.67500 29.10800
C  47.04700 38.36600 30.84000
C  48.36800 34.82800 31.87300
C  48.08800 34.63600 33.35800
H  47.05100 35.63300 34.03900
N  49.39500 36.35200 26.24900
C  49.56700 37.42100 27.02400
C  50.32700 38.44300 26.33800
C  50.65700 37.84300 25.09200
C  49.96900 36.54700 25.01200
C  50.66100 39.85500 27.05900
C  51.50900 38.37200 23.96200
O  51.61300 37.86600 22.83600
C  52.18100 39.67300 24.27600
N  48.62000 33.75300 24.73600
C  49.22400 34.40800 23.72800
C  49.26900 33.53100 22.47200
C  48.58600 32.24300 22.98400
C  48.04500 32.57100 24.39400
C  48.67000 34.20200 21.23000
C  49.79200 31.20700 23.17400
C  49.80400 30.15300 21.96200
N  46.94400 33.11100 27.09400
C  46.61500 31.97100 26.38800
C  45.62200 31.22100 27.06300
C  45.45000 31.95200 28.25300
C  46.26600 33.07200 28.27700
C  44.90600 30.07400 26.48900
C  44.70000 31.89300 29.52200
O  43.87200 31.04200 29.89100
C  45.18700 33.11700 30.37500
C  45.39900 32.71400 31.79400
O  46.31100 31.95200 32.14300
O  44.39500 33.06900 32.59000
C  44.17500 32.34700 33.86300
H  49.38500 38.38700 28.90400
H  50.24400 35.92800 22.96900
H  46.76500 30.89300 24.50900
H  46.40200 35.84600 31.54700
H  48.88300 37.31000 30.99500
H  46.18600 38.03100 31.41900
H  46.77400 38.82700 29.89100
H  47.61000 39.07900 31.44200
H  49.39200 35.19400 31.80100
H  48.32800 33.80600 31.49400
H  48.99300 34.72400 33.95900
H  47.63600 33.65400 33.50300
H  50.21300 40.67200 26.49200
H  51.74000 39.93400 26.93000
H  50.38000 39.93600 28.10900
H  52.89700 39.48800 25.07600
H  51.37600 40.38200 24.47200
H  52.78000 39.95200 23.41000
H  50.34500 33.43900 22.32700
H  47.76100 31.87900 22.37200
H  47.94900 33.57500 20.70500
H  49.54100 34.30900 20.58500
H  48.25000 35.20400 21.32600
H  49.78500 30.66100 24.11800
H  50.77400 31.66000 23.03500
H  50.67700 30.16300 21.31000
H  48.87900 30.03800 21.39700
H  49.94600 29.23400 22.53100
H  44.43600 30.41700 25.56700
H  44.15400 29.80000 27.22800
H  45.57500 29.24300 26.26200
H  44.30900 33.76200 30.39200
H  43.10600 32.16800 33.97600
H  44.39300 32.99600 34.71200
H  44.71100 31.41900 34.06200
Mg 17.40300 53.08100 26.42300
C  19.65700 51.72000 28.63300
C  15.08800 53.46600 28.93500
C  15.15600 54.43000 24.23800
C  19.44500 52.19400 23.78200
N  17.31700 52.60200 28.47900
C  18.43800 52.11900 29.19900
C  18.14900 52.21200 30.66800
C  16.57600 52.28900 30.72700
C  16.24500 52.76900 29.29200
C  15.81100 50.96500 31.08400
C  18.90600 53.42400 31.31400
C  19.21600 53.28400 32.86700
H  18.17300 52.55200 33.68300
N  15.53000 53.95800 26.56500
C  14.75000 54.08500 27.74300
C  13.50600 54.79700 27.42800
C  13.56600 55.07600 26.00600
C  14.77800 54.49700 25.56000
C  12.42600 55.03500 28.47800
C  12.53100 55.83900 25.16100
O  12.71300 56.19800 23.98100
C  11.15900 56.21900 25.73400
N  17.28300 53.22000 24.28300
C  16.27300 53.88800 23.61600
C  16.60200 53.96600 22.09800
C  17.99500 53.29700 22.02100
C  18.31300 52.92400 23.45100
C  15.53800 53.31400 21.11500
C  19.04200 54.19000 21.27900
C  19.94400 55.02300 22.11700
N  19.11200 51.96400 26.15300
C  19.88800 51.73800 25.05400
C  21.11200 51.05500 25.46300
C  21.07800 51.08300 26.88700
C  19.83100 51.67000 27.23900
C  22.11100 50.40100 24.55600
C  21.79000 50.71900 28.13500
O  22.89700 50.24700 28.25000
C  20.82700 51.17900 29.31700
C  20.45600 50.09000 30.20200
O  19.52900 49.29300 29.98700
O  21.03800 50.33400 31.37700
C  20.66000 49.42700 32.45900
H  14.36400 53.45600 29.75300
H  14.47600 54.75200 23.44600
H  20.22700 51.97200 23.05300
H  18.46800 51.26900 31.11300
H  16.16900 53.04900 31.39400
H  15.16300 51.22200 31.92200
H  16.50600 50.20900 31.45000
H  15.27600 50.60600 30.20500
H  18.33600 54.35200 31.29900
H  19.87000 53.62100 30.84300
H  19.24700 54.30400 33.25100
H  20.14800 52.73500 33.00200
H  11.53400 55.55500 28.12700
H  12.76700 55.62700 29.32700
H  12.13000 54.02700 28.76700
H  11.39000 57.10600 26.32300
H  10.77400 55.33200 26.23700
H  10.33300 56.48900 25.07700
H  16.74100 54.99300 21.76000
H  17.93300 52.32000 21.54300
H  15.09900 52.42300 21.56400
H  15.96800 53.15300 20.12600
H  14.77400 54.07000 20.93400
H  18.54800 54.89900 20.61500
H  19.66700 53.64800 20.56900
H  20.67200 54.28100 22.44300
H  19.39600 55.37400 22.99100
H  20.46300 55.83900 21.61400
H  22.04100 50.72500 23.51800
H  22.06500 49.31400 24.61900
H  23.07100 50.75700 24.92900
H  21.35700 51.91600 29.92100
H  20.66200 48.40000 32.09200
H  19.74800 49.76100 32.95200
H  21.47300 49.58800 33.16700

