158

Mg 47.27800 16.03600 28.02600
C  45.34600 15.76500 31.00000
C  49.82300 17.52600 30.11100
C  49.03100 16.94200 25.28200
C  44.77400 14.84000 26.24700
N  47.53600 16.57400 30.27500
C  46.56400 16.35900 31.31300
C  47.12600 16.76600 32.72200
C  48.50700 17.39000 32.32300
C  48.61000 17.18100 30.78500
C  48.65400 18.96700 32.63500
C  47.37000 15.58700 33.63100
C  46.99200 15.78100 35.12500
H  46.80600 17.15400 35.72800
N  49.18200 16.97500 27.70100
C  50.08100 17.45700 28.70400
C  51.29200 17.77500 28.06200
C  51.04700 17.77400 26.65100
C  49.69400 17.28200 26.46300
C  52.63100 17.87900 28.88100
C  51.95100 18.30800 25.50500
O  51.71000 18.25200 24.32000
C  53.28200 18.96800 25.92300
N  46.98700 15.83500 26.10300
C  47.82100 16.25000 25.09800
C  47.16800 16.19200 23.75200
C  45.96100 15.33500 24.03000
C  45.82700 15.38900 25.56600
C  46.93700 17.56000 23.02100
C  46.20500 13.86000 23.59600
C  45.89500 13.50200 22.12600
N  45.52500 15.25300 28.47700
C  44.53200 14.82200 27.60400
C  43.47600 14.29100 28.35500
C  43.69500 14.68800 29.67300
C  44.97800 15.27800 29.69500
C  42.24100 13.60100 27.92200
C  43.11700 14.77000 31.00400
O  42.08000 14.36000 31.52800
C  44.16100 15.52200 31.92100
C  43.49500 16.64800 32.59500
O  43.49900 17.82700 32.21000
O  42.95000 16.19700 33.77100
C  42.18000 17.19800 34.51600
H  50.71600 17.83400 30.65900
H  49.49400 17.20300 24.32800
H  44.08000 14.38600 25.53600
H  46.36200 17.43600 33.11400
H  49.36700 16.90900 32.78800
H  49.58400 19.06600 33.19500
H  47.80600 19.42200 33.14900
H  48.73400 19.52000 31.69900
H  48.38700 15.19700 33.59300
H  46.89500 14.68300 33.25100
H  47.71500 15.27800 35.76700
H  46.00700 15.33300 35.25800
H  53.49700 17.73400 28.23500
H  52.65300 17.11700 29.66000
H  52.57100 18.86400 29.34300
H  53.28300 19.71200 26.72000
H  53.72200 19.29800 24.98200
H  53.84900 18.05200 26.09000
H  47.81000 15.63200 23.07200
H  45.03300 15.67400 23.56700
H  45.85300 17.67000 23.00900
H  47.43800 17.52900 22.05400
H  47.36000 18.37000 23.61600
H  45.60400 13.20200 24.22400
H  47.25100 13.60700 23.76900
H  46.75200 12.94200 21.75100
H  45.87300 14.36300 21.45700
H  45.06100 12.80600 22.03900
H  41.95500 13.00300 28.78800
H  42.32100 12.99900 27.01600
H  41.39300 14.22700 27.64600
H  44.49400 14.84400 32.70700
H  41.64700 16.60400 35.25900
H  41.45300 17.70600 33.88200
H  42.76900 17.99400 34.97200
Mg 41.54800 41.20100 26.75000
C  40.79400 43.38800 29.47400
C  42.61800 38.90400 29.05000
C  42.65600 39.28800 24.21800
C  40.77300 43.82600 24.55600
N  41.70500 41.13900 29.06700
C  41.16800 42.13900 29.89700
C  41.36900 41.57500 31.37300
C  42.11300 40.15100 31.29700
C  42.17500 40.04100 29.73100
C  43.37900 39.99300 32.03700
C  40.06500 41.59900 32.13000
C  40.20400 41.40400 33.63600
H  39.54600 42.50600 34.52300
N  42.45900 39.31800 26.61400
C  42.81900 38.52900 27.67100
C  43.43400 37.27600 27.14600
C  43.45700 37.34100 25.72400
C  42.80300 38.70900 25.45000
C  43.96100 36.18600 28.07500
C  44.04600 36.32300 24.75000
O  44.04600 36.55300 23.50100
C  44.89100 35.14000 25.17200
N  41.80300 41.58900 24.71700
C  42.14900 40.55900 23.87900
C  41.97400 40.99900 22.46100
C  41.11700 42.31500 22.50000
C  41.23000 42.58300 24.01900
C  43.32000 41.37100 21.61900
C  39.63700 42.27400 22.02000
C  38.81700 41.06400 22.45600
N  40.95000 43.19500 26.93000
C  40.74300 44.21100 25.89000
C  40.44600 45.45800 26.49900
C  40.28500 45.13200 27.91000
C  40.72700 43.76900 28.11600
C  40.13100 46.72900 25.84100
C  39.84100 45.73200 29.22300
O  39.44100 46.86800 29.53000
C  40.14000 44.54600 30.24500
C  41.16200 45.22200 31.13900
O  42.20000 45.65700 30.70200
O  40.80000 45.31700 32.46300
C  41.85400 45.97200 33.38600
H  42.97000 38.19800 29.80600
H  43.08800 38.73900 23.37900
H  40.37700 44.63500 23.93800
H  42.09300 42.27100 31.79600
H  41.43500 39.33200 31.54100
H  43.87500 40.94400 32.23200
H  43.99900 39.36200 31.39900
H  43.28000 39.44900 32.97700
H  39.48500 40.74400 31.78300
H  39.59300 42.58000 32.08400
H  41.27000 41.25000 33.80900
H  39.75000 40.45600 33.92300
H  44.97600 35.90900 27.78900
H  43.35600 35.30400 27.86100
H  43.95300 36.36800 29.14900
H  44.97400 34.39200 24.38400
H  44.33100 34.70400 25.99900
H  45.86700 35.58800 25.35900
H  41.57200 40.18500 21.85600
H  41.56200 43.14600 21.95100
H  44.15400 40.93100 22.16700
H  43.46600 42.44500 21.50400
H  43.35100 41.04500 20.57900
H  39.65300 42.26500 20.93000
H  39.05800 43.15900 22.28300
H  38.63400 40.51200 21.53400
H  37.87600 41.31000 22.94700
H  39.43600 40.40100 23.06200
H  40.31100 46.70600 24.76600
H  40.74200 47.53400 26.24900
H  39.08800 46.96000 26.05700
H  39.22300 44.45000 30.82500
H  42.02100 45.30200 34.22900
H  41.52400 46.94900 33.73900
H  42.81500 46.06300 32.88000

