158

Mg 48.70700 34.00500 26.57900
C  47.17300 32.69400 29.47200
C  49.13000 36.92500 28.29900
C  49.45500 35.52900 23.60300
C  47.62700 31.09600 24.80900
N  48.29400 34.62100 28.70700
C  47.73000 33.92900 29.71100
C  47.89200 34.71100 31.00500
C  47.97000 36.17700 30.46700
C  48.67400 35.89100 29.06100
C  46.55700 36.83500 30.41100
C  49.03400 34.24400 31.89000
C  48.88800 34.12800 33.47300
H  47.80300 34.91400 34.21000
N  49.34700 35.87000 26.05200
C  49.45100 36.93500 26.90000
C  50.08200 38.09900 26.16900
C  50.18300 37.67900 24.80300
C  49.59400 36.35300 24.71700
C  50.62200 39.31900 26.81000
C  50.76500 38.36200 23.52500
O  50.75600 37.83100 22.37300
C  51.48500 39.73200 23.69400
N  48.59100 33.40400 24.56200
C  48.96500 34.24600 23.52900
C  48.85700 33.48900 22.13000
C  48.29700 32.01800 22.56400
C  48.13300 32.22400 24.07600
C  48.06500 34.24200 20.97900
C  49.28900 30.99100 22.20000
C  50.58500 30.81200 22.97500
N  47.77200 32.18900 26.96000
C  47.41400 31.09900 26.18100
C  46.85800 30.01700 27.03600
C  46.59800 30.63500 28.31300
C  47.16100 31.98300 28.19900
C  46.41400 28.68300 26.58700
C  46.04900 30.44800 29.54400
O  45.40200 29.47600 29.97900
C  46.24600 31.86000 30.28300
C  46.60200 31.48700 31.74000
O  47.76500 31.32200 32.20400
O  45.43000 31.24600 32.41000
C  45.47400 31.12700 33.84500
H  49.22600 37.89400 28.79400
H  49.92300 35.75700 22.64300
H  47.28400 30.24900 24.21100
H  46.96100 34.46800 31.51600
H  48.72600 36.72300 31.03200
H  46.58300 37.75300 30.99800
H  45.82600 36.08300 30.71000
H  46.30400 36.97100 29.36000
H  49.87300 34.90300 31.66700
H  49.40500 33.28500 31.52700
H  49.83600 34.57600 33.77100
H  49.02400 33.09900 33.80600
H  51.70400 39.21500 26.72200
H  50.41800 39.49300 27.86600
H  50.26000 40.22700 26.32900
H  50.76900 40.50800 23.96600
H  51.86700 39.96600 22.70000
H  52.30900 39.64000 24.40100
H  49.86700 33.29500 21.76600
H  47.36000 31.79200 22.05500
H  47.74400 35.24900 21.24800
H  47.19300 33.62600 20.75600
H  48.58700 34.30400 20.02400
H  49.46900 31.12800 21.13300
H  48.70200 30.08100 22.31700
H  50.63200 31.02600 24.04300
H  51.44200 31.29600 22.50700
H  50.83600 29.75100 22.95400
H  45.33600 28.55300 26.48900
H  46.86400 27.94000 27.24500
H  46.64300 28.56600 25.52800
H  45.30800 32.40300 30.39900
H  45.73300 32.11000 34.23800
H  46.18700 30.40000 34.23400
H  44.46100 30.77500 34.04100
Mg -6.91900 26.05400 25.30700
C  -5.24800 27.29100 28.10400
C  -8.31300 23.70400 27.49000
C  -8.06100 24.35500 22.48900
C  -5.05600 27.95800 23.21700
N  -6.82300 25.62100 27.50100
C  -6.15900 26.35900 28.41700
C  -6.58700 26.01500 29.83500
C  -7.41200 24.67800 29.62100
C  -7.55300 24.66700 28.14600
C  -6.79700 23.34500 30.24400
C  -7.37400 27.19300 30.57400
C  -7.07900 27.40500 32.02800
H  -6.63100 26.17400 32.86200
N  -8.18300 24.31900 25.03400
C  -8.59500 23.52200 26.05700
C  -9.27900 22.40800 25.44400
C  -9.33500 22.53400 23.99900
C  -8.53700 23.78500 23.78700
C  -9.79900 21.30900 26.24000
C  -10.03400 21.71600 22.90000
O  -10.04800 22.17300 21.77800
C  -10.69600 20.41200 23.27900
N  -6.82200 26.32400 23.13600
C  -7.30200 25.41800 22.20600
C  -6.81100 25.82600 20.74900
C  -6.00200 27.15200 21.03100
C  -5.96900 27.18700 22.58700
C  -6.15600 24.72000 19.90400
C  -6.63100 28.46600 20.44300
C  -5.96800 29.04400 19.18200
N  -5.54300 27.51600 25.54700
C  -4.77200 28.14300 24.61100
C  -3.83800 29.03700 25.29800
C  -3.99800 28.74700 26.73400
C  -5.01500 27.77000 26.79500
C  -2.96300 30.06500 24.69900
C  -3.62100 29.12900 28.06300
O  -2.78200 29.95000 28.44700
C  -4.27900 28.03500 28.99100
C  -3.26900 27.11900 29.60700
O  -3.05500 26.01400 29.22900
O  -2.57400 27.73600 30.64500
C  -1.48500 26.92000 31.18200
H  -8.75300 22.97300 28.17200
H  -8.34000 23.82000 21.57900
H  -4.41000 28.53900 22.55600
H  -5.67700 25.86900 30.41700
H  -8.42200 24.81900 30.00400
H  -6.02900 22.98800 29.55800
H  -7.51100 22.54500 30.43800
H  -6.37900 23.60200 31.21700
H  -8.45000 27.18200 30.40100
H  -7.11400 28.14900 30.12000
H  -7.98500 27.79900 32.48700
H  -6.31300 28.17900 32.07800
H  -10.86500 21.47100 26.39600
H  -9.32600 21.20600 27.21700
H  -9.62900 20.33900 25.77300
H  -9.94900 19.70500 23.64000
H  -11.24300 20.07200 22.40000
H  -11.49500 20.61300 23.99200
H  -7.71500 26.05200 20.18300
H  -5.06300 26.97900 20.50500
H  -5.91600 23.88200 20.55900
H  -5.21800 25.03900 19.45000
H  -6.82900 24.27500 19.17200
H  -6.67100 29.37000 21.05100
H  -7.63400 28.31900 20.04300
H  -6.71100 29.40900 18.47300
H  -5.23500 28.37000 18.73900
H  -5.43100 29.92800 19.52700
H  -3.35600 30.40700 23.74200
H  -2.04100 29.54700 24.43400
H  -2.67100 30.82300 25.42600
H  -4.75600 28.71400 29.69700
H  -0.64600 26.97800 30.49000
H  -1.81200 25.88000 31.16700
H  -1.18700 27.34200 32.14200

