158

Mg 35.02100 48.21500 26.19200
C  35.13900 46.20900 29.04200
C  34.06400 50.87600 28.03300
C  34.43500 49.90900 23.31800
C  35.49800 45.19900 24.31500
N  34.51300 48.50300 28.23900
C  34.74600 47.56700 29.26800
C  34.56900 48.22300 30.67400
C  33.91000 49.60700 30.27500
C  34.18400 49.69700 28.74600
C  32.35800 49.72700 30.56400
C  35.91600 48.43000 31.39500
C  36.11200 48.11600 32.91600
H  36.24900 49.29000 33.88700
N  34.40900 50.14300 25.79400
C  34.04300 51.08900 26.61700
C  33.62600 52.35100 26.02000
C  33.81900 52.06300 24.61100
C  34.23500 50.63900 24.54400
C  32.95600 53.46900 26.74900
C  33.49100 52.95900 23.39400
O  33.54300 52.55200 22.24900
C  33.02700 54.38700 23.48400
N  34.71800 47.61500 24.18000
C  34.68200 48.50900 23.18200
C  34.56400 47.83600 21.85400
C  35.10900 46.43300 22.09400
C  35.19600 46.35700 23.63700
C  33.23000 47.71400 21.08200
C  36.51500 46.12100 21.46600
C  36.77800 44.66700 20.91100
N  35.27500 46.10600 26.54500
C  35.44900 44.99000 25.66600
C  35.73800 43.77600 26.43600
C  35.65500 44.20000 27.78100
C  35.32300 45.65400 27.78400
C  36.16100 42.45200 25.89800
C  35.77500 43.82000 29.24600
O  36.23300 42.80900 29.79300
C  35.42400 45.11700 30.06900
C  34.29000 44.79300 30.97600
O  33.20400 44.33400 30.59600
O  34.64600 44.90800 32.34400
C  33.51400 44.79600 33.27400
H  33.93100 51.74900 28.67500
H  34.30200 50.37800 22.34100
H  35.68300 44.34900 23.65500
H  33.91400 47.65900 31.33900
H  34.49200 50.37900 30.77900
H  32.33700 50.62500 31.18100
H  32.00000 48.74100 30.86000
H  31.73100 50.11400 29.76100
H  36.39200 49.40500 31.29200
H  36.58700 47.82200 30.79000
H  37.06900 47.59300 32.92100
H  35.24800 47.54600 33.25700
H  33.71400 54.18500 27.06900
H  32.42900 53.07800 27.61900
H  32.24100 53.99600 26.11700
H  32.00200 54.49900 23.83600
H  33.31600 54.83200 22.53200
H  33.64900 54.91600 24.20700
H  35.30000 48.40400 21.28500
H  34.37900 45.70400 21.74300
H  32.36600 48.16400 21.57100
H  32.95100 46.72100 20.73000
H  33.37900 48.24600 20.14200
H  37.17700 46.32400 22.30700
H  36.75300 46.77100 20.62400
H  35.81400 44.30300 20.55500
H  37.19000 44.07200 21.72700
H  37.54500 44.56100 20.14400
H  36.65000 42.74900 24.97000
H  35.32600 41.77200 25.73200
H  37.04800 42.14300 26.45000
H  36.23100 45.47300 30.71100
H  32.71800 45.50100 33.03200
H  34.00400 44.92100 34.24000
H  33.12600 43.77800 33.30700
Mg 9.45500 48.11500 24.56400
C  7.33900 49.14700 27.17600
C  12.16100 49.58100 26.31300
C  11.38400 47.79100 21.72500
C  6.67700 47.42300 22.64400
N  9.72700 49.27900 26.46500
C  8.69200 49.42200 27.42600
C  9.29100 49.78300 28.75200
C  10.67200 50.37000 28.28900
C  10.93200 49.65600 26.95000
C  10.57900 51.93100 28.09700
C  9.44200 48.53100 29.73000
C  8.76500 48.81500 31.06100
H  8.25100 47.59600 31.86400
N  11.47700 48.48900 24.23700
C  12.36500 49.02500 25.06000
C  13.66200 48.86200 24.46600
C  13.45200 48.38600 23.11500
C  12.01200 48.24600 22.96700
C  14.87400 49.19100 25.21200
C  14.51900 48.20700 22.03500
O  14.34800 47.91200 20.87100
C  15.94600 48.24100 22.49100
N  9.10500 47.63400 22.50800
C  10.01900 47.64100 21.55400
C  9.43900 46.96700 20.24100
C  7.96300 46.70200 20.62600
C  7.91700 47.25100 22.03500
C  9.64300 47.82400 19.00200
C  7.41900 45.23000 20.52000
C  8.27900 44.08300 21.05500
N  7.39600 48.16700 24.80600
C  6.36700 47.84000 23.95300
C  5.11800 48.11000 24.59400
C  5.51000 48.62000 25.82400
C  6.84500 48.65600 25.95200
C  3.69500 47.93100 24.07900
C  4.93500 49.18300 26.97900
O  3.72500 49.28500 27.23100
C  6.08600 49.25400 28.00100
C  5.82800 48.06500 28.92500
O  6.46000 46.98900 29.00900
O  4.86200 48.45700 29.77000
C  4.20600 47.50100 30.64600
H  13.05100 49.97900 26.80500
H  12.04000 47.52500 20.89300
H  5.82400 47.24400 21.98500
H  8.83900 50.63700 29.25600
H  11.49600 50.19800 28.98200
H  10.99500 52.36800 27.18900
H  11.12500 52.40600 28.91100
H  9.53500 52.21700 28.22600
H  10.48500 48.34000 29.98200
H  9.08300 47.57400 29.35300
H  8.08900 49.66900 31.11200
H  9.60600 49.08300 31.70000
H  15.50500 48.32200 25.02600
H  14.81800 49.30300 26.29400
H  15.30300 50.08500 24.76000
H  16.66800 47.96400 21.72200
H  15.95300 47.36200 23.13600
H  16.18100 49.15400 23.03900
H  9.94700 46.02500 20.03600
H  7.28800 47.29600 20.00900
H  9.30700 47.31500 18.09800
H  10.65400 48.20400 18.85700
H  9.02900 48.71900 19.09600
H  7.41900 45.05700 19.44300
H  6.42800 45.11100 20.95800
H  8.97000 44.42800 21.82400
H  9.01700 43.75500 20.32300
H  7.67900 43.29900 21.51800
H  3.61200 47.58500 23.04800
H  3.20900 48.90400 24.02400
H  3.31800 47.29300 24.87800
H  6.08300 50.20700 28.52900
H  3.45800 46.90700 30.12000
H  3.72000 48.08100 31.43100
H  4.88800 46.90900 31.25600

