158

Mg 35.96900 2.01900 29.30200
C  33.71300 3.13300 31.82400
C  38.44300 1.92200 31.56600
C  38.04500 1.27900 26.79800
C  33.48200 2.52500 26.99400
N  36.07600 2.62200 31.46000
C  35.03600 2.86600 32.30300
C  35.55000 2.92500 33.68500
C  37.06800 2.59000 33.62300
C  37.19100 2.26900 32.14600
C  38.04100 3.79700 34.01100
C  34.87000 1.75900 34.54100
C  34.71800 1.95600 36.01500
H  35.13400 3.32100 36.61100
N  37.98200 1.56200 29.24600
C  38.81400 1.53300 30.28300
C  40.07600 1.02300 29.77200
C  40.00000 0.84200 28.34100
C  38.64300 1.22000 28.06300
C  41.31200 0.74600 30.66400
C  41.09400 0.43200 27.30000
O  40.78000 0.27000 26.13100
C  42.50000 0.19800 27.71700
N  35.79700 2.17700 27.19100
C  36.83600 1.70500 26.42300
C  36.36300 1.59900 24.97300
C  34.78300 1.53100 25.10000
C  34.67200 2.11400 26.52100
C  36.96400 2.74100 24.10200
C  34.15300 0.07700 25.00900
C  33.43500 -0.25400 23.68300
N  34.01900 2.70700 29.34600
C  33.12000 2.85700 28.32500
C  31.81800 3.32700 28.86600
C  32.04300 3.51600 30.23500
C  33.31600 3.05300 30.49600
C  30.63700 3.70700 28.11700
C  31.42200 3.85700 31.38500
O  30.29900 4.33200 31.50900
C  32.52300 3.70700 32.53500
C  32.81500 5.05300 33.10700
O  33.76800 5.77400 32.80500
O  31.95400 5.30100 34.18100
C  32.14700 6.52600 34.91400
H  39.33900 1.85100 32.18600
H  38.64900 1.11700 25.90200
H  32.66600 2.65700 26.28100
H  35.37100 3.93000 34.06600
H  37.35600 1.74400 34.24600
H  38.23700 4.28100 33.05500
H  38.92600 3.36000 34.47400
H  37.57600 4.59200 34.59400
H  35.37400 0.80400 34.39100
H  33.85400 1.72800 34.14700
H  35.34000 1.14000 36.38400
H  33.70500 1.64800 36.27400
H  42.04900 1.54100 30.55200
H  41.83000 -0.19600 30.48000
H  40.99500 0.67300 31.70500
H  42.78000 0.97900 28.42400
H  43.20200 0.06800 26.89300
H  42.51700 -0.78800 28.18100
H  36.72300 0.69900 24.47400
H  34.38900 2.17500 24.31400
H  37.34700 3.58900 24.66900
H  36.38000 3.04300 23.23200
H  37.86400 2.28400 23.69100
H  33.33800 0.11400 25.73300
H  34.86200 -0.71900 25.23600
H  33.43300 0.65500 23.08000
H  32.43500 -0.68400 23.73500
H  34.08900 -0.95400 23.16400
H  30.99800 4.21500 27.22200
H  30.15800 4.51800 28.66600
H  29.89500 2.92900 27.93900
H  32.16600 2.97800 33.26200
H  33.10200 6.47900 35.43800
H  31.42300 6.63100 35.72200
H  31.98000 7.40700 34.29400
Mg 50.54500 44.94200 42.59700
C  47.43300 46.44600 41.79300
C  49.54500 41.99400 41.04900
C  53.66900 43.89800 42.89900
C  51.58100 48.21900 43.78600
N  48.73400 44.35500 41.56400
C  47.54300 45.07400 41.36400
C  46.50700 44.17500 40.76000
C  47.19000 42.76600 40.80000
C  48.62300 43.05900 41.07100
C  46.52400 41.87400 41.96400
C  46.14200 44.66300 39.30900
C  44.57100 44.59000 39.01300
H  44.03000 43.53100 37.99800
N  51.47800 43.13600 42.12800
C  50.88100 42.01800 41.55600
C  51.87800 41.00900 41.53100
C  53.05000 41.52500 42.15000
C  52.80500 42.91800 42.40000
C  51.62400 39.61200 40.85300
C  54.32600 40.72300 42.50200
O  54.27300 39.53900 42.22000
C  55.65600 41.27200 42.89200
N  52.36500 45.97000 43.23300
C  53.53200 45.23100 43.30000
C  54.65600 46.18100 43.76700
C  53.96300 47.55200 44.02700
C  52.56000 47.24000 43.71800
C  55.54400 45.59200 44.91900
C  54.53100 48.71800 43.12500
C  56.01600 49.09700 43.33300
N  49.66400 46.90500 42.93500
C  50.24200 48.06400 43.35500
C  49.19700 49.06900 43.31000
C  48.11600 48.47700 42.71500
C  48.43500 47.15300 42.43500
C  49.28400 50.46900 43.77600
C  46.82500 48.73300 42.10600
O  46.15500 49.73900 42.19200
C  46.33900 47.39700 41.48200
C  45.08700 47.01300 42.14100
O  45.03400 46.70100 43.32500
O  44.03500 47.17100 41.25000
C  42.66800 47.14300 41.86300
H  49.13900 41.07000 40.63400
H  54.66800 43.56800 43.19200
H  51.86700 49.23800 44.05300
H  45.61500 44.14700 41.38700
H  47.14500 42.21100 39.86300
H  45.47300 41.79800 41.68400
H  46.67800 42.36800 42.92300
H  47.03400 40.91100 41.96800
H  46.67600 44.06500 38.57100
H  46.51000 45.68900 39.29000
H  44.30000 45.53600 38.54400
H  43.97900 44.68300 39.92400
H  52.48100 38.99800 40.57700
H  51.15300 39.71200 39.87600
H  51.05000 38.92600 41.47600
H  55.68900 41.73100 43.88000
H  55.86600 42.03300 42.14000
H  56.27600 40.39000 42.73200
H  55.22400 46.33300 42.84900
H  54.11600 47.69900 45.09600
H  55.86300 46.30600 45.67700
H  56.49400 45.31900 44.46100
H  55.22600 44.69200 45.44500
H  54.06100 49.67000 43.36900
H  54.39300 48.48000 42.07000
H  56.36600 49.73200 42.52000
H  56.67900 48.26000 43.55000
H  56.00100 49.70400 44.23900
H  50.27500 50.72200 44.15300
H  48.42200 50.62500 44.42500
H  49.11800 51.01800 42.84900
H  46.17600 47.50000 40.41000
H  42.38400 46.12900 42.14400
H  41.94900 47.52100 41.13600
H  42.51300 47.82400 42.70100

