158

Mg 2.15500 -1.73600 44.81500
C  5.50600 -1.01200 44.26900
C  1.44700 1.00300 42.72900
C  -1.16300 -2.55000 44.88100
C  3.02200 -4.89900 45.88700
N  3.36700 -0.13800 43.67100
C  4.69400 -0.24300 43.46400
C  5.17600 0.74000 42.36400
C  3.90800 1.63700 42.18800
C  2.79300 0.73300 42.83100
C  4.06800 3.14600 42.70500
C  5.60400 -0.16600 41.16600
C  7.16800 -0.14600 40.94100
H  7.71200 0.41700 39.63600
N  0.37400 -0.77600 44.05500
C  0.30100 0.30400 43.23900
C  -1.10300 0.61400 43.01100
C  -1.85000 -0.46300 43.54100
C  -0.88500 -1.27600 44.27100
C  -1.62100 1.80700 42.23800
C  -3.40600 -0.72000 43.26000
O  -4.03700 0.07500 42.62700
C  -4.18600 -1.86500 43.82000
N  1.11300 -3.47400 45.12700
C  -0.30000 -3.54600 45.29400
C  -0.68900 -4.82700 45.94400
C  0.63500 -5.68000 45.95000
C  1.68900 -4.62300 45.61900
C  -1.38100 -4.62300 47.34600
C  0.75800 -7.04400 45.16400
C  0.00800 -7.14100 43.76400
N  3.86200 -2.73000 45.18800
C  4.15800 -4.00500 45.70400
C  5.60500 -4.14900 45.85900
C  6.14600 -2.95100 45.39100
C  5.07000 -2.12100 44.95900
C  6.17300 -5.47200 46.28300
C  7.40000 -2.21000 45.19100
O  8.62700 -2.42700 45.37400
C  7.02800 -0.82800 44.51400
C  7.21500 0.30500 45.39300
O  7.02000 0.33600 46.61600
O  7.85300 1.37300 44.71000
C  8.23200 2.46200 45.57700
H  1.20100 1.97600 42.29700
H  -2.13800 -3.04000 44.92200
H  3.22100 -5.92600 46.20000
H  5.97300 1.39600 42.71600
H  3.65600 1.82800 41.14400
H  4.18500 3.90800 41.93400
H  5.00100 3.25000 43.25700
H  3.24200 3.27500 43.40500
H  5.05100 0.13800 40.27700
H  5.22700 -1.18100 41.29200
H  7.50600 -1.18200 40.95300
H  7.76900 0.29800 41.73400
H  -2.12200 1.47400 41.32900
H  -0.84900 2.51100 41.92500
H  -2.37800 2.24600 42.88800
H  -5.18800 -1.88700 43.39000
H  -4.24200 -1.82800 44.90800
H  -3.67900 -2.74000 43.41300
H  -1.54900 -5.20500 45.39000
H  0.84000 -5.91100 46.99500
H  -1.36900 -3.57800 47.65400
H  -0.90800 -5.29000 48.06700
H  -2.41900 -4.85600 47.10800
H  0.18200 -7.69000 45.82600
H  1.75400 -7.42300 44.93300
H  0.66400 -7.36100 42.92100
H  -0.53100 -6.21200 43.57700
H  -0.74800 -7.92600 43.78100
H  6.12900 -6.10400 45.39600
H  5.51100 -5.86000 47.05800
H  7.16900 -5.54700 46.72000
H  7.66100 -0.71700 43.63400
H  8.64200 3.33200 45.06600
H  8.96900 2.07700 46.28200
H  7.33200 2.78100 46.10400
Mg 16.39300 53.15600 27.00500
C  18.59200 51.64300 29.20300
C  14.22400 53.63700 29.66200
C  14.29900 54.37300 24.82900
C  18.67000 52.37400 24.42600
N  16.43200 52.70200 29.16800
C  17.46500 52.13000 29.82800
C  17.20600 52.23100 31.36800
C  15.68000 52.30200 31.39400
C  15.35700 52.88000 29.97700
C  15.01000 50.82500 31.65600
C  17.98900 53.40000 32.09300
C  18.23300 53.10400 33.60000
H  17.19500 52.23400 34.40600
N  14.62200 54.08900 27.25900
C  13.86700 54.21800 28.40400
C  12.63000 54.88100 28.08700
C  12.71200 55.25400 26.67000
C  13.91100 54.55600 26.20500
C  11.64500 55.39300 29.14900
C  11.73500 56.17700 25.79100
O  12.00800 56.52400 24.64700
C  10.49600 56.71500 26.46800
N  16.42300 53.29200 24.92800
C  15.37000 53.82600 24.18500
C  15.73200 54.05100 22.66500
C  17.17900 53.41700 22.69400
C  17.45100 53.00800 24.13200
C  14.86300 53.24300 21.62400
C  18.28800 54.27400 21.90100
C  19.44000 54.79300 22.72600
N  18.29500 52.12100 26.79000
C  19.05100 51.75900 25.65900
C  20.17300 51.01100 26.04500
C  20.03900 50.94800 27.42700
C  18.84800 51.64100 27.83200
C  21.18800 50.45800 25.08100
C  20.65000 50.37100 28.64100
O  21.51100 49.54500 28.79100
C  19.75600 50.92600 29.83900
C  19.36300 49.83200 30.77800
O  18.51100 48.99200 30.51700
O  19.96700 49.95700 31.97100
C  19.57500 48.98700 32.99000
H  13.48300 53.75600 30.45600
H  13.53800 54.71900 24.12700
H  19.38500 52.25000 23.61000
H  17.48100 51.30200 31.86700
H  15.25500 52.92700 32.17900
H  15.73300 50.12300 32.07300
H  14.75500 50.44300 30.66700
H  14.18300 50.99800 32.34400
H  17.37700 54.27900 31.88800
H  18.95400 53.51000 31.59800
H  18.39600 54.07700 34.06300
H  19.18400 52.58600 33.72000
H  11.64000 56.48100 29.22800
H  11.93500 55.00600 30.12600
H  10.61500 55.10200 28.93900
H  10.02600 57.40400 25.76600
H  10.93100 57.30500 27.27500
H  9.88400 55.86200 26.76100
H  15.80300 55.11200 22.42200
H  17.13100 52.43800 22.21700
H  15.14600 52.19100 21.60800
H  14.91800 53.68100 20.62800
H  13.84700 53.34600 22.00600
H  17.79300 55.11400 21.41300
H  18.80900 53.69200 21.14100
H  19.11200 54.85300 23.76400
H  19.75000 55.82900 22.58800
H  20.36900 54.22200 22.72600
H  21.28400 49.38400 25.23900
H  22.12300 51.01400 25.14600
H  20.78500 50.57700 24.07500
H  20.40300 51.62900 30.36300
H  18.57500 49.22400 33.35600
H  20.33200 49.09900 33.76600
H  19.62100 47.94900 32.66300

