158

Mg 0.11100 43.21500 27.01500
C  2.51400 42.86300 29.42600
C  -2.34200 42.20900 29.41800
C  -2.35000 43.45900 24.66700
C  2.50900 43.53500 24.52400
N  0.09200 42.61800 29.15000
C  1.18400 42.67000 29.96700
C  0.81900 42.56300 31.45100
C  -0.59100 41.89000 31.37000
C  -0.98900 42.30900 29.87100
C  -0.59100 40.39300 31.57100
C  0.92800 43.86200 32.14200
C  0.90100 43.80300 33.65900
H  0.26800 42.63300 34.41500
N  -2.03500 42.91300 27.04600
C  -2.77500 42.57900 28.13500
C  -4.19100 42.63600 27.80900
C  -4.24200 43.07000 26.43100
C  -2.88700 43.24600 25.97000
C  -5.30900 42.27000 28.78000
C  -5.49500 43.31000 25.40100
O  -5.40100 43.72800 24.25300
C  -6.84300 42.86200 25.89100
N  0.05700 43.25900 24.86700
C  -1.05700 43.47800 24.17600
C  -0.73000 43.72500 22.64500
C  0.77600 43.76800 22.56600
C  1.16200 43.58500 24.07600
C  -1.35500 42.67000 21.71500
C  1.41500 44.91800 21.82900
C  1.92600 46.09000 22.73900
N  2.09600 43.19700 26.92000
C  2.94900 43.32500 25.84200
C  4.35200 43.32200 26.32100
C  4.20000 43.05500 27.68300
C  2.77100 43.01300 28.04700
C  5.71900 43.43700 25.55500
C  5.00600 42.86200 28.89100
O  6.19000 42.57900 29.18600
C  3.95800 42.84400 30.09600
C  4.25200 41.71900 31.03300
O  4.33000 40.52300 30.75000
O  4.39200 42.19400 32.24800
C  4.47500 41.19100 33.30500
H  -3.07300 41.87600 30.15800
H  -3.07200 43.68000 23.87800
H  3.33500 43.66000 23.82100
H  1.47900 41.86200 31.96200
H  -1.27900 42.31400 32.10200
H  0.36500 39.93300 31.82100
H  -0.80600 39.97000 30.59000
H  -1.36400 40.20800 32.31700
H  0.21700 44.58300 31.73900
H  1.90100 44.29600 31.90900
H  0.50600 44.76800 33.97800
H  1.90500 43.88000 34.07700
H  -6.13900 42.91300 28.48800
H  -5.13600 42.60600 29.80300
H  -5.58200 41.21500 28.74600
H  -6.78900 41.83000 26.23800
H  -7.63100 43.08400 25.17200
H  -7.09800 43.47300 26.75700
H  -1.14700 44.70000 22.39400
H  1.16000 42.84100 22.13900
H  -0.56800 42.31500 21.05000
H  -2.25300 43.11800 21.29000
H  -1.59300 41.80000 22.32600
H  0.90000 45.26800 20.93500
H  2.36900 44.48400 21.53000
H  1.22600 46.25500 23.55900
H  2.04300 46.98600 22.12900
H  2.93800 46.00200 23.13300
H  6.51300 43.15100 26.24500
H  5.83900 44.43200 25.12600
H  5.79500 42.73200 24.72800
H  4.12500 43.82600 30.53800
H  5.49500 41.23900 33.68600
H  4.04400 40.19800 33.17800
H  3.85500 41.62400 34.09100
Mg -11.25300 18.28400 42.23300
C  -7.86000 17.39000 41.79500
C  -10.42500 21.53300 41.22200
C  -14.53600 19.14700 42.27800
C  -12.03400 14.89900 42.35300
N  -9.41200 19.28800 41.58600
C  -8.09000 18.75000 41.56100
C  -7.04100 19.72300 40.90000
C  -7.86300 21.08600 40.97500
C  -9.31600 20.60300 41.32400
C  -7.34800 22.12500 42.02500
C  -6.73000 19.23500 39.38500
C  -5.22100 19.13000 39.01300
H  -4.89100 19.27000 37.49400
N  -12.38000 20.15600 41.86700
C  -11.85400 21.37100 41.44500
C  -12.88500 22.39800 41.47300
C  -14.04500 21.73400 41.92600
C  -13.68300 20.22700 41.97600
C  -12.63200 23.79800 41.13800
C  -15.42800 22.36300 42.20700
O  -15.57500 23.53400 42.16900
C  -16.62700 21.58600 42.58500
N  -13.03800 17.17300 42.44100
C  -14.29400 17.76600 42.40400
C  -15.35600 16.62600 42.55000
C  -14.58500 15.31600 42.73000
C  -13.11900 15.79200 42.37800
C  -16.33300 16.80000 43.65400
C  -15.13300 14.23300 41.76900
C  -14.72400 14.34800 40.29800
N  -10.19700 16.51200 42.13800
C  -10.67100 15.24900 42.21300
C  -9.52200 14.30900 42.23000
C  -8.39100 15.13800 42.13000
C  -8.84900 16.41700 41.93800
C  -9.54300 12.88600 42.48800
C  -6.93200 15.12900 42.02200
O  -6.19300 14.17300 42.22800
C  -6.57800 16.61100 41.74300
C  -5.50400 17.10300 42.69000
O  -4.46000 17.58100 42.37200
O  -5.83200 16.87100 44.05800
C  -4.74500 17.12900 45.00100
H  -9.97600 22.45500 40.84700
H  -15.61200 19.28300 42.40500
H  -12.30000 13.84300 42.43700
H  -6.11700 19.88600 41.45500
H  -7.88500 21.53900 39.98400
H  -8.19500 22.34700 42.67500
H  -6.98900 23.03400 41.54300
H  -6.64600 21.68300 42.73200
H  -7.13700 19.96800 38.68900
H  -7.24600 18.30500 39.15000
H  -5.05200 18.06800 39.18700
H  -4.57600 19.78300 39.60200
H  -12.98400 24.37700 41.99200
H  -13.23100 23.91600 40.23500
H  -11.61200 24.09900 40.90100
H  -17.08500 20.93000 41.84400
H  -17.38200 22.22900 43.03700
H  -16.29100 21.02500 43.45700
H  -15.84300 16.62200 41.57500
H  -14.58600 14.84400 43.71300
H  -17.35400 16.71200 43.28200
H  -16.25400 17.79200 44.09700
H  -16.33900 16.10100 44.49000
H  -16.21600 14.20700 41.88900
H  -14.84800 13.22300 42.06300
H  -15.49700 14.12800 39.56300
H  -13.89800 13.64600 40.18200
H  -14.28400 15.30800 40.02600
H  -10.46800 12.51700 42.04300
H  -9.44100 12.66900 43.55100
H  -8.71800 12.38600 41.98100
H  -6.00900 16.61100 40.81300
H  -4.47900 16.15100 45.40300
H  -5.14400 17.77400 45.78500
H  -3.83700 17.63900 44.67700

