158

Mg 26.01200 0.89000 29.26800
C  27.69300 0.56300 32.19200
C  23.05500 1.42700 30.88600
C  24.57400 0.92000 26.16800
C  29.14900 0.18400 27.61100
N  25.32700 0.66600 31.36100
C  26.28700 0.79700 32.32900
C  25.53700 1.21400 33.69100
C  24.14500 1.37000 33.23700
C  24.13500 1.18900 31.74300
C  23.17100 0.41100 34.01200
C  26.14700 2.46600 34.30600
C  26.85900 2.24900 35.65600
H  26.44200 3.11100 36.89300
N  24.14000 1.09100 28.61300
C  23.03800 1.33400 29.44500
C  21.86100 1.36900 28.59400
C  22.25100 1.23100 27.29000
C  23.69600 1.08100 27.31500
C  20.48400 1.50600 29.24600
C  21.47700 1.45200 25.97300
O  21.91000 1.23000 24.85500
C  20.01200 1.85300 26.09300
N  26.74700 0.67000 27.19000
C  25.96100 0.85400 26.11000
C  26.73900 0.58500 24.81400
C  28.23600 0.59300 25.25100
C  28.08400 0.55200 26.79100
C  26.34000 -0.66300 23.94600
C  29.16200 1.80000 24.83200
C  29.74000 1.64100 23.47500
N  27.99500 0.20800 29.73600
C  29.19000 0.06000 28.95200
C  30.26800 -0.18700 29.83200
C  29.69800 0.04600 31.11300
C  28.33100 0.26600 31.03100
C  31.62700 -0.66100 29.56700
C  30.02500 0.12700 32.56100
O  31.04700 0.06400 33.21800
C  28.73400 0.44000 33.27100
C  28.50100 -0.67300 34.27000
O  27.86800 -1.72300 34.05600
O  28.88300 -0.26000 35.53600
C  28.45100 -1.13900 36.65100
H  22.19200 1.88100 31.37800
H  24.17900 0.91400 25.15000
H  30.10700 0.02600 27.11200
H  25.67700 0.35200 34.34300
H  23.81700 2.37300 33.51200
H  23.66700 -0.49400 34.36200
H  22.35200 0.20900 33.32200
H  22.85400 0.89100 34.93700
H  25.37200 3.18100 34.58300
H  26.93200 2.82800 33.64300
H  27.89200 2.56200 35.50400
H  26.90800 1.18300 35.87800
H  19.79600 0.76900 28.83400
H  20.05700 2.50100 29.11700
H  20.32200 1.18500 30.27500
H  19.41700 1.11700 26.63300
H  19.49000 2.05200 25.15700
H  19.86600 2.76400 26.67400
H  26.61200 1.36300 24.06000
H  28.71000 -0.34700 24.96900
H  25.62000 -1.31000 24.44700
H  27.22700 -1.18600 23.59000
H  25.79900 -0.26600 23.08700
H  30.02800 2.03600 25.45000
H  28.52900 2.68400 24.75600
H  29.55500 0.66600 23.02500
H  30.80700 1.86400 23.49300
H  29.32300 2.35200 22.76200
H  32.24700 0.06400 29.04000
H  31.65800 -1.57100 28.97000
H  32.09000 -0.94800 30.51100
H  28.99300 1.39200 33.73600
H  28.71400 -2.17900 36.45400
H  27.37400 -1.06100 36.79800
H  28.99200 -0.81000 37.53800
Mg 42.03300 40.57600 27.02900
C  41.15200 42.95800 29.55200
C  42.99600 38.43000 29.59400
C  43.23700 38.75500 24.82600
C  41.39100 43.23000 24.68500
N  42.06100 40.73400 29.28700
C  41.54100 41.70600 30.07100
C  41.50600 41.35300 31.53100
C  42.27700 39.96200 31.58800
C  42.52800 39.66400 30.03000
C  43.54600 39.85100 32.51800
C  40.11500 41.44300 32.16600
C  39.86000 40.58800 33.44100
H  39.09600 41.20600 34.60800
N  42.93700 38.82100 27.11600
C  43.18000 38.02300 28.25300
C  43.71100 36.73200 27.83500
C  43.78600 36.75000 26.45300
C  43.29000 38.16700 26.06100
C  44.10300 35.64800 28.81300
C  44.18100 35.65500 25.47900
O  44.18800 35.86200 24.26800
C  44.60700 34.32200 26.00900
N  42.21000 40.96000 25.00900
C  42.88500 40.02800 24.30700
C  43.08800 40.41500 22.78100
C  42.42700 41.85700 22.80000
C  41.97500 42.04500 24.22100
C  44.51300 40.33400 22.29000
C  41.23800 41.95100 21.80600
C  40.05500 41.01000 22.09800
N  41.40200 42.68800 27.05400
C  41.16100 43.57600 26.01400
C  40.54500 44.83500 26.48900
C  40.55200 44.59900 27.95500
C  41.06800 43.29100 28.19900
C  40.02400 45.94700 25.70500
C  40.18900 45.20600 29.18900
O  39.73600 46.27700 29.46500
C  40.49200 44.13000 30.28600
C  41.36000 44.82200 31.30800
O  42.55900 45.14800 31.28900
O  40.57800 45.14900 32.41000
C  41.06400 46.00400 33.49800
H  43.28100 37.70800 30.36200
H  43.74100 38.16900 24.05500
H  41.18100 43.99700 23.93600
H  42.08500 42.13000 32.02900
H  41.63000 39.11900 31.83000
H  43.36100 39.04600 33.22900
H  43.82600 40.80300 32.96800
H  44.38300 39.50700 31.91000
H  39.47100 41.07000 31.37000
H  39.94800 42.50000 32.37400
H  40.82400 40.29200 33.85500
H  39.40700 39.61900 33.23300
H  44.02700 35.71200 29.89800
H  45.12900 35.31900 28.64500
H  43.42100 34.82900 28.58600
H  44.05500 33.86200 26.82900
H  45.64000 34.55500 26.26800
H  44.82900 33.64600 25.18300
H  42.43700 39.76800 22.19300
H  43.13700 42.64700 22.55300
H  44.65300 40.12600 21.23000
H  44.92400 39.49100 22.84500
H  45.06400 41.20300 22.64900
H  41.62300 41.52400 20.88000
H  40.94800 43.00100 21.84200
H  40.03600 40.74400 23.15500
H  40.08400 40.22800 21.33900
H  39.22100 41.70600 22.01100
H  39.01500 46.09300 26.09100
H  39.87500 45.73300 24.64600
H  40.70300 46.79600 25.78200
H  39.53700 43.84300 30.72600
H  41.75500 46.76600 33.13600
H  41.51400 45.40000 34.28500
H  40.19100 46.48100 33.94400

