158

Mg 23.46100 -5.13200 45.74000
C  25.61300 -2.72200 44.21700
C  20.83600 -3.82700 43.84700
C  21.71500 -7.70900 46.67900
C  26.31400 -6.38800 47.38800
N  23.31800 -3.54700 44.15100
C  24.28600 -2.67400 43.75400
C  23.68300 -1.55400 42.84800
C  22.15200 -1.75000 43.04800
C  22.05700 -3.13800 43.67300
C  21.39800 -0.73700 43.98400
C  24.09000 -1.73500 41.34200
C  24.77900 -0.62500 40.58700
H  25.42000 -0.96300 39.21800
N  21.50800 -5.75500 45.21900
C  20.59400 -5.08100 44.51100
C  19.34300 -5.79800 44.65900
C  19.56100 -6.99600 45.36100
C  20.99300 -6.86000 45.79400
C  18.16700 -5.26700 44.07800
C  18.59900 -8.14100 45.54000
O  17.49000 -8.01300 45.07600
C  18.94400 -9.50100 46.17800
N  24.03600 -6.93500 46.78600
C  23.09000 -7.82500 47.02800
C  23.71200 -8.97100 47.85200
C  25.04500 -8.42300 48.36900
C  25.14400 -7.15500 47.46200
C  22.75900 -9.52600 48.91900
C  26.21600 -9.49600 48.23900
C  27.43600 -9.46300 49.19300
N  25.58900 -4.71800 45.86300
C  26.66000 -5.32200 46.52200
C  27.83700 -4.57100 46.30600
C  27.47900 -3.54100 45.46300
C  26.07200 -3.68700 45.11900
C  29.21800 -4.89800 46.88700
C  28.03100 -2.34800 44.75200
O  29.13500 -1.83200 44.63000
C  26.74500 -1.76100 43.94500
C  26.53000 -0.28400 44.20200
O  25.46400 0.22600 44.67200
O  27.59000 0.41700 43.73600
C  27.57300 1.89200 43.68500
H  19.92700 -3.35200 43.47400
H  21.15400 -8.62400 46.88100
H  27.15300 -6.68100 48.02300
H  24.03500 -0.54100 43.04200
H  21.60200 -1.83200 42.11100
H  22.16100 -0.16100 44.50800
H  20.69800 -1.26600 44.63200
H  20.80400 -0.18300 43.25700
H  23.30100 -2.14000 40.70700
H  24.76200 -2.59000 41.27200
H  25.49000 -0.08800 41.21500
H  23.99300 0.11100 40.41700
H  18.09200 -5.65200 43.06100
H  18.14500 -4.17800 44.03200
H  17.31200 -5.73300 44.56700
H  19.89800 -9.85400 45.78500
H  18.24000 -10.29500 45.92800
H  19.10300 -9.42400 47.25300
H  23.99800 -9.75800 47.15400
H  24.94600 -8.06300 49.39300
H  21.70000 -9.28200 49.00600
H  23.15200 -9.39700 49.92800
H  22.72500 -10.60800 48.79000
H  26.59000 -9.33600 47.22700
H  25.72600 -10.46900 48.23000
H  28.28700 -9.00700 48.68600
H  27.81300 -10.47600 49.33900
H  27.20800 -9.12900 50.20500
H  29.42300 -5.96600 46.96200
H  29.12500 -4.62200 47.93700
H  30.01500 -4.38600 46.34900
H  26.80100 -1.75400 42.85700
H  27.83000 2.23200 44.68800
H  26.61600 2.19600 43.26100
H  28.38600 2.13300 43.00000
Mg 25.47600 1.83100 29.67100
C  27.71200 1.69300 32.54300
C  23.00800 2.02500 31.85800
C  23.47200 1.45000 27.07000
C  28.24700 0.74400 27.74100
N  25.35400 2.00700 31.96300
C  26.39400 2.00000 32.91800
C  25.87900 2.36600 34.30300
C  24.30700 2.32800 34.04400
C  24.14700 2.14700 32.54500
C  23.53400 1.28300 34.87500
C  26.37000 3.72100 34.86800
C  27.39000 3.73600 36.06000
H  26.93600 4.57600 37.37500
N  23.54400 1.77400 29.46800
C  22.65100 1.90100 30.51800
C  21.28900 1.77500 30.01800
C  21.39400 1.66800 28.60100
C  22.83800 1.60500 28.30000
C  20.12700 2.02800 30.94400
C  20.35800 1.49700 27.50100
O  20.58700 1.26300 26.32200
C  18.93600 1.61400 27.85900
N  25.79100 1.18500 27.65300
C  24.81700 1.35900 26.73800
C  25.38400 1.24500 25.32900
C  26.90700 1.05900 25.51900
C  27.00600 0.93300 27.07300
C  24.72000 0.24100 24.33000
C  27.65200 2.41600 24.98900
C  27.65900 3.74400 25.84200
N  27.52700 1.45600 29.99100
C  28.49800 0.94800 29.08800
C  29.79100 0.82800 29.77100
C  29.46400 0.97400 31.09200
C  28.10600 1.35100 31.21800
C  31.07400 0.54600 29.00600
C  30.09500 0.93900 32.42900
O  31.21600 0.66100 32.75300
C  28.96800 1.47700 33.39400
C  28.78600 0.50100 34.52700
O  28.08100 -0.51300 34.49100
O  29.46900 0.98200 35.64800
C  29.30900 0.05900 36.75800
H  22.17000 2.09100 32.55600
H  22.82900 1.46500 26.18800
H  29.17200 0.66100 27.16600
H  26.09200 1.51500 34.95000
H  23.77600 3.22900 34.35200
H  22.45400 1.42900 34.87000
H  24.02200 1.10100 35.83300
H  23.51000 0.35600 34.30300
H  25.55300 4.42900 35.00300
H  26.85800 4.19300 34.01500
H  28.37100 4.13400 35.80100
H  27.49900 2.71100 36.41600
H  19.93700 3.10100 30.92800
H  20.25300 1.68000 31.97000
H  19.20700 1.60100 30.54500
H  18.33300 1.27400 27.01800
H  18.75000 2.64900 28.14700
H  18.82300 0.92100 28.69300
H  25.20600 2.26600 24.99200
H  27.40900 0.19000 25.09400
H  24.02700 -0.35300 24.92500
H  25.40700 -0.44800 23.83800
H  24.20200 0.81800 23.56400
H  27.24600 2.71900 24.02400
H  28.71000 2.20000 24.83700
H  27.07000 3.52400 26.73300
H  27.23600 4.56700 25.26800
H  28.59900 4.03400 26.31100
H  31.04600 0.10700 28.00800
H  31.73600 -0.02100 29.66000
H  31.57800 1.50400 28.87200
H  29.19600 2.45800 33.81100
H  29.32200 -0.96600 36.38900
H  28.47000 0.39300 37.36900
H  30.19700 0.11400 37.38800

