158

Mg 41.17900 8.64700 29.65700
C  43.04500 9.49300 32.40300
C  38.85700 7.31000 31.71100
C  39.60200 7.47500 26.98800
C  44.03900 9.08900 27.56300
N  41.02300 8.26900 31.86300
C  41.81800 8.92600 32.78700
C  41.16400 8.81400 34.21500
C  40.07200 7.70000 33.99300
C  39.98400 7.75500 32.41500
C  40.54700 6.29000 34.58200
C  40.63900 10.22600 34.69700
C  40.43700 10.47200 36.23300
H  41.48000 11.22000 37.04200
N  39.32800 7.64400 29.33300
C  38.50100 7.21400 30.34600
C  37.20500 6.84100 29.74000
C  37.37200 6.93600 28.30500
C  38.76500 7.35400 28.10400
C  35.98500 6.46600 30.56100
C  36.43300 6.61900 27.03100
O  36.87400 6.57200 25.87400
C  35.05600 6.42600 27.25800
N  41.91100 8.00700 27.72000
C  40.93400 7.69400 26.80700
C  41.47600 7.52000 25.35900
C  42.86900 8.18500 25.49600
C  42.94800 8.44400 27.00200
C  41.44200 6.03000 24.85000
C  43.03900 9.54200 24.67500
C  41.91100 10.59300 24.72100
N  43.24700 9.16500 29.84500
C  44.30100 9.33800 28.93700
C  45.36200 9.94000 29.76500
C  44.92100 10.09400 31.06200
C  43.64500 9.53800 31.06800
C  46.61300 10.50200 29.21200
C  45.26300 10.60200 32.37800
O  46.17600 11.29100 32.77700
C  44.10200 10.14700 33.30900
C  44.62500 9.22100 34.33000
O  44.50300 8.01000 34.30200
O  45.42100 9.96400 35.19600
C  46.29300 9.14700 36.15700
H  38.12400 7.05400 32.48000
H  39.08500 7.35900 26.03300
H  44.88900 9.37100 26.93700
H  41.96500 8.43900 34.85300
H  39.09200 7.95200 34.39900
H  41.61300 6.37800 34.78900
H  40.33700 5.53400 33.82500
H  39.87600 5.88500 35.34000
H  39.73100 10.40300 34.12100
H  41.43600 10.86700 34.32000
H  40.22900 9.51700 36.71700
H  39.51000 11.03500 36.33700
H  35.95300 5.37800 30.62100
H  35.03000 6.76000 30.12400
H  36.01300 6.81300 31.59400
H  34.64100 6.09300 26.30700
H  34.58100 7.33900 27.61900
H  34.85600 5.56700 27.89800
H  40.89700 8.07700 24.62200
H  43.67400 7.47700 25.29600
H  40.43400 5.67700 24.63500
H  41.93500 5.33800 25.53400
H  42.06800 6.01000 23.95800
H  43.34000 9.13200 23.71100
H  43.90800 10.06300 25.07700
H  41.63200 10.84700 23.69900
H  42.37300 11.48200 25.15000
H  41.03700 10.29300 25.29900
H  46.42100 11.23800 28.43100
H  47.05400 9.61900 28.75000
H  47.04800 11.04100 30.05300
H  43.71200 11.05000 33.77900
H  46.78600 8.38800 35.55000
H  45.65000 8.67100 36.89700
H  46.92600 9.83500 36.71800
Mg -10.57400 38.75900 40.82900
C  -9.55200 35.51700 39.96600
C  -7.66800 39.98400 39.47500
C  -11.90400 41.83900 40.50200
C  -13.66500 37.42100 41.76600
N  -8.77800 37.78100 39.89900
C  -8.55100 36.44100 39.72100
C  -7.16100 36.21600 39.17400
C  -6.55300 37.68400 39.11100
C  -7.67200 38.55800 39.59500
C  -5.30900 37.91300 39.99300
C  -7.17100 35.35200 37.89400
C  -6.75700 36.01100 36.56400
H  -7.90700 36.79100 35.77600
N  -9.80100 40.70600 40.20200
C  -8.57700 40.96700 39.72600
C  -8.36600 42.41000 39.51400
C  -9.58900 42.96700 39.95600
C  -10.59000 41.82800 40.20100
C  -7.12200 42.96300 38.97000
C  -9.83500 44.44700 40.06500
O  -8.93600 45.19100 39.73500
C  -11.12500 45.02800 40.49900
N  -12.52400 39.50300 41.01800
C  -12.86100 40.84800 40.89000
C  -14.39300 41.07000 41.12000
C  -14.84300 39.63900 41.59200
C  -13.59400 38.77600 41.41200
C  -15.04000 42.13100 41.96800
C  -16.12700 39.07700 40.86300
C  -15.84800 38.32400 39.61400
N  -11.39600 36.85800 41.15700
C  -12.64700 36.49800 41.50300
C  -12.69300 35.05900 41.57400
C  -11.53500 34.66400 40.89100
C  -10.81700 35.81700 40.62200
C  -13.86500 34.20200 42.14900
C  -10.76300 33.46100 40.46200
O  -11.00600 32.31200 40.38800
C  -9.49200 34.01500 39.77400
C  -8.28500 33.29800 40.28900
O  -7.93500 33.30600 41.46700
O  -7.61400 32.67000 39.30200
C  -6.53600 31.80300 39.72300
H  -6.63700 40.31000 39.32100
H  -12.39900 42.76300 40.19700
H  -14.61100 37.02200 42.13900
H  -6.68600 35.71400 40.01700
H  -6.42600 38.07400 38.10100
H  -5.55000 38.75100 40.64800
H  -4.40500 38.10700 39.41500
H  -5.28800 37.06900 40.68300
H  -8.10000 34.82800 37.67100
H  -6.41300 34.57700 38.00900
H  -6.45400 35.21800 35.88100
H  -5.85600 36.60400 36.72400
H  -6.64500 42.34100 38.21300
H  -6.43600 43.03600 39.81500
H  -7.32300 43.92500 38.49800
H  -11.41800 44.65800 41.48200
H  -11.85200 44.97700 39.68800
H  -10.89300 46.09200 40.54800
H  -14.76000 41.19900 40.10100
H  -14.97200 39.63200 42.67400
H  -15.92600 41.81100 42.51700
H  -15.39800 42.99900 41.41400
H  -14.25000 42.34700 42.68800
H  -16.64600 39.98300 40.55300
H  -16.79600 38.53600 41.53300
H  -16.42000 38.79700 38.81600
H  -16.03700 37.25900 39.75100
H  -14.86000 38.37500 39.15800
H  -13.60500 33.81600 43.13500
H  -14.09900 33.37600 41.47800
H  -14.77800 34.79200 42.22400
H  -9.68600 33.66400 38.76000
H  -6.16700 31.99500 40.73000
H  -5.76600 32.03800 38.98900
H  -6.78100 30.74300 39.64600

