158

Mg 46.44300 4.78900 47.60100
C  44.89200 7.87600 46.53600
C  43.58800 3.20900 46.68900
C  48.31200 1.99600 47.64600
C  49.35100 6.75700 48.41400
N  44.53500 5.43700 46.64400
C  44.11900 6.78300 46.29900
C  42.71000 6.70700 45.70800
C  42.28700 5.20600 45.88500
C  43.53300 4.56300 46.50700
C  40.98800 4.95600 46.68800
C  42.58700 7.26100 44.26500
C  41.41500 8.27900 44.12000
H  40.28700 8.04100 43.14800
N  46.03900 2.88400 47.23600
C  44.74000 2.42100 46.98300
C  44.87000 0.98600 46.86800
C  46.19100 0.52600 47.11200
C  46.92900 1.78800 47.35000
C  43.72900 -0.00800 46.41100
C  46.77000 -0.86700 47.11400
O  46.05200 -1.79600 46.90000
C  48.18100 -1.22000 47.29500
N  48.55900 4.44200 47.93300
C  49.08300 3.19900 47.74400
C  50.62300 3.23000 47.96700
C  50.93400 4.74000 48.37000
C  49.54100 5.36400 48.27700
C  51.15500 2.17900 49.01600
C  52.12800 5.29900 47.55900
C  51.82100 5.96300 46.22300
N  46.99300 6.89700 47.68500
C  48.22900 7.48700 48.02700
C  48.06400 8.93900 48.10400
C  46.76300 9.12100 47.50000
C  46.21200 7.86800 47.21100
C  49.11300 9.94100 48.54300
C  45.74000 10.08400 47.07900
O  45.75600 11.34200 47.19900
C  44.45500 9.27600 46.46400
C  43.29000 9.62400 47.21400
O  42.97100 9.11200 48.27600
O  42.64900 10.59300 46.42100
C  41.37900 11.10700 46.99900
H  42.68500 2.65300 46.42700
H  48.91600 1.09600 47.77300
H  50.24500 7.25500 48.79800
H  42.21100 7.35400 46.42900
H  42.17900 4.76900 44.89200
H  40.48200 4.29500 45.98500
H  40.48600 5.89300 46.93000
H  41.18800 4.44400 47.62900
H  42.26300 6.44900 43.61500
H  43.43500 7.77600 43.81200
H  41.80800 9.26100 43.85500
H  40.84700 8.36300 45.04600
H  42.82500 0.57900 46.24700
H  43.56500 -0.74300 47.19900
H  44.08800 -0.61900 45.58300
H  48.22200 -2.30900 47.31000
H  48.36200 -0.88300 48.31600
H  48.73500 -0.78800 46.46100
H  50.90900 2.93900 46.95700
H  51.16100 4.71800 49.43600
H  51.45900 1.25500 48.52400
H  50.30700 2.01400 49.68100
H  51.99200 2.42500 49.67000
H  52.72200 4.44200 47.23900
H  52.76700 5.81800 48.27400
H  52.25000 6.96100 46.30700
H  50.76400 6.13100 46.01700
H  52.23200 5.45100 45.35200
H  48.61000 10.88200 48.76400
H  49.85400 10.20400 47.78800
H  49.51700 9.59800 49.49500
H  44.44800 9.56800 45.41400
H  41.51300 11.14600 48.08000
H  40.47000 10.54600 46.78300
H  41.29300 12.09400 46.54500
Mg -12.15300 39.06700 41.45100
C  -10.17400 36.27600 40.54100
C  -9.68400 41.10000 40.01300
C  -14.34000 41.49000 41.49800
C  -14.78400 36.74400 42.16200
N  -10.21100 38.64200 40.27600
C  -9.58800 37.46300 40.10100
C  -8.14300 37.66100 39.53600
C  -7.94900 39.19000 39.71100
C  -9.36400 39.69900 39.99000
C  -6.89600 39.74500 40.76400
C  -8.01300 37.03800 38.11300
C  -7.26500 35.72300 37.92000
H  -6.08600 35.77900 36.91500
N  -12.01100 41.07200 40.95000
C  -10.95100 41.72600 40.38000
C  -11.30000 43.17900 40.27800
C  -12.66000 43.23900 40.81900
C  -13.08000 41.88800 41.01900
C  -10.42800 44.25400 39.81800
C  -13.39400 44.57000 41.00100
O  -12.87600 45.59600 40.49000
C  -14.81900 44.65800 41.56800
N  -14.26000 39.07700 41.66600
C  -14.90700 40.27400 41.77700
C  -16.42000 40.01900 41.90100
C  -16.57000 38.51200 42.05600
C  -15.10600 38.06000 42.00400
C  -17.07100 40.93800 42.98100
C  -17.39900 37.69300 41.01000
C  -18.49200 36.82600 41.73600
N  -12.42200 37.01000 41.58300
C  -13.53100 36.17800 41.95300
C  -13.14300 34.80500 41.92400
C  -11.82900 34.84000 41.44200
C  -11.44300 36.14100 41.16800
C  -14.00700 33.62100 42.31500
C  -10.77400 33.99500 41.09000
O  -10.60300 32.77900 41.31500
C  -9.70600 34.91900 40.43700
C  -8.38200 34.69500 41.09900
O  -7.50500 33.90400 40.75900
O  -8.18300 35.52100 42.17000
C  -6.98900 35.31900 43.10000
H  -8.84300 41.75100 39.76300
H  -15.17600 42.18200 41.37600
H  -15.56800 36.00600 42.34500
H  -7.45100 37.19700 40.24000
H  -7.53100 39.48100 38.74700
H  -7.25100 40.71800 41.10300
H  -5.91900 39.75400 40.27900
H  -6.90800 38.98800 41.54800
H  -7.60100 37.75300 37.40100
H  -9.05800 36.93900 37.82200
H  -8.00200 34.96800 37.64700
H  -6.78300 35.36900 38.83200
H  -10.46300 45.11000 40.49100
H  -10.66900 44.29500 38.75600
H  -9.39700 43.90800 39.74200
H  -15.61900 44.37500 40.88500
H  -15.04400 45.64400 41.97400
H  -14.84600 44.02400 42.45400
H  -16.72600 40.23800 40.87800
H  -16.93600 38.24700 43.04800
H  -17.71400 41.59700 42.39700
H  -16.29700 41.50800 43.49500
H  -17.58700 40.41400 43.78500
H  -16.85200 36.97500 40.39900
H  -17.98800 38.33600 40.35600
H  -19.43100 37.33900 41.52700
H  -18.40300 36.74500 42.82000
H  -18.53400 35.86500 41.22400
H  -14.87800 33.88900 42.91300
H  -13.45700 32.78700 42.75100
H  -14.43800 33.25400 41.38300
H  -9.47400 34.73600 39.38800
H  -7.31600 35.67900 44.07500
H  -6.07300 35.82700 42.79800
H  -6.76500 34.25200 43.10400

