158

Mg 43.11000 41.95900 25.74100
C  41.98200 44.17200 27.96400
C  44.03600 39.71400 28.27900
C  43.83600 39.44600 23.44800
C  42.16500 44.07700 23.16300
N  43.04700 41.98500 27.84300
C  42.45800 42.99800 28.57400
C  42.46500 42.64000 30.03000
C  43.40800 41.32600 30.09300
C  43.60500 40.97900 28.62300
C  44.77900 41.40400 30.74900
C  40.96800 42.49400 30.53400
C  40.56000 43.02600 31.97300
H  41.53300 42.80500 33.22700
N  43.95700 39.88400 25.85100
C  44.14400 39.18800 26.94100
C  44.61300 37.86800 26.60300
C  44.60600 37.78700 25.20300
C  44.17400 39.08100 24.74300
C  44.95500 36.90000 27.67300
C  44.88900 36.59900 24.32500
O  44.86300 36.66400 23.12100
C  45.44000 35.27700 24.83900
N  42.96400 41.78800 23.58300
C  43.39600 40.68300 22.86200
C  43.32600 40.94100 21.36900
C  42.64900 42.42300 21.28600
C  42.60200 42.79000 22.77400
C  44.73000 40.75400 20.72100
C  41.21300 42.45000 20.62600
C  40.04000 41.78000 21.42500
N  42.38500 43.86300 25.48900
C  41.99200 44.62900 24.43000
C  41.55200 45.91800 24.85400
C  41.42000 45.82400 26.31200
C  41.96900 44.53100 26.59200
C  41.19000 47.05500 23.95700
C  40.93400 46.32700 27.51900
O  40.32300 47.41200 27.63400
C  41.31000 45.35300 28.60900
C  42.09700 46.10300 29.66800
O  43.30600 46.02800 29.75900
O  41.25500 46.65400 30.62400
C  41.89800 47.07300 31.88700
H  44.08400 39.04900 29.14400
H  44.02300 38.71400 22.66000
H  41.74600 44.78100 22.44100
H  42.93200 43.35600 30.70700
H  42.75700 40.55500 30.50400
H  44.72400 40.70700 31.58600
H  44.97300 42.40200 31.14100
H  45.57300 41.26600 30.01500
H  40.81900 41.42100 30.65800
H  40.26300 42.87800 29.79600
H  39.56900 42.65100 32.23100
H  40.42800 44.10200 31.86000
H  45.45700 37.49200 28.43900
H  45.54400 35.99700 27.51500
H  43.92500 36.69200 27.96100
H  45.10100 34.93000 25.81500
H  46.49900 35.53700 24.84100
H  45.23700 34.44300 24.16700
H  42.67100 40.30700 20.77200
H  43.28100 43.14600 20.77100
H  45.45800 40.37500 21.43800
H  45.07700 41.72400 20.36500
H  44.59800 40.05900 19.89200
H  41.09200 41.88400 19.70200
H  40.95400 43.46200 20.31700
H  39.38300 41.16700 20.80800
H  39.51100 42.59400 21.92200
H  40.49900 41.06000 22.10200
H  40.23900 46.96900 23.43100
H  41.94800 47.14800 23.17900
H  41.27100 48.03200 24.43400
H  40.33600 45.08400 29.01900
H  42.07800 46.24000 32.56600
H  41.43200 47.90100 32.42100
H  42.84800 47.51500 31.58800
Mg 9.93600 47.97200 26.30200
C  8.01700 48.09800 29.17800
C  12.55500 49.47800 28.04700
C  11.92400 47.28900 23.73000
C  7.11600 47.15800 24.40200
N  10.20600 48.67700 28.33800
C  9.38000 48.44300 29.44700
C  9.94900 49.01000 30.74700
C  11.12800 49.82300 30.23300
C  11.35300 49.36100 28.73200
C  10.96500 51.36000 30.46200
C  10.42200 47.92800 31.85800
C  9.81700 48.30900 33.30400
H  9.73100 47.17200 34.31900
N  12.01200 48.18000 26.01500
C  12.89000 48.79900 26.87000
C  14.18900 48.55400 26.39600
C  14.07500 48.02900 25.01700
C  12.65800 47.84600 24.83900
C  15.40900 49.13900 27.15100
C  15.18000 47.67200 23.98200
O  14.91500 47.33100 22.86000
C  16.66600 47.75700 24.38100
N  9.59100 47.52100 24.28700
C  10.57000 47.15900 23.39700
C  10.05900 46.54400 22.08200
C  8.55200 46.50000 22.32800
C  8.38300 47.03100 23.75300
C  10.41500 47.38600 20.82700
C  8.00400 45.05200 22.15700
C  8.42000 44.02300 23.26500
N  7.94700 47.93400 26.63600
C  6.93300 47.43000 25.77200
C  5.74700 47.22700 26.53300
C  6.07900 47.53500 27.90800
C  7.44700 47.91600 27.90100
C  4.44000 46.76800 26.02400
C  5.56800 47.71100 29.29000
O  4.45300 47.73900 29.80300
C  6.83600 47.94600 30.17500
C  7.17900 46.79100 31.08400
O  7.96200 45.86900 30.84500
O  6.41700 47.01400 32.20000
C  6.22200 45.85800 33.07700
H  13.27400 49.97000 28.70600
H  12.59500 47.05200 22.90100
H  6.33600 46.76900 23.74400
H  9.20900 49.70200 31.15000
H  12.02500 49.44300 30.72200
H  11.07700 51.78800 29.46600
H  11.65600 51.70000 31.23400
H  9.94100 51.59400 30.75200
H  11.50000 47.90200 32.01100
H  10.09000 46.98100 31.43300
H  8.79000 48.67100 33.25900
H  10.46700 49.11200 33.65200
H  15.14500 49.45300 28.16100
H  15.99100 49.81100 26.52100
H  16.10800 48.32200 27.33200
H  16.76200 47.33900 25.38300
H  17.10000 48.73700 24.57700
H  17.24800 47.25600 23.60700
H  10.60800 45.60300 22.13100
H  8.09800 47.12000 21.55400
H  11.44900 47.28700 20.49700
H  10.15500 48.40400 21.11700
H  9.77200 47.05800 20.01100
H  8.19900 44.71400 21.14000
H  6.92500 45.13000 22.29600
H  8.61900 44.47700 24.23600
H  9.34500 43.53300 22.96100
H  7.56200 43.35200 23.31200
H  3.82300 47.50700 25.51300
H  3.87800 46.50900 26.92100
H  4.56200 45.85500 25.44200
H  6.70700 48.85000 30.77000
H  5.17000 45.58300 33.00400
H  6.58500 46.13000 34.06900
H  6.77200 44.97900 32.74100

