158

Mg 46.52100 17.12300 28.86600
C  44.88600 16.87100 31.89400
C  48.99800 19.03900 30.50700
C  47.96600 17.64400 25.77600
C  44.06100 15.46200 27.35300
N  47.02900 17.73600 31.08700
C  46.12000 17.46800 32.09100
C  46.59200 18.09100 33.40200
C  47.82900 18.99400 32.97300
C  47.95700 18.59400 31.41400
C  47.69900 20.57500 33.07400
C  46.90500 17.07100 34.53600
C  46.33400 17.40900 35.95000
H  46.49000 18.85300 36.41700
N  48.22900 18.12200 28.22500
C  49.14400 18.77600 29.06700
C  50.14800 19.37600 28.17200
C  49.94500 18.94300 26.83900
C  48.69700 18.13400 26.91800
C  51.23600 20.21900 28.73700
C  50.79100 19.24600 25.61100
O  50.53400 18.83000 24.51400
C  52.05000 20.07200 25.76100
N  46.10300 16.50400 26.95900
C  46.77800 16.91900 25.82500
C  45.98200 16.62000 24.53400
C  44.99300 15.53400 25.04000
C  45.09400 15.77400 26.58100
C  45.28900 17.96700 24.13500
C  45.31000 14.10100 24.49800
C  44.94100 13.86800 23.00600
N  44.83100 16.24200 29.50600
C  43.83700 15.72600 28.70500
C  42.69800 15.42100 29.48200
C  43.09800 15.79500 30.73500
C  44.36300 16.33000 30.68100
C  41.35200 14.83200 29.01400
C  42.60200 15.91600 32.12900
O  41.52100 15.60500 32.60900
C  43.75000 16.62600 32.95500
C  43.19500 17.82900 33.63200
O  43.38200 19.00600 33.33900
O  42.45200 17.44200 34.72400
C  41.83200 18.59700 35.49100
H  49.74800 19.63000 31.03500
H  48.36100 17.80200 24.77100
H  43.25400 14.88900 26.89200
H  45.80300 18.79200 33.67400
H  48.74300 18.78300 33.52900
H  46.81500 20.84600 33.65000
H  47.59000 20.96500 32.06100
H  48.59900 20.96800 33.54800
H  47.96500 16.89600 34.72100
H  46.38900 16.16500 34.21600
H  46.90700 16.79700 36.64600
H  45.28100 17.14600 36.04300
H  50.84400 20.57200 29.69100
H  51.52800 21.07600 28.13100
H  52.16600 19.69900 28.96900
H  52.74600 19.78000 24.97400
H  52.39100 19.79200 26.75700
H  51.90100 21.14500 25.64600
H  46.69500 16.35200 23.75500
H  43.95900 15.74600 24.77000
H  45.94800 18.66500 23.61800
H  44.83000 18.41300 25.01700
H  44.42500 17.78500 23.49700
H  44.83600 13.36500 25.14700
H  46.37400 14.05400 24.73100
H  44.02600 14.42000 22.79100
H  44.73100 12.80200 22.92000
H  45.77800 14.11400 22.35200
H  41.35000 13.74200 29.03200
H  41.23800 15.22300 28.00300
H  40.55600 15.24400 29.63400
H  43.99600 15.88500 33.71600
H  41.92800 18.41200 36.56100
H  40.77500 18.83600 35.37800
H  42.21300 19.59800 35.28600
Mg 9.93200 46.68500 26.29200
C  7.64400 47.12100 28.97000
C  12.32400 48.17300 28.31500
C  11.85600 46.80000 23.58100
C  7.19600 46.02300 24.27600
N  10.07200 47.26100 28.41100
C  9.01200 47.29900 29.34400
C  9.47200 47.67600 30.81300
C  10.77800 48.39100 30.41800
C  11.13300 47.82300 29.01200
C  10.58400 49.96200 30.43200
C  9.62400 46.34300 31.65300
C  9.33500 46.42300 33.13700
H  10.06900 45.39100 34.02400
N  11.89600 47.22700 25.97400
C  12.69800 47.85000 26.96000
C  14.01400 47.92500 26.43800
C  13.94600 47.55100 25.06200
C  12.56900 47.21900 24.80000
C  15.20000 48.41500 27.24200
C  15.09800 47.45300 24.02100
O  14.77000 47.12200 22.89500
C  16.47300 47.66900 24.32400
N  9.56700 46.54100 24.17400
C  10.59300 46.49500 23.28400
C  10.05200 46.25000 21.80300
C  8.58500 45.85100 22.10200
C  8.45600 46.01600 23.62600
C  10.32000 47.47200 20.92400
C  7.97900 44.51100 21.51200
C  7.43700 44.60300 20.07100
N  7.84700 46.76000 26.50500
C  6.86600 46.41100 25.62300
C  5.55900 46.44900 26.23100
C  5.79700 46.68900 27.61000
C  7.19400 46.90700 27.68600
C  4.20400 46.22900 25.52600
C  5.17100 46.88200 28.87500
O  3.97900 46.81900 29.21200
C  6.29500 47.34400 29.77300
C  6.10400 46.52700 31.04500
O  6.47900 45.35900 31.15900
O  5.43700 47.21400 32.01900
C  5.17400 46.35400 33.16400
H  13.05300 48.71100 28.92400
H  12.42300 46.94700 22.65900
H  6.32700 45.66300 23.72100
H  8.74800 48.35200 31.26900
H  11.58700 48.15100 31.10800
H  10.40200 50.32100 29.41900
H  11.47700 50.42400 30.85200
H  9.79600 50.28000 31.11500
H  10.64400 45.96700 31.57200
H  8.91400 45.66100 31.18600
H  8.27700 46.19200 33.26100
H  9.48500 47.45200 33.46300
H  15.03400 48.42200 28.32000
H  15.72200 49.28300 26.84100
H  15.94900 47.62300 27.24600
H  16.89600 46.86700 24.92900
H  16.69000 48.47500 25.02400
H  16.95000 47.84800 23.36000
H  10.55300 45.43300 21.28500
H  7.86600 46.56700 21.70400
H  10.99900 48.17100 21.41300
H  9.38800 47.96100 20.64200
H  10.71900 47.12900 19.96900
H  7.11800 44.21900 22.11300
H  8.78200 43.78300 21.63400
H  8.15100 44.11000 19.41100
H  7.36400 45.57600 19.58500
H  6.42400 44.22300 19.93900
H  3.84000 45.25200 25.84200
H  4.25200 46.31000 24.44000
H  3.42600 46.91900 25.85200
H  6.22600 48.39100 30.06700
H  4.29400 46.82700 33.59900
H  6.07800 46.24700 33.76500
H  4.82100 45.33100 33.03300

