158

Mg 47.17000 44.43000 42.78800
C  43.75200 43.89600 42.17000
C  47.65200 41.10600 42.45800
C  50.40000 45.18300 43.01400
C  46.47100 47.95600 42.68100
N  45.85100 42.74400 42.14800
C  44.51700 42.70700 42.12400
C  43.86500 41.29000 42.09100
C  45.14300 40.47800 42.24900
C  46.29000 41.47400 42.25100
C  45.00600 39.46700 43.44900
C  43.09400 40.94600 40.72100
C  43.52800 41.57200 39.33100
H  43.20000 40.98200 37.94400
N  48.79300 43.27600 42.72800
C  48.78900 41.91200 42.67200
C  50.17100 41.46200 42.81000
C  50.98400 42.64100 42.78600
C  50.06600 43.79400 42.82600
C  50.61000 39.95700 42.84000
C  52.52800 42.64300 42.67900
O  53.22300 41.56100 42.70300
C  53.30800 43.89300 42.61500
N  48.26100 46.26200 42.69700
C  49.57300 46.26400 42.96900
C  49.98900 47.66800 43.38600
C  48.73300 48.52500 43.51200
C  47.73700 47.55200 43.03000
C  50.94800 47.61300 44.61900
C  48.81200 49.85400 42.69300
C  48.32700 51.08200 43.43700
N  45.45000 45.75500 42.48800
C  45.34300 47.11800 42.49300
C  43.97900 47.51200 42.17100
C  43.30900 46.27400 42.21000
C  44.21100 45.21000 42.34300
C  43.42400 48.92500 42.03000
C  41.97800 45.63500 42.11900
O  40.84500 46.13400 41.93700
C  42.17800 44.05900 42.15200
C  41.41000 43.69900 43.39900
O  40.31300 43.11900 43.44800
O  42.26400 43.77600 44.47500
C  41.90600 43.02600 45.70000
H  47.88400 40.04000 42.49600
H  51.43200 45.50200 43.17600
H  46.15200 48.99700 42.77000
H  43.16300 41.38700 42.91900
H  45.29300 39.87800 41.35100
H  45.06200 38.48500 42.97900
H  44.13900 39.67200 44.07700
H  45.83400 39.56800 44.15000
H  42.04800 41.24900 40.75800
H  43.07500 39.87000 40.55200
H  44.61600 41.58500 39.38500
H  43.30700 42.63200 39.20800
H  50.72200 39.37500 41.92500
H  49.84400 39.45400 43.43000
H  51.37300 39.70300 43.57500
H  52.70800 44.52600 41.96100
H  54.32700 43.82000 42.23300
H  53.39500 44.34900 43.60100
H  50.57000 48.13300 42.58900
H  48.47000 48.51600 44.56900
H  51.92800 47.25600 44.30300
H  50.62700 46.93500 45.41000
H  51.01800 48.60400 45.06600
H  48.17000 49.71900 41.82200
H  49.73900 50.20800 42.24200
H  47.53800 51.65500 42.95000
H  49.09900 51.80100 43.71100
H  47.84900 50.62800 44.30500
H  43.64300 49.12900 40.98200
H  43.98000 49.57800 42.70200
H  42.33900 48.96300 42.12200
H  41.62200 43.68900 41.29100
H  41.30300 43.67700 46.33300
H  42.70500 42.65600 46.34200
H  41.43500 42.07900 45.43600
Mg 41.83600 40.50700 26.15700
C  41.51600 43.10300 28.51900
C  42.56600 38.33600 28.89500
C  42.50700 38.17500 24.04800
C  41.25000 42.84200 23.64300
N  42.07500 40.76000 28.42900
C  41.79600 41.92800 29.14800
C  41.75400 41.64800 30.63700
C  42.35300 40.20800 30.74500
C  42.27700 39.71300 29.28100
C  43.77500 40.03700 31.36700
C  40.31500 41.71500 31.27400
C  40.25600 41.48500 32.82600
H  39.62000 42.66400 33.68800
N  42.58000 38.58800 26.40100
C  42.78000 37.91200 27.59500
C  43.16900 36.59000 27.22500
C  43.07300 36.45000 25.82000
C  42.72800 37.73800 25.39000
C  43.69800 35.52500 28.23700
C  43.37200 35.16600 24.97600
O  43.48200 35.25800 23.76500
C  43.48000 33.77800 25.65400
N  41.96800 40.58000 24.16500
C  42.22400 39.43200 23.42300
C  41.88500 39.56700 21.96100
C  41.23500 41.04700 21.97800
C  41.56600 41.55300 23.32100
C  43.07800 39.19400 20.91600
C  39.77600 41.28000 21.54600
C  38.75200 40.75000 22.48600
N  41.47100 42.62200 26.02700
C  41.33100 43.45800 24.94100
C  41.20300 44.87600 25.36200
C  41.19000 44.80700 26.77800
C  41.43300 43.39800 27.12700
C  41.07300 46.13000 24.45200
C  41.03100 45.50200 27.98700
O  40.88800 46.68100 28.21500
C  41.10500 44.45900 29.12400
C  42.21600 44.95800 30.04700
O  43.38600 45.02400 29.76900
O  41.75400 45.01700 31.37800
C  42.81800 45.29400 32.40500
H  42.89500 37.68900 29.71100
H  42.45900 37.37900 23.30100
H  40.98800 43.33200 22.70300
H  42.43400 42.32900 31.14800
H  41.63700 39.61400 31.31400
H  44.18300 41.03700 31.51700
H  44.42500 39.45300 30.71500
H  43.75900 39.41700 32.26300
H  39.79200 40.87300 30.81900
H  39.69500 42.58700 31.06500
H  41.30300 41.40200 33.11500
H  39.83000 40.51500 33.08300
H  43.71700 35.88400 29.26700
H  44.69500 35.31300 27.85200
H  43.11100 34.63700 28.00100
H  42.49800 33.47600 26.01800
H  44.34300 33.81900 26.31800
H  43.74100 33.02900 24.90600
H  41.03900 38.87900 21.95800
H  41.78800 41.56900 21.19800
H  43.29500 40.00600 20.22100
H  42.90600 38.34100 20.26000
H  44.03700 39.09000 21.42400
H  39.62100 40.68800 20.64400
H  39.48400 42.30600 21.32400
H  39.18800 40.63500 23.47800
H  38.35600 39.76400 22.24400
H  37.92400 41.43900 22.65100
H  41.37000 47.11000 24.82500
H  40.02000 46.24900 24.19400
H  41.65700 46.13000 23.53200
H  40.23800 44.58700 29.77200
H  43.80600 45.46000 31.97600
H  42.86700 44.39200 33.01500
H  42.47700 46.18100 32.93800

