158

Mg 49.42200 35.86800 27.14700
C  47.37200 34.34400 29.46800
C  50.23000 38.30300 29.39600
C  51.52400 37.21200 24.76400
C  48.83500 33.35800 24.87800
N  48.79100 36.25500 29.16000
C  48.05300 35.47600 30.01300
C  48.23600 35.97900 31.49200
C  48.90100 37.40100 31.41500
C  49.35200 37.33500 29.88000
C  48.16700 38.68700 31.79000
C  49.13800 35.03000 32.34500
C  48.94700 34.89100 33.91200
H  48.06300 35.85500 34.57800
N  50.62500 37.62400 26.98100
C  50.82800 38.47700 28.05000
C  51.74300 39.48200 27.70400
C  52.27900 39.20500 26.40600
C  51.49800 37.92900 25.98400
C  52.05600 40.70100 28.65000
C  53.30800 39.91200 25.51600
O  53.63300 39.43500 24.44100
C  54.04600 41.14500 26.04400
N  49.86900 35.52800 24.97100
C  50.83500 36.14700 24.26900
C  51.06800 35.55900 22.85700
C  50.42400 34.19000 23.08500
C  49.67200 34.38800 24.37200
C  50.26900 36.42800 21.89100
C  51.38400 33.00400 23.19400
C  51.51800 32.26000 21.91400
N  48.21900 34.24800 27.09800
C  48.15600 33.32800 26.14100
C  47.34600 32.19600 26.65700
C  46.94400 32.60000 27.94000
C  47.52200 33.82700 28.19200
C  47.15500 30.88100 25.90300
C  46.21100 32.19900 29.04500
O  45.55800 31.11800 29.23300
C  46.34000 33.42600 30.01700
C  46.51600 32.79600 31.42300
O  47.42000 32.06100 31.85400
O  45.38000 33.17300 32.12300
C  45.37900 32.61900 33.51500
H  50.71200 38.92200 30.15600
H  52.42500 37.49100 24.21300
H  48.70500 32.43700 24.30700
H  47.31200 36.18200 32.03300
H  49.75700 37.41400 32.09000
H  48.63600 39.19100 32.63500
H  47.15100 38.43900 32.09700
H  48.01900 39.40400 30.98300
H  50.17500 35.21200 32.06400
H  49.02000 34.00100 32.00600
H  49.92800 34.95000 34.38400
H  48.52000 33.89400 34.02900
H  52.37900 41.59400 28.11500
H  52.84500 40.49700 29.37500
H  51.15100 41.01800 29.16700
H  53.37400 42.00100 26.10600
H  54.90300 41.53000 25.49100
H  54.44000 40.84400 27.01500
H  52.11100 35.51400 22.54500
H  49.78000 34.15100 22.20600
H  50.50500 37.39500 22.33500
H  49.19400 36.29200 22.01400
H  50.66900 36.50500 20.88000
H  51.09300 32.20200 23.87200
H  52.33700 33.46400 23.45700
H  50.54800 32.20100 21.41900
H  52.01800 31.29300 21.86400
H  52.01600 33.01900 21.31100
H  48.06200 30.47700 25.45500
H  46.39200 31.07000 25.14800
H  46.76700 30.17400 26.63600
H  45.33400 33.84200 29.96000
H  45.29700 31.53300 33.46600
H  44.51500 33.00300 34.05600
H  46.27900 32.96300 34.02600
Mg -0.82200 33.35500 27.35300
C  -2.93600 31.99200 29.75700
C  0.66300 35.44800 29.69800
C  0.70400 34.98200 24.86600
C  -2.73800 31.57600 24.94200
N  -1.07800 33.66200 29.44600
C  -1.90600 32.87700 30.25700
C  -1.73300 33.22200 31.75500
C  -0.62000 34.30300 31.67800
C  -0.33400 34.51200 30.15700
C  -1.05200 35.61900 32.36900
C  -1.52500 32.02000 32.64200
C  -0.66100 32.13000 33.88600
H  -1.18200 31.50600 35.16500
N  0.45600 35.01100 27.29500
C  1.02100 35.65000 28.38900
C  2.01600 36.61000 27.96100
C  1.98300 36.57500 26.48500
C  1.00100 35.50800 26.16000
C  2.84400 37.42800 28.98900
C  2.76700 37.39400 25.44500
O  2.66800 37.20600 24.25400
C  3.64600 38.39100 25.97500
N  -0.97100 33.29400 25.20000
C  -0.12300 33.89900 24.44900
C  -0.21900 33.45500 22.99600
C  -1.10900 32.20900 23.01400
C  -1.66000 32.34400 24.48900
C  -0.78300 34.50700 21.99100
C  -0.41600 30.88900 22.68300
C  -0.89000 30.00600 21.55200
N  -2.45300 31.93100 27.29800
C  -3.12100 31.38800 26.28600
C  -4.21000 30.51900 26.72300
C  -4.20300 30.75000 28.15600
C  -3.10400 31.59100 28.42200
C  -5.09500 29.57000 25.87700
C  -4.88800 30.37300 29.41300
O  -5.92800 29.75800 29.62900
C  -3.99800 31.11200 30.53000
C  -4.84200 32.07100 31.25300
O  -5.02600 33.22400 30.95900
O  -5.42400 31.36100 32.28300
C  -6.40400 32.11400 33.10100
H  1.19900 35.93000 30.51800
H  1.24200 35.41600 24.02100
H  -3.27900 30.91800 24.26000
H  -2.66600 33.73000 32.00300
H  0.29900 33.85300 32.05200
H  -0.89100 35.60000 33.44700
H  -2.10700 35.76600 32.13600
H  -0.39100 36.34300 31.89300
H  -1.13900 31.12700 32.15200
H  -2.50200 31.70100 33.00500
H  -0.59000 33.19600 34.10200
H  0.34600 31.77900 33.66200
H  2.19500 37.83300 29.76600
H  3.34800 38.29300 28.55700
H  3.50700 36.74600 29.52100
H  4.48400 37.91200 26.48200
H  3.08600 38.99500 26.68800
H  4.15300 38.97800 25.20800
H  0.82500 33.19300 22.82500
H  -2.01400 32.34200 22.42200
H  0.04900 34.81300 21.35600
H  -1.02400 35.44900 22.48300
H  -1.54800 34.19100 21.28200
H  -0.61200 30.26900 23.55900
H  0.64600 31.07400 22.52200
H  -1.90000 30.32800 21.30100
H  -1.05600 28.95400 21.78300
H  -0.32200 30.18400 20.63800
H  -4.61100 29.14800 24.99600
H  -5.93900 30.12900 25.47400
H  -5.61400 28.90100 26.56300
H  -3.44300 30.55100 31.28200
H  -5.87700 32.88900 33.65800
H  -6.77500 31.41500 33.85000
H  -7.24000 32.47500 32.50200

