158

Mg 30.61000 58.17100 40.21500
C  27.91100 55.94100 39.47400
C  32.74800 55.76400 38.83200
C  33.05000 60.50700 40.29000
C  28.23400 60.72700 40.79400
N  30.26000 56.19900 39.05500
C  29.14500 55.45600 39.01700
C  29.44800 54.12100 38.33900
C  30.95800 53.90600 38.64800
C  31.40500 55.30500 38.84900
C  31.26500 52.92100 39.81900
C  29.15800 54.22300 36.80800
C  28.01900 53.34100 36.34100
H  27.16600 54.07500 35.37400
N  32.63200 58.07900 39.82500
C  33.28600 57.05900 39.15600
C  34.68300 57.50000 39.07100
C  34.84300 58.82800 39.58600
C  33.45700 59.19900 39.90500
C  35.82000 56.63300 38.50400
C  36.21300 59.55800 39.52500
O  37.20700 58.97800 39.07100
C  36.39000 61.04800 39.70900
N  30.61700 60.33000 40.49700
C  31.79500 61.03300 40.62700
C  31.55800 62.59400 40.78500
C  30.00400 62.67400 40.94400
C  29.56600 61.17400 40.72000
C  32.48200 63.37600 41.81800
C  29.26200 63.79100 40.19500
C  28.57800 63.58900 38.78300
N  28.47400 58.39400 40.18900
C  27.65800 59.42600 40.55400
C  26.25900 59.01200 40.54300
C  26.33600 57.64700 40.14200
C  27.68000 57.28700 39.92800
C  25.10300 59.91300 40.71100
C  25.53600 56.46400 39.75800
O  24.34300 56.33500 39.61200
C  26.56800 55.28500 39.32100
C  26.24900 54.15600 40.23200
O  26.73800 54.08900 41.32500
O  25.42500 53.23900 39.65700
C  25.33000 51.93300 40.36400
H  33.54500 55.04900 38.61500
H  33.78700 61.29400 40.46600
H  27.47300 61.39500 41.20100
H  28.85500 53.42800 38.93600
H  31.43600 53.44900 37.78100
H  30.42900 52.63300 40.45600
H  32.15900 53.20000 40.37900
H  31.63000 51.98300 39.40100
H  30.03300 53.83500 36.28600
H  29.09400 55.24800 36.44300
H  27.45100 53.00600 37.20900
H  28.32000 52.45500 35.78100
H  36.31300 57.02800 37.61600
H  35.49800 55.61700 38.27400
H  36.55000 56.39100 39.27700
H  36.04600 61.38700 40.68600
H  35.84600 61.61200 38.95100
H  37.45600 61.23500 39.57800
H  31.75300 63.09300 39.83600
H  29.79400 62.70800 42.01300
H  31.83900 63.63700 42.65900
H  33.05700 64.20100 41.39800
H  33.20500 62.61300 42.10500
H  30.05800 64.52000 40.04400
H  28.47600 64.27700 40.77400
H  27.61700 64.10300 38.75600
H  28.42500 62.51700 38.65900
H  29.24000 63.98200 38.01200
H  24.49300 59.39000 41.44800
H  24.62200 59.93600 39.73300
H  25.31500 60.88300 41.15900
H  26.35000 54.94100 38.31000
H  26.15200 51.65400 41.02400
H  25.23900 51.15900 39.60300
H  24.39300 51.98800 40.91800
Mg 27.03800 49.76600 26.63600
C  25.09100 50.66300 29.42400
C  29.66700 49.21600 28.81800
C  28.89300 49.04200 23.99300
C  24.37100 50.58400 24.57700
N  27.31400 50.00600 28.84700
C  26.33000 50.27200 29.82700
C  26.78300 49.97400 31.21600
C  28.33200 49.73000 30.95500
C  28.45500 49.57200 29.45900
C  29.35700 50.73600 31.55800
C  25.96500 48.80900 31.94300
C  25.40300 49.24400 33.31600
H  26.34700 49.98600 34.31400
N  29.02200 49.19600 26.48200
C  29.95000 49.03200 27.48600
C  31.25300 48.68100 26.93300
C  31.03000 48.58100 25.52500
C  29.58400 48.97800 25.26500
C  32.46300 48.23500 27.74800
C  32.05200 48.33100 24.37500
O  31.84200 48.58600 23.17600
C  33.35100 47.77200 24.81400
N  26.77600 49.74500 24.65000
C  27.63400 49.39800 23.69900
C  27.04100 49.27700 22.29400
C  25.56400 49.63600 22.53700
C  25.56600 50.08400 24.04600
C  27.64100 50.13500 21.18500
C  24.61600 48.43900 22.17700
C  23.28500 48.81100 21.39200
N  25.21600 50.59500 26.89200
C  24.24500 50.93100 25.90600
C  23.10500 51.50100 26.61900
C  23.41300 51.39600 27.98400
C  24.64200 50.80800 28.09100
C  21.87300 51.98200 25.93900
C  22.75000 51.51200 29.34700
O  21.64400 51.83600 29.64900
C  23.93200 51.14400 30.34300
C  24.34600 52.32900 31.07600
O  25.22000 53.20000 30.76000
O  23.71700 52.24000 32.26900
C  23.80900 53.39200 33.25600
H  30.47400 48.89500 29.47900
H  29.48400 48.82700 23.10000
H  23.56600 50.75100 23.85900
H  26.75300 50.92300 31.75100
H  28.53200 48.78700 31.46400
H  30.11100 51.11300 30.86700
H  29.97600 50.26100 32.31900
H  28.92500 51.57900 32.09900
H  26.54100 47.88900 32.04300
H  25.18300 48.54100 31.23300
H  25.03800 48.36300 33.84400
H  24.54000 49.87000 33.09300
H  32.70800 47.17400 27.80700
H  32.30000 48.45200 28.80400
H  33.31200 48.86100 27.47500
H  33.94700 48.54000 25.30700
H  33.78000 47.34900 23.90600
H  33.12100 46.90800 25.43800
H  27.11900 48.22000 22.03800
H  25.28400 50.60600 22.12700
H  28.34600 49.58000 20.56700
H  28.29900 50.77900 21.76700
H  26.97500 50.72200 20.55300
H  24.36500 47.85300 23.06200
H  25.15300 47.78900 21.48600
H  23.37300 49.84300 21.05300
H  22.37000 48.76000 21.98300
H  23.10700 48.23100 20.48700
H  21.75500 51.85400 24.86300
H  21.91600 53.05300 26.13600
H  20.93000 51.63900 26.36500
H  23.56400 50.34300 30.98300
H  24.56200 53.17700 34.01400
H  22.85500 53.43400 33.78200
H  23.99600 54.34000 32.75300

