158

Mg 1.54300 -2.91900 45.56700
C  4.77800 -2.11300 44.57400
C  0.33000 -0.61100 43.37700
C  -1.47000 -4.38700 45.94800
C  2.92800 -5.62700 47.29400
N  2.46100 -1.62600 43.99900
C  3.74200 -1.37600 43.88000
C  4.02800 -0.19700 42.90000
C  2.61500 0.36800 42.57300
C  1.70700 -0.62700 43.41000
C  2.28900 1.83000 42.75800
C  4.79000 -0.81500 41.70000
C  6.16200 -0.19500 41.30700
H  6.09100 0.78300 40.04000
N  -0.31900 -2.60600 44.72400
C  -0.59100 -1.55700 43.88800
C  -1.99300 -1.59700 43.49500
C  -2.52100 -2.65000 44.26000
C  -1.42400 -3.31800 44.98900
C  -2.69100 -0.56600 42.61700
C  -4.05300 -2.91900 44.18600
O  -4.75700 -2.29300 43.45600
C  -4.53700 -3.95600 45.12100
N  0.82700 -4.80400 46.44800
C  -0.45400 -5.10600 46.54800
C  -0.69900 -6.45300 47.26800
C  0.73400 -6.85000 47.74900
C  1.55000 -5.69000 47.18700
C  -1.70800 -6.50900 48.46500
C  1.16900 -8.28000 47.42900
C  1.57500 -8.56100 46.03500
N  3.49200 -3.70400 46.00300
C  3.87500 -4.76200 46.74300
C  5.31300 -4.70100 46.91500
C  5.76500 -3.60100 46.14600
C  4.57200 -3.11900 45.54700
C  6.12700 -5.64000 47.67000
C  6.89700 -2.82200 45.66100
O  8.07000 -2.89200 45.94400
C  6.25400 -1.82200 44.62300
C  6.52800 -0.50900 45.32100
O  6.04600 -0.03200 46.36100
O  7.39700 0.09500 44.56600
C  7.69900 1.47700 44.78600
H  -0.00000 0.11700 42.63400
H  -2.39700 -4.93400 46.12900
H  3.40400 -6.44300 47.84100
H  4.62500 0.51700 43.46800
H  2.28400 0.00400 41.60000
H  1.69700 2.16300 41.90600
H  3.18300 2.42200 42.95400
H  1.74700 1.95500 43.69600
H  4.15200 -0.87900 40.81800
H  5.13600 -1.83800 41.84700
H  6.88500 -0.99600 41.14800
H  6.56400 0.33000 42.17300
H  -3.08200 -0.98400 41.68900
H  -1.95700 0.14600 42.24100
H  -3.43500 0.00500 43.17200
H  -4.14000 -4.92000 44.80600
H  -5.62300 -3.94100 45.02500
H  -4.21500 -3.73300 46.13800
H  -1.07800 -7.15300 46.52400
H  0.79200 -6.73900 48.83100
H  -2.68700 -6.77200 48.06500
H  -1.92500 -5.55200 48.94000
H  -1.44000 -7.18600 49.27600
H  0.42300 -9.00000 47.76700
H  2.03400 -8.49500 48.05800
H  1.81100 -7.61900 45.53900
H  0.72100 -8.97400 45.49900
H  2.50500 -9.11700 45.91800
H  7.14800 -5.28100 47.80100
H  6.18100 -6.62900 47.21600
H  5.67300 -5.74300 48.65600
H  6.80000 -1.83500 43.68000
H  6.80800 2.10500 44.78300
H  8.27000 1.82000 43.92400
H  8.37700 1.71200 45.60700
Mg -13.42200 17.08900 41.29500
C  -10.66800 14.84600 41.05600
C  -11.44600 19.55500 39.98800
C  -16.13500 18.81800 40.92900
C  -15.32800 14.34700 42.48400
N  -11.31500 17.15400 40.59900
C  -10.41200 16.13500 40.55400
C  -9.01000 16.65800 40.13500
C  -9.21900 18.18000 39.88000
C  -10.75600 18.33000 40.19700
C  -8.25700 19.10600 40.59200
C  -8.50300 15.91700 38.81100
C  -6.91600 15.67400 38.87900
H  -6.11400 16.45400 37.80000
N  -13.76400 18.95300 40.57800
C  -12.82500 19.84600 40.07000
C  -13.49000 21.13800 39.83400
C  -14.84800 20.86400 39.98500
C  -15.00100 19.49100 40.53300
C  -12.69800 22.40000 39.45500
C  -15.96200 21.89500 39.73400
O  -15.69300 22.99600 39.32300
C  -17.40700 21.57200 39.84100
N  -15.38500 16.61700 41.62200
C  -16.37100 17.54200 41.43200
C  -17.79200 17.10300 41.88600
C  -17.52600 15.67700 42.45200
C  -15.95800 15.53400 42.21900
C  -18.65300 18.10000 42.70000
C  -18.43400 14.51400 41.81400
C  -19.20700 13.71500 42.78800
N  -13.11200 14.97900 41.69900
C  -13.99800 14.00400 42.26900
C  -13.23400 12.75000 42.43000
C  -11.91400 13.01400 42.00600
C  -11.93500 14.34500 41.48900
C  -13.72500 11.50800 43.02900
C  -10.50800 12.51000 41.97200
O  -9.95400 11.46300 42.36900
C  -9.75400 13.59600 41.18700
C  -8.51700 13.96300 42.01300
O  -8.48100 14.69600 42.99100
O  -7.38700 13.30300 41.53500
C  -6.11200 13.64400 42.17300
H  -10.98900 20.46600 39.59700
H  -17.12000 19.28300 40.85400
H  -15.93500 13.67600 43.09600
H  -8.29800 16.49800 40.94400
H  -9.06100 18.53900 38.86300
H  -7.70700 19.76400 39.92000
H  -7.50700 18.48900 41.08800
H  -8.75500 19.71900 41.34300
H  -8.82900 16.46800 37.92800
H  -8.89300 14.90000 38.86000
H  -6.91200 14.61000 38.64100
H  -6.57800 15.74300 39.91300
H  -12.56100 22.42500 38.37400
H  -11.76400 22.30000 40.00800
H  -13.16000 23.31900 39.81700
H  -17.57300 20.68600 39.22900
H  -18.05400 22.36900 39.47400
H  -17.64600 21.27900 40.86300
H  -18.28800 16.98700 40.92300
H  -17.73000 15.76200 43.51900
H  -18.12300 19.05300 42.71500
H  -18.73200 17.74400 43.72700
H  -19.61000 18.16800 42.18300
H  -17.87300 13.92100 41.09100
H  -19.16300 15.04900 41.20500
H  -19.10500 12.63500 42.68200
H  -20.25400 13.94200 42.58700
H  -18.86600 13.92600 43.80100
H  -13.26500 10.64400 42.54900
H  -14.78700 11.30900 42.88400
H  -13.44400 11.26500 44.05300
H  -9.32300 13.26900 40.24100
H  -5.94400 13.09600 43.10000
H  -5.90900 14.70700 42.30100
H  -5.35200 13.26700 41.48800

