158

Mg 9.21500 4.56400 27.26700
C  10.54100 2.94500 30.00600
C  6.88200 6.04000 29.54300
C  7.51500 5.90600 24.74100
C  10.83700 2.31300 25.13200
N  8.64200 4.39600 29.53400
C  9.52600 3.86000 30.42100
C  9.10600 4.22600 31.85200
C  7.85700 5.06900 31.61600
C  7.76000 5.14900 30.15200
C  6.55900 4.76000 32.45000
C  10.21300 4.95200 32.61900
C  9.85600 5.38000 34.06100
H  10.70200 4.81100 35.23300
N  7.56100 5.93400 27.11200
C  6.74900 6.37200 28.16900
C  5.82200 7.31900 27.64300
C  6.07300 7.41600 26.29900
C  7.08700 6.37300 25.98900
C  4.71900 8.09300 28.52900
C  5.51400 8.38700 25.29900
O  5.82000 8.26300 24.12600
C  4.50800 9.40200 25.77500
N  9.12600 4.09100 25.28800
C  8.38900 4.90000 24.40400
C  8.73200 4.67600 22.93200
C  9.93800 3.62400 23.08300
C  10.04600 3.30500 24.53000
C  7.61300 4.34100 21.92500
C  11.27300 4.25800 22.72300
C  11.56300 5.62600 23.33400
N  10.50100 3.02000 27.41700
C  11.10300 2.15200 26.49300
C  11.92900 1.19800 27.15000
C  11.71800 1.55100 28.52700
C  10.83900 2.56800 28.66600
C  12.94700 0.20200 26.59000
C  12.19100 1.17300 29.78700
O  12.94200 0.25800 30.11800
C  11.38400 2.01800 30.84500
C  10.56900 1.07600 31.67500
O  9.36600 0.73400 31.50700
O  11.35000 0.65600 32.73200
C  10.58300 0.14500 33.92100
H  6.09000 6.46800 30.16100
H  6.99900 6.30900 23.86600
H  11.37000 1.54800 24.56400
H  8.86900 3.32200 32.41300
H  8.04500 6.08800 31.95500
H  5.77600 4.24400 31.89400
H  6.09200 5.68400 32.79000
H  6.88800 4.15500 33.29500
H  10.56300 5.79500 32.02400
H  11.03100 4.23300 32.57900
H  8.81700 5.22000 34.35000
H  10.04300 6.44800 33.94900
H  4.55500 7.47600 29.41200
H  3.74300 8.12600 28.04500
H  5.01400 9.10300 28.81300
H  4.17100 10.08400 24.99500
H  4.98900 10.02200 26.53200
H  3.59500 8.99600 26.21000
H  9.13800 5.59700 22.51300
H  9.71400 2.74500 22.47900
H  7.77300 3.43700 21.33800
H  7.46800 5.19600 21.26400
H  6.69600 4.10600 22.46500
H  11.32800 4.42900 21.64800
H  12.06800 3.55800 22.98100
H  10.75400 5.96200 23.98300
H  11.65800 6.40000 22.57200
H  12.45500 5.69400 23.95600
H  13.33800 0.29100 25.57700
H  12.52800 -0.79400 26.73700
H  13.82600 0.30500 27.22500
H  12.10500 2.48100 31.51900
H  11.30900 0.02900 34.72700
H  9.99700 -0.74700 33.70000
H  9.93700 1.00100 34.11500
Mg -10.00800 39.77800 40.72900
C  -8.56500 36.69200 39.50700
C  -7.14500 41.35000 39.49800
C  -11.65400 42.72300 40.74900
C  -13.00800 38.06100 40.96800
N  -8.10200 39.07100 39.68700
C  -7.71100 37.79200 39.28100
C  -6.34500 37.79400 38.59000
C  -5.77200 39.20800 39.03300
C  -7.07200 39.94400 39.43500
C  -4.68600 39.20300 40.12500
C  -6.23800 37.49200 37.08400
C  -7.52800 37.71800 36.26400
H  -7.82500 36.79700 35.05500
N  -9.41100 41.80200 40.34600
C  -8.23900 42.21200 39.87300
C  -8.14400 43.63700 39.90300
C  -9.45400 44.04700 40.25800
C  -10.26300 42.87100 40.49400
C  -6.90500 44.47700 39.43500
C  -9.87700 45.49100 40.43000
O  -9.13400 46.40200 40.02700
C  -11.13100 45.83900 41.13100
N  -11.88200 40.35600 40.97400
C  -12.42800 41.59900 41.00800
C  -13.97600 41.63200 41.06500
C  -14.37100 40.19100 41.30900
C  -12.98100 39.48200 41.06500
C  -14.49700 42.60600 42.17100
C  -15.60400 39.74400 40.44500
C  -16.77700 38.98200 41.05700
N  -10.66200 37.69300 40.64400
C  -11.94400 37.22200 40.72300
C  -11.82400 35.75300 40.54900
C  -10.55800 35.49800 40.06500
C  -9.87600 36.74700 40.10500
C  -12.92900 34.73900 40.68700
C  -9.67100 34.52200 39.55000
O  -9.79300 33.31800 39.37400
C  -8.34900 35.19400 39.19500
C  -7.30300 34.59200 40.02500
O  -7.25100 34.68700 41.24300
O  -6.45400 33.86600 39.25800
C  -5.39300 33.10300 39.92600
H  -6.21700 41.87000 39.25000
H  -12.22900 43.64900 40.68200
H  -13.97500 37.55500 41.01400
H  -5.70900 37.15800 39.20600
H  -5.28500 39.64800 38.16200
H  -5.06900 39.14200 41.14400
H  -3.96800 39.99200 39.90200
H  -4.05100 38.31700 40.11700
H  -5.88400 36.46600 36.98300
H  -5.39800 38.10900 36.76300
H  -7.46500 38.73500 35.87700
H  -8.45800 37.59200 36.81800
H  -7.16000 45.48600 39.11200
H  -6.45600 43.87400 38.64500
H  -6.12900 44.40900 40.19700
H  -11.16200 45.49500 42.16500
H  -11.97600 45.64400 40.47100
H  -11.23900 46.91500 40.99400
H  -14.25500 42.05600 40.10000
H  -14.46900 39.90900 42.35800
H  -13.58200 43.13900 42.43200
H  -14.87300 42.16300 43.09200
H  -15.30700 43.23900 41.80800
H  -15.28500 39.04500 39.67300
H  -15.97600 40.67300 40.01200
H  -17.69700 39.52800 40.85000
H  -16.58200 38.79000 42.11200
H  -16.85300 38.03100 40.53000
H  -13.71500 34.88300 39.94600
H  -13.31200 34.77000 41.70700
H  -12.52200 33.73300 40.58100
H  -8.22100 35.07600 38.11900
H  -5.37400 32.10000 39.49900
H  -5.45100 33.16200 41.01300
H  -4.41500 33.55600 39.76300

