158

Mg 44.33200 4.93900 47.45300
C  42.30300 7.65300 46.50400
C  41.74300 2.84100 46.50400
C  46.57600 2.48400 47.32200
C  47.03200 7.25400 47.14900
N  42.19300 5.26900 46.80000
C  41.63500 6.43100 46.42400
C  40.30700 6.26200 45.75400
C  39.98400 4.73500 46.12100
C  41.39500 4.18800 46.52400
C  38.95800 4.60700 47.31200
C  40.31000 6.52700 44.23700
C  39.47000 7.71000 43.71600
H  40.11900 8.55900 42.60600
N  44.08300 2.86400 47.22800
C  43.01000 2.27100 46.73900
C  43.35900 0.84800 46.51600
C  44.70000 0.68500 46.93500
C  45.23900 2.01500 47.22500
C  42.42200 -0.18800 46.07300
C  45.42600 -0.65700 47.01600
O  44.92700 -1.70900 46.63500
C  46.74800 -0.79400 47.57800
N  46.53000 4.86600 47.16100
C  47.19100 3.73800 47.25300
C  48.66800 3.88100 47.16200
C  48.87500 5.44200 47.18300
C  47.42100 5.92200 47.16300
C  49.48700 3.13900 48.18500
C  49.59000 6.10400 45.92400
C  50.71500 5.31900 45.19300
N  44.60700 7.06800 47.07800
C  45.77700 7.80200 47.11500
C  45.41500 9.17500 47.08300
C  44.03900 9.20800 46.81000
C  43.61000 7.88800 46.83800
C  46.28300 10.40900 47.13700
C  42.91200 9.97900 46.50100
O  42.86200 11.15400 46.13500
C  41.69600 9.00200 46.36700
C  40.82600 9.13500 47.54400
O  40.93900 8.68800 48.67900
O  39.73800 9.89800 47.28200
C  38.71000 10.28100 48.34000
H  40.98100 2.20700 46.04400
H  47.39400 1.80300 47.07600
H  47.86900 7.95300 47.09200
H  39.55000 6.91000 46.19600
H  39.52200 4.08200 45.38000
H  39.36200 4.33700 48.28700
H  38.23700 3.81700 47.10300
H  38.39200 5.53900 47.30200
H  39.98000 5.62700 43.71900
H  41.29900 6.74600 43.83300
H  39.23100 8.36600 44.55200
H  38.53600 7.31000 43.32100
H  41.59000 0.27200 45.54100
H  42.02100 -0.73200 46.92800
H  42.96800 -0.83800 45.38900
H  47.44600 -0.45400 46.81200
H  46.84800 -1.84300 47.85900
H  46.81000 -0.21900 48.50200
H  49.00000 3.48700 46.20200
H  49.43300 5.89300 48.00400
H  50.17700 3.83400 48.66300
H  50.11000 2.35500 47.75400
H  48.87600 2.85100 49.04200
H  50.17000 6.95900 46.27200
H  48.81700 6.46300 45.24400
H  51.60300 5.92000 45.00100
H  50.17900 4.90100 44.34100
H  50.92000 4.51500 45.90000
H  46.29300 10.79900 48.15500
H  45.89600 11.24700 46.55900
H  47.25200 9.99700 46.85500
H  41.13500 9.25600 45.46800
H  37.75900 10.41800 47.82600
H  38.89800 11.23100 48.84000
H  38.65600 9.52700 49.12500
Mg -11.21300 38.16800 42.60800
C  -8.95000 35.46400 42.21100
C  -9.00400 40.32200 41.08500
C  -13.67500 40.44900 42.29700
C  -13.58500 35.74200 43.68100
N  -9.22300 37.82200 41.57700
C  -8.52900 36.65600 41.56700
C  -7.29000 36.84400 40.69600
C  -7.16500 38.46500 40.58400
C  -8.50400 38.96900 41.15000
C  -5.84600 39.03900 41.08300
C  -7.34100 36.14100 39.28400
C  -6.20000 35.05700 39.10100
H  -5.12200 35.58800 38.16600
N  -11.24900 40.10500 42.06500
C  -10.24900 40.83000 41.46800
C  -10.67800 42.17700 41.25000
C  -12.05100 42.29400 41.55100
C  -12.41100 40.91300 42.00000
C  -9.70000 43.14700 40.71900
C  -12.91300 43.54200 41.34800
O  -12.36500 44.53900 40.91200
C  -14.38200 43.62900 41.68800
N  -13.33500 38.09500 42.86300
C  -14.13000 39.13300 42.67800
C  -15.65600 38.76900 43.00000
C  -15.50100 37.25000 43.35300
C  -14.01300 37.02000 43.41300
C  -16.35800 39.69500 44.11000
C  -16.14000 36.23700 42.41900
C  -16.79800 34.96600 42.97200
N  -11.28200 36.00100 42.92200
C  -12.29500 35.19300 43.43900
C  -11.81900 33.77100 43.48400
C  -10.45300 33.93800 43.15400
C  -10.20100 35.27000 42.77800
C  -12.59700 32.56000 43.99100
C  -9.15400 33.23000 43.00200
O  -8.84300 32.09800 43.28000
C  -8.19600 34.13500 42.29000
C  -6.89100 34.22100 43.00800
O  -6.04300 33.35500 42.91200
O  -6.63700 35.49200 43.56600
C  -5.29400 35.66000 44.21600
H  -8.22500 40.98900 40.71000
H  -14.46800 41.19900 42.25900
H  -14.33200 34.99700 43.96300
H  -6.40400 36.56900 41.26800
H  -7.11700 38.71600 39.52400
H  -5.10100 39.18300 40.30000
H  -5.33100 38.41200 41.81000
H  -6.02600 39.95500 41.64600
H  -7.43500 36.79000 38.41300
H  -8.22000 35.50300 39.19000
H  -6.51100 34.08600 38.71500
H  -5.79400 34.82800 40.08600
H  -9.62400 42.82000 39.68200
H  -8.73500 43.01200 41.20700
H  -10.07100 44.16100 40.86800
H  -14.51800 43.61500 42.76900
H  -15.04700 42.88300 41.25300
H  -14.73000 44.58900 41.30700
H  -16.22500 38.76400 42.07100
H  -15.94600 37.02000 44.32100
H  -17.24700 40.24900 43.80900
H  -15.74300 40.55300 44.38100
H  -16.44900 38.97400 44.92200
H  -15.39500 35.78100 41.76600
H  -16.96800 36.67400 41.86200
H  -17.86200 35.04800 42.74800
H  -16.68600 34.87600 44.05200
H  -16.34400 34.10600 42.48000
H  -12.70400 31.82600 43.19300
H  -13.61400 32.93100 44.11900
H  -12.09900 32.13800 44.86400
H  -8.00700 33.69800 41.31000
H  -4.50900 35.65500 43.45900
H  -5.15100 34.84900 44.92900
H  -5.33700 36.60800 44.75300

