158

Mg 45.28900 5.03500 48.12300
C  43.40000 7.90100 47.31600
C  42.65400 3.13200 47.02100
C  47.41400 2.32000 48.02300
C  48.13200 7.11400 48.23900
N  43.23100 5.52200 47.30000
C  42.63600 6.78200 47.15600
C  41.14300 6.59800 46.86100
C  40.91400 5.02100 46.97100
C  42.39000 4.47900 47.00500
C  39.95700 4.44700 48.04300
C  40.51800 7.25300 45.57800
C  41.35800 7.14500 44.29300
H  41.44400 8.37400 43.29400
N  44.95400 2.98200 47.77800
C  43.84200 2.40900 47.28400
C  44.03300 1.02100 47.22400
C  45.37900 0.73000 47.58400
C  45.99900 1.98800 47.81900
C  42.96800 0.05700 46.82900
C  45.99400 -0.70000 47.66100
O  45.44000 -1.71100 47.28200
C  47.38300 -0.91300 48.23900
N  47.47700 4.74100 47.92900
C  48.04900 3.54400 48.19500
C  49.41300 3.62300 48.77400
C  49.73100 5.10000 48.65900
C  48.33100 5.71700 48.35200
C  49.59700 3.03700 50.16000
C  50.62400 5.47200 47.44400
C  52.12300 5.21500 47.60600
N  45.73300 7.10300 48.01900
C  46.92500 7.78300 48.05500
C  46.67400 9.25100 47.78500
C  45.25700 9.33500 47.56800
C  44.74100 8.00400 47.72700
C  47.62900 10.40600 47.67500
C  44.19000 10.22600 47.24200
O  44.18000 11.44300 47.09100
C  42.95200 9.37000 47.10200
C  41.97200 9.77000 48.06600
O  41.79600 9.29100 49.16200
O  41.13900 10.70700 47.46900
C  40.01300 11.13500 48.32900
H  41.77700 2.59800 46.64900
H  48.06000 1.46800 48.24600
H  48.99400 7.78400 48.25800
H  40.61900 7.04800 47.70300
H  40.45800 4.63500 46.05900
H  39.39600 5.18000 48.62300
H  40.54000 3.93300 48.80700
H  39.31400 3.64600 47.67800
H  40.20100 8.26500 45.82900
H  39.65800 6.63200 45.32700
H  40.94000 6.38100 43.63800
H  42.35300 6.73100 44.45900
H  43.33400 -0.41500 45.91800
H  42.04000 0.59000 46.62100
H  42.76200 -0.71200 47.57400
H  48.17200 -0.54700 47.58200
H  47.47400 -1.95700 48.53700
H  47.47200 -0.46300 49.22800
H  50.00500 3.04000 48.06900
H  50.18700 5.50700 49.56100
H  49.88400 1.98800 50.09800
H  48.73300 3.11700 50.82100
H  50.47000 3.44300 50.67100
H  50.42900 6.47600 47.06900
H  50.31200 4.82000 46.62800
H  52.76100 6.03100 47.26400
H  52.48400 4.40100 46.97700
H  52.38300 5.05000 48.65100
H  48.58700 10.20000 47.19700
H  47.85400 10.81900 48.65900
H  47.19700 11.22100 47.09500
H  42.52100 9.44100 46.10300
H  39.75400 10.37900 49.07000
H  39.15900 11.45100 47.72900
H  40.35600 12.01200 48.87800
Mg 48.05600 25.57000 27.90700
C  49.03500 27.87900 30.30000
C  47.00300 23.53500 30.43400
C  47.34500 23.46500 25.53900
C  50.06500 27.47100 25.61200
N  48.05200 25.67800 30.13300
C  48.44600 26.80200 30.87500
C  47.96500 26.63300 32.36500
C  47.42700 25.15700 32.37200
C  47.47500 24.74700 30.90800
C  48.26800 24.16100 33.22600
C  46.91300 27.72100 32.82900
C  46.09500 27.41800 34.09300
H  45.88200 28.43200 35.26800
N  47.38800 23.74500 27.93300
C  46.91600 23.06800 29.09300
C  46.49000 21.73300 28.68100
C  46.44100 21.74800 27.27800
C  47.03000 23.02600 26.84700
C  46.11700 20.67700 29.67100
C  45.82700 20.72000 26.33000
O  45.96500 20.74400 25.14800
C  45.07900 19.57200 26.90800
N  48.56600 25.54500 25.83100
C  48.03600 24.62000 25.03600
C  48.37100 24.80000 23.57600
C  49.26500 26.13300 23.64500
C  49.34900 26.39300 25.13300
C  49.07200 23.58300 22.91700
C  48.64700 27.35100 22.90000
C  48.22100 27.07300 21.47300
N  49.27100 27.44300 27.85300
C  50.01700 28.03000 26.91600
C  50.64700 29.23500 27.44200
C  50.23700 29.20400 28.84300
C  49.44200 28.06400 28.98500
C  51.45700 30.17200 26.68500
C  50.36000 29.92700 30.02400
O  50.90600 30.99800 30.20100
C  49.49000 29.24300 30.99800
C  50.23500 29.08200 32.28700
O  51.23400 28.32600 32.46100
O  49.70300 29.82800 33.28200
C  50.28200 29.70800 34.59100
H  46.59700 22.75100 31.07600
H  47.10000 22.70700 24.79200
H  50.53300 28.17500 24.92000
H  48.78000 26.75900 33.07800
H  46.39900 25.20300 32.73000
H  49.07600 23.85000 32.56400
H  47.70300 23.24800 33.41300
H  48.65500 24.43600 34.20700
H  46.22100 27.80500 31.99100
H  47.45200 28.66200 32.94500
H  46.58100 26.57700 34.58700
H  45.17700 26.99500 33.68800
H  46.80200 20.82400 30.50600
H  46.24300 19.63900 29.36200
H  45.08200 20.71100 30.01100
H  44.34300 19.93200 27.62700
H  45.62400 18.82400 27.48300
H  44.61800 19.06100 26.06300
H  47.44300 24.95300 23.02500
H  50.23800 25.83900 23.25100
H  48.32200 22.84400 22.63500
H  49.76000 23.11900 23.62400
H  49.74000 23.89700 22.11500
H  49.48200 28.05200 22.91000
H  47.84700 27.78200 23.50100
H  49.07000 26.52900 21.05900
H  48.21400 28.06200 21.01500
H  47.23500 26.61100 21.43100
H  50.92100 31.05000 26.32500
H  52.00400 29.73600 25.84900
H  52.17900 30.41700 27.46400
H  48.64900 29.89000 31.25000
H  51.29400 29.31000 34.67000
H  49.62400 29.16500 35.26900
H  50.32300 30.72400 34.98300

