158

Mg 3.30700 -0.21500 43.78200
C  6.31000 1.52200 43.69700
C  1.67900 2.72700 42.63700
C  0.41500 -1.94900 43.60300
C  5.09600 -3.05800 44.87400
N  3.99200 1.87800 43.26200
C  5.25600 2.31300 43.27800
C  5.23900 3.85400 42.89000
C  3.72700 4.17400 42.72200
C  3.04800 2.85300 42.93700
C  3.18300 5.31100 43.62800
C  6.04000 4.14900 41.52200
C  5.77200 3.28300 40.21500
H  6.07600 4.00300 38.84900
N  1.34800 0.27500 43.09800
C  0.86600 1.51700 42.76600
C  -0.50000 1.50600 42.51000
C  -0.90500 0.11600 42.61800
C  0.25900 -0.60300 43.13800
C  -1.23400 2.67000 41.87500
C  -2.27800 -0.48700 42.23200
O  -3.12500 0.30200 41.86800
C  -2.66800 -1.93600 42.30700
N  2.84500 -2.27500 44.24700
C  1.52800 -2.77500 44.06800
C  1.43800 -4.28700 44.53900
C  3.01900 -4.56600 44.86400
C  3.75400 -3.22600 44.58500
C  0.51300 -4.57600 45.77000
C  3.67000 -5.71600 43.99600
C  3.89100 -7.06300 44.75500
N  5.24200 -0.74800 44.19800
C  5.90400 -1.89400 44.59000
C  7.34800 -1.71700 44.72000
C  7.49700 -0.37000 44.35400
C  6.21600 0.12200 44.06900
C  8.37100 -2.69100 45.27200
C  8.60500 0.59600 44.26100
O  9.81400 0.55400 44.57600
C  7.76100 1.98400 43.81800
C  7.91700 2.99000 44.94800
O  8.38000 4.11000 44.87200
O  7.25500 2.52100 46.06600
C  7.09000 3.32100 47.20600
H  1.17400 3.64100 42.31600
H  -0.50900 -2.53200 43.62000
H  5.67200 -3.91200 45.23600
H  5.60000 4.52300 43.67200
H  3.45100 4.62600 41.77000
H  2.98300 6.13100 42.93700
H  3.96700 5.50300 44.36100
H  2.31500 5.11900 44.25800
H  7.10500 4.24600 41.73300
H  5.79800 5.18700 41.29400
H  4.78700 2.81700 40.19200
H  6.38500 2.43200 40.51100
H  -0.88300 2.77900 40.84900
H  -1.02800 3.59500 42.41400
H  -2.30400 2.49200 41.98300
H  -2.64400 -2.23300 43.35600
H  -1.98900 -2.48600 41.65600
H  -3.64100 -2.14800 41.86300
H  1.11400 -4.78300 43.62300
H  3.15400 -4.76800 45.92700
H  -0.03000 -3.68300 46.07900
H  0.96800 -4.77900 46.73900
H  -0.13200 -5.42000 45.52500
H  4.50400 -5.44700 43.34800
H  2.98800 -5.94300 43.17700
H  3.27700 -7.84800 44.31200
H  3.60400 -6.96700 45.80200
H  4.95600 -7.27700 44.66400
H  9.31600 -2.21100 45.52500
H  8.48900 -3.41800 44.46800
H  8.03800 -3.10500 46.22300
H  8.17600 2.36300 42.88500
H  7.63400 4.26200 47.12400
H  7.56900 2.73100 47.98700
H  6.03200 3.47600 47.41900
Mg 46.95600 35.31600 28.35100
C  45.53900 33.52800 31.05700
C  47.43200 37.94200 30.50400
C  48.04000 37.19800 25.74100
C  46.23900 32.78900 26.22800
N  46.85000 35.53700 30.64200
C  46.10200 34.73800 31.45800
C  46.21400 35.33600 32.86700
C  46.37500 36.85200 32.57900
C  46.90000 36.81500 31.15600
C  45.11300 37.71600 32.81900
C  47.49600 34.72100 33.55300
C  47.46900 34.54800 35.03600
H  46.50100 35.29900 35.87100
N  47.68200 37.21400 28.15400
C  47.93100 38.10500 29.18200
C  48.64700 39.23600 28.68900
C  48.67600 39.13700 27.25300
C  48.13400 37.78700 27.00800
C  49.12100 40.42700 29.60500
C  49.20900 40.14200 26.23600
O  49.22200 39.91700 24.99700
C  49.60600 41.49000 26.74900
N  46.84200 35.19200 26.17100
C  47.44300 36.01700 25.32300
C  47.43900 35.54300 23.86600
C  47.10400 34.03900 24.17100
C  46.67800 33.98300 25.56500
C  46.51700 36.36600 22.82100
C  48.36900 33.12700 23.90700
C  48.59800 32.70300 22.50200
N  46.04800 33.57400 28.49900
C  45.92600 32.61100 27.57500
C  45.37100 31.39000 28.15900
C  45.07800 31.82800 29.43500
C  45.62300 33.05200 29.67000
C  44.94000 30.11700 27.40500
C  44.47800 31.36600 30.71600
O  43.93100 30.37200 30.99400
C  44.54000 32.57800 31.68400
C  44.92400 32.06200 33.00800
O  46.07600 31.95400 33.44700
O  43.85800 31.82000 33.78400
C  44.18500 31.54800 35.15000
H  47.51500 38.76500 31.21700
H  48.18800 37.87500 24.89700
H  46.01000 31.92000 25.60800
H  45.31400 35.01700 33.39200
H  47.12000 37.31100 33.22900
H  44.83800 38.22700 31.89600
H  45.41000 38.41800 33.59800
H  44.28300 37.12600 33.20700
H  48.33500 35.38400 33.34100
H  47.58400 33.69200 33.20400
H  48.40900 34.95200 35.41200
H  47.45900 33.51300 35.38000
H  49.17800 40.16100 30.66100
H  48.35800 41.19900 29.51100
H  50.14600 40.72300 29.38100
H  50.49200 41.64300 27.36500
H  48.77500 42.05800 27.16800
H  49.80600 42.15100 25.90600
H  48.43000 35.57500 23.41400
H  46.25100 33.66300 23.60500
H  45.44900 36.15000 22.82400
H  46.85700 36.31300 21.78700
H  46.52800 37.37700 23.22800
H  48.17200 32.19400 24.43500
H  49.28600 33.56900 24.29700
H  49.66000 32.91400 22.37200
H  48.04300 33.33800 21.81100
H  48.40100 31.64300 22.33900
H  44.07700 30.50300 26.86300
H  44.67700 29.41300 28.19500
H  45.72500 29.86900 26.69100
H  43.62000 33.10900 31.92800
H  43.29900 31.19900 35.68100
H  44.49900 32.49400 35.59200
H  44.90000 30.72500 35.16900

