158

Mg 2.20700 -1.66000 44.68400
C  5.47400 -0.85200 44.25300
C  1.46800 0.80800 42.37600
C  -0.88500 -2.75200 44.60100
C  3.19900 -4.52300 46.63900
N  3.40000 -0.27200 43.25600
C  4.71500 -0.08900 43.42100
C  5.24500 0.98700 42.41000
C  3.91400 1.61800 41.83500
C  2.87300 0.74100 42.60600
C  3.76100 3.12400 41.98000
C  6.23000 0.48700 41.29500
C  7.42500 1.44900 41.09600
H  7.63200 1.91300 39.65300
N  0.56700 -1.06000 43.70400
C  0.43400 0.02400 42.86100
C  -1.02800 0.28000 42.56900
C  -1.65500 -0.86200 43.02700
C  -0.69100 -1.59200 43.86100
C  -1.47500 1.41700 41.67500
C  -3.15200 -1.18200 42.70800
O  -3.81400 -0.62000 41.86400
C  -3.84800 -2.26500 43.42700
N  1.29000 -3.53600 45.42900
C  -0.05100 -3.62500 45.34300
C  -0.61600 -4.90500 46.05700
C  0.77500 -5.53700 46.63100
C  1.81800 -4.48300 46.21500
C  -1.58900 -4.51800 47.23300
C  1.09900 -6.90400 45.94900
C  1.23400 -8.18600 46.85500
N  3.93300 -2.54400 45.35300
C  4.19200 -3.68000 46.17000
C  5.62900 -3.84300 46.32500
C  6.19800 -2.67600 45.66300
C  5.10700 -1.91200 45.11300
C  6.37000 -4.90000 47.17500
C  7.40100 -1.87700 45.32800
O  8.57100 -2.15300 45.51200
C  6.97400 -0.66300 44.51300
C  7.19300 0.67400 45.21800
O  6.68600 1.12900 46.23500
O  7.87700 1.45600 44.41100
C  8.14600 2.84300 44.80900
H  1.19200 1.55800 41.63100
H  -1.92300 -3.06900 44.72100
H  3.52000 -5.45000 47.11900
H  5.69500 1.76000 43.03300
H  3.83300 1.46000 40.76000
H  3.57600 3.46400 40.96100
H  4.68600 3.59100 42.31600
H  2.90800 3.38500 42.60600
H  5.64800 0.43700 40.37400
H  6.44900 -0.53900 41.59000
H  8.27500 0.77900 41.23000
H  7.39400 2.27700 41.80400
H  -2.54800 1.54200 41.52800
H  -0.98200 1.19300 40.73000
H  -0.90900 2.27600 42.03600
H  -3.79100 -2.18000 44.51200
H  -3.50200 -3.25200 43.12100
H  -4.91300 -2.12100 43.24400
H  -1.06900 -5.58000 45.33100
H  0.82400 -5.57000 47.71900
H  -1.05200 -4.23900 48.14000
H  -2.14400 -5.43100 47.44700
H  -2.27800 -3.68900 47.07400
H  2.07800 -6.75900 45.49200
H  0.37100 -7.13000 45.16900
H  2.27800 -8.48600 46.93900
H  0.86900 -9.08700 46.36100
H  0.78800 -8.05200 47.84000
H  5.75300 -5.02300 48.06500
H  7.43500 -4.81600 47.39200
H  6.35000 -5.77600 46.52700
H  7.50800 -0.57500 43.56700
H  7.24800 3.38200 45.10900
H  8.61200 3.48600 44.06300
H  8.85400 2.85300 45.63800
Mg -5.41700 24.57900 25.75400
C  -3.68900 26.20200 28.39200
C  -7.12100 22.70800 28.01200
C  -6.67600 22.98000 23.04600
C  -3.34500 26.41700 23.49700
N  -5.43900 24.44000 27.89000
C  -4.74200 25.34600 28.78300
C  -5.27700 25.18000 30.17800
C  -6.02900 23.76200 30.13400
C  -6.25100 23.62200 28.59400
C  -5.18200 22.55400 30.76200
C  -6.08400 26.44200 30.66500
C  -6.02300 26.82800 32.18400
H  -5.22000 25.84000 33.06100
N  -6.73600 23.04300 25.53900
C  -7.41600 22.42600 26.58100
C  -8.37100 21.51800 25.96900
C  -8.35700 21.66700 24.53200
C  -7.26700 22.64900 24.31000
C  -9.29300 20.86800 26.87900
C  -9.12000 20.80300 23.42200
O  -9.04700 21.04300 22.23400
C  -9.94500 19.75600 23.84500
N  -4.88100 24.51000 23.58000
C  -5.61800 23.81500 22.69400
C  -5.23500 24.09100 21.25300
C  -4.19300 25.29800 21.37900
C  -4.07100 25.40000 22.92500
C  -4.68300 22.74000 20.64700
C  -4.67000 26.58000 20.53300
C  -3.76600 27.27900 19.44800
N  -3.93100 26.03400 25.85400
C  -3.20400 26.72600 24.86400
C  -2.31100 27.67700 25.45500
C  -2.46100 27.49600 26.85100
C  -3.39700 26.44700 27.03800
C  -1.32000 28.67200 24.82800
C  -1.92700 27.91500 28.14500
O  -1.08300 28.78300 28.42400
C  -2.75900 27.03900 29.21700
C  -1.89400 26.27900 30.04200
O  -1.26700 25.28100 29.75500
O  -1.67500 26.89100 31.25900
C  -0.65500 26.34500 32.24600
H  -7.53200 22.06700 28.79400
H  -7.18400 22.47600 22.22100
H  -2.79000 26.94900 22.72200
H  -4.45800 24.96100 30.86300
H  -7.01600 23.73300 30.59500
H  -4.75700 21.87900 30.02000
H  -5.75500 21.83100 31.34300
H  -4.42900 22.91300 31.46400
H  -7.12700 26.36700 30.35700
H  -5.76000 27.33200 30.12600
H  -7.00800 26.99800 32.61900
H  -5.38400 27.70800 32.26100
H  -9.05400 19.80900 26.78600
H  -10.28300 21.00700 26.44400
H  -9.27300 21.10900 27.94200
H  -10.35700 19.04200 23.13200
H  -10.84100 20.12900 24.34300
H  -9.36300 19.30400 24.64800
H  -6.11700 24.45900 20.73000
H  -3.21100 25.06500 20.96800
H  -3.59400 22.75500 20.69200
H  -4.91200 22.73100 19.58100
H  -5.09600 21.93700 21.25700
H  -4.75400 27.43100 21.21000
H  -5.62300 26.37700 20.04500
H  -3.43700 28.23400 19.85800
H  -4.33900 27.40900 18.53000
H  -2.90200 26.63900 19.27300
H  -1.75400 29.27400 24.03000
H  -0.40100 28.26300 24.40900
H  -0.96600 29.36600 25.59000
H  -3.27800 27.72300 29.88900
H  -0.99000 25.43200 32.73800
H  -0.60900 27.13500 32.99500
H  0.26300 26.05300 31.73500

