158

Mg 1.80800 -0.91200 44.66400
C  5.11700 0.04100 43.77100
C  0.65100 1.84500 42.97300
C  -1.11300 -2.32100 44.88900
C  3.32500 -3.90800 46.05000
N  2.78500 0.72700 43.47400
C  4.15900 0.89300 43.29400
C  4.43400 2.17800 42.49000
C  3.05800 2.81400 42.33700
C  2.10200 1.73700 42.92300
C  2.89300 4.15700 43.10100
C  5.25800 2.03300 41.12900
C  6.02900 3.25900 40.61500
H  5.80700 3.84300 39.22500
N  -0.06600 -0.24000 44.17100
C  -0.35100 0.92200 43.49800
C  -1.80100 1.01300 43.32600
C  -2.36500 -0.15500 43.92300
C  -1.18400 -0.95700 44.43200
C  -2.46000 2.15300 42.50300
C  -3.88600 -0.49900 43.88100
O  -4.69300 0.30200 43.33300
C  -4.42000 -1.74700 44.40500
N  1.19500 -2.86800 45.44000
C  -0.09600 -3.18000 45.34900
C  -0.34800 -4.62900 45.79000
C  1.06200 -5.06600 46.36900
C  1.95500 -3.87600 45.98700
C  -1.53300 -4.74600 46.80500
C  1.57200 -6.50000 45.93000
C  2.22900 -7.34400 47.01800
N  3.73700 -1.81200 44.82000
C  4.23500 -2.98300 45.44100
C  5.64900 -3.09300 45.38500
C  6.01000 -1.87700 44.82700
C  4.87200 -1.12200 44.48200
C  6.55000 -4.23700 45.80600
C  7.18300 -1.07600 44.43500
O  8.38700 -1.42800 44.48600
C  6.60800 0.27100 43.83100
C  7.07900 1.38700 44.63200
O  6.71300 1.56800 45.76900
O  8.01300 2.25500 43.97800
C  8.35300 3.59200 44.60600
H  0.40700 2.71200 42.35600
H  -2.07200 -2.84200 44.90300
H  3.84000 -4.73000 46.55200
H  5.11200 2.80100 43.07400
H  2.78900 3.05800 41.31000
H  2.10400 4.15700 43.85300
H  2.82200 4.89100 42.29800
H  3.81400 4.38200 43.63900
H  4.56400 1.67600 40.36800
H  5.92500 1.18400 41.28000
H  7.09700 3.11500 40.78000
H  5.72000 4.14300 41.17300
H  -3.30900 2.52300 43.07900
H  -2.75100 1.80700 41.51200
H  -1.83500 3.03700 42.37500
H  -5.42800 -1.53300 44.76300
H  -3.88500 -2.00300 45.32000
H  -4.32400 -2.56500 43.69200
H  -0.47700 -5.17100 44.85400
H  0.94700 -5.11100 47.45200
H  -1.98900 -3.76900 46.96900
H  -1.42800 -5.26100 47.75900
H  -2.25100 -5.34900 46.24800
H  2.35800 -6.45300 45.17600
H  0.69900 -7.05900 45.59200
H  1.95900 -8.38000 46.81400
H  1.99900 -7.16500 48.06900
H  3.29000 -7.22000 46.79900
H  6.29600 -4.63900 46.78700
H  7.55900 -3.87900 46.00900
H  6.42500 -5.01100 45.04900
H  7.13700 0.29800 42.87800
H  8.80800 4.30500 43.91900
H  8.87200 3.44200 45.55300
H  7.46800 4.12200 44.95700
Mg 26.20300 0.89700 28.98800
C  28.28600 0.74900 31.98600
C  23.48700 0.70200 31.24600
C  24.34600 0.93300 26.44300
C  29.02600 0.26900 27.11500
N  26.01900 0.80100 31.34900
C  26.93700 0.90900 32.31000
C  26.38100 0.98300 33.74700
C  24.81600 0.87700 33.48300
C  24.72000 0.91300 31.94800
C  24.04400 -0.32300 34.24200
C  26.83000 2.16300 34.60000
C  27.38400 1.93300 35.97100
H  27.05800 2.89100 37.13900
N  24.19200 0.86400 28.83400
C  23.22000 0.78200 29.87000
C  21.96700 1.02000 29.24900
C  22.13900 1.10200 27.84100
C  23.57600 0.91000 27.62800
C  20.66800 1.17900 30.00600
C  21.05300 1.44100 26.70100
O  21.42100 1.25500 25.57600
C  19.61700 1.76800 26.96500
N  26.65700 0.52400 27.09300
C  25.70400 0.72300 26.16200
C  26.27500 0.83700 24.73200
C  27.74000 0.51700 24.91800
C  27.84400 0.40600 26.45500
C  25.64800 -0.09800 23.61600
C  28.73900 1.55500 24.36100
C  28.76400 1.63000 22.88500
N  28.29700 0.55000 29.38000
C  29.30300 0.23800 28.50100
C  30.51400 0.13800 29.21500
C  30.25000 0.35100 30.56100
C  28.85700 0.64000 30.64000
C  31.79900 -0.25300 28.73900
C  30.79600 0.48000 31.91800
O  31.94900 0.31500 32.29200
C  29.53000 0.69800 32.93100
C  29.39500 -0.33400 33.96800
O  28.91800 -1.44000 33.85800
O  29.95100 0.08400 35.15800
C  29.97100 -0.81800 36.37400
H  22.59900 0.64300 31.87900
H  23.68800 0.94900 25.57200
H  29.90600 0.14600 26.48100
H  26.70500 0.13700 34.35400
H  24.30400 1.75200 33.88100
H  22.98500 -0.06900 34.27800
H  24.49000 -0.45500 35.22800
H  24.05100 -1.30400 33.76500
H  25.99000 2.82700 34.80200
H  27.53000 2.78300 34.04100
H  28.45500 1.74100 35.90400
H  26.91800 0.98000 36.22100
H  19.97200 0.37300 29.77300
H  20.20700 2.09300 29.63100
H  20.63800 1.34800 31.08300
H  19.46800 2.66200 27.57000
H  19.16300 0.86800 27.38000
H  19.10400 1.96400 26.02300
H  26.18900 1.88000 24.42600
H  27.95500 -0.45600 24.47700
H  24.96000 -0.69500 24.21500
H  26.32400 -0.83800 23.19000
H  25.07100 0.46800 22.88400
H  29.76700 1.39600 24.68700
H  28.45100 2.56600 24.65100
H  28.40000 2.59900 22.54600
H  28.13200 0.88300 22.40500
H  29.76700 1.42400 22.50900
H  31.68800 -1.32900 28.60400
H  32.56400 0.02800 29.46300
H  32.19600 0.22700 27.84500
H  29.67300 1.65100 33.44100
H  29.41000 -0.35100 37.18300
H  31.01200 -0.94900 36.67100
H  29.53200 -1.78800 36.13800

