158

Mg 8.17100 2.29600 27.34300
C  9.66500 1.11100 30.24100
C  6.29400 4.35800 29.30500
C  6.83600 3.63400 24.61400
C  9.69800 -0.12000 25.42900
N  7.95100 2.61000 29.49100
C  8.64400 2.05200 30.51100
C  8.39600 2.64200 31.88800
C  7.22700 3.60500 31.52900
C  7.11700 3.52400 30.02700
C  5.76900 3.46700 32.21100
C  9.57000 3.37200 32.55500
C  9.28200 4.37300 33.69500
H  10.22400 4.26000 34.86400
N  6.70900 3.76700 27.01500
C  6.05600 4.52100 27.96400
C  5.03600 5.30300 27.34700
C  5.20100 5.16200 25.88600
C  6.27500 4.14000 25.80700
C  3.99500 6.12100 28.18800
C  4.48100 5.82700 24.83100
O  4.76100 5.58200 23.65600
C  3.31800 6.76800 25.11900
N  8.25800 1.75000 25.28900
C  7.67100 2.53600 24.32700
C  8.15600 2.16700 22.95400
C  8.88000 0.80500 23.17600
C  9.00100 0.81000 24.71100
C  7.14300 2.14100 21.74600
C  10.30900 0.68900 22.43600
C  10.27400 -0.45500 21.43100
N  9.45800 0.79600 27.73900
C  10.08600 -0.04500 26.83900
C  11.01000 -0.89300 27.59200
C  10.89400 -0.45800 28.90500
C  9.96800 0.56000 28.92800
C  11.87000 -1.99400 27.02300
C  11.31600 -0.65700 30.29200
O  12.07600 -1.54300 30.69800
C  10.52400 0.39500 31.25900
C  9.77300 -0.32100 32.37100
O  8.61400 -0.60800 32.28500
O  10.60700 -0.46700 33.46700
C  10.06800 -1.24500 34.65000
H  5.65500 4.92300 29.98700
H  6.36300 3.96400 23.68600
H  10.23400 -0.87200 24.84600
H  8.03700 1.88300 32.58300
H  7.58900 4.61500 31.72100
H  4.97700 3.20900 31.50900
H  5.55400 4.37300 32.77800
H  5.73200 2.68700 32.97200
H  10.12500 3.94600 31.81300
H  10.22600 2.60700 32.97000
H  8.24800 4.27200 34.02600
H  9.43900 5.38800 33.33000
H  4.22700 6.17600 29.25200
H  3.01700 5.65700 28.06400
H  3.90000 7.15300 27.85200
H  3.57800 7.67700 25.66200
H  2.58700 6.16200 25.65400
H  2.94700 7.12400 24.15900
H  8.87200 2.96200 22.74300
H  8.16200 0.10000 22.75400
H  7.49600 1.51900 20.92300
H  7.08700 3.15900 21.36000
H  6.24400 1.59600 22.03500
H  11.22800 0.67400 23.02100
H  10.37800 1.54000 21.75800
H  10.35900 0.01700 20.45200
H  9.36100 -1.04800 21.48100
H  11.13000 -1.09500 21.64300
H  11.70900 -2.88500 27.63100
H  12.95300 -1.87900 27.05300
H  11.48600 -2.31800 26.05600
H  11.22900 1.11800 31.66800
H  9.88100 -0.52500 35.44700
H  10.73600 -2.09600 34.78800
H  9.11700 -1.69000 34.36100
Mg 9.80700 47.86900 26.83700
C  8.11900 48.11100 29.90700
C  12.46300 49.55800 28.36800
C  11.16600 47.95400 23.88000
C  6.54000 47.11500 25.38600
N  10.19000 48.72000 28.86800
C  9.41200 48.54300 30.01600
C  10.18300 48.92600 31.25500
C  11.19800 49.88800 30.56000
C  11.37600 49.35000 29.16600
C  10.86200 51.42900 30.64300
C  10.82300 47.70900 32.13700
C  10.43800 47.78400 33.65300
H  10.31200 46.47600 34.39200
N  11.66000 48.49100 26.22600
C  12.62700 49.10200 27.00500
C  13.81700 49.25500 26.15500
C  13.47900 48.70600 24.85200
C  12.02900 48.36100 24.92200
C  15.06300 49.99900 26.63700
C  14.41700 48.59300 23.69000
O  14.06800 48.20400 22.59900
C  15.89000 48.83200 23.94200
N  8.94100 47.68500 24.91300
C  9.76700 47.71500 23.86800
C  9.06400 47.28200 22.55000
C  7.64400 46.82000 23.06300
C  7.68600 47.31600 24.57400
C  9.01900 48.29700 21.50600
C  7.39100 45.28500 22.94200
C  7.96500 44.25000 23.94300
N  7.68700 47.70600 27.51300
C  6.50400 47.33000 26.81900
C  5.39800 47.13600 27.73600
C  6.04900 47.39400 29.01800
C  7.41100 47.74900 28.78600
C  3.94800 46.73500 27.40600
C  5.75800 47.40100 30.44900
O  4.72300 47.24000 31.04600
C  7.15600 47.76200 31.06500
C  7.57800 46.47300 31.74300
O  7.89500 45.48000 31.16800
O  7.32000 46.53500 33.09200
C  7.24600 45.27400 33.78100
H  13.25400 50.14400 28.84200
H  11.62600 47.81900 22.89900
H  5.60600 46.71700 24.98400
H  9.56700 49.55200 31.90100
H  12.12900 49.87300 31.12600
H  10.16600 51.60800 31.46200
H  10.50100 51.75000 29.66600
H  11.74800 52.04200 30.80700
H  11.91100 47.73800 32.08800
H  10.45900 46.76100 31.74200
H  9.49100 48.32400 33.64400
H  11.22900 48.31500 34.18300
H  14.82500 50.41500 27.61600
H  15.34900 50.70900 25.86200
H  15.90700 49.31400 26.71800
H  16.22100 48.14800 24.72300
H  16.08600 49.87300 24.20100
H  16.49300 48.55400 23.07700
H  9.57200 46.36500 22.25100
H  6.85700 47.35100 22.52800
H  9.79500 49.01000 21.78600
H  8.10900 48.89400 21.56700
H  9.17900 48.04100 20.45900
H  7.62200 44.97200 21.92300
H  6.35200 45.04900 23.17500
H  8.60300 44.78200 24.64900
H  8.68800 43.59500 23.45800
H  7.24400 43.79500 24.62300
H  3.75700 46.57500 26.34500
H  3.27200 47.47600 27.83300
H  3.75000 45.78500 27.90200
H  7.09100 48.54100 31.82500
H  7.75000 44.39800 33.37300
H  6.19600 44.99100 33.85200
H  7.67800 45.48400 34.75900

