158

Mg 36.38800 49.72000 24.54800
C  36.73100 47.87300 27.60000
C  35.43200 52.28500 26.35600
C  35.26400 50.98300 21.60400
C  37.35100 46.72500 22.82500
N  36.03300 50.02300 26.74600
C  36.34600 49.23300 27.78900
C  36.23300 49.92600 29.17900
C  35.89300 51.35500 28.73200
C  35.78600 51.23300 27.19500
C  34.54700 52.04300 29.38200
C  37.54800 49.87200 30.07100
C  37.32200 49.34600 31.53000
H  35.89200 49.38200 32.07700
N  35.64900 51.47000 24.04800
C  35.23700 52.43900 24.94000
C  34.70100 53.53800 24.23800
C  34.81500 53.23400 22.78400
C  35.23000 51.84300 22.79900
C  34.01500 54.73300 24.85700
C  34.54500 54.10900 21.62300
O  34.40700 53.69500 20.46300
C  34.56800 55.59900 21.86300
N  36.37900 48.99000 22.44900
C  35.78300 49.65800 21.42300
C  35.92800 48.95300 20.05200
C  36.78500 47.72900 20.55200
C  36.83000 47.82400 22.06100
C  34.57800 48.50800 19.50100
C  38.30000 47.75200 20.01400
C  38.72100 46.64000 19.00900
N  36.96800 47.72500 25.04900
C  37.35500 46.67500 24.25000
C  37.72300 45.49500 25.09500
C  37.49000 45.91000 26.38400
C  37.03200 47.27200 26.30000
C  38.32700 44.16300 24.70300
C  37.44600 45.47500 27.81600
O  37.58600 44.37500 28.31300
C  37.00800 46.79600 28.66600
C  35.89300 46.32600 29.43900
O  34.78400 46.07600 28.99800
O  36.40500 45.97100 30.65200
C  35.50400 45.16900 31.47100
H  35.19000 53.20800 26.88800
H  35.00400 51.45600 20.65500
H  37.62700 45.76100 22.39200
H  35.39800 49.35100 29.57800
H  36.78600 51.90600 29.02800
H  34.78800 53.02600 29.78900
H  34.16800 51.46700 30.22500
H  33.75400 52.28000 28.67300
H  37.94800 50.86400 30.27900
H  38.26400 49.19900 29.60000
H  38.02700 49.88400 32.16400
H  37.67700 48.31500 31.51500
H  33.04100 54.89300 24.39300
H  34.57300 55.66500 24.77200
H  33.86400 54.55500 25.92200
H  33.66600 55.93600 22.37400
H  34.60700 56.13900 20.91700
H  35.36000 55.89800 22.55000
H  36.51400 49.46200 19.28700
H  36.35500 46.79200 20.19900
H  33.80200 48.75100 20.22700
H  34.54600 47.44100 19.28100
H  34.29500 49.07500 18.61400
H  38.98000 47.71400 20.86500
H  38.44800 48.71200 19.52000
H  38.91100 47.22300 18.10800
H  38.05600 45.78400 18.89000
H  39.74200 46.40000 19.30600
H  37.59600 43.35600 24.75100
H  39.08200 43.87900 25.43600
H  38.58800 44.08900 23.64700
H  37.89000 47.07800 29.24100
H  35.12200 44.32400 30.89900
H  34.62100 45.76000 31.71200
H  36.10400 44.77000 32.28900
Mg -2.19400 35.66400 27.21500
C  -3.54900 33.45800 29.51400
C  -0.62700 37.30900 29.64200
C  -1.11100 37.77900 24.85000
C  -3.99400 33.84600 24.71000
N  -2.29800 35.55900 29.34000
C  -2.79700 34.50000 30.09200
C  -2.59500 34.65600 31.59300
C  -1.64300 35.95000 31.61200
C  -1.60700 36.38900 30.18100
C  -2.01700 37.10700 32.69800
C  -1.89500 33.39100 32.20700
C  -2.63600 32.76100 33.40800
H  -1.75100 32.75700 34.67100
N  -1.03400 37.30400 27.20100
C  -0.42700 37.79000 28.32200
C  0.50200 38.87000 27.96500
C  0.52500 38.84900 26.57500
C  -0.58500 38.01800 26.16700
C  1.18800 39.63400 29.03500
C  1.26100 39.67900 25.63400
O  1.16800 39.67000 24.44600
C  2.39100 40.58100 26.20600
N  -2.61600 35.81700 25.12400
C  -2.04800 36.83600 24.36300
C  -2.32500 36.68900 22.85600
C  -3.20700 35.42200 22.78300
C  -3.32600 34.98900 24.31300
C  -2.93300 37.92300 22.16100
C  -2.61300 34.26700 21.93300
C  -1.45400 33.47000 22.52200
N  -3.66600 34.14400 27.12300
C  -4.24300 33.47200 26.07100
C  -4.98400 32.30900 26.58900
C  -4.79000 32.26800 27.97200
C  -3.85700 33.37300 28.23300
C  -5.83000 31.51100 25.66600
C  -4.97900 31.52800 29.19800
O  -5.43000 30.39900 29.39300
C  -4.35800 32.41300 30.25900
C  -5.50200 33.00600 31.05000
O  -6.26600 33.88400 30.64900
O  -5.58000 32.31800 32.23400
C  -6.52300 32.83200 33.17400
H  -0.04700 37.69800 30.48200
H  -0.70100 38.40900 24.05800
H  -4.58300 33.33000 23.94900
H  -3.56600 34.78000 32.07200
H  -0.59200 35.70200 31.76400
H  -2.23400 36.71500 33.69100
H  -2.83000 37.68600 32.26000
H  -1.09400 37.67500 32.81200
H  -0.94300 33.76900 32.58200
H  -1.55300 32.57100 31.57600
H  -2.91400 31.71500 33.27400
H  -3.52700 33.35200 33.61900
H  1.10500 39.20400 30.03400
H  0.75100 40.63000 28.97100
H  2.25600 39.81200 28.90600
H  2.86000 41.07800 25.35700
H  3.17700 40.10300 26.78900
H  1.91700 41.25400 26.92100
H  -1.41600 36.32400 22.37800
H  -4.26200 35.52900 22.52900
H  -3.80600 37.73700 21.53500
H  -2.19100 38.47400 21.58400
H  -3.23900 38.63900 22.92300
H  -2.22300 34.62600 20.98100
H  -3.42700 33.59600 21.65900
H  -0.65800 33.26500 21.80700
H  -1.82100 32.53800 22.95200
H  -1.02600 33.99000 23.37900
H  -5.39600 31.38200 24.67400
H  -6.62900 32.19000 25.36700
H  -6.32100 30.64900 26.11600
H  -3.73600 31.79500 30.90600
H  -7.35500 33.41200 32.77500
H  -6.04600 33.41700 33.96000
H  -7.16600 32.04100 33.56100

