158

Mg 8.87500 4.45000 27.61200
C  9.72000 2.74100 30.66100
C  6.71300 6.36500 29.56400
C  7.80900 5.88100 24.83300
C  10.49600 1.92200 25.85100
N  8.15700 4.40100 29.76300
C  8.74500 3.73400 30.86200
C  8.25800 4.27900 32.23000
C  7.10100 5.24500 31.77500
C  7.28200 5.28400 30.23100
C  5.71000 4.77600 32.25300
C  9.38300 4.94700 33.18200
C  9.58200 4.27700 34.55500
H  10.79200 4.61500 35.30300
N  7.58200 6.02200 27.26900
C  6.86500 6.73700 28.19300
C  6.17600 7.81600 27.54700
C  6.47700 7.68500 26.13400
C  7.33500 6.49500 26.04300
C  5.29900 8.85300 28.27400
C  5.91300 8.54600 24.98500
O  6.31400 8.33800 23.80200
C  4.90900 9.64400 25.26400
N  9.09200 3.87300 25.63000
C  8.55900 4.65100 24.62600
C  8.78700 4.05800 23.19000
C  9.53400 2.68400 23.56600
C  9.85400 2.86700 25.10500
C  7.51400 3.91900 22.42300
C  10.77100 2.33900 22.59000
C  10.89600 0.87900 22.24700
N  10.04000 2.83500 28.02900
C  10.57600 1.88100 27.25700
C  11.16000 0.84500 28.03000
C  10.98600 1.26000 29.35300
C  10.19100 2.38900 29.33600
C  11.90000 -0.42100 27.55200
C  11.18800 0.89700 30.72800
O  11.85900 -0.06500 31.16200
C  10.41300 1.93500 31.67500
C  9.67700 1.05100 32.55100
O  8.52200 0.72800 32.34800
O  10.47100 0.84000 33.66700
C  9.87300 0.18900 34.86100
H  6.01400 6.91100 30.20100
H  7.42600 6.26300 23.88500
H  10.97200 1.06800 25.36500
H  7.73400 3.50200 32.78600
H  7.19300 6.27900 32.10800
H  4.98400 4.60000 31.46000
H  5.36400 5.61200 32.86100
H  5.80800 3.94300 32.95000
H  9.30700 6.02700 33.30400
H  10.35100 4.77900 32.70900
H  9.62100 3.20500 34.36400
H  8.69700 4.55800 35.12600
H  5.64100 9.06600 29.28700
H  4.29900 8.44000 28.40700
H  5.24900 9.79600 27.73000
H  4.45300 9.91900 24.31300
H  5.37900 10.49400 25.76000
H  4.09800 9.33800 25.92500
H  9.60500 4.68900 22.84500
H  8.74900 1.92900 23.51900
H  7.36100 2.90300 22.05800
H  7.62800 4.56500 21.55200
H  6.58500 4.23100 22.90000
H  11.73200 2.73300 22.92100
H  10.48300 2.86700 21.68200
H  10.10500 0.20900 22.58400
H  11.76500 0.59800 22.84400
H  11.07900 0.83900 21.17400
H  12.95800 -0.18500 27.66600
H  11.71700 -0.81000 26.55000
H  11.57000 -1.19600 28.24300
H  11.07800 2.53900 32.29400
H  9.25400 -0.66400 34.58300
H  9.27800 0.91500 35.41600
H  10.61700 -0.17500 35.57000
Mg 26.50400 1.04600 29.70300
C  28.44600 0.84700 32.44800
C  23.73900 1.77000 31.79600
C  24.42800 0.93500 27.09600
C  29.06800 -0.02600 27.73300
N  26.18700 1.41800 31.89000
C  27.14200 1.24700 32.83600
C  26.62600 1.56700 34.25100
C  25.11200 1.64500 34.01500
C  24.95100 1.55600 32.46000
C  24.26800 0.61800 34.83300
C  27.30300 2.90800 34.73400
C  28.08800 2.98900 36.08800
H  27.44100 3.85300 37.12800
N  24.43600 1.33400 29.45300
C  23.54300 1.80400 30.40800
C  22.21700 1.88100 29.74500
C  22.41900 1.65700 28.38900
C  23.84400 1.28800 28.25900
C  20.96200 2.12600 30.50200
C  21.41200 1.75700 27.29100
O  21.63100 1.73600 26.06700
C  19.89700 1.89600 27.61600
N  26.69800 0.50600 27.70900
C  25.74000 0.56100 26.81200
C  26.18600 0.16700 25.38700
C  27.69300 0.02500 25.57200
C  27.82100 0.15700 27.10400
C  25.40100 -1.04900 24.85800
C  28.44200 1.07200 24.92400
C  28.71300 2.45700 25.63500
N  28.43100 0.68900 29.96600
C  29.43900 0.23500 29.06500
C  30.68900 0.06700 29.73700
C  30.35200 0.18300 31.14100
C  28.97800 0.63100 31.16800
C  32.00200 -0.36600 29.06800
C  30.79300 0.06300 32.50300
O  31.90800 -0.15200 32.87300
C  29.56700 0.51200 33.39400
C  29.33900 -0.56800 34.39600
O  28.56400 -1.46700 34.31000
O  30.19400 -0.39200 35.44900
C  30.03800 -1.19400 36.73400
H  22.97000 2.12000 32.48700
H  23.95600 1.00400 26.11400
H  29.95200 -0.29600 27.15200
H  26.91200 0.66200 34.78600
H  24.75200 2.62600 34.32400
H  23.49100 1.20300 35.32500
H  24.79900 0.01100 35.56700
H  23.70300 -0.00500 34.14000
H  26.61800 3.74900 34.62000
H  28.05100 3.21900 34.00400
H  29.09800 3.32200 35.85100
H  27.97600 1.97300 36.46800
H  20.40900 3.01200 30.19100
H  21.18300 2.19000 31.56700
H  20.42000 1.19800 30.32300
H  19.32200 1.81100 26.69400
H  19.85300 2.86900 28.10500
H  19.63700 1.23500 28.44300
H  25.85900 1.05900 24.85300
H  28.07600 -0.94300 25.24900
H  26.08600 -1.74900 24.38000
H  24.65400 -0.80200 24.10300
H  25.08400 -1.58300 25.75400
H  28.16000 1.21100 23.88000
H  29.46300 0.71900 24.77900
H  28.17700 2.61200 26.57100
H  28.43600 3.26000 24.95200
H  29.78200 2.57400 25.81400
H  32.04200 0.03400 28.05500
H  32.03500 -1.45500 29.02800
H  32.85000 0.05400 29.60900
H  29.84300 1.40200 33.95900
H  30.42600 -2.20500 36.61500
H  29.00400 -1.11200 37.06900
H  30.68400 -0.82800 37.53200

