158

Mg 10.26400 47.23900 26.25100
C  8.22900 47.29000 29.14200
C  12.77800 48.54500 28.06200
C  12.16500 47.30000 23.41700
C  7.37300 46.82700 24.32100
N  10.50500 47.58500 28.40400
C  9.54700 47.60800 29.40000
C  10.10800 48.16000 30.77600
C  11.36600 48.91700 30.20600
C  11.62500 48.22900 28.85100
C  11.18100 50.51200 30.11700
C  10.45000 47.06000 31.81000
C  10.61200 47.41900 33.32900
H  10.41900 46.22400 34.31300
N  12.20400 47.70000 25.86500
C  13.11000 48.19100 26.74300
C  14.41400 48.30200 26.13600
C  14.28600 47.83000 24.77000
C  12.80100 47.61200 24.60100
C  15.67700 48.71800 26.82000
C  15.30500 47.69600 23.57500
O  15.05100 47.47300 22.37800
C  16.86200 47.88400 23.88100
N  9.86600 46.94400 24.12200
C  10.81400 47.08700 23.11400
C  10.13300 46.83700 21.74800
C  8.67500 46.46700 22.16400
C  8.64200 46.86500 23.62400
C  10.30100 47.97900 20.75200
C  8.10400 45.01500 21.82300
C  8.78800 43.84000 22.53000
N  8.27300 47.04500 26.66500
C  7.20200 46.79800 25.75200
C  6.01800 46.41800 26.48700
C  6.38400 46.71100 27.81500
C  7.72600 47.07400 27.84500
C  4.63300 45.99400 25.90600
C  5.89900 46.70600 29.22900
O  4.83300 46.48000 29.66800
C  7.11500 47.11000 30.10400
C  7.33700 45.91000 31.00300
O  7.81600 44.83000 30.71600
O  6.76300 46.16800 32.21700
C  6.87900 45.02000 33.18300
H  13.58100 49.04800 28.60400
H  12.81600 47.41200 22.54800
H  6.43400 46.84700 23.76400
H  9.42200 48.86500 31.24600
H  12.27300 48.77000 30.79100
H  11.46100 50.81200 29.10700
H  11.84100 50.94500 30.86900
H  10.21100 50.93100 30.38200
H  11.36000 46.67600 31.34900
H  9.76100 46.23800 31.61700
H  9.95300 48.21600 33.67300
H  11.62000 47.82300 33.41800
H  16.51800 48.03700 26.94300
H  15.43100 49.05300 27.82800
H  16.13100 49.63500 26.44400
H  17.03400 48.87700 24.29700
H  17.38300 47.65700 22.95100
H  17.26500 47.23200 24.65600
H  10.60600 45.99000 21.24900
H  7.93800 47.12000 21.69700
H  10.89600 48.71800 21.28800
H  9.33200 48.44000 20.56100
H  10.92100 47.75500 19.88400
H  8.22200 44.78100 20.76500
H  7.05300 44.99300 22.11100
H  9.39000 44.13700 23.38900
H  9.36000 43.16500 21.89400
H  8.01600 43.15100 22.87300
H  4.15300 46.85700 25.44400
H  3.93700 45.46800 26.55900
H  4.90800 45.24200 25.16600
H  6.86200 48.09200 30.50500
H  6.59300 45.11600 34.23100
H  7.95200 44.83200 33.18100
H  6.27700 44.14800 32.92600
Mg -11.79000 37.28400 41.79200
C  -9.72100 34.70600 40.76900
C  -9.54400 39.55100 40.60800
C  -14.25200 39.56800 42.03200
C  -14.14200 34.84600 42.95600
N  -9.98200 37.10500 40.58900
C  -9.24100 35.96600 40.38100
C  -7.91800 36.19900 39.57100
C  -7.82400 37.76200 39.84800
C  -9.18200 38.23500 40.38600
C  -6.62000 38.40600 40.68500
C  -7.99700 35.75100 38.04400
C  -6.82500 34.92300 37.41300
H  -6.24600 35.53600 36.17800
N  -11.83400 39.34100 41.34500
C  -10.73900 40.06900 40.95700
C  -11.21800 41.51100 40.93300
C  -12.66100 41.49600 41.25700
C  -12.97000 40.09400 41.60200
C  -10.33400 42.66800 40.60500
C  -13.56300 42.72300 41.35400
O  -13.11800 43.82100 41.06800
C  -15.01900 42.75400 41.85000
N  -13.93800 37.14100 42.29600
C  -14.70200 38.33800 42.31800
C  -16.23300 37.98800 42.65800
C  -16.12800 36.52400 43.13000
C  -14.64700 36.11600 42.80400
C  -16.94400 38.84200 43.69200
C  -17.23800 35.56200 42.43600
C  -18.22400 34.96400 43.48400
N  -11.95800 35.20100 41.84200
C  -12.88500 34.33400 42.48600
C  -12.30900 33.03000 42.52800
C  -11.00100 33.10600 41.94500
C  -10.90400 34.39800 41.42100
C  -12.97700 31.74100 43.07600
C  -9.75000 32.38000 41.70100
O  -9.38800 31.28700 42.06300
C  -8.90400 33.38000 40.74400
C  -7.59900 33.60500 41.25300
O  -7.29300 34.00300 42.32900
O  -6.70900 33.29200 40.29000
C  -5.33100 33.39700 40.80100
H  -8.74700 40.21800 40.27300
H  -15.03800 40.32600 42.04300
H  -14.89800 34.22500 43.44100
H  -7.08800 35.74500 40.11100
H  -7.65300 38.24300 38.88500
H  -6.08100 39.08600 40.02600
H  -5.86100 37.64000 40.84400
H  -6.99100 38.97600 41.53700
H  -8.16900 36.62300 37.41300
H  -8.90000 35.16300 37.87800
H  -7.26800 33.93900 37.26100
H  -6.04700 34.77700 38.16200
H  -10.67300 43.34400 39.82000
H  -9.35800 42.21600 40.42900
H  -10.13900 43.22200 41.52300
H  -15.70700 42.43000 41.06900
H  -15.18200 43.79900 42.11200
H  -15.17500 42.17900 42.76200
H  -16.82900 38.14600 41.75900
H  -16.24700 36.49800 44.21300
H  -17.65200 39.49300 43.17800
H  -16.29200 39.53200 44.22700
H  -17.57500 38.24900 44.35400
H  -16.72700 34.82900 41.81200
H  -17.77000 36.11400 41.66200
H  -17.86500 33.96400 43.72600
H  -19.24200 34.96800 43.09400
H  -18.29000 35.66300 44.31800
H  -12.29200 31.23300 43.75500
H  -13.04900 31.07500 42.21700
H  -13.89700 31.95900 43.61900
H  -8.85400 33.13400 39.68300
H  -4.99800 34.43400 40.78200
H  -4.66900 32.84800 40.13100
H  -5.05300 33.09200 41.81000

