158

Mg 54.20100 24.02700 45.35600
C  51.84100 26.33100 44.30500
C  52.33700 21.41700 44.33900
C  56.86800 22.15100 45.77500
C  56.24000 26.92300 46.23800
N  52.36200 23.86900 44.25500
C  51.49900 24.99200 43.96800
C  50.15600 24.40200 43.42700
C  50.20600 22.90000 43.88100
C  51.73400 22.73400 44.19300
C  49.37900 22.62900 45.12500
C  50.12800 24.53400 41.87800
C  48.78100 24.68700 41.24100
H  48.40400 23.73400 40.09800
N  54.59600 22.08300 44.90400
C  53.66700 21.11900 44.58100
C  54.31700 19.86600 44.63800
C  55.69400 20.06700 45.02300
C  55.81200 21.48800 45.25200
C  53.61300 18.54500 44.43200
C  56.62700 18.94800 45.37800
O  56.31600 17.77800 45.15600
C  57.97200 19.11700 46.05900
N  56.32000 24.45900 45.78600
C  57.21200 23.47000 46.01600
C  58.48400 23.95200 46.63900
C  58.34900 25.52600 46.62300
C  56.89400 25.69600 46.10400
C  58.68200 23.39700 48.10300
C  59.30600 26.28900 45.71000
C  60.63700 26.70500 46.35300
N  53.98300 26.19100 45.48200
C  54.88000 27.20400 45.89500
C  54.20800 28.47500 45.93600
C  52.93700 28.14800 45.29200
C  52.99000 26.79500 44.92400
C  54.59800 29.74400 46.57300
C  51.62700 28.68700 44.82000
O  51.08900 29.81300 44.80700
C  50.90900 27.46000 44.17700
C  50.62700 27.73600 42.78500
O  51.34000 28.18100 41.90500
O  49.28200 27.87400 42.67800
C  48.77800 28.59800 41.46900
H  51.64000 20.57800 44.30000
H  57.74800 21.53900 45.98300
H  56.70100 27.81500 46.66700
H  49.34000 24.99200 43.84400
H  49.84500 22.24700 43.08700
H  48.90200 23.48100 45.60800
H  50.08400 22.20100 45.83800
H  48.57000 21.91500 44.97600
H  50.50300 23.60000 41.45900
H  50.79900 25.30200 41.49400
H  48.65000 25.73400 40.97100
H  48.12100 24.34400 42.03700
H  54.20800 18.06700 43.65400
H  52.54400 18.46000 44.23700
H  53.78000 17.97400 45.34500
H  58.50300 18.19300 46.28700
H  57.82000 19.66100 46.99200
H  58.74100 19.61300 45.46600
H  59.32500 23.66700 46.00800
H  58.61000 25.91100 47.60900
H  59.66100 23.59700 48.53900
H  58.71500 22.30800 48.13200
H  57.86500 23.65200 48.77700
H  58.64200 27.13100 45.51300
H  59.39500 25.69700 44.79900
H  61.44100 26.67600 45.61800
H  60.91100 26.33500 47.34100
H  60.48900 27.75600 46.60100
H  55.64200 30.04500 46.48500
H  54.40800 29.50400 47.61900
H  53.87600 30.52600 46.34000
H  50.10100 27.15800 44.84400
H  47.81300 28.17900 41.18400
H  49.41500 28.62100 40.58500
H  48.64300 29.64600 41.73500
Mg -12.25200 16.23400 41.96900
C  -9.09100 14.50900 41.38400
C  -10.80300 19.02400 40.69400
C  -15.22600 17.39800 41.71000
C  -13.51500 13.06900 42.84400
N  -10.15400 16.62700 40.91200
C  -9.09300 15.83400 40.93500
C  -7.92700 16.62800 40.54100
C  -8.42700 18.14400 40.36800
C  -9.90400 17.92900 40.66400
C  -7.62800 19.22500 41.23800
C  -7.24400 16.00600 39.26000
C  -5.74100 16.15900 39.21200
H  -5.11100 16.73400 37.98700
N  -12.92100 18.02400 41.31100
C  -12.18300 19.03100 40.83700
C  -13.09500 20.08000 40.53800
C  -14.38100 19.70700 40.94500
C  -14.22000 18.32600 41.31400
C  -12.60800 21.39100 39.94900
C  -15.61600 20.53600 40.80900
O  -15.56300 21.69800 40.29800
C  -17.02100 20.17400 41.31300
N  -14.13000 15.30300 42.15600
C  -15.21000 16.09100 42.12800
C  -16.48000 15.23300 42.17700
C  -16.02900 13.81300 42.69200
C  -14.45700 14.00300 42.50300
C  -17.62100 15.80400 43.06900
C  -16.63700 12.53800 42.00500
C  -17.04300 11.41300 43.02200
N  -11.47900 14.18400 42.22800
C  -12.08600 13.06800 42.71000
C  -11.12700 11.96400 42.87000
C  -9.90200 12.54400 42.41100
C  -10.20500 13.87800 41.97700
C  -11.38800 10.59300 43.42300
C  -8.44900 12.22200 42.23200
O  -7.73700 11.23900 42.43500
C  -7.85500 13.51700 41.53200
C  -6.75800 14.02700 42.39000
O  -6.86800 14.77700 43.33300
O  -5.56500 13.65800 41.84800
C  -4.40800 14.22100 42.50700
H  -10.43800 20.02400 40.45200
H  -16.23600 17.81100 41.68100
H  -13.99600 12.13000 43.12600
H  -7.28000 16.61600 41.41800
H  -8.25800 18.40300 39.32300
H  -8.33000 19.83800 41.80300
H  -6.99000 19.93700 40.71600
H  -6.96800 18.71900 41.94300
H  -7.69500 16.42200 38.35900
H  -7.37700 14.92600 39.18800
H  -5.27300 15.18900 39.38400
H  -5.44600 16.70800 40.10600
H  -12.73800 22.26700 40.58400
H  -13.27600 21.39600 39.08800
H  -11.61600 21.43400 39.49800
H  -17.36200 19.38600 40.64200
H  -17.68000 21.01700 41.10500
H  -17.07600 19.95600 42.38000
H  -16.88400 15.18100 41.16600
H  -16.18800 13.58300 43.74500
H  -17.19400 16.53200 43.75900
H  -18.12000 15.00500 43.61900
H  -18.18800 16.30200 42.28300
H  -15.96100 12.13000 41.25400
H  -17.55300 12.92800 41.56100
H  -18.01300 11.74800 43.39100
H  -16.23600 11.21300 43.72700
H  -17.10000 10.59900 42.30000
H  -11.59000 10.67900 44.49100
H  -10.59000 9.86000 43.29900
H  -12.28900 10.13100 43.02100
H  -7.41500 13.18900 40.59000
H  -4.34200 15.30800 42.47400
H  -3.49300 13.87900 42.02400
H  -4.40700 13.94100 43.56000

