158

Mg 47.68800 35.21400 28.16400
C  45.82000 33.37800 30.41200
C  47.70400 37.84100 30.47700
C  49.09300 37.22000 25.77000
C  47.72200 32.45700 25.97200
N  47.00000 35.52300 30.30600
C  46.25900 34.56200 31.00700
C  46.26800 34.88000 32.47100
C  46.48000 36.43100 32.36200
C  47.07100 36.69000 30.93300
C  45.12200 37.08200 32.52400
C  47.61900 34.29400 33.04500
C  48.09500 34.71700 34.41400
H  47.21000 35.44400 35.40000
N  48.38200 37.21100 28.14800
C  48.29900 38.09600 29.17200
C  48.86000 39.33400 28.71400
C  49.34100 39.19900 27.39100
C  48.92000 37.83800 27.06000
C  48.85600 40.60700 29.59600
C  50.21800 40.10000 26.52600
O  50.48200 39.87800 25.32300
C  50.77400 41.35200 27.12500
N  48.28000 34.85000 26.20200
C  48.85500 35.84100 25.40200
C  49.36300 35.28400 24.13800
C  48.94300 33.77200 24.23300
C  48.30900 33.63200 25.61100
C  48.68500 36.05100 22.95400
C  49.95900 32.78200 23.75600
C  50.02000 32.55100 22.19900
N  46.80800 33.36900 28.03000
C  46.88700 32.33700 27.11600
C  46.21200 31.15600 27.52300
C  45.65300 31.57700 28.77900
C  46.14400 32.90000 29.07900
C  45.98000 29.86800 26.76800
C  44.80000 31.21600 29.88600
O  44.18000 30.16800 30.08600
C  44.80600 32.38700 30.96500
C  44.99700 31.72900 32.27800
O  45.89000 30.94900 32.52200
O  44.07000 32.18900 33.16900
C  44.14500 31.63700 34.54000
H  47.87900 38.61900 31.22300
H  49.60300 37.80000 24.99800
H  48.07000 31.56500 25.44900
H  45.35500 34.57200 32.98100
H  47.16100 36.88100 33.08500
H  44.81000 37.64700 31.64600
H  44.99600 37.72800 33.39300
H  44.34200 36.32300 32.45600
H  48.33100 34.67300 32.31100
H  47.55000 33.20700 33.09700
H  48.97300 35.33700 34.22800
H  48.51900 33.84600 34.91400
H  49.74100 40.73100 30.22200
H  47.96600 40.71900 30.21400
H  48.78500 41.49400 28.96700
H  50.88300 41.30300 28.20900
H  50.15600 42.17000 26.75500
H  51.78100 41.50700 26.73900
H  50.44300 35.40000 24.05400
H  48.00600 33.65000 23.69000
H  48.03700 35.41400 22.35200
H  49.60600 36.25300 22.40700
H  48.09700 36.91700 23.25700
H  49.93200 31.79000 24.20900
H  50.96400 33.14500 23.97400
H  50.84200 33.10900 21.74900
H  49.11700 32.73300 21.61600
H  50.15000 31.47200 22.11900
H  46.96000 29.52100 26.44000
H  45.29300 30.14000 25.96600
H  45.50200 29.13700 27.42000
H  43.85900 32.92600 30.95200
H  44.01800 32.49500 35.20000
H  45.17100 31.31500 34.71600
H  43.37800 30.88300 34.71700
Mg 17.16000 52.45800 26.21500
C  19.11700 50.78500 28.78200
C  14.84000 53.05000 28.58900
C  15.37900 53.54700 23.83900
C  19.53700 51.07900 23.95200
N  16.98100 51.84600 28.40500
C  17.91900 51.31700 29.25800
C  17.60000 51.61000 30.70400
C  16.04200 51.90000 30.58000
C  15.96800 52.35800 29.13900
C  15.01300 50.81400 30.90800
C  18.60000 52.67500 31.41500
C  19.08900 52.37100 32.80800
H  18.06400 51.67600 33.67000
N  15.39700 53.30100 26.17900
C  14.51800 53.47000 27.28600
C  13.34300 54.11300 26.88200
C  13.54100 54.34400 25.42000
C  14.76000 53.70600 25.07400
C  12.20400 54.53000 27.81100
C  12.66700 55.23800 24.53200
O  12.93700 55.51600 23.35900
C  11.44600 55.74800 25.07400
N  17.21300 52.05300 24.14000
C  16.42800 52.79800 23.35300
C  17.05000 53.02800 21.92600
C  18.38800 52.24700 22.09300
C  18.42200 51.85200 23.53800
C  16.03800 52.51900 20.84500
C  19.65900 52.98400 21.45000
C  20.01900 54.40700 21.93900
N  18.97600 51.28900 26.29900
C  19.72900 50.80600 25.31500
C  20.99900 50.22300 25.83700
C  20.70100 50.14200 27.15000
C  19.52300 50.85500 27.48100
C  22.12600 49.61000 24.95700
C  21.25100 49.70800 28.38800
O  22.30800 48.99900 28.54900
C  20.25500 50.08700 29.48100
C  19.74600 48.93700 30.28100
O  18.64100 48.39500 30.12800
O  20.55400 48.73900 31.35500
C  20.08200 47.76700 32.39300
H  13.97700 53.23900 29.23100
H  14.85000 54.07800 23.04500
H  20.39300 50.73800 23.36500
H  17.69000 50.62600 31.16400
H  15.77500 52.78100 31.16400
H  14.68100 50.89700 31.94300
H  15.41700 49.81800 30.72800
H  14.19800 50.85700 30.18500
H  18.11000 53.64500 31.32400
H  19.42900 52.70700 30.70900
H  19.44100 53.23600 33.37100
H  20.00400 51.78900 32.69700
H  12.18200 55.56100 28.16200
H  12.32800 54.17200 28.83400
H  11.21400 54.34000 27.39700
H  11.78500 56.44000 25.84500
H  10.83500 54.92000 25.43400
H  10.92600 56.28500 24.28000
H  17.19400 54.10400 21.82800
H  18.29800 51.27900 21.60000
H  15.58100 53.39700 20.38800
H  15.35500 51.78900 21.28000
H  16.60600 52.12100 20.00500
H  19.38800 53.04400 20.39600
H  20.57200 52.38900 21.49100
H  20.08200 55.10700 21.10600
H  21.05500 54.44900 22.27600
H  19.42700 54.77400 22.77800
H  22.44500 50.31600 24.19000
H  21.88400 48.63500 24.53400
H  22.94500 49.38000 25.63900
H  20.73100 50.73400 30.21700
H  19.99100 46.74400 32.03000
H  19.13800 48.23200 32.67600
H  20.80500 47.69600 33.20600

