158

Mg 50.84800 46.93000 41.24600
C  47.62800 47.47700 40.23200
C  50.44100 43.66600 40.09500
C  54.18000 46.44800 41.53700
C  51.13100 50.14800 42.36600
N  49.17400 45.75000 40.21300
C  47.99100 46.18600 39.83300
C  47.09600 45.12900 39.19900
C  47.96800 43.80400 39.46400
C  49.27100 44.41500 39.99600
C  47.35800 42.78200 40.41600
C  46.79800 45.41100 37.71900
C  45.37400 45.24200 37.32200
H  45.04100 44.15300 36.27700
N  52.06300 45.29000 40.92900
C  51.72000 43.99900 40.52500
C  52.85200 43.13900 40.58000
C  53.94000 43.85200 41.04000
C  53.41200 45.26400 41.26000
C  52.92200 41.66000 40.05000
C  55.27800 43.33600 41.21200
O  55.59100 42.18000 40.88200
C  56.35800 44.17700 41.70100
N  52.46000 48.15400 41.74300
C  53.72800 47.69800 41.87100
C  54.65300 48.87300 42.35000
C  53.62200 50.04100 42.59300
C  52.29700 49.39900 42.27100
C  55.59700 48.71700 43.55600
C  53.85400 51.35600 41.81900
C  53.98100 52.65400 42.71600
N  49.57800 48.54000 41.39600
C  49.82900 49.82500 41.86700
C  48.58900 50.64000 41.65700
C  47.72300 49.75700 41.01900
C  48.32700 48.50500 40.89900
C  48.44000 52.04200 41.86800
C  46.42500 49.59100 40.34400
O  45.67900 50.46500 40.01200
C  46.28200 48.18200 39.83400
C  45.02500 47.51900 40.30800
O  44.97500 46.78900 41.27700
O  43.91900 47.97300 39.58500
C  42.64600 47.28300 39.81200
H  50.34900 42.62400 39.77800
H  55.25600 46.26500 41.56900
H  51.23000 51.20800 42.60800
H  46.18100 45.08500 39.79000
H  48.14900 43.32900 38.50000
H  46.43000 43.21000 40.79600
H  48.06500 42.61600 41.22900
H  47.16600 41.86600 39.85800
H  47.40500 44.84600 37.01100
H  47.09700 46.44900 37.57300
H  44.86900 46.13800 36.96200
H  44.88600 45.03600 38.27500
H  53.23900 41.69800 39.00800
H  51.88000 41.34500 40.09700
H  53.56900 40.96700 40.58900
H  56.17000 44.82200 42.55900
H  56.66800 44.81600 40.87400
H  57.19400 43.56200 42.03500
H  55.18800 49.00400 41.41000
H  53.68700 50.18000 43.67200
H  55.38100 47.65900 43.70100
H  55.29500 49.29400 44.43000
H  56.61800 48.83700 43.19300
H  53.07400 51.54700 41.08100
H  54.75000 51.24000 41.20800
H  53.14600 53.30800 42.46500
H  54.92800 53.13100 42.46400
H  53.93100 52.35300 43.76200
H  49.33700 52.56500 42.20000
H  47.74400 52.23000 42.68700
H  48.07600 52.58600 40.99600
H  46.22700 48.16800 38.74500
H  41.94200 47.54000 39.02100
H  42.35700 47.60700 40.81100
H  42.82100 46.20800 39.86400
Mg 0.53100 43.52000 25.97200
C  2.50300 43.32400 28.66600
C  -2.26000 42.92900 27.84800
C  -1.45400 43.16100 23.11600
C  3.35400 43.72500 23.89500
N  0.23800 42.96400 27.95400
C  1.15400 43.22500 28.95900
C  0.52800 43.25700 30.37700
C  -0.92500 42.76500 30.13400
C  -1.00100 42.92500 28.53800
C  -1.30600 41.30900 30.53600
C  0.52700 44.65600 31.03200
C  0.76100 44.72400 32.58900
H  0.44100 43.42200 33.38600
N  -1.65400 43.24000 25.53900
C  -2.59300 43.03200 26.50300
C  -3.90900 42.92600 25.93200
C  -3.65500 43.00900 24.53800
C  -2.21900 43.17300 24.31400
C  -5.23200 42.71300 26.64500
C  -4.72800 42.99300 23.34400
O  -4.51100 42.85000 22.15300
C  -6.14100 43.04000 23.65600
N  0.89500 43.30000 23.72700
C  -0.04000 43.18200 22.79200
C  0.54200 42.87200 21.42500
C  2.02500 43.33500 21.67400
C  2.12000 43.53700 23.22900
C  0.29700 41.41400 20.95500
C  2.34000 44.60000 20.81400
C  1.65400 45.93400 21.19000
N  2.68300 43.52800 26.15800
C  3.67800 43.68100 25.24300
C  4.89800 43.67700 25.93700
C  4.49200 43.58600 27.33100
C  3.13600 43.44000 27.37900
C  6.34300 43.80900 25.49700
C  4.94900 43.57100 28.71600
O  6.03100 43.48700 29.16000
C  3.65700 43.54900 29.56000
C  3.91800 42.48200 30.51500
O  3.64200 41.28500 30.34000
O  4.50800 42.96300 31.67000
C  4.72600 42.06400 32.81200
H  -3.06500 42.84600 28.58100
H  -2.16100 43.01600 22.29700
H  4.18800 44.04900 23.27000
H  1.03900 42.55400 31.03500
H  -1.67300 43.47900 30.47700
H  -2.11200 41.47200 31.25200
H  -0.45400 40.80400 30.99100
H  -1.74200 40.76100 29.70100
H  -0.35300 45.21500 30.71500
H  1.42200 45.13900 30.64100
H  0.08000 45.44800 33.03600
H  1.76400 45.07100 32.83800
H  -4.99400 42.74900 27.70800
H  -5.52400 41.75800 26.20800
H  -5.87400 43.55300 26.37600
H  -6.45400 42.17700 24.24300
H  -6.61300 42.93200 22.68000
H  -6.49100 43.95000 24.14300
H  -0.06500 43.51400 20.78600
H  2.74700 42.58400 21.35100
H  -0.23200 41.28000 20.01100
H  -0.44100 40.96600 21.62000
H  1.22300 40.84500 20.87400
H  1.97500 44.39400 19.80800
H  3.40400 44.77900 20.65900
H  2.31500 46.71200 20.80800
H  1.65800 45.97200 22.27900
H  0.61700 45.95500 20.85400
H  6.53900 43.22700 24.59600
H  6.89600 43.38400 26.33400
H  6.51500 44.85800 25.25600
H  3.51000 44.44900 30.15600
H  5.77500 42.06900 33.10800
H  4.32000 41.06400 32.66000
H  4.11400 42.46900 33.61900

