158

Mg 40.73200 7.58700 28.75800
C  42.52100 9.07400 31.47300
C  38.47800 6.26300 31.08800
C  39.09900 6.23400 26.14300
C  43.45100 8.45900 26.63500
N  40.60000 7.60200 31.10700
C  41.36000 8.34300 31.88500
C  40.85200 8.26000 33.35300
C  39.57500 7.28700 33.15700
C  39.45600 7.06500 31.67000
C  39.55900 6.01300 34.03700
C  40.43200 9.62300 34.01800
C  40.12300 9.66500 35.55300
H  40.94300 10.64000 36.40500
N  39.02900 6.36700 28.68800
C  38.30400 5.88200 29.75100
C  37.24200 5.17900 29.17900
C  37.27400 5.27900 27.75700
C  38.51000 5.91000 27.46900
C  36.07200 4.61000 30.02300
C  36.21700 4.86000 26.76900
O  36.45300 4.93600 25.59900
C  34.91900 4.18200 27.18100
N  41.25900 7.16700 26.65500
C  40.37300 6.70000 25.76400
C  40.89000 6.79900 24.37200
C  42.29500 7.50900 24.48700
C  42.39700 7.76000 26.05600
C  41.02300 5.31200 23.81400
C  42.28900 8.88400 23.71100
C  41.12800 9.86000 23.95500
N  42.62000 8.53500 28.94400
C  43.57100 8.85400 28.01700
C  44.62300 9.60600 28.58200
C  44.27200 9.71100 29.98900
C  43.03900 9.06800 30.12100
C  45.81000 10.10900 27.83000
C  44.64500 10.25800 31.18900
O  45.58900 10.97900 31.42400
C  43.52600 9.88700 32.25100
C  44.01900 9.36600 33.52200
O  44.15600 8.18400 33.72600
O  44.29700 10.43500 34.36300
C  44.88800 10.02900 35.66900
H  37.71300 5.83900 31.74200
H  38.51600 6.00200 25.24900
H  44.35200 8.69300 26.06300
H  41.66700 7.83000 33.93600
H  38.69400 7.92700 33.19200
H  40.23500 6.25900 34.85600
H  39.90800 5.12600 33.50800
H  38.53000 5.92300 34.38700
H  39.52100 9.96600 33.52600
H  41.33500 10.22600 33.92300
H  39.92500 8.71300 36.04600
H  39.11600 10.07600 35.47500
H  35.74800 3.59000 29.81600
H  35.11800 5.13700 30.01900
H  36.23600 4.59000 31.10000
H  34.15100 4.21100 26.40800
H  34.41700 4.58600 28.06000
H  35.05300 3.14500 27.48900
H  40.21500 7.46200 23.83000
H  43.09000 6.81500 24.21600
H  42.04800 4.94500 23.75800
H  40.49400 5.26400 22.86300
H  40.53100 4.67900 24.55300
H  42.41100 8.53000 22.68800
H  43.22900 9.38600 23.94000
H  40.83000 10.43200 23.07700
H  41.56900 10.62000 24.60000
H  40.27600 9.43900 24.49000
H  46.54600 9.30700 27.77300
H  46.07800 10.99300 28.40800
H  45.50500 10.47100 26.84800
H  43.08400 10.85600 32.48300
H  45.91700 9.67500 35.60800
H  44.32300 9.19300 36.08200
H  44.90000 10.80100 36.43900
Mg 26.38800 51.10500 26.57200
C  24.21100 52.21000 29.20300
C  28.81800 50.49700 28.98500
C  28.49400 50.75300 24.02700
C  23.99000 52.38400 24.44600
N  26.51100 51.42500 28.76900
C  25.48700 51.76700 29.61500
C  25.96900 51.57300 31.09600
C  27.53100 51.32700 30.97000
C  27.65100 51.02000 29.49400
C  28.55300 52.50700 31.35400
C  25.14200 50.45600 31.92200
C  24.34700 50.86400 33.20300
H  24.60100 49.92800 34.38800
N  28.34600 50.55500 26.51800
C  29.15400 50.27800 27.60500
C  30.36500 49.71200 27.19400
C  30.28200 49.70900 25.71300
C  29.02700 50.37900 25.35900
C  31.37500 49.09700 28.17000
C  31.32400 49.18200 24.67500
O  31.11300 49.29000 23.45600
C  32.53100 48.56900 25.22800
N  26.33200 51.70400 24.56500
C  27.29500 51.35800 23.66600
C  26.89800 51.73800 22.21800
C  25.37400 51.91100 22.38400
C  25.23100 52.05900 23.88700
C  27.73300 52.99000 21.77100
C  24.52700 50.75700 21.87600
C  23.06500 51.09600 21.62600
N  24.50200 52.03200 26.74700
C  23.63100 52.43100 25.76100
C  22.32000 52.78900 26.29900
C  22.55400 52.81600 27.68000
C  23.86800 52.32700 27.84600
C  21.06000 53.11700 25.48900
C  21.94700 53.02800 28.97500
O  20.85200 53.46300 29.32800
C  23.00200 52.65900 29.98200
C  23.23700 53.90900 30.80200
O  23.94000 54.91600 30.51000
O  22.64900 53.79000 32.02100
C  22.97600 54.84200 33.04800
H  29.55700 50.27700 29.75800
H  29.16400 50.67200 23.16900
H  23.25800 52.76800 23.73200
H  25.88100 52.59100 31.47600
H  27.86900 50.45100 31.52400
H  29.01600 52.42600 32.33700
H  28.00300 53.44800 31.36200
H  29.33200 52.61700 30.59900
H  25.82300 49.66400 32.23400
H  24.46200 49.99400 31.20700
H  23.27400 50.87500 33.01000
H  24.42900 51.93300 33.40000
H  31.08300 48.04700 28.19600
H  31.34600 49.49400 29.18400
H  32.38500 49.22100 27.77900
H  33.13300 49.31800 25.74100
H  33.08000 48.17300 24.37300
H  32.34000 47.78800 25.96400
H  27.10900 50.91000 21.54000
H  25.04800 52.82200 21.88100
H  28.64100 53.03300 22.37100
H  27.15800 53.91600 21.80500
H  28.07700 52.78200 20.75800
H  24.65600 50.01500 22.66300
H  24.90600 50.38300 20.92500
H  22.54400 50.56200 22.42000
H  22.73300 50.63400 20.69600
H  22.92300 52.17500 21.67400
H  21.10700 54.20600 25.50000
H  20.12400 52.81400 25.95900
H  21.18400 52.67900 24.49800
H  22.71100 51.80100 30.58800
H  23.66100 55.63600 32.75000
H  23.33600 54.28400 33.91200
H  22.12000 55.46100 33.31600

