158

Mg 47.07600 25.62500 28.56100
C  48.29900 27.65500 31.20800
C  45.80600 23.55800 30.88400
C  46.18000 23.58500 26.07400
C  48.72900 27.78900 26.36600
N  47.07600 25.72000 30.82500
C  47.50600 26.58800 31.65300
C  46.98200 26.33900 33.14300
C  46.37900 24.96900 32.94800
C  46.46000 24.69700 31.42800
C  47.22200 23.83800 33.59600
C  46.02300 27.47100 33.66800
C  46.51100 28.23600 34.89600
H  45.48900 28.34600 36.03800
N  46.05000 23.87800 28.44500
C  45.65300 23.16100 29.54200
C  44.95600 22.01400 29.05400
C  44.98400 21.97200 27.61300
C  45.79600 23.16600 27.32000
C  44.31000 20.95700 29.93600
C  44.31800 21.03400 26.56100
O  44.30100 21.34200 25.38200
C  43.55700 19.83500 27.09000
N  47.21300 25.80800 26.52100
C  46.80400 24.76400 25.62900
C  47.40500 24.91900 24.20100
C  48.04700 26.36500 24.38700
C  47.96700 26.74700 25.80800
C  48.44800 23.86000 23.94700
C  47.46600 27.53900 23.44400
C  48.41900 28.21100 22.41600
N  48.30900 27.46700 28.69000
C  48.84700 28.25200 27.69200
C  49.45900 29.41200 28.31600
C  49.26500 29.20400 29.69000
C  48.64100 27.94700 29.82500
C  50.08500 30.63100 27.62400
C  49.54400 29.74300 30.99800
O  50.15900 30.74200 31.30800
C  48.88000 28.78800 32.01300
C  49.93200 28.35000 33.10300
O  50.58300 27.31200 32.97300
O  49.96800 29.22400 34.19600
C  50.94400 28.86100 35.22800
H  45.33000 22.95500 31.66100
H  46.12100 22.92300 25.20700
H  49.16500 28.49000 25.65100
H  47.78700 26.18300 33.86100
H  45.33700 24.85100 33.24300
H  47.54300 24.08800 34.60700
H  48.09800 23.71400 32.95800
H  46.65400 22.91100 33.67200
H  45.06500 26.99400 33.87700
H  45.89800 28.20500 32.87200
H  46.61100 29.27800 34.59000
H  47.47400 27.91200 35.29000
H  43.25600 20.80100 29.70300
H  44.56400 21.05800 30.99100
H  44.79400 20.00900 29.70100
H  44.20500 19.17300 27.66400
H  43.28800 19.26000 26.20300
H  42.64300 20.23200 27.53100
H  46.58200 24.80200 23.49700
H  49.12300 26.35700 24.21700
H  48.10700 22.94900 23.45500
H  48.85300 23.54700 24.91000
H  49.28000 24.19900 23.33000
H  46.97600 28.28100 24.07300
H  46.65100 27.10100 22.86800
H  48.18700 29.27500 22.46600
H  48.15800 27.77600 21.45100
H  49.48500 28.16900 22.64100
H  49.57000 30.80400 26.67900
H  51.13800 30.36500 27.53200
H  49.92100 31.54100 28.20200
H  48.12100 29.42700 32.46500
H  51.06000 29.65600 35.96500
H  51.93700 28.64800 34.83300
H  50.56500 28.01000 35.79500
Mg -11.70100 16.68300 41.30500
C  -8.86600 14.86800 40.83900
C  -10.28300 19.38200 39.73700
C  -14.79200 18.17000 41.27600
C  -13.40200 13.73300 42.26100
N  -9.88200 16.92300 40.09700
C  -8.76300 16.13800 40.27800
C  -7.47600 16.76600 39.70000
C  -8.02200 18.18300 39.26500
C  -9.50500 18.23400 39.82400
C  -7.09500 19.41300 39.76600
C  -6.87000 15.98400 38.45600
C  -5.44800 16.36200 38.20400
H  -5.18400 16.81300 36.79400
N  -12.37900 18.63100 40.75900
C  -11.66000 19.53600 40.08800
C  -12.46600 20.69900 39.78800
C  -13.74500 20.49500 40.43200
C  -13.72500 19.05000 40.87300
C  -11.98500 21.90900 38.91200
C  -14.84300 21.49900 40.41400
O  -14.72100 22.59400 39.86200
C  -16.26500 21.22600 41.02100
N  -13.78400 16.04700 41.51200
C  -14.89600 16.86600 41.47200
C  -16.16600 16.12300 41.76600
C  -15.75400 14.69000 42.13200
C  -14.21600 14.79500 41.99700
C  -17.17200 16.82800 42.70700
C  -16.47600 13.57000 41.40800
C  -17.44100 12.54900 42.21900
N  -11.23300 14.63400 41.55200
C  -12.00000 13.61700 42.08500
C  -11.09800 12.49400 42.24500
C  -9.87800 12.94900 41.80800
C  -9.99800 14.26000 41.35900
C  -11.54100 11.10900 42.65900
C  -8.47100 12.49900 41.54600
O  -7.94200 11.40600 41.61100
C  -7.75700 13.77400 40.97000
C  -6.79200 14.20100 42.05700
O  -7.06300 14.80400 43.04600
O  -5.46600 13.92000 41.76300
C  -4.56900 14.05200 42.86400
H  -9.79400 20.15600 39.14200
H  -15.76800 18.64400 41.40100
H  -13.80800 12.77900 42.60500
H  -6.73200 16.93400 40.47900
H  -7.99500 18.39500 38.19600
H  -7.18300 20.18200 38.99800
H  -6.11100 18.98300 39.95200
H  -7.54800 19.98000 40.58000
H  -7.55600 16.24200 37.64900
H  -7.01300 14.91300 38.59600
H  -4.87600 15.45200 38.38800
H  -5.11300 17.09900 38.93300
H  -12.19400 22.85400 39.41300
H  -12.62300 21.85900 38.03000
H  -10.90700 21.98000 38.76700
H  -16.78200 22.18400 40.97200
H  -16.13000 20.93100 42.06200
H  -16.81000 20.47500 40.44800
H  -16.59400 16.10500 40.76400
H  -16.00600 14.52000 43.17900
H  -16.78500 17.79600 43.02700
H  -17.59800 16.18000 43.47300
H  -18.12700 17.02000 42.21900
H  -15.75600 13.20000 40.67800
H  -17.20200 14.08400 40.77800
H  -18.48300 12.70500 41.93800
H  -17.18500 12.59500 43.27700
H  -17.13700 11.57500 41.83500
H  -11.89100 10.64400 41.73700
H  -12.28000 11.01200 43.45400
H  -10.66700 10.65400 43.12500
H  -7.18800 13.42800 40.10600
H  -4.44900 15.12800 42.98800
H  -3.57200 13.73200 42.56100
H  -4.85900 13.55300 43.78800

