158

Mg 46.75400 25.76400 27.72300
C  47.95600 27.94800 30.34600
C  45.82400 23.40500 30.12400
C  46.04700 23.71100 25.20500
C  48.41200 27.91700 25.43300
N  46.93400 25.69500 29.90200
C  47.30600 26.69700 30.80800
C  46.89100 26.35800 32.24500
C  46.31600 24.92600 32.15200
C  46.28400 24.60900 30.63900
C  46.78300 23.82300 33.09100
C  46.05700 27.45200 33.05700
C  46.75900 27.96300 34.35800
H  45.76400 28.29200 35.54400
N  45.84600 23.86300 27.65000
C  45.74500 23.01700 28.74900
C  45.46900 21.66600 28.23300
C  45.34700 21.77900 26.81000
C  45.75300 23.17300 26.48300
C  45.18000 20.52000 29.20400
C  44.93100 20.78400 25.78800
O  44.98600 20.86600 24.55200
C  44.63300 19.36100 26.24300
N  47.08900 25.79800 25.63200
C  46.54800 24.91100 24.79500
C  46.82800 25.21300 23.29700
C  47.62100 26.54700 23.31500
C  47.62700 26.83600 24.87100
C  47.75300 24.13200 22.68200
C  46.95800 27.78600 22.60800
C  47.90100 28.60900 21.65500
N  47.82000 27.57300 27.84100
C  48.40900 28.34300 26.81900
C  49.13200 29.49700 27.37700
C  48.95100 29.37200 28.72400
C  48.13200 28.25400 28.98500
C  49.97000 30.43300 26.70000
C  49.42700 29.95500 30.03800
O  50.13500 30.86400 30.39000
C  48.67500 29.09800 31.12000
C  49.76400 28.53500 31.99500
O  50.62000 27.78300 31.66000
O  49.75500 29.22700 33.22900
C  50.86900 29.10100 34.15800
H  45.47300 22.63200 30.81200
H  45.73100 23.14200 24.32900
H  48.97100 28.62600 24.81800
H  47.88500 26.16400 32.64900
H  45.27300 25.14300 32.38400
H  45.95000 23.56400 33.74400
H  47.58900 24.09700 33.77300
H  47.00500 22.88100 32.59100
H  45.14400 26.99500 33.44100
H  45.95800 28.34000 32.43300
H  47.29600 28.87000 34.07900
H  47.52800 27.25800 34.67100
H  45.57700 19.52200 29.01500
H  44.09800 20.45200 29.31700
H  45.48300 20.76200 30.22200
H  45.53300 18.90400 26.65200
H  44.35900 18.70700 25.41500
H  43.95000 19.26400 27.08700
H  45.88000 25.18600 22.76100
H  48.68200 26.50200 23.06700
H  48.56000 23.71800 23.28600
H  48.19400 24.45600 21.73900
H  47.25600 23.17400 22.53000
H  46.53600 28.43800 23.37200
H  46.13400 27.29700 22.08900
H  47.78400 28.24500 20.63400
H  48.97800 28.51700 21.80000
H  47.63200 29.66600 21.65700
H  49.66400 30.46300 25.65400
H  51.01100 30.20600 26.92800
H  49.76800 31.41700 27.12200
H  47.89800 29.74600 31.52400
H  51.03600 30.09400 34.57500
H  51.80500 28.67200 33.80200
H  50.64700 28.55900 35.07800
Mg 0.74400 42.71800 25.91800
C  2.17100 42.99800 29.00200
C  -2.22200 41.77900 27.34200
C  -0.38200 41.78700 22.74500
C  3.89500 43.42700 24.40300
N  0.03700 42.36900 27.96200
C  0.81000 42.64200 29.07800
C  -0.06000 42.57100 30.33400
C  -1.46000 41.97000 29.82400
C  -1.22300 42.12800 28.28300
C  -1.79500 40.50200 30.24800
C  -0.13600 43.98400 31.05400
C  0.54900 44.05800 32.42500
H  -0.35700 43.91400 33.63900
N  -1.08200 42.03200 25.17900
C  -2.19100 41.74500 25.93800
C  -3.28100 41.30000 25.01600
C  -2.75500 41.28200 23.71900
C  -1.36700 41.66700 23.86900
C  -4.63100 40.95300 25.50700
C  -3.45500 40.88600 22.40600
O  -2.88600 40.88900 21.33500
C  -4.92200 40.58200 22.27400
N  1.64300 42.66700 23.91300
C  0.98100 42.13100 22.82200
C  1.93800 41.90600 21.68200
C  3.09700 42.92900 22.00400
C  2.95200 42.96500 23.54000
C  2.34400 40.41000 21.55000
C  3.08400 44.34400 21.24200
C  2.38400 45.52200 22.01800
N  2.59200 43.12000 26.54000
C  3.73100 43.48000 25.81000
C  4.75600 43.76200 26.76900
C  4.23100 43.47400 28.04000
C  2.87200 43.18200 27.81800
C  6.13200 44.20700 26.37900
C  4.53500 43.37800 29.46900
O  5.55500 43.42100 30.15900
C  3.21500 43.11700 30.17700
C  3.46700 41.85600 30.94700
O  3.34800 40.70000 30.56100
O  3.74200 42.22200 32.27200
C  3.77300 41.08600 33.13400
H  -3.17800 41.50900 27.79500
H  -0.69100 41.48000 21.74300
H  4.87300 43.63900 23.96600
H  0.29000 41.81200 31.03300
H  -2.28700 42.60600 30.14100
H  -0.92400 40.05200 30.72500
H  -2.18400 39.90100 29.42600
H  -2.63400 40.49700 30.94500
H  -1.19000 44.24700 31.14400
H  0.48400 44.70000 30.51300
H  1.02700 45.03600 32.48100
H  1.30100 43.28000 32.56500
H  -5.30100 41.53800 24.87800
H  -4.77000 41.20900 26.55700
H  -4.79200 39.88900 25.33400
H  -5.28400 39.86700 23.01400
H  -5.19600 40.16800 21.30400
H  -5.37800 41.54900 22.48500
H  1.40100 42.25500 20.79900
H  4.01200 42.41300 21.71500
H  1.47000 39.90900 21.96700
H  3.18600 40.17400 22.20100
H  2.23700 39.99600 20.54800
H  2.58000 44.27600 20.27800
H  4.09700 44.73000 21.12800
H  3.09000 46.29200 22.33100
H  1.89700 45.23700 22.95000
H  1.64400 45.93300 21.33200
H  6.63400 44.77800 27.16000
H  6.00600 44.73400 25.43300
H  6.85800 43.42300 26.16400
H  3.00800 43.97300 30.81800
H  4.82600 40.80900 33.18400
H  3.11000 40.24900 32.91500
H  3.42500 41.50200 34.08000

