158

Mg 24.63400 -5.23900 45.99400
C  26.61200 -3.02600 43.99900
C  22.06000 -4.67300 43.56900
C  23.04100 -7.87000 47.07900
C  27.57000 -6.30100 47.60800
N  24.41700 -4.03000 44.06300
C  25.31300 -3.12300 43.61100
C  24.74500 -2.39400 42.35700
C  23.22600 -2.73000 42.42600
C  23.22900 -3.91500 43.35800
C  22.16100 -1.66200 42.88400
C  25.40400 -2.81600 40.96300
C  25.63800 -1.60100 40.04000
H  25.77000 -1.92700 38.53400
N  22.73700 -6.08000 45.54100
C  21.75900 -5.57100 44.58200
C  20.55900 -6.35200 44.72800
C  20.81300 -7.27900 45.80800
C  22.26000 -7.14500 46.19200
C  19.38800 -6.14500 43.85700
C  19.85600 -8.31800 46.39100
O  18.70000 -8.24700 46.06400
C  20.16000 -9.33800 47.47100
N  25.26100 -6.90500 47.15600
C  24.37300 -7.84200 47.50200
C  25.05800 -8.95700 48.24500
C  26.32400 -8.22800 48.84600
C  26.44700 -7.07800 47.79500
C  24.19100 -9.59200 49.31000
C  27.60900 -9.06700 49.10700
C  28.26500 -9.08700 50.51700
N  26.57700 -4.69200 45.97900
C  27.67700 -5.20100 46.74000
C  28.83400 -4.48900 46.35100
C  28.47300 -3.58000 45.36100
C  27.08600 -3.79000 45.12400
C  30.13500 -4.79400 46.90700
C  28.95400 -2.50800 44.47400
O  30.07500 -2.00800 44.37900
C  27.71900 -2.11600 43.60000
C  27.33400 -0.69900 43.88100
O  26.65800 -0.37700 44.87200
O  27.83200 0.14600 42.97300
C  27.24700 1.42300 43.03500
H  21.26800 -4.42200 42.86000
H  22.64400 -8.79700 47.49700
H  28.54000 -6.46800 48.08100
H  24.82900 -1.32800 42.56700
H  22.88900 -3.09600 41.45700
H  21.82500 -1.16400 41.97400
H  22.74400 -0.99000 43.51300
H  21.43100 -2.16600 43.51700
H  24.82000 -3.64400 40.56400
H  26.38000 -3.24700 41.18700
H  26.54200 -1.10500 40.39400
H  24.80500 -0.91000 40.17100
H  18.54600 -6.77800 44.13200
H  19.67200 -6.42200 42.84100
H  18.99800 -5.12900 43.92500
H  19.26000 -9.93500 47.61700
H  20.51800 -8.87000 48.38800
H  20.95000 -9.99500 47.10800
H  25.44500 -9.67800 47.52600
H  26.03000 -7.76600 49.78800
H  23.91700 -10.53500 48.83500
H  23.36300 -8.93300 49.57000
H  24.72800 -9.74800 50.24600
H  28.39600 -8.79500 48.40400
H  27.27600 -10.07300 48.85100
H  29.25200 -9.54700 50.49600
H  27.60700 -9.59100 51.22400
H  28.44600 -8.06100 50.83900
H  30.15100 -4.47200 47.94800
H  30.81400 -4.25400 46.24800
H  30.39000 -5.85300 46.93400
H  27.96300 -2.19700 42.54100
H  26.16800 1.42000 42.88600
H  27.64200 2.00400 42.20100
H  27.47200 1.89900 43.99000
Mg 6.16900 53.42300 40.64600
C  5.43900 49.92600 40.40700
C  9.33800 52.64600 39.48500
C  6.69200 56.61100 40.09500
C  2.73300 53.96500 41.10700
N  7.22000 51.49200 40.18900
C  6.70200 50.23100 39.98100
C  7.81700 49.21900 39.55300
C  9.15900 50.12600 39.82400
C  8.55200 51.52300 39.75400
C  9.88200 49.83900 41.20700
C  7.66800 48.73400 37.97600
C  6.93300 49.73600 37.01700
H  6.16600 49.24800 35.63900
N  7.83700 54.51000 39.95300
C  9.08400 53.99200 39.54900
C  9.99400 55.02500 39.44800
C  9.21500 56.23200 39.65000
C  7.86600 55.86100 39.91400
C  11.42400 54.83400 39.11100
C  9.88000 57.58000 39.73700
O  11.06000 57.66400 39.63300
C  9.20400 58.80500 39.98600
N  4.85600 55.08800 40.58400
C  5.32400 56.34600 40.37800
C  4.17600 57.41300 40.52700
C  2.96700 56.55000 40.86000
C  3.50500 55.12900 40.86600
C  4.52100 58.52100 41.56500
C  1.70500 56.54500 39.90900
C  0.27400 56.45700 40.51300
N  4.42200 52.24900 40.83400
C  3.09000 52.59400 41.10300
C  2.31000 51.44900 41.36400
C  3.21100 50.40200 41.07800
C  4.45600 50.90400 40.79100
C  0.91400 51.39100 41.80300
C  3.31000 48.94000 40.97600
O  2.49300 48.05700 41.20000
C  4.71800 48.59800 40.43700
C  4.60100 48.01700 39.09700
O  4.24800 48.53500 38.05300
O  4.80100 46.68400 39.29900
C  4.66800 45.77400 38.13600
H  10.39400 52.46500 39.27400
H  6.81400 57.66600 39.84000
H  1.71500 54.27900 41.34700
H  7.66900 48.35900 40.20600
H  9.87100 50.05500 39.00200
H  9.32000 49.19000 41.87800
H  9.99300 50.76300 41.77500
H  10.83700 49.39900 40.92000
H  7.22200 47.74100 37.91500
H  8.71300 48.67400 37.67300
H  7.72900 50.36000 36.61000
H  6.21500 50.35000 37.56100
H  11.77800 53.84300 39.39600
H  12.00000 55.47300 39.78000
H  11.56600 54.98400 38.04100
H  8.51200 58.74200 40.82600
H  8.55000 59.00600 39.13700
H  9.90500 59.63000 40.11600
H  3.87200 57.91800 39.61000
H  2.63700 56.66700 41.89200
H  5.34800 58.18800 42.19200
H  3.68700 58.71200 42.24000
H  4.71500 59.44900 41.02700
H  1.79700 55.73900 39.18100
H  1.66200 57.48400 39.35700
H  0.29600 56.04000 41.52000
H  -0.49600 55.97400 39.91200
H  -0.14100 57.46400 40.55300
H  0.52100 52.38400 42.02300
H  0.94000 50.85800 42.75300
H  0.29300 50.99600 40.99900
H  5.33300 47.99000 41.10000
H  5.47000 45.03600 38.14600
H  4.52100 46.22100 37.15300
H  3.76600 45.20700 38.36600

