158

Mg 7.63400 2.31000 26.80900
C  9.01800 0.68500 29.86900
C  5.22200 3.65900 28.80000
C  6.18400 3.30200 24.08300
C  9.41900 -0.26900 25.01400
N  7.13900 2.04500 29.03800
C  7.89400 1.46000 30.08400
C  7.21100 1.84900 31.43100
C  5.92300 2.59500 31.00300
C  6.10200 2.80400 29.52000
C  4.61200 1.87800 31.51900
C  8.21600 2.69500 32.25400
C  8.09100 2.56100 33.79300
H  9.34600 2.79400 34.70400
N  6.02100 3.52100 26.49800
C  5.14000 3.99800 27.42100
C  4.19000 4.83400 26.82500
C  4.42600 4.75800 25.39600
C  5.56400 3.83200 25.27100
C  3.18100 5.76300 27.53300
C  3.79000 5.48600 24.22200
O  3.99900 5.24200 23.07900
C  2.80500 6.52700 24.44300
N  7.72900 1.51500 24.84800
C  7.14000 2.23400 23.85800
C  7.65000 1.84900 22.46000
C  8.70600 0.75500 22.77900
C  8.60000 0.59200 24.29200
C  6.50100 1.44500 21.46900
C  10.12200 1.05100 22.31800
C  10.96600 -0.08000 21.60500
N  9.08000 0.66200 27.27200
C  9.65500 -0.21900 26.40200
C  10.34100 -1.20700 27.14400
C  10.31800 -0.85000 28.48900
C  9.38300 0.28200 28.55100
C  11.10400 -2.32500 26.42700
C  10.74800 -1.07700 29.83800
O  11.55900 -1.79100 30.38400
C  10.01500 -0.04900 30.74500
C  9.33900 -0.83100 31.88300
O  8.84500 -1.94700 31.86000
O  9.61100 -0.23100 33.08400
C  9.29800 -1.00400 34.30800
H  4.53200 4.08100 29.53300
H  5.76700 3.64700 23.13400
H  9.91400 -1.01900 24.39400
H  6.94300 0.95100 31.98800
H  5.91800 3.60100 31.42300
H  4.28500 2.49700 32.35500
H  4.82100 0.85000 31.81400
H  3.89300 1.75400 30.71000
H  8.13600 3.73800 31.94900
H  9.23700 2.36100 32.07100
H  7.62500 1.63800 34.14000
H  7.51000 3.42500 34.11600
H  3.38600 6.81500 27.33100
H  3.33500 5.59400 28.59900
H  2.14000 5.53400 27.30700
H  3.36200 7.36500 24.86200
H  2.11500 6.07900 25.15900
H  2.24900 6.85700 23.56600
H  8.19100 2.69500 22.03600
H  8.27500 -0.12700 22.30600
H  6.07300 2.33700 21.01200
H  5.68700 1.05600 22.08100
H  6.71900 0.72600 20.67900
H  10.58800 1.53200 23.17800
H  10.00900 1.86500 21.60200
H  10.40200 -1.00700 21.71500
H  11.90100 -0.28900 22.12500
H  10.95900 0.23600 20.56200
H  11.99700 -2.48900 27.03000
H  11.36300 -1.81400 25.49900
H  10.55400 -3.25100 26.26400
H  10.82000 0.57900 31.12600
H  8.51300 -1.75900 34.27000
H  8.88300 -0.26500 34.99400
H  10.19900 -1.39300 34.78400
Mg -4.31000 24.71100 26.00900
C  -2.96000 25.82400 28.94900
C  -6.60700 22.84700 27.86600
C  -5.66000 23.36700 23.19200
C  -1.94900 26.30000 24.16700
N  -4.56700 24.33500 28.14300
C  -4.10100 25.09800 29.22700
C  -4.67500 24.65300 30.58000
C  -5.56000 23.46400 30.15700
C  -5.61300 23.51700 28.61900
C  -5.10800 22.12600 30.74600
C  -5.52700 25.87900 31.25300
C  -5.69700 25.80000 32.82200
H  -4.95900 24.70600 33.73400
N  -5.97800 23.38300 25.60200
C  -6.79700 22.80800 26.49000
C  -7.81700 22.05500 25.81600
C  -7.59900 22.23000 24.40100
C  -6.36500 23.06200 24.33000
C  -8.98400 21.33200 26.51000
C  -8.43300 21.73600 23.18500
O  -8.03900 21.79600 22.01000
C  -9.71000 21.06500 23.48100
N  -3.88000 24.91300 23.94700
C  -4.52000 24.22100 22.99000
C  -3.71700 24.27600 21.68000
C  -2.52300 25.21300 22.02500
C  -2.74500 25.47900 23.42800
C  -3.26200 22.84200 21.28900
C  -2.43500 26.45900 21.14200
C  -1.19800 26.51800 20.26600
N  -2.75000 25.93500 26.43600
C  -1.82600 26.50400 25.54500
C  -0.89000 27.32900 26.31700
C  -1.31400 27.11100 27.67800
C  -2.36500 26.17400 27.65800
C  0.22400 28.20200 25.94600
C  -0.92300 27.37300 29.09600
O  -0.10100 28.16200 29.50500
C  -2.01200 26.67800 29.89500
C  -1.37800 26.00200 31.03100
O  -0.47400 25.16300 30.85700
O  -1.85500 26.44700 32.17200
C  -1.10300 25.91100 33.28200
H  -7.34100 22.17600 28.31700
H  -5.93000 22.88100 22.25200
H  -1.30900 26.97800 23.59800
H  -3.90900 24.39700 31.31200
H  -6.57400 23.56700 30.54300
H  -5.98000 21.75100 31.28200
H  -4.28900 22.19700 31.46100
H  -4.86100 21.36800 30.00300
H  -6.49200 26.04800 30.77700
H  -4.92700 26.78700 31.19400
H  -6.78200 25.69700 32.83200
H  -5.54800 26.70200 33.41500
H  -9.06100 21.63000 27.55600
H  -8.80200 20.26200 26.41000
H  -9.92600 21.59000 26.02600
H  -10.16900 20.78300 22.53400
H  -10.28500 21.80200 24.04100
H  -9.56800 20.22000 24.15600
H  -4.39600 24.75300 20.97300
H  -1.58100 24.68700 21.86900
H  -2.18000 22.71100 21.29100
H  -3.49000 22.63800 20.24300
H  -3.49600 22.10700 22.05900
H  -2.42700 27.38000 21.72600
H  -3.30500 26.50600 20.48800
H  -0.60400 25.60600 20.20700
H  -0.52700 27.22700 20.75000
H  -1.32700 26.99800 19.29500
H  0.39500 28.21100 24.87000
H  1.10900 27.78100 26.42400
H  0.09900 29.25200 26.20900
H  -2.54900 27.52500 30.32200
H  -0.04800 25.98000 33.02000
H  -1.32100 24.85700 33.45600
H  -1.36900 26.50700 34.15500

