158

Mg 34.96100 2.79000 29.54300
C  32.96300 3.78700 32.21100
C  37.69800 2.73900 31.70400
C  37.03400 2.34400 26.81200
C  32.27400 3.53600 27.45000
N  35.30500 3.42700 31.69200
C  34.35800 3.67800 32.55900
C  34.90400 3.57200 34.00600
C  36.48800 3.47300 33.78900
C  36.49600 3.20600 32.33300
C  37.37000 4.69800 34.11500
C  34.43600 2.35400 34.74700
C  34.19300 2.43500 36.29200
H  34.80700 3.55000 37.19500
N  36.99500 2.46600 29.29100
C  37.96000 2.43300 30.33200
C  39.14200 1.98400 29.70100
C  39.00800 1.97100 28.29200
C  37.59800 2.33500 28.09100
C  40.43400 1.74400 30.63700
C  40.04800 1.72100 27.11800
O  39.81600 1.61000 25.93200
C  41.47200 1.43800 27.55300
N  34.70300 2.89100 27.44700
C  35.70500 2.65500 26.48600
C  35.17200 2.58100 25.04100
C  33.57500 2.68800 25.28000
C  33.46800 3.03500 26.78100
C  35.70100 3.65400 24.05000
C  32.79200 1.26500 25.07800
C  31.44200 1.23200 24.39000
N  33.04700 3.52100 29.73600
C  32.10200 3.77900 28.85000
C  30.84000 4.05900 29.50100
C  31.13500 4.08300 30.84400
C  32.48600 3.78200 30.95600
C  29.58300 4.25900 28.82500
C  30.59100 4.33700 32.15500
O  29.51500 4.70600 32.44500
C  31.80600 4.14700 33.12400
C  32.02300 5.43900 33.80800
O  32.15900 6.53800 33.26700
O  31.82900 5.26800 35.17300
C  31.73400 6.43600 36.02500
H  38.60900 2.81700 32.30100
H  37.66700 2.11200 25.95300
H  31.41800 3.63100 26.77800
H  34.56600 4.45200 34.55400
H  36.97800 2.63800 34.29000
H  37.70500 4.53900 35.13900
H  36.66700 5.52900 34.17700
H  38.25900 4.91400 33.52200
H  35.17000 1.55500 34.63700
H  33.49800 2.08100 34.26300
H  34.52400 1.53600 36.81100
H  33.11900 2.49500 36.46800
H  41.25900 2.17700 30.07100
H  40.61100 0.66900 30.65400
H  40.51600 2.23700 31.60600
H  41.56600 0.52900 28.14700
H  41.78900 2.22400 28.24000
H  42.09200 1.52300 26.66100
H  35.33000 1.54400 24.74500
H  33.02400 3.46400 24.74800
H  36.54900 4.28100 24.32700
H  34.90200 4.34600 23.78300
H  36.05800 3.18600 23.13300
H  32.55800 0.92100 26.08600
H  33.51600 0.57200 24.64900
H  30.63800 0.95100 25.07100
H  31.44900 0.53800 23.54900
H  31.12000 2.21100 24.03300
H  29.18000 3.25200 28.72100
H  29.57600 4.75900 27.85700
H  28.91200 4.89100 29.40800
H  31.55700 3.28500 33.74300
H  31.65500 7.46400 35.67300
H  32.57300 6.51400 36.71700
H  30.90500 6.37500 36.73100
Mg 9.61300 47.80600 26.18800
C  7.38800 47.59100 29.10500
C  11.79800 49.36200 28.18800
C  11.33900 48.33500 23.43200
C  6.85900 46.54000 24.28300
N  9.58600 48.39800 28.41800
C  8.73400 48.10500 29.38500
C  9.29400 48.43700 30.81700
C  10.46400 49.37600 30.34700
C  10.63100 49.08500 28.87600
C  10.21000 50.86500 30.65600
C  9.79400 47.08300 31.59600
C  10.50400 47.54500 32.92600
H  9.76000 47.43200 34.31100
N  11.42600 48.69500 25.86000
C  12.18600 49.21300 26.82500
C  13.45600 49.65700 26.16900
C  13.36200 49.22600 24.84700
C  12.00200 48.70400 24.63900
C  14.55900 50.08800 27.06800
C  14.47500 49.11700 23.81100
O  14.19900 48.68600 22.67300
C  15.93000 49.64300 24.03800
N  9.10000 47.55000 24.15100
C  10.04600 47.82600 23.18100
C  9.64800 47.32700 21.80800
C  8.35200 46.51900 22.16800
C  8.04500 46.82800 23.63500
C  9.44400 48.48500 20.76800
C  8.36400 44.97800 21.81300
C  8.33500 43.90500 22.92200
N  7.47900 47.32600 26.54600
C  6.52900 46.82600 25.66900
C  5.27100 46.65200 26.37400
C  5.57200 46.86100 27.70100
C  6.89800 47.30500 27.81300
C  3.93500 46.15500 25.87000
C  5.01500 46.84500 29.03700
O  3.87900 46.61800 29.46000
C  6.23300 47.28100 30.00000
C  6.50900 46.05400 30.77000
O  6.97300 44.98000 30.31900
O  6.11900 46.27400 32.09200
C  6.43100 45.18100 33.02400
H  12.64900 49.67800 28.79400
H  11.87700 48.34900 22.48200
H  6.08300 46.05100 23.69100
H  8.49800 48.98100 31.32600
H  11.34100 48.90300 30.78800
H  10.96300 51.58000 30.32500
H  9.93100 50.92200 31.70800
H  9.29300 51.15700 30.14300
H  10.28600 46.45500 30.85300
H  8.88600 46.54700 31.87300
H  10.79100 48.59500 32.86700
H  11.41700 46.95500 32.99500
H  15.07200 49.16300 27.32800
H  14.29700 50.76800 27.87900
H  15.27700 50.67300 26.49200
H  15.89400 50.67700 24.38100
H  16.51600 49.62100 23.11900
H  16.51800 49.00100 24.69400
H  10.48900 46.72300 21.46600
H  7.45200 46.84300 21.64500
H  10.37800 48.68900 20.24400
H  9.01400 49.32200 21.31700
H  8.67600 48.27800 20.02200
H  9.34800 44.81100 21.37700
H  7.55400 44.80800 21.10400
H  8.13400 44.34300 23.90000
H  9.26700 43.35500 22.79900
H  7.54700 43.16800 22.77000
H  3.40800 45.55200 26.61000
H  4.10800 45.48300 25.02900
H  3.31400 47.01500 25.62100
H  6.05300 48.13300 30.65600
H  6.42400 45.57000 34.04200
H  7.35200 44.62700 32.84600
H  5.70700 44.37600 32.90000

