158

Mg 47.83400 24.49300 28.21000
C  48.76500 26.91000 30.55400
C  47.46900 22.18900 30.78700
C  47.03800 22.18500 25.89100
C  48.80500 26.70600 25.66800
N  48.10400 24.52800 30.36700
C  48.35000 25.65700 31.11400
C  48.01900 25.45200 32.58700
C  47.88500 23.89600 32.72700
C  47.78300 23.44300 31.23300
C  48.91700 23.19900 33.56000
C  46.75900 26.29900 32.91400
C  46.84300 27.26300 34.12500
H  45.80800 27.14500 35.25500
N  47.27600 22.47500 28.29900
C  47.18200 21.72600 29.46200
C  46.75200 20.38500 29.11200
C  46.60400 20.36700 27.66200
C  46.98600 21.70800 27.22600
C  46.56000 19.23100 30.04200
C  46.07000 19.23100 26.73300
O  45.80000 19.46100 25.58300
C  45.65800 17.97000 27.32600
N  47.87300 24.44700 26.04200
C  47.42000 23.40100 25.34900
C  47.39300 23.75700 23.78900
C  47.77400 25.29300 23.81600
C  48.21000 25.52600 25.28000
C  48.29700 22.93100 22.92100
C  46.66600 26.20000 23.23100
C  45.47000 26.45500 24.20900
N  48.67000 26.40900 28.08800
C  48.95900 27.16100 27.00900
C  49.41000 28.48200 27.46400
C  49.28600 28.48700 28.85600
C  48.87600 27.16500 29.16800
C  50.06800 29.57400 26.68000
C  49.50000 29.20800 30.08000
O  49.82800 30.33900 30.25000
C  49.12100 28.21600 31.26200
C  50.24700 28.10600 32.14100
O  51.13100 27.18600 32.13300
O  50.16300 29.05500 33.11000
C  51.05500 28.79200 34.30400
H  47.47300 21.51800 31.64800
H  46.69500 21.59300 25.04000
H  49.03000 27.55400 25.01800
H  48.82800 25.92500 33.14400
H  46.94300 23.66500 33.22500
H  49.58200 23.90900 34.05200
H  49.47700 22.61600 32.82800
H  48.54600 22.51900 34.32700
H  45.93500 25.58700 32.88000
H  46.57500 27.00100 32.10100
H  46.77800 28.28000 33.73900
H  47.78100 27.09300 34.65400
H  47.03400 19.47300 30.99400
H  47.11200 18.37900 29.64600
H  45.52700 18.92200 30.19900
H  44.96800 18.23000 28.12900
H  46.49100 17.32200 27.60100
H  45.09700 17.42100 26.57000
H  46.38500 23.52500 23.44600
H  48.67300 25.52500 23.24500
H  47.89600 21.94400 22.68700
H  49.36800 22.99900 23.11000
H  48.15500 23.44300 21.97000
H  46.33800 25.93700 22.22600
H  47.16800 27.16800 23.20900
H  44.63500 25.94500 23.72900
H  45.28400 27.52100 24.34300
H  45.70000 26.12000 25.22000
H  49.82600 30.55600 27.08600
H  49.67000 29.50700 25.66700
H  51.15800 29.54900 26.69500
H  48.31900 28.65300 31.85600
H  50.42400 28.20100 34.96800
H  51.39000 29.75400 34.69100
H  51.93700 28.18100 34.10900
Mg 49.28800 34.61900 26.10100
C  47.00000 33.87000 28.78400
C  49.72800 37.62400 27.67900
C  50.93200 35.46200 23.61000
C  47.99900 31.74500 24.46200
N  48.71500 35.49400 28.17900
C  47.72800 34.96700 29.08500
C  47.60000 35.98800 30.19400
C  48.29900 37.29900 29.69400
C  48.95900 36.75200 28.46200
C  47.33500 38.54600 29.42900
C  48.12100 35.33200 31.51000
C  47.19900 35.50600 32.74300
H  47.41500 36.66400 33.76200
N  50.37000 36.24700 25.66600
C  50.44400 37.46200 26.44100
C  51.30400 38.40500 25.82800
C  51.69200 37.76700 24.61200
C  51.03100 36.45700 24.56000
C  51.63000 39.81100 26.33700
C  52.60600 38.26500 23.50000
O  52.76700 37.65800 22.41700
C  53.40600 39.50200 23.59500
N  49.22200 33.75600 24.20700
C  50.19300 34.28200 23.35400
C  50.55400 33.30800 22.17000
C  49.70400 32.11000 22.56800
C  48.81200 32.57300 23.74100
C  50.40400 33.84900 20.68700
C  50.48500 30.73700 22.83000
C  50.28900 29.59700 21.81600
N  47.76000 33.05900 26.56600
C  47.33700 32.00100 25.76300
C  46.53600 31.18700 26.59900
C  46.21300 32.01500 27.68500
C  47.03200 33.12400 27.63000
C  46.00600 29.85800 26.22400
C  45.37900 32.10600 28.83800
O  44.53000 31.34500 29.31900
C  45.79900 33.41800 29.56800
C  45.92300 32.97700 30.93300
O  46.80600 32.27500 31.34700
O  44.78600 33.23700 31.61900
C  44.73000 32.59800 32.94200
H  49.94600 38.59300 28.13200
H  51.52500 35.68700 22.72100
H  47.91400 30.71000 24.12700
H  46.53000 36.09700 30.37400
H  49.02900 37.54500 30.46500
H  46.36000 38.41300 29.89900
H  47.11900 38.59800 28.36200
H  47.70200 39.43300 29.94500
H  49.00200 35.93800 31.72000
H  48.28000 34.26600 31.34400
H  47.30300 34.58000 33.30700
H  46.17100 35.56800 32.38400
H  51.68500 40.40200 25.42300
H  52.58500 39.72100 26.85500
H  50.86000 40.15900 27.02500
H  54.18000 39.54900 22.82800
H  53.84200 39.64900 24.58300
H  52.76800 40.36300 23.39800
H  51.60800 33.11300 22.36500
H  49.06300 31.88600 21.71500
H  51.31900 33.76100 20.10200
H  50.09100 34.89200 20.74100
H  49.59000 33.36200 20.15000
H  50.19000 30.48900 23.85000
H  51.55500 30.91200 22.72000
H  49.79400 29.83100 20.87400
H  49.63000 28.88000 22.30500
H  51.26900 29.17800 21.58800
H  45.31900 29.30500 26.86500
H  46.89600 29.22900 26.19500
H  45.69100 29.86500 25.18100
H  45.02800 34.18800 29.58800
H  45.39900 33.20100 33.55700
H  45.03600 31.55400 32.88900
H  43.70500 32.65000 33.30800

