158

Mg -1.09700 18.05600 27.02300
C  -1.99100 16.04900 29.72000
C  -1.99800 20.80800 29.00400
C  -0.92100 20.05500 24.27200
C  -1.18400 15.28000 24.89900
N  -1.90100 18.29400 29.08000
C  -2.13200 17.39600 30.01400
C  -2.34900 17.92500 31.44100
C  -2.57500 19.44200 31.08600
C  -2.06200 19.53500 29.64100
C  -4.04100 19.99800 31.12800
C  -1.20900 17.67000 32.47800
C  -1.71800 16.98300 33.74900
H  -0.67300 16.86700 34.92200
N  -1.38100 20.18400 26.69700
C  -1.71300 21.10300 27.64300
C  -1.65800 22.43600 27.03700
C  -1.33700 22.26800 25.61200
C  -1.18300 20.80200 25.44100
C  -2.05300 23.76200 27.86100
C  -1.24700 23.36400 24.52600
O  -0.88200 23.09400 23.37600
C  -1.42000 24.83900 24.82800
N  -1.26300 17.72400 24.89000
C  -0.90700 18.66300 23.96300
C  -0.62300 18.14300 22.59400
C  -0.56000 16.57900 22.83100
C  -1.09400 16.49300 24.26900
C  -1.57100 18.68600 21.50800
C  0.81600 16.03400 22.65500
C  1.95300 16.46300 23.61700
N  -1.36700 16.02300 27.17700
C  -1.35300 15.03500 26.27500
C  -1.57100 13.74700 27.05600
C  -1.80100 14.15000 28.32000
C  -1.65100 15.47200 28.40800
C  -1.87900 12.44700 26.46900
C  -2.14900 13.58100 29.67200
O  -2.42600 12.44900 29.98300
C  -2.19700 14.81800 30.65400
C  -1.07900 14.54600 31.52400
O  0.06400 14.94000 31.28200
O  -1.44600 13.67200 32.54700
C  -0.41500 13.38100 33.55000
H  -2.15000 21.67400 29.65000
H  -0.67100 20.68300 23.41500
H  -0.92100 14.38600 24.33100
H  -3.26700 17.50800 31.85600
H  -1.98000 20.02800 31.78700
H  -4.06700 20.62000 32.02300
H  -4.67200 19.12600 31.30200
H  -4.33900 20.54600 30.23500
H  -0.77100 18.59700 32.84900
H  -0.41200 17.04800 32.07100
H  -2.13800 16.00500 33.51200
H  -2.57700 17.56500 34.08300
H  -1.33100 24.26300 28.50600
H  -2.93500 23.53100 28.45800
H  -2.31900 24.63200 27.26000
H  -2.50100 24.98000 24.83900
H  -0.96700 25.45500 24.05200
H  -0.82800 25.08400 25.71000
H  0.36500 18.53000 22.34300
H  -1.27000 15.99000 22.25100
H  -1.07200 19.22900 20.70600
H  -2.28800 19.38100 21.94500
H  -2.07500 17.81100 21.09800
H  1.01600 16.25200 21.60600
H  0.71600 14.95200 22.75000
H  2.42300 15.57900 24.04900
H  1.47000 17.07900 24.37600
H  2.78100 17.03200 23.19400
H  -1.87000 12.42100 25.37900
H  -2.92800 12.24700 26.68600
H  -1.32600 11.68200 27.01400
H  -3.13800 14.77000 31.20300
H  -0.65200 12.34100 33.77700
H  -0.63500 14.05400 34.37800
H  0.62500 13.46100 33.23500
Mg 8.69500 4.20300 27.90400
C  9.97300 2.56600 30.84600
C  6.94300 6.35400 30.04700
C  7.40000 5.60700 25.24500
C  10.27900 1.82400 25.98300
N  8.47700 4.46500 30.18900
C  9.12300 3.68000 31.09100
C  8.85300 4.20500 32.51700
C  7.67800 5.27800 32.31600
C  7.74800 5.44900 30.76000
C  6.30500 4.75600 32.74200
C  10.10800 4.89500 33.13900
C  10.50700 4.26800 34.52400
H  10.89200 5.15900 35.72000
N  7.37800 5.79900 27.70000
C  6.79800 6.59900 28.66300
C  6.01200 7.65000 28.03000
C  6.12200 7.47400 26.56800
C  6.95300 6.24100 26.41900
C  5.27000 8.80800 28.75800
C  5.44400 8.08200 25.38100
O  5.52400 7.65800 24.24800
C  4.58600 9.30000 25.71800
N  8.71400 3.70300 25.92200
C  8.14600 4.49000 24.99100
C  8.47500 3.98100 23.53900
C  9.65800 2.96400 23.71800
C  9.53000 2.76500 25.28300
C  7.25800 3.44100 22.79200
C  11.06700 3.44900 23.32500
C  11.93900 2.37100 22.51500
N  9.78200 2.48000 28.24900
C  10.40700 1.61500 27.37600
C  11.28000 0.72700 28.12700
C  11.15600 1.08900 29.47600
C  10.21400 2.18000 29.48000
C  12.15600 -0.34100 27.60900
C  11.63700 0.80400 30.82300
O  12.50300 0.05000 31.24800
C  10.92400 1.79900 31.70400
C  10.14700 0.98900 32.70500
O  9.21100 0.26900 32.35400
O  10.73200 1.15100 33.91300
C  10.17500 0.31000 34.99200
H  6.40700 6.96500 30.77700
H  7.06800 6.01700 24.28800
H  10.90100 1.22200 25.31700
H  8.45600 3.39500 33.12900
H  7.91600 6.26400 32.71400
H  6.40400 3.72500 33.08300
H  5.68400 4.67900 31.84900
H  5.89800 5.38500 33.53300
H  9.96300 5.97400 33.20000
H  10.94700 4.91600 32.44300
H  11.43500 3.74000 34.30600
H  9.80700 3.52000 34.89600
H  5.81600 9.75100 28.74500
H  5.08700 8.62900 29.81800
H  4.28100 8.96400 28.32500
H  3.73000 9.02900 26.33600
H  4.15400 9.60800 24.76600
H  5.27300 10.05000 26.11000
H  8.71400 4.75900 22.81300
H  9.53200 1.96300 23.30400
H  7.50900 2.48700 22.32800
H  7.23100 4.15700 21.97000
H  6.35700 3.51700 23.40100
H  11.51200 3.78200 24.26200
H  11.03200 4.35000 22.71300
H  12.21700 2.74900 21.53100
H  11.45200 1.40700 22.65800
H  12.91300 2.28200 22.99500
H  12.61900 -0.07500 26.65900
H  11.57200 -1.25900 27.66000
H  13.01300 -0.39200 28.28200
H  11.62900 2.49600 32.15700
H  9.23200 -0.18400 34.75900
H  9.96700 1.00300 35.80700
H  10.92000 -0.42200 35.30500

