158

Mg 47.95000 26.01300 29.25100
C  48.78300 28.16600 31.86100
C  46.51900 23.95100 31.59200
C  47.65400 23.60000 26.87300
C  49.85200 27.86300 27.12400
N  47.61600 26.14400 31.46000
C  48.01900 27.17700 32.33900
C  47.43600 26.96500 33.78700
C  46.87400 25.50800 33.62400
C  46.93000 25.13800 32.15000
C  47.47700 24.46500 34.54600
C  46.32500 28.07300 34.25600
C  46.33300 28.59800 35.64900
H  46.91900 27.77300 36.93800
N  47.24200 24.00200 29.21100
C  46.62800 23.44200 30.27700
C  46.15400 22.11400 29.89100
C  46.38400 22.04100 28.47100
C  47.15500 23.26900 28.12000
C  45.57700 21.10400 30.79100
C  45.97900 21.01800 27.45300
O  46.30000 21.01700 26.26500
C  45.16700 19.78800 28.04500
N  48.62200 25.79900 27.25800
C  48.42300 24.71900 26.46900
C  49.17900 24.84100 25.09800
C  49.50900 26.37300 25.09700
C  49.37100 26.71500 26.55600
C  50.33700 23.85800 25.03800
C  48.48200 27.24700 24.16500
C  49.16000 27.91200 23.01000
N  48.90800 27.78500 29.39600
C  49.71700 28.41500 28.39100
C  50.25700 29.63800 28.92800
C  49.93000 29.55600 30.36100
C  49.15400 28.40600 30.54300
C  51.15400 30.51100 28.23000
C  50.11200 30.16100 31.63800
O  50.69300 31.21700 31.98500
C  49.36800 29.34800 32.70100
C  50.39400 28.86300 33.70100
O  51.37800 28.15800 33.54500
O  50.12900 29.44900 34.89700
C  50.99400 28.96200 36.00200
H  46.03200 23.35600 32.36800
H  47.63300 22.82500 26.10400
H  50.28900 28.49700 26.35000
H  48.24200 26.96000 34.52100
H  45.82000 25.53800 33.89900
H  46.69400 24.00800 35.15100
H  48.31100 24.83200 35.14400
H  47.80900 23.63500 33.92200
H  45.33900 27.69800 33.98200
H  46.48000 28.88800 33.54900
H  45.28800 28.70200 35.93900
H  46.83600 29.56200 35.56600
H  44.51700 21.11200 30.53600
H  45.56000 21.27800 31.86700
H  45.98300 20.10400 30.63700
H  45.82800 19.46600 28.85000
H  44.91400 19.01900 27.31500
H  44.19800 19.99200 28.50000
H  48.45900 24.51800 24.34700
H  50.48700 26.63200 24.69100
H  51.33100 24.30300 24.99600
H  50.29600 23.13900 24.22000
H  50.37800 23.29800 25.97200
H  47.88700 27.94300 24.75700
H  47.70900 26.61900 23.72100
H  49.04800 27.21600 22.17800
H  50.21700 28.11200 23.18600
H  48.72500 28.85800 22.68800
H  52.05300 29.92400 28.04600
H  51.52900 31.33200 28.84100
H  50.71800 30.92300 27.32000
H  48.70500 29.96500 33.30600
H  52.00500 28.99100 35.59600
H  50.77900 27.95900 36.37100
H  50.86400 29.71300 36.78100
Mg -2.14700 34.42900 25.97600
C  -3.44300 32.87800 28.77900
C  -0.23300 36.39400 27.90500
C  -1.30000 36.04900 23.11300
C  -4.30000 32.39000 23.96400
N  -2.14400 34.88400 28.15900
C  -2.65400 34.03700 29.14100
C  -2.07300 34.29700 30.46100
C  -1.19000 35.53400 30.24800
C  -1.17000 35.61900 28.66800
C  -1.62900 36.81400 31.01800
C  -1.34600 33.06700 31.13100
C  -1.95000 32.46200 32.38000
H  -1.15500 32.55900 33.64800
N  -0.85500 35.93700 25.60000
C  -0.05100 36.52300 26.50600
C  1.01300 37.28500 25.83800
C  0.68000 37.19100 24.41900
C  -0.58900 36.48300 24.34700
C  2.17400 37.86800 26.60400
C  1.47100 37.73100 23.24200
O  1.06800 37.65900 22.08200
C  2.82300 38.32100 23.54800
N  -2.75600 34.27500 23.78500
C  -2.40800 35.21700 22.84400
C  -2.83400 34.83000 21.40000
C  -3.64100 33.54400 21.72200
C  -3.57400 33.35800 23.27300
C  -3.58900 35.91700 20.56500
C  -3.15500 32.28000 21.01800
C  -2.04000 31.41200 21.63800
N  -3.64400 33.01000 26.22500
C  -4.29200 32.19100 25.32800
C  -4.96300 31.18200 25.98700
C  -4.76500 31.47300 27.34600
C  -3.83300 32.49700 27.44900
C  -5.74100 30.16800 25.38000
C  -5.06200 31.03000 28.64700
O  -5.81300 30.12600 28.98600
C  -4.29600 31.93700 29.67000
C  -5.18000 32.56900 30.59700
O  -5.81500 33.60900 30.33100
O  -5.21100 31.92900 31.81500
C  -5.95400 32.44200 32.91100
H  0.47500 36.85100 28.59900
H  -1.03100 36.62300 22.22400
H  -4.75100 31.58700 23.37900
H  -2.95300 34.51200 31.06700
H  -0.15400 35.38700 30.55100
H  -1.88100 37.59400 30.30000
H  -0.78100 37.24400 31.55200
H  -2.30700 36.64300 31.85400
H  -0.36600 33.42900 31.44100
H  -1.18400 32.37100 30.30800
H  -2.14100 31.42200 32.11200
H  -2.85400 33.02400 32.61300
H  3.15200 37.81200 26.12600
H  2.13500 37.34400 27.55900
H  1.94200 38.91500 26.80100
H  2.67500 39.16900 24.21700
H  3.28000 38.62000 22.60400
H  3.40700 37.50200 23.96600
H  -1.91000 34.60800 20.86600
H  -4.68200 33.74800 21.47200
H  -3.61400 36.86300 21.10600
H  -4.64100 35.63400 20.52900
H  -3.12100 35.96900 19.58300
H  -2.84500 32.48500 19.99300
H  -4.02400 31.64200 20.85400
H  -1.53500 31.69100 22.56200
H  -1.30600 31.34600 20.83400
H  -2.45600 30.41700 21.79500
H  -5.44700 29.70200 24.43900
H  -6.81100 30.35400 25.46400
H  -5.56000 29.34300 26.07000
H  -3.65200 31.32700 30.30400
H  -5.76900 33.48800 33.15600
H  -5.63700 31.83200 33.75600
H  -7.02400 32.26100 32.80600

