158

Mg 26.91500 50.28100 26.55500
C  24.68300 51.38200 29.13100
C  29.13300 49.72000 28.89500
C  29.10000 49.69900 24.10300
C  24.60700 51.43600 24.15200
N  26.85000 50.49800 28.80300
C  25.83100 50.80200 29.66200
C  26.14300 50.49900 31.09700
C  27.71100 50.28600 31.02000
C  27.94900 50.12400 29.45600
C  28.67700 51.24700 31.74900
C  25.31300 49.29400 31.63000
C  24.31200 49.64800 32.85300
H  24.24000 48.69700 34.01900
N  28.83200 49.63100 26.52400
C  29.59300 49.36300 27.59500
C  30.92900 49.04800 27.16300
C  30.89600 48.93800 25.76200
C  29.57700 49.43500 25.36000
C  32.05300 48.94000 28.18200
C  32.07800 48.53200 24.88500
O  32.05800 48.89000 23.69400
C  33.31800 47.89000 25.48300
N  26.82100 50.62200 24.42400
C  27.91000 50.23900 23.66600
C  27.44500 50.10700 22.14300
C  25.91000 50.58500 22.09200
C  25.67900 50.74400 23.64000
C  28.41200 50.85300 21.18900
C  24.98700 49.55400 21.39800
C  23.95300 50.12300 20.41100
N  25.03800 51.18100 26.56100
C  24.27200 51.69500 25.48900
C  23.06700 52.31200 26.00000
C  23.11700 52.18200 27.45400
C  24.38200 51.52700 27.71000
C  21.97400 52.95700 25.15600
C  22.55300 52.45600 28.74900
O  21.55500 53.06100 29.04600
C  23.50000 51.83200 29.87200
C  23.89000 52.94500 30.77900
O  24.50700 53.96000 30.52100
O  23.32900 52.67700 32.03300
C  23.83100 53.50900 33.16500
H  29.85400 49.45400 29.67000
H  29.67900 49.37600 23.23500
H  23.81300 51.72200 23.46000
H  25.93200 51.40400 31.66700
H  27.79100 49.31200 31.50300
H  29.31900 51.72100 31.00700
H  29.35300 50.63300 32.34400
H  28.11000 51.95700 32.35100
H  25.97000 48.46400 31.88900
H  24.70500 48.94900 30.79400
H  23.29400 49.62400 32.46500
H  24.39100 50.70000 33.12800
H  32.97800 49.45800 27.92800
H  32.30600 47.88800 28.31600
H  31.79200 49.43500 29.11700
H  33.02400 47.10500 26.17800
H  33.84100 48.60900 26.11300
H  34.00400 47.46700 24.74800
H  27.48100 49.04200 21.91300
H  25.80700 51.59900 21.70500
H  28.91300 50.27900 20.41000
H  29.12600 51.39700 21.80700
H  27.86300 51.62400 20.64700
H  24.32600 49.20500 22.19100
H  25.52400 48.71200 20.96100
H  22.92400 49.80000 20.57000
H  24.09100 49.58000 19.47600
H  23.94800 51.21300 20.37700
H  21.38400 52.25300 24.56900
H  22.41100 53.76100 24.56300
H  21.30800 53.49600 25.82900
H  23.02200 51.08900 30.51100
H  24.27900 54.43600 32.80900
H  24.64700 52.94200 33.61200
H  23.01500 53.68400 33.86600
Mg -10.81100 16.57200 42.55000
C  -7.80100 15.04100 42.50500
C  -9.46900 19.35200 41.07200
C  -14.06200 17.90700 42.14600
C  -12.38000 13.58000 43.54200
N  -8.83100 17.05500 41.70700
C  -7.72000 16.34100 42.06700
C  -6.47600 17.14600 41.65900
C  -7.02300 18.60700 41.53600
C  -8.53800 18.33800 41.39400
C  -6.60600 19.67200 42.58200
C  -5.80600 16.65900 40.32800
C  -4.36000 16.07200 40.41300
H  -4.19900 14.89100 39.44100
N  -11.64700 18.43800 41.85100
C  -10.87700 19.34300 41.18900
C  -11.79500 20.39100 40.71600
C  -13.09600 20.12300 41.14100
C  -12.99300 18.81000 41.78300
C  -11.30300 21.57600 39.94600
C  -14.28100 20.98000 40.98300
O  -14.16800 22.15200 40.54900
C  -15.69500 20.60300 41.36700
N  -12.95100 15.81400 42.92500
C  -14.05800 16.60400 42.67400
C  -15.34300 15.86600 42.92500
C  -14.82800 14.54700 43.63900
C  -13.34500 14.59300 43.32300
C  -16.47300 16.49500 43.66200
C  -15.44100 13.23400 43.18900
C  -15.77000 12.21800 44.22300
N  -10.29400 14.69900 42.83700
C  -10.98400 13.57500 43.28600
C  -10.03700 12.50300 43.53400
C  -8.81700 13.07000 43.29200
C  -8.99700 14.36600 42.87300
C  -10.35800 11.07700 43.99900
C  -7.38100 12.74000 43.25800
O  -6.88200 11.66000 43.57800
C  -6.62700 14.05900 42.78500
C  -5.80700 14.52900 43.95400
O  -6.16500 15.07400 44.97800
O  -4.52200 14.29000 43.62600
C  -3.54800 14.84500 44.59500
H  -8.88600 20.16900 40.64100
H  -15.06900 18.12000 41.78000
H  -12.79700 12.66400 43.96600
H  -5.71500 17.08900 42.43700
H  -6.73800 19.01000 40.56400
H  -7.49100 20.11000 43.04400
H  -6.06500 20.44300 42.03200
H  -5.85200 19.35400 43.30200
H  -5.89300 17.46400 39.59900
H  -6.47400 16.00100 39.77300
H  -4.04300 15.68600 41.38200
H  -3.66600 16.88300 40.19200
H  -11.31900 22.41700 40.64000
H  -11.93100 21.81800 39.08900
H  -10.28500 21.54900 39.55800
H  -16.33600 21.43000 41.06400
H  -15.73300 20.44000 42.44400
H  -16.01000 19.76200 40.74800
H  -15.75500 15.58600 41.95500
H  -14.95800 14.55800 44.72100
H  -17.36000 16.59000 43.03500
H  -16.15600 17.48700 43.98000
H  -16.68600 15.85200 44.51500
H  -14.84400 12.66800 42.47400
H  -16.27400 13.45500 42.52200
H  -16.85900 12.18700 44.26100
H  -15.38000 12.47200 45.20900
H  -15.51300 11.16900 44.07000
H  -10.55900 10.46400 43.12000
H  -11.21500 11.02200 44.67000
H  -9.42900 10.78400 44.48600
H  -5.99400 13.84400 41.92500
H  -3.07400 15.77200 44.27200
H  -2.65500 14.23400 44.71900
H  -3.93500 15.17500 45.56000

