158

Mg -2.45700 34.30600 26.31800
C  -4.04000 32.45600 28.96200
C  -1.36100 36.58900 28.72000
C  -1.16500 36.25200 23.75100
C  -4.16700 32.35800 24.01000
N  -2.87500 34.56100 28.49900
C  -3.42200 33.67500 29.42100
C  -3.25100 34.14500 30.90500
C  -2.71700 35.62400 30.73900
C  -2.19400 35.58700 29.22400
C  -3.78100 36.73800 31.02300
C  -2.37900 33.16900 31.68900
C  -3.00600 32.54600 32.94200
H  -2.18900 32.46600 34.24300
N  -1.30000 36.03300 26.18400
C  -0.96000 36.77900 27.29300
C  0.01300 37.69000 26.88000
C  0.07400 37.71200 25.48800
C  -0.79500 36.64600 25.03900
C  0.75400 38.58600 27.92100
C  0.78300 38.60500 24.48400
O  0.76800 38.43100 23.27300
C  1.54800 39.82700 25.01200
N  -2.71000 34.35200 24.16400
C  -2.02000 35.15600 23.35600
C  -2.34100 34.86800 21.89700
C  -3.02300 33.48400 22.02200
C  -3.39400 33.41100 23.47600
C  -3.38600 35.95500 21.22700
C  -2.00100 32.41200 21.63300
C  -0.88500 31.88600 22.61100
N  -3.74900 32.71600 26.43000
C  -4.23500 31.97000 25.40100
C  -5.06400 30.87100 25.93900
C  -4.96600 31.03900 27.31100
C  -4.15200 32.11200 27.60500
C  -5.91800 29.84700 25.29600
C  -5.39600 30.44800 28.52800
O  -6.11100 29.47800 28.74800
C  -4.75600 31.32400 29.73700
C  -5.78900 31.73600 30.62400
O  -6.56600 32.65300 30.43400
O  -5.85000 30.88900 31.61800
C  -6.87800 31.26100 32.61400
H  -0.75500 37.02100 29.51900
H  -0.85400 36.85200 22.89300
H  -4.62600 31.56600 23.41400
H  -4.25000 34.11700 31.34000
H  -1.81300 35.82100 31.31400
H  -3.53700 36.99600 32.05400
H  -4.76000 36.26400 30.94400
H  -3.61600 37.62200 30.40900
H  -1.49200 33.68700 32.05600
H  -2.12600 32.34400 31.02300
H  -3.26800 31.50200 32.76800
H  -3.92600 33.09600 33.13900
H  1.82800 38.59800 27.73100
H  0.59500 38.25600 28.94700
H  0.43100 39.62300 27.82800
H  0.82300 40.46600 25.51600
H  2.01700 40.35400 24.18100
H  2.25300 39.53900 25.79100
H  -1.46000 34.92800 21.25800
H  -3.93500 33.35300 21.43900
H  -3.44900 36.87400 21.81000
H  -4.39500 35.58500 21.04600
H  -2.93900 36.09600 20.24200
H  -1.48000 32.90100 20.81000
H  -2.57200 31.55600 21.27300
H  0.06300 32.27000 22.23400
H  -0.80300 30.80400 22.50100
H  -1.09100 32.22000 23.62800
H  -5.89100 29.62700 24.22900
H  -6.96100 30.12800 25.44400
H  -5.65500 28.97900 25.90100
H  -4.03000 30.77800 30.33900
H  -6.35800 31.83200 33.38300
H  -7.12500 30.31500 33.09500
H  -7.81000 31.71800 32.28400
Mg -11.62200 16.20300 43.12500
C  -8.24600 16.88800 43.15300
C  -12.27700 19.52200 41.99300
C  -14.76500 15.33800 42.58100
C  -10.80700 12.71400 43.49600
N  -10.41200 17.94000 42.50700
C  -9.04300 17.96700 42.79900
C  -8.52400 19.35700 42.35800
C  -9.82600 20.23800 42.42100
C  -10.92800 19.20100 42.30900
C  -9.92100 20.93200 43.81800
C  -7.86700 19.30400 40.89400
C  -6.59600 20.09500 40.55400
H  -5.46000 19.38500 39.74300
N  -13.28900 17.25600 42.21700
C  -13.36800 18.57500 41.84900
C  -14.74200 18.97100 41.61400
C  -15.46800 17.73100 41.61600
C  -14.51500 16.72000 42.20200
C  -15.20200 20.34900 41.26600
C  -16.94800 17.69300 41.27700
O  -17.55500 18.70300 41.01800
C  -17.67100 16.30700 41.12400
N  -12.59900 14.30400 43.02400
C  -13.97300 14.29400 42.94500
C  -14.53600 12.83800 43.17400
C  -13.32100 11.92600 43.18100
C  -12.14900 13.00200 43.26100
C  -15.56200 12.70100 44.26100
C  -13.19800 11.00400 41.92400
C  -13.58900 9.52900 42.19200
N  -9.87500 14.97000 43.43800
C  -9.73500 13.59800 43.56600
C  -8.28900 13.26900 43.71900
C  -7.62800 14.55000 43.62300
C  -8.71200 15.50700 43.34900
C  -7.69000 11.91300 43.93800
C  -6.38700 15.28500 43.60200
O  -5.25600 14.95800 43.90100
C  -6.70000 16.75700 43.11300
C  -6.02500 17.77400 43.88000
O  -6.16700 17.92000 45.07600
O  -5.16300 18.48100 43.09200
C  -4.36100 19.57800 43.64700
H  -12.46300 20.56400 41.72600
H  -15.80100 15.02600 42.42900
H  -10.48100 11.70900 43.77400
H  -7.75900 19.77100 43.01500
H  -9.77500 21.03000 41.67400
H  -9.04300 21.43400 44.22500
H  -10.04000 20.07700 44.48200
H  -10.70100 21.68600 43.92400
H  -8.67800 19.61900 40.23800
H  -7.58900 18.26500 40.71800
H  -6.22300 20.70600 41.37600
H  -6.89900 20.86900 39.84900
H  -15.57700 20.39200 40.24400
H  -14.36200 21.02700 41.40900
H  -15.98800 20.49000 42.00900
H  -18.56600 16.52600 40.54200
H  -17.92700 15.94000 42.11800
H  -17.03000 15.59100 40.60900
H  -15.14000 12.70300 42.27700
H  -13.24500 11.35400 44.10500
H  -15.39000 11.67800 44.59500
H  -16.60300 12.74000 43.94100
H  -15.33000 13.42800 45.03900
H  -12.14800 11.00200 41.63200
H  -13.82800 11.40200 41.12800
H  -12.67200 8.94000 42.17000
H  -14.37900 9.30900 41.47400
H  -14.00200 9.44300 43.19700
H  -6.62300 12.10600 44.05400
H  -7.91000 11.30600 43.06000
H  -8.04300 11.38800 44.82600
H  -6.35300 16.75800 42.07900
H  -3.58700 19.12800 44.27000
H  -4.88200 20.11100 44.44300
H  -3.90400 20.20100 42.87800

