158

Mg 50.32000 47.18400 42.79000
C  47.11300 48.17400 41.59400
C  49.75700 44.06500 41.03000
C  53.58200 46.49600 42.92800
C  50.86600 50.56300 43.61400
N  48.60500 46.20400 41.54600
C  47.43100 46.83300 41.24500
C  46.63600 45.95500 40.29100
C  47.30000 44.50600 40.53100
C  48.65800 44.95300 41.00700
C  46.63700 43.73900 41.62300
C  46.52500 46.37700 38.75100
C  45.16100 46.07500 38.11300
H  45.28700 44.96800 37.05300
N  51.50600 45.51700 42.14500
C  51.09900 44.28200 41.51100
C  52.21200 43.41300 41.30800
C  53.26900 44.02000 42.09100
C  52.81000 45.41600 42.42800
C  52.18400 42.07800 40.62200
C  54.64100 43.38700 42.31000
O  54.90200 42.26200 41.95700
C  55.80300 44.10400 42.94500
N  51.98900 48.32600 43.09700
C  53.26200 47.81200 43.14500
C  54.31200 48.86100 43.55100
C  53.40900 50.12300 43.81500
C  52.01300 49.66200 43.50700
C  55.24900 48.47700 44.72400
C  53.72400 51.45100 43.05600
C  55.19200 51.89300 43.03400
N  49.30600 49.03900 42.72600
C  49.56300 50.27100 43.14200
C  48.52000 51.13900 42.95200
C  47.48600 50.36700 42.40400
C  48.01700 49.06400 42.26400
C  48.47900 52.59600 43.25800
C  46.14300 50.32900 41.78000
O  45.36500 51.21700 41.56900
C  45.87600 48.89700 41.24000
C  44.55300 48.45100 41.86600
O  44.38500 47.89600 42.93500
O  43.53700 48.53000 40.98600
C  42.19300 48.47100 41.51800
H  49.54900 43.05600 40.66800
H  54.65600 46.31600 43.01000
H  51.05700 51.53400 44.07600
H  45.60100 45.83800 40.61400
H  47.23100 43.97000 39.58400
H  47.39000 43.37300 42.32100
H  46.12500 42.86100 41.22900
H  45.88200 44.33200 42.13900
H  47.24400 45.79200 38.17600
H  46.82400 47.42400 38.70800
H  44.81700 46.93600 37.53900
H  44.38100 45.85100 38.84100
H  52.63000 42.23600 39.64000
H  51.17200 41.67400 40.64600
H  52.70900 41.25700 41.11100
H  55.38400 44.60500 43.81700
H  56.08000 44.83300 42.18400
H  56.50000 43.33800 43.28600
H  54.89300 49.10700 42.66200
H  53.44800 50.31900 44.88600
H  55.00700 48.91800 45.69100
H  56.25000 48.81900 44.46100
H  55.28300 47.41900 44.98400
H  53.11300 52.18400 43.58500
H  53.43500 51.35200 42.01000
H  55.50400 51.93800 41.99100
H  55.80900 51.24800 43.66000
H  55.08500 52.89400 43.45400
H  48.50500 52.70400 44.34200
H  47.59900 53.15700 42.94500
H  49.35100 53.12000 42.86500
H  45.78600 48.95400 40.15500
H  42.05500 48.85800 42.52800
H  41.88300 47.42900 41.60100
H  41.51600 49.05200 40.89200
Mg 0.55900 44.27000 25.43000
C  2.57100 43.50900 28.40500
C  -2.02600 43.22100 27.36800
C  -1.07700 43.21400 22.73600
C  3.58700 44.21500 23.66800
N  0.36500 43.50100 27.69500
C  1.24500 43.44300 28.72700
C  0.56700 43.20300 30.11700
C  -0.95900 43.08800 29.68900
C  -0.88400 43.23800 28.15800
C  -1.59800 41.69700 30.14500
C  0.77000 44.44100 31.07800
C  0.74200 44.14600 32.60400
H  0.48400 42.72600 33.22400
N  -1.39600 43.79200 25.05800
C  -2.35100 43.45800 26.00300
C  -3.66500 43.27000 25.36400
C  -3.36500 43.27000 23.93700
C  -1.92500 43.45500 23.80600
C  -4.98400 43.33300 26.15000
C  -4.31900 42.96700 22.84600
O  -3.98800 42.90900 21.63400
C  -5.79200 42.77300 23.11400
N  1.21800 43.66700 23.52800
C  0.30300 43.39800 22.58000
C  0.91600 43.24300 21.24400
C  2.27000 43.94700 21.39400
C  2.38000 43.99300 22.97300
C  0.99900 41.74900 20.75600
C  2.40100 45.24900 20.60500
C  1.91400 46.48700 21.22000
N  2.60100 44.18200 25.89600
C  3.67400 44.13000 25.06500
C  4.94500 43.98800 25.82000
C  4.52400 43.75900 27.13500
C  3.08700 43.86200 27.13700
C  6.36000 43.98200 25.31000
C  4.98200 43.46500 28.37700
O  6.13300 43.42200 28.73700
C  3.79100 43.42900 29.30500
C  3.83400 42.21000 30.14100
O  3.41300 41.10100 29.84100
O  4.49500 42.51500 31.37400
C  4.50700 41.43600 32.43000
H  -2.92500 43.05100 27.96400
H  -1.63100 42.94700 21.83400
H  4.51100 44.37400 23.10700
H  0.85600 42.24200 30.54300
H  -1.59400 43.85900 30.12800
H  -1.91100 41.15600 29.25200
H  -2.54000 41.81500 30.68100
H  -0.93200 41.18300 30.83800
H  0.07300 45.26800 30.94300
H  1.74200 44.85700 30.81200
H  0.11600 44.87600 33.11800
H  1.78300 44.23800 32.91300
H  -4.71200 43.44400 27.20000
H  -5.33000 42.30100 26.11100
H  -5.66900 44.09300 25.77400
H  -6.37900 42.66300 22.20200
H  -6.09500 43.73800 23.52100
H  -5.87000 42.08900 23.95900
H  0.19400 43.79600 20.64300
H  2.92600 43.26000 20.86000
H  0.00400 41.55100 20.35900
H  1.37600 41.05000 21.50200
H  1.62900 41.83000 19.87000
H  2.04600 45.16800 19.57700
H  3.47800 45.30800 20.45000
H  1.11600 46.89500 20.59800
H  2.72000 47.21900 21.17800
H  1.45600 46.38800 22.20400
H  7.01300 44.60800 25.91700
H  6.52600 44.30600 24.28300
H  6.79900 42.99700 25.47000
H  3.87100 44.26800 29.99600
H  4.23600 41.74500 33.43900
H  5.53300 41.08600 32.55100
H  3.88300 40.61000 32.08900

