158

Mg 8.34200 2.17900 27.49900
C  9.78000 0.97000 30.25200
C  6.41500 4.42200 29.35900
C  6.77700 3.17700 24.64900
C  9.86500 -0.39400 25.63100
N  8.20400 2.71400 29.55400
C  8.93200 2.04900 30.50400
C  8.62200 2.67800 31.93300
C  7.41000 3.67900 31.53400
C  7.26900 3.60500 30.02200
C  6.13400 3.35000 32.30000
C  9.84500 3.27100 32.57200
C  9.70500 3.50500 34.12300
H  10.61400 2.67300 35.16900
N  6.85300 3.65000 27.08600
C  6.21400 4.41900 27.96800
C  5.26900 5.29700 27.23100
C  5.34000 4.93600 25.87600
C  6.45100 3.96200 25.76800
C  4.41400 6.29400 27.93400
C  4.52700 5.47500 24.72300
O  4.71800 5.25300 23.55000
C  3.40200 6.44800 25.04000
N  8.28900 1.48600 25.45200
C  7.57800 2.03400 24.48700
C  7.78600 1.32000 23.17100
C  8.96500 0.35500 23.50100
C  9.03700 0.46600 24.92800
C  6.53100 0.53600 22.83400
C  10.33900 0.86500 22.85500
C  11.35900 -0.25800 22.30500
N  9.61100 0.49700 27.81200
C  10.13600 -0.47000 26.98300
C  11.08000 -1.25400 27.71200
C  11.05100 -0.70600 29.01000
C  10.07100 0.29200 29.04100
C  11.99800 -2.25700 27.05800
C  11.60300 -0.80100 30.25900
O  12.46100 -1.55900 30.69400
C  10.76700 0.22500 31.17900
C  10.03900 -0.59700 32.18300
O  9.35100 -1.60600 32.07500
O  10.23000 -0.05600 33.45700
C  9.66200 -0.77100 34.60000
H  5.79300 5.07800 29.97100
H  6.22300 3.40200 23.73500
H  10.40200 -1.16800 25.07800
H  8.26900 1.91600 32.62700
H  7.83800 4.64900 31.78900
H  5.79500 2.39300 31.90200
H  5.45300 4.19500 32.20400
H  6.42200 3.17200 33.33600
H  10.12100 4.24500 32.16900
H  10.70400 2.60800 32.46900
H  8.65300 3.47300 34.40900
H  9.99500 4.53100 34.35100
H  3.42400 5.86400 28.08900
H  4.35300 7.20400 27.33800
H  4.97100 6.64900 28.80100
H  2.97400 6.75000 24.08400
H  3.78100 7.40800 25.39100
H  2.68200 6.05800 25.76000
H  7.97800 1.99200 22.33400
H  8.78100 -0.66600 23.16700
H  6.00000 0.25500 23.74300
H  6.74400 -0.37600 22.27500
H  5.79800 1.20100 22.37700
H  10.76700 1.56900 23.56800
H  10.08400 1.50000 22.00600
H  11.13800 -1.27300 22.63600
H  12.40100 -0.11700 22.59400
H  11.36700 -0.26200 21.21500
H  12.69400 -1.70900 26.42400
H  11.47500 -2.90200 26.35200
H  12.48400 -2.82100 27.85400
H  11.43900 0.88500 31.72900
H  9.97900 -1.80800 34.70200
H  8.58400 -0.66400 34.72200
H  10.17300 -0.38900 35.48400
Mg 24.42500 -8.37900 47.22600
C  26.69400 -6.01200 46.22900
C  22.41300 -7.35200 44.64200
C  22.36600 -11.10800 47.62000
C  26.79200 -9.84000 49.09400
N  24.52800 -6.68700 45.74400
C  25.51000 -5.80100 45.58200
C  25.13400 -4.75300 44.52800
C  23.75700 -5.25100 43.95200
C  23.51200 -6.52000 44.84100
C  22.57600 -4.20700 44.16900
C  26.20900 -4.66200 43.38300
C  26.85600 -3.26300 43.24800
H  26.60500 -2.68500 41.86200
N  22.60200 -9.00100 46.40400
C  21.95400 -8.42900 45.35700
C  20.64700 -9.05300 45.16100
C  20.59100 -10.21500 46.00100
C  21.89500 -10.21500 46.70100
C  19.65200 -8.47400 44.21100
C  19.41000 -11.21100 46.00300
O  18.40000 -10.86500 45.37900
C  19.46000 -12.46900 46.85500
N  24.61000 -10.26200 48.12700
C  23.58300 -11.14800 48.29200
C  23.93300 -12.25000 49.30900
C  25.36400 -11.79500 49.88800
C  25.58000 -10.53200 48.96100
C  22.85200 -12.56800 50.41000
C  26.51600 -12.82300 49.94600
C  26.35600 -14.21600 49.15500
N  26.35200 -8.02000 47.74800
C  27.23700 -8.70300 48.49900
C  28.45900 -7.94500 48.58400
C  28.30600 -6.90000 47.64700
C  26.98600 -7.00400 47.18800
C  29.64900 -8.27000 49.38700
C  29.04400 -5.75400 47.02700
O  30.18300 -5.34300 47.17900
C  27.98300 -5.08900 46.13400
C  27.73100 -3.65600 46.58400
O  27.07100 -3.29000 47.55100
O  28.42000 -2.81400 45.71700
C  28.32400 -1.45900 46.09900
H  21.73400 -7.00400 43.86000
H  21.73400 -11.97600 47.82200
H  27.60300 -10.19300 49.73500
H  24.95000 -3.86900 45.13800
H  23.86100 -5.51000 42.89800
H  21.90100 -4.63600 44.90900
H  22.09100 -4.08200 43.20100
H  22.92800 -3.21100 44.43700
H  25.88200 -4.95300 42.38500
H  26.99200 -5.39600 43.57200
H  27.94200 -3.31400 43.33600
H  26.44400 -2.58900 43.99900
H  18.67200 -8.85500 44.49900
H  19.77200 -8.82900 43.18700
H  19.66900 -7.38500 44.23200
H  19.67200 -12.10100 47.85900
H  20.15200 -13.20500 46.44700
H  18.48500 -12.95600 46.87700
H  23.90000 -13.15000 48.69600
H  25.09900 -11.30100 50.82300
H  23.27200 -12.52400 51.41400
H  22.47800 -13.56300 50.16700
H  22.04900 -11.83200 50.35000
H  26.60700 -13.15900 50.97800
H  27.53100 -12.47100 49.75900
H  27.35500 -14.56600 48.89600
H  25.87700 -14.13900 48.17900
H  25.88000 -14.96900 49.78300
H  29.75100 -7.63700 50.26900
H  30.51800 -8.16900 48.73700
H  29.52200 -9.28500 49.76500
H  28.36600 -5.10100 45.11400
H  28.81800 -1.25300 47.04900
H  27.29200 -1.15100 46.26600
H  28.67100 -0.77600 45.32300

