158

Mg 6.10700 53.21800 40.46000
C  5.94000 49.61100 40.33600
C  9.47700 52.95900 39.63300
C  6.08700 56.56000 39.56200
C  2.65800 53.30000 40.65600
N  7.50000 51.44800 40.04400
C  7.26000 50.07400 40.06800
C  8.51900 49.28700 39.87600
C  9.58900 50.45500 39.97200
C  8.80700 51.72100 39.82000
C  10.51600 50.42200 41.30100
C  8.63900 48.39300 38.62000
C  8.75200 49.16700 37.29500
H  7.64200 48.84900 36.35600
N  7.61400 54.56900 39.93700
C  8.96300 54.27700 39.68700
C  9.63300 55.51600 39.18300
C  8.75400 56.54500 39.35800
C  7.38800 55.95300 39.72400
C  11.09000 55.57300 38.78400
C  9.09300 58.07800 39.27100
O  10.22300 58.49400 38.90800
C  8.03000 59.05200 39.61200
N  4.49400 54.72200 39.92900
C  4.81800 56.04000 39.74900
C  3.57700 56.86300 39.90300
C  2.45000 55.78500 40.11700
C  3.23400 54.52600 40.35700
C  3.71400 57.86500 41.06100
C  1.40900 55.68500 38.94900
C  -0.05800 56.10100 39.28800
N  4.60700 51.76700 40.53500
C  3.26900 52.00200 40.67400
C  2.58600 50.74000 40.80000
C  3.56900 49.75500 40.70600
C  4.78400 50.42600 40.41700
C  1.21100 50.49600 41.24700
C  3.88700 48.41300 40.85500
O  3.21600 47.43800 41.14600
C  5.41800 48.19800 40.49100
C  5.42800 47.28400 39.30500
O  5.13200 47.65000 38.22500
O  5.78600 46.00300 39.57600
C  5.76300 45.17300 38.36200
H  10.53300 52.88400 39.36400
H  6.15200 57.57500 39.16400
H  1.58800 53.41100 40.84100
H  8.52000 48.73800 40.81700
H  10.26600 50.28000 39.13600
H  11.55900 50.41200 40.98200
H  10.21500 49.54400 41.87200
H  10.22600 51.27400 41.91600
H  7.75100 47.76600 38.69000
H  9.50300 47.73000 38.57000
H  9.70300 48.92700 36.81900
H  8.99700 50.22600 37.37000
H  11.21800 56.47500 38.18500
H  11.50200 54.77600 38.16500
H  11.70900 55.69400 39.67300
H  8.39200 60.05300 39.84600
H  7.56000 58.64100 40.50500
H  7.35700 59.08500 38.75500
H  3.40300 57.43700 38.99300
H  1.79700 55.87000 40.98600
H  4.07800 58.78900 40.61100
H  4.46000 57.39500 41.70200
H  2.76700 57.88800 41.60000
H  1.49500 54.68100 38.53100
H  1.83300 56.26300 38.12800
H  -0.74100 55.57000 38.62400
H  -0.13700 57.18200 39.39900
H  -0.12100 55.55100 40.22700
H  0.83600 51.42900 41.66800
H  1.23900 49.63700 41.91800
H  0.57400 50.26400 40.39400
H  5.73800 47.73500 41.42400
H  4.88900 45.36400 37.73800
H  5.78600 44.10500 38.57900
H  6.66400 45.36200 37.77900
Mg -5.92900 25.40600 25.40700
C  -4.65500 26.36900 28.63000
C  -7.95100 23.15800 27.22200
C  -6.98200 24.20000 22.41700
C  -3.57300 27.23200 23.94500
N  -6.27900 24.78800 27.68700
C  -5.76500 25.46800 28.76500
C  -6.39500 25.01500 30.03200
C  -7.12600 23.66800 29.60200
C  -7.18300 23.88400 28.10400
C  -6.40700 22.39400 30.01500
C  -7.34800 26.09500 30.56800
C  -7.31800 26.38400 32.09700
H  -6.68200 25.27700 33.00400
N  -7.27300 23.91300 24.87700
C  -8.03800 23.14600 25.76800
C  -8.94000 22.32100 24.99700
C  -8.71400 22.60600 23.56900
C  -7.57000 23.56900 23.57000
C  -9.93900 21.35000 25.67600
C  -9.40400 21.98900 22.23100
O  -9.06800 22.26300 21.06000
C  -10.65900 21.01000 22.33500
N  -5.45000 25.75500 23.53900
C  -6.00100 25.14400 22.39500
C  -5.32500 25.62300 21.12200
C  -4.48200 26.78700 21.64500
C  -4.49800 26.58600 23.16000
C  -4.53100 24.52400 20.32000
C  -5.05800 28.20100 21.29000
C  -5.07300 28.53500 19.81100
N  -4.49500 26.63000 26.14300
C  -3.54300 27.26100 25.33700
C  -2.62800 28.00500 26.22900
C  -3.02500 27.66400 27.53100
C  -4.15200 26.83200 27.37900
C  -1.49000 28.90400 25.86100
C  -2.73900 27.85800 29.00000
O  -1.85500 28.49000 29.53400
C  -3.85700 27.05600 29.74400
C  -3.15600 26.22200 30.60800
O  -2.67100 25.16200 30.35000
O  -3.11500 26.86900 31.81000
C  -2.39400 26.24400 32.88900
H  -8.44900 22.27300 27.62400
H  -7.37700 23.79400 21.48300
H  -2.93100 28.00200 23.51100
H  -5.57800 24.91400 30.74700
H  -8.13000 23.74700 30.01800
H  -6.30600 21.66400 29.21200
H  -7.02600 21.99900 30.82000
H  -5.39700 22.52200 30.40600
H  -8.35500 25.76300 30.31600
H  -7.33800 27.05100 30.04500
H  -8.31600 26.60900 32.47500
H  -6.72800 27.29000 32.23700
H  -9.44600 20.37800 25.70900
H  -10.87300 21.25200 25.12200
H  -10.24600 21.63400 26.68200
H  -11.17500 20.90200 21.38200
H  -11.41800 21.39500 23.01700
H  -10.39700 19.99800 22.64600
H  -6.12500 25.90700 20.43700
H  -3.43000 26.66000 21.39000
H  -5.12200 24.04700 19.53800
H  -4.03200 23.75100 20.90500
H  -3.86900 25.17000 19.74400
H  -4.40700 28.88800 21.83000
H  -6.05300 28.37500 21.69900
H  -4.53000 29.46600 19.64600
H  -6.11300 28.76100 19.57900
H  -4.66000 27.71400 19.22500
H  -1.82500 29.93400 25.98100
H  -1.21700 28.63900 24.84000
H  -0.62500 28.56700 26.43300
H  -4.44700 27.78700 30.29800
H  -2.95200 26.21500 33.82500
H  -1.48500 26.82700 33.03400
H  -2.15300 25.23200 32.56600

