158

Mg 49.03200 45.13300 42.07000
C  45.96600 45.74000 40.48200
C  48.96200 42.00100 40.95600
C  52.34500 44.99000 42.83400
C  49.25000 48.60200 42.67600
N  47.55100 43.92100 40.97200
C  46.37800 44.36400 40.43500
C  45.69100 43.24000 39.67500
C  46.60000 41.99200 40.02500
C  47.79100 42.63200 40.67000
C  45.98800 40.88000 40.98400
C  45.65500 43.64900 38.16800
C  44.26700 43.54600 37.53600
H  44.16900 42.56100 36.30700
N  50.41100 43.62800 41.95400
C  50.14900 42.37800 41.54000
C  51.34700 41.55000 41.61100
C  52.33600 42.41000 42.20600
C  51.73900 43.72600 42.43200
C  51.48100 40.02400 41.23400
C  53.77900 41.97900 42.50400
O  54.02900 40.76300 42.38400
C  54.96200 42.85700 42.85000
N  50.66100 46.66600 42.31000
C  51.84300 46.28400 42.67300
C  52.78600 47.51800 42.89800
C  51.79600 48.62400 43.04000
C  50.48800 47.96600 42.70600
C  53.76000 47.48600 44.16400
C  52.06600 49.95400 42.30400
C  52.09300 51.28400 43.12700
N  47.80300 46.78000 41.83200
C  48.10700 48.08400 42.12400
C  46.95300 48.91200 41.69300
C  46.07300 47.99000 41.05500
C  46.64300 46.75900 41.12500
C  46.83600 50.45700 41.88100
C  44.86800 47.90000 40.32500
O  44.11400 48.73200 39.83800
C  44.67600 46.42600 40.02700
C  43.44000 45.95900 40.75500
O  42.43200 45.56200 40.12000
O  43.64600 45.93600 42.05800
C  42.59600 45.39200 42.88000
H  48.99000 40.93400 40.72300
H  53.42000 44.90000 43.00600
H  49.26400 49.68200 42.83700
H  44.72200 43.05300 40.13900
H  47.04800 41.46100 39.18500
H  45.90600 39.92100 40.47400
H  44.97000 41.16700 41.24600
H  46.49800 40.70600 41.93200
H  46.29600 42.98300 37.58900
H  46.14600 44.60800 38.00400
H  44.00500 44.54800 37.19700
H  43.57700 43.21600 38.31400
H  50.62900 39.81200 40.58800
H  51.29100 39.45800 42.14600
H  52.39000 39.84700 40.65900
H  54.89400 43.22800 43.87300
H  55.05200 43.69900 42.16400
H  55.84400 42.21800 42.80600
H  53.45900 47.69200 42.05900
H  51.68700 48.82100 44.10600
H  53.77500 46.41800 44.38400
H  53.37400 48.01000 45.03900
H  54.78400 47.76300 43.91600
H  51.37400 50.03100 41.46600
H  52.98400 49.79900 41.73900
H  53.03400 51.82800 43.05200
H  51.85200 51.07400 44.16900
H  51.29500 51.98300 42.87500
H  46.48500 50.87700 40.93800
H  47.76500 50.94500 42.17600
H  46.01400 50.68100 42.56000
H  44.38900 46.27900 38.98600
H  42.18400 46.19300 43.49400
H  42.96300 44.62700 43.56400
H  41.68400 45.01500 42.41600
Mg 9.44100 48.03200 25.08900
C  7.28300 48.58300 27.74100
C  12.02100 48.94300 27.19300
C  11.55200 47.65100 22.64100
C  6.73000 47.76500 22.92300
N  9.63600 48.57800 27.28400
C  8.58900 48.67300 28.18400
C  9.10000 48.94500 29.53900
C  10.56200 49.42900 29.26400
C  10.79500 48.96100 27.81900
C  10.72000 50.96200 29.43300
C  8.98600 47.82800 30.57200
C  9.47700 48.13800 31.97600
H  8.94900 47.20700 33.10500
N  11.56400 48.26100 25.00200
C  12.43800 48.65300 25.90400
C  13.81600 48.50200 25.37600
C  13.73000 47.93100 24.03100
C  12.25400 47.92600 23.83900
C  14.95400 48.73400 26.19700
C  14.77900 47.44900 23.07200
O  14.45300 47.00000 21.94900
C  16.17400 47.41400 23.54600
N  9.20400 47.69500 23.13500
C  10.21600 47.61700 22.24200
C  9.76600 47.11700 20.85200
C  8.20200 47.30100 20.89700
C  7.99800 47.54100 22.39900
C  10.52700 47.69100 19.57500
C  7.44500 46.03000 20.34500
C  6.53100 46.34600 19.11400
N  7.34500 48.22900 25.23300
C  6.36100 47.98300 24.27200
C  5.04700 48.39700 24.89700
C  5.42200 48.43300 26.22400
C  6.82600 48.34600 26.38400
C  3.65900 48.33700 24.30800
C  4.83900 48.59900 27.54300
O  3.66500 48.73400 27.85500
C  6.02100 48.65500 28.62400
C  5.83200 47.43300 29.42500
O  6.02600 46.29800 28.95700
O  5.45600 47.72800 30.69800
C  5.30400 46.56800 31.54800
H  12.72100 49.38300 27.90700
H  12.25800 47.47700 21.82700
H  5.97900 47.83200 22.13300
H  8.46700 49.76200 29.88500
H  11.30200 48.90800 29.87300
H  9.76300 51.39700 29.72200
H  11.21600 51.46600 28.60300
H  11.37500 51.16100 30.28000
H  9.35600 46.97200 30.00800
H  7.95000 47.60300 30.82700
H  9.06200 49.12300 32.18900
H  10.56200 48.13600 31.86800
H  14.66000 48.75300 27.24700
H  15.35900 49.68200 25.84200
H  15.73000 48.00400 25.96700
H  16.62900 46.71600 22.84300
H  16.33200 46.95200 24.52100
H  16.65500 48.37700 23.37600
H  9.98700 46.05300 20.93700
H  7.85600 48.20100 20.38900
H  9.73100 47.91500 18.86600
H  11.08400 46.88700 19.09500
H  11.20300 48.50700 19.83300
H  6.89100 45.54300 21.14700
H  8.16700 45.33300 19.92100
H  5.53700 45.91200 19.22500
H  6.92200 45.89100 18.20500
H  6.35600 47.42000 19.03800
H  3.25300 49.31300 24.57300
H  3.08600 47.51300 24.73400
H  3.46900 48.50500 23.24800
H  5.83400 49.47600 29.31500
H  4.26900 46.24200 31.64900
H  5.70500 46.76200 32.54300
H  5.90400 45.69100 31.30500

