158

Mg 42.86100 41.27700 26.14200
C  42.08400 43.47400 28.66100
C  44.44500 39.26600 28.58500
C  43.85400 39.11300 23.68900
C  42.14500 43.70100 23.74100
N  43.25600 41.40800 28.38900
C  42.63200 42.31000 29.14900
C  42.75500 41.99200 30.65400
C  43.73800 40.72600 30.61800
C  43.79100 40.39700 29.12500
C  45.07900 40.99400 31.21800
C  41.41800 41.87700 31.37000
C  41.54300 42.00500 32.85500
H  40.47500 42.68400 33.62900
N  43.73300 39.32600 26.18200
C  44.38600 38.71600 27.22600
C  44.79500 37.38600 26.79000
C  44.50700 37.30100 25.34400
C  44.06100 38.65700 24.99200
C  45.33800 36.33800 27.74200
C  44.76200 36.18600 24.42500
O  44.48400 36.21200 23.25600
C  45.36600 34.82800 24.97100
N  43.03200 41.43300 23.89700
C  43.37400 40.36800 23.11300
C  43.04400 40.64200 21.67400
C  42.63100 42.16800 21.65800
C  42.60000 42.50200 23.19300
C  44.13800 40.25600 20.64800
C  41.26900 42.49300 20.96900
C  41.35800 43.60600 19.90100
N  42.28900 43.23500 26.08300
C  42.02200 44.08000 25.06900
C  41.49400 45.30900 25.66100
C  41.53800 45.14100 27.04000
C  42.04500 43.88600 27.29200
C  41.08800 46.50600 24.81900
C  41.24100 45.76000 28.35300
O  40.82700 46.86400 28.58500
C  41.63600 44.75500 29.42400
C  42.76800 45.37400 30.28900
O  43.80200 45.95000 29.85400
O  42.29600 45.35600 31.63200
C  43.18000 45.87900 32.62300
H  45.00000 38.57500 29.22300
H  43.89100 38.30900 22.95200
H  41.89600 44.42100 22.95800
H  43.22200 42.84900 31.13900
H  43.17400 39.91100 31.07200
H  45.81800 40.94800 30.41900
H  45.18300 40.20900 31.96700
H  45.14100 41.96600 31.70700
H  41.14600 40.89400 30.98700
H  40.61900 42.56900 31.10100
H  42.50000 42.33300 33.26100
H  41.48500 40.95300 33.13800
H  45.05400 36.58700 28.76500
H  46.42600 36.31200 27.79700
H  44.91700 35.39400 27.39500
H  45.86600 34.28600 24.16800
H  44.55400 34.20600 25.34800
H  46.21500 35.11000 25.59400
H  42.09100 40.14400 21.49300
H  43.40900 42.81700 21.25600
H  44.35100 41.02400 19.90500
H  43.73500 39.51000 19.96300
H  45.02600 39.80800 21.09500
H  40.47300 42.75600 21.66500
H  40.85200 41.57900 20.54500
H  42.04300 43.39100 19.08100
H  41.63600 44.56900 20.33100
H  40.36300 43.75500 19.48400
H  41.96600 46.87800 24.29100
H  40.71100 47.20900 25.56100
H  40.27900 46.30500 24.11600
H  40.77700 44.55300 30.06400
H  44.13000 45.34800 32.68700
H  42.68200 45.78600 33.58800
H  43.53200 46.88900 32.41300
Mg -1.88600 34.34900 27.46500
C  -3.95300 32.70300 29.71100
C  -0.72100 36.32100 29.97700
C  -0.64400 36.62500 25.13600
C  -3.79900 32.89500 24.84100
N  -2.35100 34.49600 29.60900
C  -3.18600 33.66700 30.31800
C  -3.03900 33.91800 31.85900
C  -2.03300 35.14600 31.98100
C  -1.72600 35.40600 30.39000
C  -2.62500 36.36400 32.71800
C  -2.47500 32.61100 32.53500
C  -3.17900 32.14100 33.86000
H  -2.34700 32.05400 35.12400
N  -0.67300 36.08000 27.52500
C  -0.24200 36.64200 28.68300
C  0.76600 37.56500 28.41800
C  0.85000 37.75000 26.97100
C  -0.19300 36.79400 26.47900
C  1.66500 38.14300 29.49300
C  1.82900 38.51400 26.11900
O  1.79300 38.51800 24.90200
C  2.88900 39.30900 26.75200
N  -2.35200 34.77500 25.34600
C  -1.58000 35.68800 24.65600
C  -1.90400 35.63100 23.11500
C  -2.55900 34.18600 22.99600
C  -2.90700 33.90300 24.46100
C  -2.89900 36.78600 22.75000
C  -1.69600 32.98800 22.50000
C  -0.37100 32.74300 23.22600
N  -3.39000 32.94600 27.29200
C  -4.06300 32.47700 26.15400
C  -5.06800 31.49000 26.56400
C  -4.99400 31.50100 27.95700
C  -4.04200 32.45800 28.32600
C  -5.83500 30.57500 25.68900
C  -5.53100 30.92200 29.15800
O  -6.37400 30.09300 29.36700
C  -4.85200 31.65500 30.34500
C  -5.83800 32.36500 31.20700
O  -6.37600 33.41800 30.85800
O  -5.91600 31.78200 32.49700
C  -7.11400 32.25600 33.20000
H  -0.36700 36.95600 30.79200
H  -0.14900 37.32900 24.46400
H  -4.35800 32.38100 24.05700
H  -4.04000 34.14300 32.22600
H  -1.06300 34.80400 32.34100
H  -1.88500 37.16000 32.80300
H  -2.68900 36.20800 33.79500
H  -3.51000 36.79000 32.24500
H  -1.40500 32.67500 32.73100
H  -2.62700 31.79600 31.82800
H  -3.64500 31.15900 33.77700
H  -3.87300 32.94100 34.11800
H  1.73600 37.42600 30.31200
H  1.08700 38.92600 29.98400
H  2.67300 38.49800 29.27700
H  2.44200 39.90200 27.54900
H  3.49600 39.92100 26.08400
H  3.57300 38.64300 27.27800
H  -1.00500 35.74200 22.51000
H  -3.52100 34.24800 22.48800
H  -3.09500 37.33300 23.67200
H  -3.91000 36.57200 22.40000
H  -2.49200 37.31200 21.88600
H  -1.57800 33.08000 21.42100
H  -2.13500 31.99100 22.52500
H  -0.00600 31.71900 23.14700
H  -0.27900 33.09300 24.25500
H  0.39100 33.35700 22.74800
H  -6.87700 30.89600 25.71200
H  -5.71400 29.57300 26.09900
H  -5.51900 30.54700 24.64700
H  -4.29600 30.88200 30.87700
H  -7.07500 33.30200 33.50400
H  -6.97300 31.68400 34.11700
H  -8.03400 32.16200 32.62200

