158

Mg 30.57900 59.42200 39.72000
C  27.59700 57.73700 38.66300
C  32.32400 56.69400 38.60400
C  33.27400 61.17700 40.07000
C  28.52400 62.31200 39.86100
N  30.05800 57.48700 38.69800
C  28.79200 57.00600 38.30200
C  28.85100 55.65800 37.51300
C  30.31200 55.19100 37.82700
C  30.98000 56.50600 38.49900
C  30.42400 53.90500 38.71600
C  28.41800 55.71700 36.01300
C  27.30500 54.72600 35.51600
H  26.07200 55.22300 34.86900
N  32.54700 58.96500 39.54800
C  33.07700 57.75300 39.12200
C  34.54500 57.84100 39.29000
C  34.85600 59.16700 39.80200
C  33.49100 59.82600 39.84600
C  35.43700 56.78200 39.07200
C  36.25500 59.72400 40.25600
O  37.30200 59.05400 40.22700
C  36.33200 60.93600 41.12500
N  30.88100 61.51000 39.93200
C  32.08600 61.98000 40.18800
C  32.04100 63.42900 40.40200
C  30.54200 63.76600 40.15600
C  29.91300 62.44100 39.93300
C  32.63600 63.95600 41.73900
C  30.25800 64.74700 38.95000
C  29.14500 65.80200 39.23800
N  28.53000 59.93100 39.49300
C  27.86600 61.14800 39.62200
C  26.41700 60.99500 39.50000
C  26.28400 59.64200 39.13500
C  27.58100 59.02200 39.15900
C  25.28500 62.02300 39.78700
C  25.29500 58.62100 38.77500
O  24.07300 58.65800 38.69600
C  26.10500 57.34500 38.36400
C  25.50100 56.13600 39.07800
O  25.64000 55.85300 40.26700
O  24.76500 55.34100 38.22100
C  24.13300 54.13200 38.81400
H  32.89600 55.80600 38.32600
H  34.16200 61.79600 40.21700
H  27.85300 63.13400 40.11700
H  28.14100 55.06900 38.09400
H  30.82800 55.04300 36.87900
H  30.56400 53.02800 38.08400
H  29.56200 53.63900 39.32800
H  31.21500 53.96300 39.46400
H  29.28100 55.35000 35.45600
H  28.32400 56.72900 35.61900
H  26.86800 54.10200 36.29600
H  27.68100 54.00200 34.79300
H  36.26100 56.68600 39.78000
H  35.97200 56.89300 38.12800
H  34.88700 55.84300 39.13100
H  37.15700 60.75400 41.81400
H  35.36300 60.96600 41.62400
H  36.43900 61.83500 40.51800
H  32.59800 63.98200 39.64600
H  30.01800 63.96700 41.09000
H  32.86700 63.29500 42.57500
H  31.98400 64.76500 42.06600
H  33.55000 64.44900 41.40600
H  29.88700 64.07000 38.18100
H  31.14300 65.35300 38.75700
H  29.16500 65.97100 40.31500
H  28.12800 65.52800 38.95800
H  29.35600 66.76700 38.77600
H  24.31100 61.70000 39.42100
H  25.50800 62.95000 39.25900
H  25.23600 62.19900 40.86200
H  26.05800 57.22300 37.28200
H  23.27400 54.36900 39.44100
H  24.75700 53.54800 39.49100
H  23.63100 53.51200 38.07200
Mg -0.41400 43.23400 25.24200
C  1.95900 42.81600 27.93500
C  -2.90200 42.11900 27.31100
C  -2.29900 43.08600 22.59700
C  2.47100 43.78500 23.22500
N  -0.41900 42.69500 27.30700
C  0.60300 42.66300 28.26300
C  0.08800 42.47900 29.72000
C  -1.38200 42.09300 29.46300
C  -1.60900 42.26300 27.89600
C  -1.96800 40.66800 29.93600
C  0.46900 43.68600 30.66600
C  0.59100 43.50600 32.19600
H  0.36800 42.03800 32.77800
N  -2.44900 42.84600 24.99700
C  -3.31600 42.32300 25.94200
C  -4.57900 42.04100 25.36000
C  -4.44000 42.29300 23.92900
C  -3.02700 42.73500 23.76600
C  -5.76100 41.66300 26.17100
C  -5.44200 42.23200 22.82700
O  -5.19600 42.62500 21.67200
C  -6.85000 41.75500 23.00900
N  0.08800 43.53100 23.25000
C  -0.90000 43.31400 22.34600
C  -0.40300 43.77000 20.89600
C  1.07600 44.03900 21.14300
C  1.27100 43.72900 22.60600
C  -0.73900 42.83800 19.75100
C  1.49900 45.41600 20.68200
C  1.04300 46.58600 21.56200
N  1.78800 43.20100 25.45300
C  2.80300 43.52700 24.54700
C  4.12500 43.37000 25.09800
C  3.87100 43.12500 26.44400
C  2.43000 43.07400 26.62000
C  5.46000 43.54600 24.48800
C  4.50200 42.91600 27.74500
O  5.69400 42.85200 28.05800
C  3.24500 42.85600 28.80800
C  3.42600 41.61000 29.62600
O  2.88700 40.49100 29.53300
O  4.34000 41.85300 30.58300
C  4.47100 40.81300 31.60600
H  -3.78100 41.84900 27.90100
H  -2.83400 43.14900 21.64700
H  3.32800 43.97600 22.57600
H  0.65900 41.65900 30.15600
H  -1.96500 42.83700 30.00400
H  -1.23000 40.13000 30.53100
H  -2.24600 40.03600 29.09200
H  -2.75300 40.89600 30.65700
H  -0.16900 44.52600 30.39400
H  1.47200 43.96000 30.33700
H  -0.21800 44.14400 32.55300
H  1.57900 43.68300 32.62100
H  -6.24900 40.78400 25.75000
H  -6.40100 42.50900 26.42400
H  -5.40700 41.19700 27.09100
H  -7.17200 41.50700 21.99800
H  -7.33000 42.63400 23.44100
H  -6.90400 40.89800 23.68000
H  -0.90200 44.71500 20.68300
H  1.69200 43.32200 20.60100
H  -1.64100 43.24800 19.29500
H  -0.89700 41.85900 20.20300
H  0.06000 42.97800 19.02300
H  1.04000 45.44900 19.69400
H  2.58500 45.47800 20.62200
H  0.57500 46.27100 22.49400
H  0.32700 47.24700 21.07300
H  1.91300 47.23100 21.68600
H  5.72700 44.53400 24.11400
H  5.56300 42.94100 23.58700
H  6.20100 43.14900 25.18300
H  3.26900 43.70700 29.48800
H  4.95600 39.95100 31.14800
H  3.45900 40.50200 31.86400
H  4.97900 41.05700 32.53900

