158

Mg -10.72000 39.81500 43.83800
C  -9.61700 36.81100 42.40200
C  -8.10400 41.46700 42.05500
C  -12.23200 42.76600 44.54500
C  -13.57200 38.10000 44.80500
N  -9.05600 39.21200 42.43600
C  -8.84600 37.92200 41.99100
C  -7.62600 37.86800 40.98000
C  -7.07900 39.32100 41.18700
C  -8.11200 40.07700 41.95200
C  -5.65200 39.57300 41.65200
C  -7.94500 37.41700 39.52100
C  -7.19400 36.16400 39.08400
H  -6.01700 36.38200 37.97600
N  -10.19900 41.86300 43.44100
C  -9.13700 42.31200 42.59800
C  -9.21000 43.68700 42.57900
C  -10.38700 44.13100 43.34300
C  -11.00800 42.87800 43.85100
C  -8.26000 44.60100 41.78700
C  -10.68800 45.53600 43.60800
O  -10.04700 46.37900 43.04000
C  -11.70200 45.94500 44.69200
N  -12.61800 40.34300 44.64400
C  -13.01100 41.62100 44.75100
C  -14.55700 41.71900 45.13500
C  -14.92400 40.26500 45.36800
C  -13.65900 39.48800 44.93000
C  -14.80900 42.71800 46.34800
C  -16.16200 39.84500 44.57200
C  -17.05300 38.92900 45.33500
N  -11.46300 37.80900 43.72900
C  -12.61600 37.29000 44.17100
C  -12.65500 35.87200 44.07600
C  -11.48800 35.61400 43.39600
C  -10.80000 36.85100 43.17400
C  -13.56600 34.82800 44.57600
C  -10.67600 34.62000 42.72100
O  -10.79800 33.37100 42.65500
C  -9.39500 35.33900 41.99600
C  -8.24000 34.80400 42.75500
O  -7.75800 35.32700 43.72300
O  -7.74300 33.77900 42.06200
C  -6.53400 33.11900 42.57100
H  -7.35900 42.09600 41.56300
H  -12.87600 43.64800 44.52900
H  -14.52700 37.66900 45.11300
H  -6.96200 37.12900 41.42700
H  -6.89600 39.78900 40.22000
H  -4.99800 38.70300 41.70900
H  -5.68000 39.93200 42.68100
H  -5.15100 40.31100 41.02600
H  -7.57600 38.20800 38.86700
H  -9.01100 37.25500 39.36400
H  -7.99500 35.54000 38.68600
H  -6.81200 35.62200 39.94900
H  -8.83500 44.85300 40.89600
H  -7.45800 43.99300 41.37000
H  -7.98800 45.53300 42.28300
H  -12.71100 45.78100 44.31600
H  -11.50500 46.97600 44.98700
H  -11.62200 45.24600 45.52500
H  -15.00900 42.10700 44.22200
H  -15.01200 40.10300 46.44300
H  -15.26300 42.23000 47.21100
H  -15.44600 43.55900 46.07700
H  -13.81900 43.04300 46.66900
H  -15.94900 39.34100 43.62900
H  -16.73600 40.76900 44.50800
H  -17.07500 37.93700 44.88400
H  -18.06300 39.33000 45.25100
H  -16.78300 38.96300 46.39100
H  -13.95900 35.22900 45.51000
H  -13.06100 33.91900 44.90200
H  -14.29600 34.66100 43.78400
H  -9.27300 35.11200 40.93600
H  -5.66600 33.77100 42.66500
H  -6.39800 32.43900 41.72900
H  -6.69700 32.66600 43.54900
Mg -4.87900 24.81000 26.54900
C  -3.34800 26.46200 29.00100
C  -5.76400 22.32700 28.73700
C  -6.52900 23.18600 24.00800
C  -3.28900 26.83100 24.08000
N  -4.52200 24.39400 28.64000
C  -3.98200 25.31500 29.46400
C  -4.19700 24.82900 30.92200
C  -4.60300 23.38200 30.78800
C  -4.98500 23.35000 29.32400
C  -3.58400 22.36600 31.12100
C  -5.23000 25.76200 31.71300
C  -4.98800 25.86900 33.27900
H  -5.00100 24.54300 34.02000
N  -6.13500 23.11700 26.42300
C  -6.29600 22.19400 27.44500
C  -7.27900 21.24300 27.06900
C  -7.57400 21.46400 25.65500
C  -6.77000 22.64300 25.28300
C  -7.94400 20.15300 28.00800
C  -8.51200 20.73600 24.73600
O  -8.77100 21.23800 23.61000
C  -9.29700 19.50600 25.14400
N  -4.93100 24.99900 24.39200
C  -5.71800 24.21200 23.59500
C  -5.50400 24.47900 22.08400
C  -4.47300 25.66000 22.08400
C  -4.26400 25.85100 23.58500
C  -5.00200 23.17600 21.35000
C  -4.77300 26.79500 21.18300
C  -3.98800 26.72100 19.97700
N  -3.45500 26.23300 26.50500
C  -2.91100 26.96900 25.44100
C  -2.05500 27.96400 26.02900
C  -2.25600 27.87800 27.38400
C  -3.05600 26.74000 27.64600
C  -1.33100 29.05000 25.30800
C  -1.94700 28.44500 28.71900
O  -1.23700 29.42800 28.95400
C  -2.60400 27.55900 29.82500
C  -1.51400 27.10700 30.74500
O  -0.42000 26.72100 30.48100
O  -1.92700 27.34800 32.04400
C  -0.87000 27.08500 33.05900
H  -6.12300 21.58600 29.45400
H  -6.98100 22.64300 23.17500
H  -2.70400 27.39000 23.34600
H  -3.21200 24.89500 31.38400
H  -5.42800 23.13800 31.45800
H  -4.20200 21.57600 31.54600
H  -2.86600 22.69300 31.87300
H  -3.18200 21.86900 30.23900
H  -6.19800 25.28200 31.57100
H  -5.34600 26.78600 31.35700
H  -5.85200 26.41400 33.66100
H  -4.02300 26.35800 33.40500
H  -9.00900 20.35600 28.12400
H  -7.60900 20.07500 29.04300
H  -7.94800 19.15400 27.57100
H  -10.15500 19.19100 24.55000
H  -9.80100 19.79900 26.06600
H  -8.50500 18.79200 25.36900
H  -6.46300 24.79100 21.67000
H  -3.51400 25.16500 21.93100
H  -4.39400 22.55900 22.01200
H  -4.35100 23.30300 20.48500
H  -5.92500 22.64000 21.12700
H  -4.39700 27.62200 21.78600
H  -5.81800 26.91600 20.89700
H  -3.38600 25.81900 19.87100
H  -3.33300 27.58700 20.06900
H  -4.63300 26.93200 19.12400
H  -0.38700 28.68300 24.90600
H  -1.12400 29.84100 26.02900
H  -1.87300 29.50800 24.48000
H  -3.35700 28.20400 30.27700
H  -1.18000 27.44600 34.03900
H  0.09900 27.57500 32.96500
H  -0.86800 26.02200 33.30300

