158

Mg -2.50200 18.36800 27.28900
C  -2.65400 15.95300 29.72600
C  -2.86400 20.82600 29.83100
C  -2.60300 20.70000 24.82200
C  -2.84000 15.83000 24.74900
N  -2.53900 18.30400 29.56800
C  -2.61000 17.15300 30.35600
C  -2.68200 17.56400 31.85200
C  -3.03400 19.12800 31.84100
C  -2.79900 19.46100 30.32400
C  -4.46300 19.43300 32.25100
C  -1.43900 17.10800 32.65800
C  -1.13200 17.87800 33.99100
H  -0.54600 16.96000 35.08700
N  -2.58200 20.41200 27.33300
C  -2.69600 21.24900 28.46500
C  -2.56000 22.64700 27.98600
C  -2.48600 22.64500 26.57900
C  -2.57000 21.20500 26.20700
C  -2.60900 23.78600 28.98500
C  -2.40300 23.79800 25.57600
O  -2.28100 23.67000 24.37000
C  -2.48600 25.19900 26.09500
N  -2.86600 18.22000 24.99700
C  -2.79600 19.37700 24.27100
C  -2.80100 19.03500 22.76000
C  -2.86600 17.47600 22.73900
C  -2.78800 17.17200 24.22500
C  -3.84900 19.67200 21.82500
C  -1.88500 16.66300 21.86700
C  -0.53500 16.51600 22.57500
N  -2.59200 16.31900 27.16600
C  -2.70400 15.44100 26.11900
C  -2.82600 14.07700 26.68000
C  -2.83000 14.23600 28.04400
C  -2.75200 15.64400 28.32600
C  -2.87300 12.82600 25.84900
C  -2.87700 13.48900 29.27100
O  -3.04900 12.28800 29.57600
C  -2.76500 14.60800 30.36700
C  -1.63100 14.18700 31.18900
O  -0.41200 14.27500 30.92900
O  -2.13600 13.52000 32.25300
C  -1.12600 12.82100 33.08800
H  -2.98600 21.62000 30.57000
H  -2.67100 21.50900 24.09100
H  -2.86000 15.11000 23.92800
H  -3.46400 16.96900 32.32300
H  -2.40600 19.72900 32.49800
H  -4.86700 20.03400 31.43600
H  -4.50600 20.11900 33.09800
H  -5.12500 18.57900 32.39300
H  -0.59900 17.26200 31.98200
H  -1.70000 16.07000 32.86400
H  -2.06900 18.29400 34.36000
H  -0.30800 18.57400 33.83400
H  -1.77100 24.37300 28.61100
H  -2.34600 23.41800 29.97600
H  -3.47100 24.44700 28.89200
H  -1.71200 25.49100 26.80400
H  -3.43000 25.15000 26.63800
H  -2.61200 25.94600 25.31100
H  -1.77600 19.27800 22.47900
H  -3.89000 17.23100 22.46000
H  -4.43800 20.30800 22.48600
H  -4.52000 18.98500 21.31000
H  -3.35400 20.24900 21.04300
H  -1.80700 17.16100 20.90000
H  -2.37500 15.73200 21.58400
H  -0.47200 15.64300 23.22500
H  -0.31500 17.33900 23.25500
H  0.25400 16.42000 21.83000
H  -3.28000 12.97500 24.84900
H  -3.46700 12.12600 26.43700
H  -1.86400 12.42400 25.75100
H  -3.68400 14.56100 30.95000
H  -0.30600 13.50600 33.30400
H  -0.82300 11.83000 32.74900
H  -1.57400 12.78200 34.08100
Mg 35.68600 2.87900 30.41200
C  33.31900 4.11500 32.63500
C  37.81400 2.48800 33.04300
C  38.04600 1.75100 28.29600
C  33.55200 3.60100 27.73100
N  35.63700 3.46800 32.58400
C  34.54500 3.89400 33.26300
C  34.82100 3.72100 34.74900
C  36.35800 3.63000 34.80500
C  36.63000 3.13200 33.43000
C  37.07000 4.98100 35.04300
C  34.09100 2.52400 35.39500
C  33.76500 2.53700 36.82400
H  34.47100 3.68200 37.58700
N  37.65800 2.32100 30.65000
C  38.30500 2.16000 31.75100
C  39.59600 1.38100 31.54700
C  39.67200 1.20000 30.13700
C  38.43100 1.83400 29.62700
C  40.54200 0.86000 32.60100
C  40.65400 0.38900 29.32200
O  40.53700 0.16700 28.12100
C  41.76500 -0.33700 30.04900
N  35.84400 2.85600 28.23600
C  36.79800 2.10000 27.73100
C  36.55600 1.92200 26.17000
C  35.07600 2.46600 26.02100
C  34.75900 2.96300 27.41300
C  37.62200 2.51800 25.25100
C  34.03900 1.47100 25.49000
C  32.96500 2.04800 24.58600
N  33.79400 3.60100 30.20400
C  33.09200 3.86200 29.04200
C  31.78100 4.35600 29.48200
C  31.83400 4.50700 30.85600
C  33.08800 4.05900 31.24800
C  30.52800 4.56400 28.62400
C  31.02600 4.84700 32.05000
O  29.88800 5.24800 32.17700
C  32.07500 4.67000 33.28500
C  32.29700 6.01200 33.97500
O  33.14100 6.85200 33.61000
O  31.64300 6.08600 35.18900
C  31.65500 7.27300 35.96600
H  38.53700 2.36700 33.85300
H  38.70700 1.22600 27.60300
H  32.81000 3.82000 26.96000
H  34.43100 4.63300 35.20100
H  36.62900 2.86100 35.52900
H  36.50300 5.64700 35.69300
H  37.26200 5.43700 34.07200
H  38.03600 4.81400 35.52000
H  34.64800 1.63300 35.10400
H  33.10800 2.56000 34.92500
H  34.14900 1.64100 37.31200
H  32.74100 2.58100 37.19600
H  41.51400 1.34300 32.49700
H  40.60200 -0.22700 32.54600
H  40.10300 0.91000 33.59800
H  42.36300 -0.90600 29.33700
H  41.23500 -1.08200 30.64200
H  42.43100 0.29500 30.63700
H  36.49100 0.85200 25.97000
H  35.08300 3.38000 25.42800
H  38.46000 2.92700 25.81600
H  37.19300 3.27900 24.59900
H  38.00100 1.70000 24.63800
H  33.66300 1.01700 26.40700
H  34.50000 0.72600 24.84200
H  33.10700 1.63000 23.58900
H  32.91000 3.13500 24.52600
H  31.94800 1.79800 24.88600
H  29.72600 3.97200 29.06600
H  30.70100 4.28200 27.58500
H  30.16600 5.58500 28.74500
H  31.70600 4.01000 34.07100
H  30.61100 7.53000 36.14400
H  32.05100 8.14400 35.44400
H  32.19900 7.28800 36.91000

