158

Mg 30.48300 57.63700 39.75400
C  27.68800 55.62300 38.70500
C  32.50600 55.11800 38.58500
C  32.82700 59.90700 39.58200
C  28.08400 60.19000 40.08700
N  30.13200 55.59700 38.68600
C  28.89300 55.02000 38.39100
C  29.14600 53.54900 37.87800
C  30.64900 53.41700 38.14800
C  31.18700 54.75100 38.46600
C  31.18800 52.34000 39.02300
C  28.61400 53.14200 36.43200
C  29.00100 54.09500 35.27300
H  27.94400 54.29500 34.11700
N  32.47400 57.47200 39.39300
C  33.15700 56.37800 38.87600
C  34.55700 56.68900 38.76300
C  34.71000 58.08700 39.10300
C  33.32400 58.55400 39.37000
C  35.61600 55.75100 38.24700
C  36.11400 58.77400 39.25500
O  37.17900 58.20300 38.95500
C  36.27200 60.27200 39.61500
N  30.51000 59.80000 39.87200
C  31.60500 60.50600 39.77400
C  31.39100 62.04900 40.04400
C  29.86400 62.03600 40.37100
C  29.42000 60.62600 40.07900
C  32.27100 62.69300 41.10000
C  29.07000 63.12300 39.60200
C  28.05100 64.01000 40.39500
N  28.36600 57.85900 39.60800
C  27.53400 58.94700 39.74500
C  26.14000 58.52300 39.53700
C  26.20800 57.18600 39.20400
C  27.52800 56.91600 39.21600
C  24.96200 59.34900 39.72800
C  25.42400 56.03100 38.96100
O  24.23200 55.87200 39.12200
C  26.32500 54.92900 38.53600
C  26.11000 53.82800 39.45000
O  26.37000 53.81100 40.62200
O  25.67700 52.70100 38.66900
C  25.40400 51.48000 39.45400
H  33.13800 54.24600 38.40600
H  33.60600 60.66600 39.48000
H  27.30600 60.94600 40.20900
H  28.56400 52.94900 38.57800
H  31.01900 53.27300 37.13300
H  31.84100 52.82100 39.75100
H  31.69700 51.60900 38.39400
H  30.47200 51.74900 39.59300
H  27.53100 53.01900 36.41600
H  29.10100 52.20300 36.16800
H  29.90600 53.63400 34.87900
H  29.14900 55.06800 35.74200
H  36.57900 55.70400 38.75500
H  35.80200 55.91900 37.18600
H  35.17800 54.75400 38.26900
H  37.34200 60.44700 39.73300
H  35.87000 60.26400 40.62800
H  35.71800 60.94500 38.96200
H  31.50700 62.44200 39.03400
H  29.73600 62.26600 41.42800
H  33.12400 62.02400 41.21000
H  31.77700 62.69500 42.07100
H  32.55700 63.65300 40.67100
H  28.56400 62.67400 38.74600
H  29.78900 63.81700 39.16700
H  28.27600 64.06800 41.46000
H  27.11500 63.45600 40.31700
H  28.06700 64.99800 39.93500
H  25.30300 60.07800 40.46300
H  24.20300 58.78500 40.27000
H  24.67800 59.89400 38.82700
H  26.12500 54.68800 37.49300
H  26.30000 50.86200 39.49500
H  24.55100 51.01800 38.95600
H  25.18100 51.81100 40.46900
Mg 6.77100 54.76600 40.65100
C  6.09600 51.37000 40.20100
C  9.93800 54.24000 39.29700
C  6.99100 58.02500 40.27500
C  3.32800 55.20300 41.50200
N  7.80100 53.03700 39.72100
C  7.36600 51.75100 39.66700
C  8.43000 50.82600 38.96600
C  9.68400 51.62900 39.24500
C  9.15100 53.07600 39.51900
C  10.66400 51.10500 40.32900
C  8.18300 50.50900 37.47200
C  8.27000 49.01800 36.99400
H  7.22300 48.37900 36.06000
N  8.25500 55.98600 39.99800
C  9.50200 55.57300 39.55400
C  10.30100 56.74300 39.26400
C  9.61800 57.85800 39.68300
C  8.19800 57.32600 39.99500
C  11.73400 56.60800 38.67900
C  10.20600 59.28800 39.66600
O  11.36000 59.55300 39.27800
C  9.32000 60.46300 40.14200
N  5.26700 56.36200 40.53200
C  5.74600 57.61000 40.56200
C  4.66800 58.55700 41.12000
C  3.36100 57.70300 41.11600
C  4.00600 56.34500 41.02800
C  4.96500 59.13300 42.48600
C  2.45100 57.97400 39.90300
C  1.02600 58.48200 40.01700
N  4.98500 53.60700 40.82300
C  3.73400 53.90600 41.25500
C  3.09800 52.73300 41.44800
C  3.95800 51.62800 41.10600
C  5.10300 52.27400 40.67300
C  1.67500 52.71100 41.92700
C  4.13100 50.12200 41.03100
O  3.42400 49.18200 41.26300
C  5.59800 49.96500 40.43600
C  5.31800 49.00800 39.27000
O  4.62700 49.20000 38.30700
O  5.83400 47.75500 39.66000
C  5.36700 46.54600 38.86500
H  10.94500 53.94000 38.99700
H  7.06600 59.10600 40.41300
H  2.32300 55.27400 41.92400
H  8.37400 49.90200 39.54000
H  10.22700 51.65800 38.30100
H  11.39100 50.42500 39.88500
H  10.08800 50.41900 40.95000
H  11.05400 51.90000 40.96500
H  8.78300 51.05900 36.74800
H  7.17000 50.86100 37.28100
H  8.26200 48.45500 37.92800
H  9.17800 48.81500 36.42700
H  12.36200 57.48600 38.82800
H  11.70500 56.37600 37.61400
H  12.14400 55.74900 39.20900
H  9.83100 61.42600 40.11900
H  8.95500 60.32900 41.16000
H  8.54000 60.50500 39.38200
H  4.64600 59.44100 40.48300
H  2.85100 57.76800 42.07700
H  4.38200 58.76600 43.33000
H  4.82700 60.21200 42.41900
H  6.04700 59.01900 42.56100
H  2.49200 57.04000 39.34300
H  2.98700 58.54600 39.14600
H  0.94100 59.47000 39.56500
H  0.72300 58.46900 41.06400
H  0.33800 57.78500 39.53900
H  1.39900 52.84900 42.97300
H  1.20300 51.74400 41.75200
H  1.08800 53.38900 41.30800
H  6.28200 49.43300 41.09700
H  4.34400 46.34600 39.18500
H  5.99000 45.70300 39.16600
H  5.39700 46.70000 37.78700

