158

Mg -1.89800 17.09900 25.72600
C  -2.34300 14.80200 28.28100
C  -2.63100 19.67000 27.85600
C  -1.88900 19.23800 23.03900
C  -1.87500 14.28200 23.46200
N  -2.41000 17.21800 27.81400
C  -2.45800 16.17900 28.71300
C  -2.82600 16.65600 30.12700
C  -3.51300 17.99300 29.77200
C  -2.85000 18.42100 28.38400
C  -5.11100 17.88300 29.78400
C  -1.62300 16.78800 31.14800
C  -1.74000 15.97400 32.44100
H  -2.41500 16.67000 33.65300
N  -2.12200 19.20600 25.53200
C  -2.23000 20.08000 26.56000
C  -2.20700 21.38900 26.04900
C  -2.00600 21.30000 24.65500
C  -2.00800 19.87800 24.34600
C  -2.33900 22.61000 26.88100
C  -1.91700 22.35400 23.54900
O  -1.87600 22.09600 22.35900
C  -1.71700 23.79800 23.86300
N  -1.97300 16.73700 23.57500
C  -1.78700 17.85300 22.75100
C  -1.50500 17.34900 21.29600
C  -1.24500 15.84600 21.48500
C  -1.77300 15.58200 22.91900
C  -2.69200 17.67200 20.34500
C  0.24300 15.49400 21.12500
C  1.21200 16.17000 22.17800
N  -1.96200 14.96000 25.85500
C  -1.98600 13.95200 24.87200
C  -2.02400 12.70000 25.48600
C  -2.22000 12.98900 26.86700
C  -2.09100 14.34800 27.01700
C  -1.96600 11.43900 24.77500
C  -2.52900 12.39800 28.13300
O  -2.63900 11.24700 28.43800
C  -2.63800 13.60300 29.12800
C  -1.69900 13.39600 30.19000
O  -0.53300 13.64600 30.20200
O  -2.32800 12.69700 31.17600
C  -1.43000 12.25600 32.24200
H  -2.86900 20.50400 28.51900
H  -1.86200 19.77300 22.08800
H  -1.78100 13.60400 22.61100
H  -3.57800 15.98500 30.54300
H  -3.24200 18.79700 30.45600
H  -5.55300 17.69500 28.80500
H  -5.46400 18.80600 30.24400
H  -5.37800 17.07500 30.46500
H  -1.45600 17.83000 31.41800
H  -0.70700 16.53400 30.61400
H  -0.69600 15.80600 32.70700
H  -2.25900 15.03600 32.24400
H  -2.16100 22.46500 27.94700
H  -3.38000 22.91700 26.77500
H  -1.67500 23.41300 26.56100
H  -0.69400 23.77800 24.23800
H  -2.58800 23.99500 24.48800
H  -1.75600 24.39400 22.95200
H  -0.59900 17.89700 21.03700
H  -1.94200 15.37400 20.79200
H  -3.29500 16.77300 20.21200
H  -2.38000 18.10900 19.39600
H  -3.43500 18.36800 20.73400
H  0.54100 15.84900 20.13800
H  0.30200 14.40800 21.18600
H  1.84600 16.94300 21.74400
H  1.85100 15.41000 22.62600
H  0.72800 16.75500 22.96000
H  -2.97400 11.04400 24.65500
H  -1.33500 10.81600 25.40900
H  -1.47900 11.54000 23.80500
H  -3.69400 13.47900 29.36700
H  -0.71300 11.58700 31.76500
H  -1.96000 11.63700 32.96500
H  -0.85000 13.06300 32.69000
Mg 52.75100 24.28000 44.27300
C  49.86500 26.14000 44.01200
C  50.92000 21.38500 43.70700
C  55.63100 22.73000 43.44500
C  54.54800 27.34700 44.62100
N  50.62300 23.83100 43.70500
C  49.66200 24.68300 43.78800
C  48.28300 23.96800 43.74100
C  48.64100 22.48800 44.06900
C  50.11300 22.53200 43.83200
C  48.35200 22.03700 45.53900
C  47.44700 24.09100 42.42400
C  48.05700 23.45600 41.15600
H  47.92200 24.23200 39.78600
N  53.17600 22.32900 43.70800
C  52.28300 21.28600 43.66100
C  53.03000 20.09200 43.37700
C  54.37500 20.40100 43.24100
C  54.44600 21.87600 43.46500
C  52.31500 18.73300 43.41400
C  55.51700 19.42400 43.05000
O  55.28400 18.19200 43.10200
C  56.90100 19.81400 42.76500
N  54.77000 24.93900 43.77000
C  55.79700 24.06900 43.64800
C  57.21200 24.79100 43.66600
C  56.82800 26.30800 43.92100
C  55.28800 26.22600 44.09800
C  58.25300 24.09300 44.61700
C  57.25900 27.25300 42.84200
C  58.17000 28.31700 43.27700
N  52.32900 26.32300 44.46900
C  53.11800 27.41700 44.72300
C  52.18300 28.63400 44.93200
C  50.95400 28.17200 44.56000
C  51.08400 26.81000 44.28000
C  52.64900 30.01300 45.25100
C  49.55100 28.52300 44.49000
O  48.81400 29.45600 44.81100
C  48.83600 27.22800 44.03100
C  48.31900 27.58900 42.70100
O  48.82800 27.24600 41.62100
O  47.02700 28.08500 42.77900
C  46.28300 28.41300 41.56900
H  50.45000 20.40800 43.57500
H  56.56700 22.20700 43.23600
H  55.12100 28.27500 44.67000
H  47.69700 24.35100 44.57700
H  48.21100 21.84100 43.30500
H  48.94600 22.55700 46.29000
H  48.60800 20.97900 45.60700
H  47.30700 22.32300 45.65700
H  47.21200 25.15400 42.36600
H  46.49600 23.56400 42.49100
H  47.76200 22.41700 41.00700
H  49.13900 23.48700 41.28100
H  52.91600 17.87600 43.10900
H  51.45600 18.74900 42.74300
H  51.82200 18.51700 44.36100
H  57.52200 18.97100 42.46100
H  57.43300 20.32000 43.57000
H  56.83400 20.49900 41.92000
H  57.65000 24.71000 42.67000
H  57.25200 26.52100 44.90200
H  59.05500 23.61800 44.05200
H  57.82300 23.33300 45.27000
H  58.79400 24.85500 45.17700
H  56.35300 27.68400 42.41500
H  57.64600 26.67800 42.00100
H  57.70900 29.26000 42.98600
H  59.21600 28.33800 42.96900
H  58.13200 28.35400 44.36600
H  53.00300 30.55100 44.37200
H  53.38600 29.90300 46.04700
H  51.79600 30.59900 45.59400
H  48.08300 27.04100 44.79700
H  45.21700 28.26400 41.74000
H  46.53600 27.94200 40.61900
H  46.34800 29.47900 41.35000

