158

Mg 9.08100 3.76300 28.09700
C  10.55100 2.63300 31.04800
C  7.63700 6.29700 30.06700
C  7.38100 4.86100 25.40200
C  10.60800 1.23200 26.32600
N  8.99100 4.38300 30.36700
C  9.69000 3.75300 31.26800
C  9.48600 4.27300 32.70900
C  8.41900 5.33700 32.39700
C  8.33100 5.33900 30.86400
C  7.05300 5.13300 33.09800
C  10.79300 4.87100 33.32000
C  11.27000 4.34700 34.73400
H  11.81500 5.53200 35.64400
N  7.62300 5.24500 27.79900
C  7.20500 6.22100 28.69500
C  6.31600 7.15500 27.99600
C  6.18200 6.61400 26.69100
C  7.07000 5.51800 26.57600
C  5.52200 8.21500 28.67300
C  5.26100 7.07300 25.55000
O  5.04200 6.41100 24.59200
C  4.38100 8.27700 25.81300
N  8.68100 2.84800 26.19300
C  8.17500 3.67800 25.24500
C  8.65100 3.22500 23.79800
C  9.66600 2.15500 24.10800
C  9.67800 2.02700 25.64300
C  7.47100 2.86800 22.83800
C  11.14400 2.53900 23.57700
C  12.08400 1.33600 23.25900
N  10.21000 2.21300 28.57000
C  10.78900 1.26800 27.74400
C  11.60900 0.36000 28.55100
C  11.55200 0.87500 29.83200
C  10.68600 1.98400 29.85600
C  12.42800 -0.69300 28.03700
C  12.03000 0.63000 31.15700
O  12.83600 -0.27600 31.56000
C  11.40400 1.81500 32.06100
C  10.66900 1.17300 33.23500
O  9.48500 0.93700 33.31500
O  11.59500 0.68000 34.09600
C  11.10200 -0.02500 35.27400
H  7.15300 6.96100 30.78700
H  6.96600 5.15200 24.43500
H  11.19900 0.43000 25.87800
H  9.04100 3.48900 33.32200
H  8.75800 6.34400 32.64100
H  6.69800 6.14500 33.29500
H  7.32300 4.64400 34.03400
H  6.39100 4.57000 32.43900
H  10.75000 5.96000 33.34800
H  11.59200 4.58200 32.63700
H  12.00700 3.57900 34.50200
H  10.54100 3.68600 35.20200
H  4.49800 7.90300 28.88000
H  5.58000 9.10800 28.05100
H  6.03400 8.36000 29.62400
H  3.82100 8.55900 24.92000
H  4.91000 9.22800 25.85800
H  3.75200 8.12400 26.69000
H  9.16600 4.07300 23.34700
H  9.40700 1.15300 23.76500
H  6.53200 3.22900 23.25700
H  7.38900 1.78200 22.79200
H  7.58400 3.25800 21.82600
H  11.68500 3.19100 24.26300
H  11.02500 3.06000 22.62700
H  12.38600 1.46700 22.22000
H  11.67300 0.33700 23.40000
H  12.90200 1.38500 23.97800
H  12.46700 -1.51400 28.75300
H  13.35000 -0.33600 27.57900
H  11.80600 -1.11000 27.24500
H  12.26600 2.29800 32.52100
H  10.68000 -0.90300 34.78500
H  10.29100 0.59400 35.65800
H  11.90100 -0.34600 35.94300
Mg 36.56000 49.23600 25.78500
C  36.42000 47.14500 28.61900
C  35.50100 51.81400 27.73700
C  35.99300 50.99200 23.04700
C  36.91300 46.26100 23.88000
N  35.89100 49.41300 27.90900
C  36.01800 48.45700 28.87200
C  35.86600 49.09800 30.33200
C  35.34700 50.52800 29.96500
C  35.67100 50.65500 28.45600
C  33.83900 50.79600 30.22400
C  37.23300 49.04400 31.09900
C  37.11000 48.72300 32.63900
H  35.67200 48.64100 33.26900
N  35.96100 51.18900 25.45800
C  35.52000 52.04000 26.38400
C  35.00800 53.22000 25.78800
C  35.13500 53.02100 24.38700
C  35.73300 51.72200 24.22000
C  34.39500 54.37000 26.59800
C  34.71500 53.93400 23.27200
O  35.03300 53.64100 22.12900
C  33.92900 55.23900 23.64500
N  36.53200 48.73900 23.80400
C  36.41400 49.67200 22.85000
C  36.58700 49.04400 21.49200
C  36.89200 47.57600 21.76500
C  36.84400 47.54400 23.22800
C  35.36000 49.15600 20.52900
C  38.13600 46.96900 21.11200
C  39.45100 46.84500 21.86500
N  36.83400 47.11400 26.10300
C  36.92400 45.99600 25.24200
C  37.11100 44.79500 26.02300
C  36.96800 45.24900 27.33700
C  36.72300 46.63100 27.34900
C  37.12100 43.42500 25.56800
C  36.80800 44.74400 28.71800
O  36.85400 43.64400 29.20100
C  36.42200 45.98700 29.61800
C  35.11200 45.63300 30.16400
O  34.02600 45.80800 29.66500
O  35.35300 45.07300 31.40300
C  34.21400 44.65400 32.23700
H  35.29700 52.59100 28.47700
H  35.78900 51.51700 22.11200
H  36.92000 45.42200 23.18100
H  35.02200 48.57900 30.78600
H  35.99200 51.29700 30.38900
H  33.49100 49.93400 30.79400
H  33.34400 50.87400 29.25600
H  33.85800 51.69400 30.84200
H  37.71700 50.01700 31.02600
H  37.97300 48.38800 30.64000
H  37.69400 49.37200 33.29100
H  37.60100 47.76700 32.82100
H  34.42600 54.12200 27.65900
H  33.33700 54.49800 26.36900
H  35.00300 55.21600 26.27900
H  33.05500 55.03000 24.26300
H  33.71900 55.74000 22.70000
H  34.66900 55.94700 24.01900
H  37.44900 49.53300 21.03900
H  36.03500 46.92200 21.60500
H  35.67300 49.82100 19.72400
H  34.52300 49.58600 21.07800
H  35.19300 48.15500 20.13200
H  38.26600 47.52300 20.18200
H  37.84400 45.93400 20.93400
H  39.97600 47.68800 21.41700
H  39.98700 45.93200 21.60500
H  39.34900 46.94100 22.94600
H  36.83900 43.27800 24.52500
H  36.49300 42.83400 26.23500
H  38.16800 43.12600 25.62500
H  37.18700 46.02100 30.39400
H  34.58500 44.64400 33.26100
H  33.83400 43.67600 31.94300
H  33.43000 45.39800 32.09100

