158

Mg 9.21400 4.59300 27.28700
C  10.39700 2.78100 30.17900
C  7.26700 6.38900 29.45300
C  8.05700 6.09000 24.68600
C  10.64000 2.05100 25.35300
N  8.95500 4.66200 29.65800
C  9.60800 3.86900 30.60400
C  9.16800 4.29200 32.00400
C  7.99900 5.41000 31.78700
C  8.05300 5.55800 30.23200
C  6.56200 5.05400 32.28900
C  10.47000 4.84300 32.68200
C  10.88400 4.16100 34.04100
H  10.87300 4.91400 35.35600
N  7.80000 5.99500 27.05800
C  7.08600 6.66200 28.07700
C  6.18500 7.59600 27.48000
C  6.30800 7.46300 26.11300
C  7.45400 6.52200 25.88400
C  5.39900 8.43300 28.42300
C  5.51100 8.07400 25.03400
O  5.76300 8.00200 23.82800
C  4.27200 8.95800 25.48700
N  9.38000 4.15500 25.31600
C  8.91700 5.00600 24.34500
C  9.26200 4.47500 22.93100
C  10.07900 3.22900 23.23700
C  9.97700 3.11900 24.70000
C  8.06400 4.07000 22.03300
C  11.57800 3.28300 22.70500
C  11.80200 2.28300 21.58800
N  10.38900 2.79000 27.63000
C  10.76000 1.83000 26.71000
C  11.39300 0.73100 27.39300
C  11.26800 1.02000 28.77800
C  10.68600 2.28900 28.89100
C  12.01300 -0.51300 26.73900
C  11.61000 0.61600 30.14000
O  12.18500 -0.40500 30.50600
C  11.02400 1.70500 31.04500
C  10.09000 0.98700 32.04300
O  8.97700 0.63400 31.83400
O  10.66400 0.83600 33.27300
C  9.97200 0.09500 34.31800
H  6.69600 6.97400 30.17700
H  7.90600 6.59900 23.73200
H  11.03600 1.28200 24.68600
H  8.77400 3.33500 32.34700
H  8.15800 6.42200 32.15900
H  5.94000 5.94800 32.26100
H  6.57800 4.84000 33.35700
H  6.04700 4.29200 31.70400
H  10.45900 5.92200 32.84000
H  11.33100 4.85900 32.01400
H  11.91100 3.82500 33.89300
H  10.34200 3.22300 34.15800
H  4.46600 7.88900 28.57000
H  5.06700 9.39900 28.04400
H  6.00700 8.66300 29.29800
H  3.44800 8.46300 26.00100
H  3.87800 9.23200 24.50900
H  4.65400 9.87700 25.93100
H  9.99000 5.13200 22.45500
H  9.66100 2.30600 22.83500
H  7.63300 3.15600 22.44300
H  8.32100 3.83800 20.99900
H  7.38400 4.92100 21.98700
H  12.28600 3.01100 23.48800
H  11.91200 4.24500 22.31700
H  10.90800 2.36800 20.97100
H  11.97600 1.25200 21.89500
H  12.68500 2.60200 21.03500
H  12.03500 -0.39700 25.65600
H  11.51500 -1.44500 27.00500
H  13.05000 -0.56100 27.07100
H  11.86700 2.13100 31.59000
H  9.18300 -0.49600 33.85300
H  9.55000 0.83500 34.99800
H  10.71400 -0.54400 34.79600
Mg 52.93000 23.95500 45.64100
C  50.79000 26.47900 44.39500
C  51.05800 21.62400 44.14100
C  55.44800 21.99000 45.93500
C  54.84500 26.62800 46.92500
N  51.30800 24.10700 44.16700
C  50.60300 25.23700 43.80600
C  49.67600 24.82400 42.67900
C  49.32500 23.33000 43.08700
C  50.68500 22.98000 43.79500
C  48.13400 23.23100 44.08500
C  50.37300 24.84800 41.27300
C  49.51800 25.34800 40.11700
H  50.18900 26.06400 38.99000
N  53.24100 22.01200 45.12400
C  52.27900 21.20300 44.58100
C  52.80000 19.86700 44.64300
C  54.08400 19.91400 45.23500
C  54.28200 21.33300 45.47700
C  52.08900 18.63100 44.19500
C  54.90500 18.66200 45.58300
O  54.49400 17.50400 45.30100
C  56.29700 18.73900 46.22800
N  54.88700 24.28800 46.31300
C  55.73300 23.28000 46.39400
C  57.18400 23.75100 46.84900
C  56.82500 25.11000 47.40900
C  55.47500 25.43300 46.79300
C  57.76100 22.70000 47.89200
C  57.86000 26.34400 47.27300
C  58.12300 27.20200 48.58900
N  52.83200 26.07400 45.84800
C  53.58700 26.97100 46.52000
C  53.00800 28.28000 46.54800
C  51.93400 28.13700 45.61800
C  51.81300 26.78300 45.30100
C  53.59800 29.60600 47.10100
C  50.93200 28.90200 44.93400
O  50.80700 30.12700 44.85500
C  50.06700 27.80800 44.15700
C  49.88700 28.25600 42.74200
O  50.80700 28.64700 42.04200
O  48.59300 28.25300 42.45200
C  48.12600 28.66500 41.17100
H  50.42800 20.83700 43.72100
H  56.34500 21.38800 46.09200
H  55.49400 27.40200 47.34300
H  48.71600 25.32500 42.79600
H  49.11500 22.55000 42.35500
H  47.39700 23.89900 43.63900
H  48.47500 23.67700 45.01900
H  47.83800 22.18800 44.20100
H  50.76700 23.84300 41.12000
H  51.32500 25.35000 41.44600
H  48.67200 25.91600 40.50600
H  48.99000 24.48700 39.70800
H  52.81200 17.93300 43.77300
H  51.42600 19.02000 43.42300
H  51.50700 18.16700 44.99100
H  56.78200 17.77000 46.34200
H  56.14500 19.16200 47.22100
H  57.00500 19.18000 45.52700
H  57.86000 23.81000 45.99700
H  56.52900 25.00700 48.45200
H  56.92800 22.05800 48.17700
H  58.16800 23.29500 48.71000
H  58.56300 22.06200 47.52100
H  57.45600 26.99300 46.49500
H  58.80900 25.94100 46.92100
H  59.19400 27.29800 48.76700
H  57.68200 26.80700 49.50400
H  57.79500 28.20900 48.33100
H  53.02500 29.90800 47.97700
H  53.61400 30.38800 46.34200
H  54.61300 29.42200 47.45300
H  49.06500 27.82300 44.58600
H  47.92500 29.73200 41.27200
H  47.14800 28.22600 40.97200
H  48.82200 28.46800 40.35500

