158

Mg 48.52700 34.39000 27.12800
C  46.67700 33.23400 29.95700
C  48.98500 37.30000 29.06200
C  49.96400 35.81700 24.46300
C  47.53600 31.71300 25.38700
N  47.92000 35.13000 29.34800
C  47.35900 34.43000 30.33000
C  47.56500 35.10400 31.73100
C  47.70900 36.58800 31.30300
C  48.24000 36.36700 29.82800
C  46.34600 37.36000 31.43400
C  48.77600 34.47000 32.44300
C  48.65700 34.16900 33.96000
H  47.69500 35.06900 34.75700
N  49.33000 36.29700 26.79900
C  49.45700 37.35000 27.73400
C  50.24500 38.44800 27.18400
C  50.54100 38.00800 25.76800
C  49.96000 36.65600 25.60400
C  50.78900 39.56900 27.92900
C  51.35100 38.75800 24.72200
O  51.50600 38.27100 23.62900
C  52.03000 40.02300 25.00000
N  48.63100 33.88300 25.13400
C  49.40800 34.51800 24.28900
C  49.50500 33.73000 22.98000
C  48.73100 32.41200 23.29700
C  48.27100 32.68700 24.73300
C  48.92900 34.39100 21.76900
C  49.63500 31.15200 23.22100
C  50.72500 31.06200 24.38300
N  47.25600 32.88900 27.49900
C  47.06300 31.79300 26.72100
C  46.29600 30.79300 27.49500
C  46.07500 31.38300 28.71700
C  46.69200 32.65300 28.70400
C  45.88600 29.45300 26.99000
C  45.47600 31.16100 30.01200
O  44.87700 30.22400 30.44600
C  45.65400 32.43600 30.79400
C  46.01500 32.02500 32.19000
O  47.12200 31.59300 32.50500
O  44.98900 32.28500 33.08100
C  45.06400 32.00900 34.49000
H  49.29200 38.21600 29.57100
H  50.36000 36.25900 23.54700
H  47.44400 30.82700 24.75600
H  46.60100 34.88100 32.18800
H  48.56600 37.02400 31.81600
H  45.64400 36.89000 32.12300
H  45.94400 37.55800 30.44100
H  46.51300 38.35400 31.84900
H  49.65800 35.07400 32.23100
H  48.96800 33.52900 31.92800
H  49.69700 34.18800 34.28800
H  48.29200 33.17000 34.19900
H  50.47900 39.74300 28.96000
H  50.68800 40.45900 27.30800
H  51.86700 39.41000 27.95800
H  52.56000 40.34600 24.10400
H  52.74600 39.95500 25.81900
H  51.19200 40.66900 25.26500
H  50.48700 33.28300 22.82400
H  47.78200 32.28200 22.77600
H  48.91100 35.46400 21.96400
H  48.01300 33.97700 21.34600
H  49.66700 34.16100 21.00100
H  50.11800 31.23700 22.24800
H  48.98800 30.27800 23.29700
H  50.38400 30.29400 25.07800
H  50.90700 31.91700 25.03500
H  51.62500 30.70800 23.88100
H  46.32200 29.22600 26.01700
H  44.82000 29.56000 26.79400
H  46.19300 28.67900 27.69300
H  44.62600 32.79300 30.85400
H  44.16500 31.53300 34.88300
H  45.27200 32.95600 34.99000
H  45.91200 31.35500 34.69400
Mg -1.85200 34.77900 25.39400
C  -3.64500 33.34400 28.06500
C  -0.46300 36.81600 27.72200
C  -0.53900 36.59400 22.82900
C  -3.67400 32.84900 23.11900
N  -2.19400 35.15500 27.70300
C  -2.79800 34.32200 28.57400
C  -2.48500 34.56400 30.06700
C  -1.54800 35.82700 29.88400
C  -1.40600 35.98700 28.38000
C  -1.95600 37.15600 30.51100
C  -1.85900 33.34700 30.77700
C  -2.60200 32.76200 32.06800
H  -1.66900 32.61200 33.26900
N  -0.62300 36.38300 25.26400
C  -0.14100 37.07200 26.33600
C  0.84400 38.02300 25.85300
C  0.97100 37.91000 24.47000
C  -0.10900 36.95000 24.17200
C  1.64100 38.97000 26.80800
C  1.85300 38.66900 23.44500
O  1.61400 38.58000 22.22900
C  2.91500 39.69400 23.97500
N  -2.12200 34.75100 23.26200
C  -1.45500 35.55900 22.44100
C  -1.62700 35.13800 20.98200
C  -2.34700 33.71000 21.16700
C  -2.75300 33.75200 22.59000
C  -2.25400 36.17200 20.02600
C  -1.45900 32.35700 20.91500
C  -0.19800 32.26500 21.65400
N  -3.36400 33.45200 25.50300
C  -3.97200 32.67200 24.50600
C  -4.91800 31.81500 25.04300
C  -4.77200 31.97700 26.47800
C  -3.89200 33.03900 26.67400
C  -5.70000 30.66500 24.39900
C  -5.21800 31.51800 27.78900
O  -6.01000 30.66100 28.15500
C  -4.47700 32.35100 28.85600
C  -5.41300 33.03600 29.79700
O  -5.85800 34.15800 29.76500
O  -5.58500 32.14200 30.83600
C  -6.33300 32.70900 32.03700
H  0.27500 37.25600 28.39500
H  -0.13100 37.19300 22.01200
H  -4.20200 32.10100 22.52400
H  -3.41000 34.86900 30.55600
H  -0.62400 35.55900 30.39600
H  -2.27800 37.90400 29.78700
H  -1.15300 37.56300 31.12500
H  -2.77000 36.87300 31.17800
H  -0.85300 33.50300 31.16500
H  -1.80000 32.59000 29.99500
H  -3.20700 31.87300 31.88900
H  -3.30100 33.49100 32.47900
H  1.34900 39.99900 26.59800
H  2.70300 38.88600 26.57700
H  1.62300 38.83100 27.88900
H  3.26200 40.39000 23.21100
H  3.74100 39.20400 24.49100
H  2.32900 40.34600 24.62400
H  -0.64000 34.89500 20.58800
H  -3.30000 33.74900 20.64000
H  -3.13000 35.74900 19.53500
H  -1.57100 36.48600 19.23700
H  -2.66900 37.03000 20.55500
H  -1.19800 32.42300 19.85900
H  -2.12800 31.50900 21.06300
H  0.58400 32.25300 20.89500
H  -0.33200 31.36800 22.25800
H  -0.05300 33.11600 22.32000
H  -6.62400 31.00300 23.93000
H  -5.95600 29.91400 25.14600
H  -5.05000 30.20400 23.65400
H  -3.86800 31.61700 29.38300
H  -7.22200 33.32500 31.90400
H  -5.58900 33.30400 32.56900
H  -6.54700 31.85700 32.68200

