158

Mg 0.32200 7.47800 26.18900
C  1.29700 9.38300 28.79500
C  -0.01000 4.82500 28.25600
C  -0.30100 5.51400 23.47700
C  1.06000 10.14000 24.06300
N  0.54200 7.12600 28.25900
C  0.85700 8.07900 29.21200
C  0.62000 7.50600 30.63600
C  0.51100 6.03500 30.32300
C  0.18100 5.97800 28.87400
C  1.71200 5.14600 30.83500
C  -0.77900 8.05300 31.15300
C  -1.03500 7.91300 32.65800
H  0.17600 7.93500 33.56800
N  -0.15500 5.42700 25.88500
C  -0.27400 4.48300 26.89600
C  -0.67800 3.27000 26.29100
C  -0.88400 3.43300 24.92100
C  -0.38500 4.79500 24.66300
C  -0.77800 1.99500 27.06300
C  -1.32100 2.47400 23.82100
O  -1.30000 2.72800 22.63100
C  -1.76000 1.16300 24.17100
N  0.20100 7.82200 24.14300
C  0.01200 6.91000 23.24300
C  0.27400 7.30800 21.83500
C  0.29500 8.89700 21.97800
C  0.49800 8.97600 23.49600
C  1.56600 6.72500 21.26900
C  -0.96500 9.61800 21.40300
C  -0.64500 10.91000 20.66100
N  1.14300 9.38200 26.39700
C  1.41000 10.32200 25.39100
C  2.06300 11.42800 25.99000
C  1.98300 11.15500 27.37900
C  1.42300 9.86700 27.50300
C  2.51600 12.72000 25.34600
C  2.17100 11.71400 28.69900
O  2.54600 12.80200 29.08000
C  1.62700 10.64300 29.66900
C  2.59800 10.46700 30.74400
O  3.55000 9.64300 30.68200
O  2.37200 11.28400 31.78300
C  3.18500 11.10100 32.97600
H  -0.12400 3.97100 28.92600
H  -0.35600 4.97400 22.52900
H  1.34900 10.90600 23.34100
H  1.44700 7.90100 31.22500
H  -0.37700 5.64900 30.82300
H  1.23000 4.39600 31.46200
H  2.47200 5.77900 31.29300
H  2.28400 4.70400 30.02000
H  -1.50600 7.48500 30.57200
H  -0.78600 9.12000 30.92800
H  -1.63100 7.02200 32.85600
H  -1.61100 8.79400 32.94100
H  -0.27000 2.09300 28.02200
H  -0.25800 1.21500 26.50600
H  -1.78800 1.58400 27.06100
H  -2.03500 0.62700 23.26300
H  -2.64200 1.33700 24.78700
H  -1.00400 0.54500 24.65500
H  -0.61100 7.06200 21.24900
H  1.21300 9.24800 21.50500
H  1.96300 7.39800 20.50900
H  1.39600 5.78900 20.73800
H  2.23100 6.60000 22.12400
H  -1.52200 9.89500 22.29700
H  -1.51400 9.03000 20.66700
H  -0.73700 10.73000 19.59000
H  0.39100 11.24100 20.73800
H  -1.23100 11.71500 21.10400
H  3.26000 12.59400 24.56000
H  3.02200 13.41300 26.01800
H  1.55400 12.98600 24.90700
H  0.73800 11.09300 30.11100
H  2.87000 11.69600 33.83300
H  4.23900 11.34400 32.84200
H  3.09500 10.03500 33.18200
Mg 5.70700 54.10800 39.54100
C  5.91200 50.49400 39.47800
C  9.07200 54.22000 39.28100
C  5.48300 57.31500 38.52700
C  2.26900 53.68800 39.46800
N  7.23500 52.51100 39.28800
C  7.10400 51.12600 39.24100
C  8.49200 50.49100 39.26400
C  9.32800 51.68900 39.78200
C  8.51400 52.88500 39.44800
C  9.75200 51.69400 41.25600
C  9.03600 49.92400 37.92300
C  8.72800 50.78600 36.61900
H  8.02800 50.10500 35.45700
N  7.13100 55.65100 38.98400
C  8.45600 55.47200 39.03200
C  9.07400 56.72400 38.66300
C  8.05700 57.59300 38.39800
C  6.80000 56.86600 38.67500
C  10.64700 56.98600 38.68400
C  8.21800 59.03700 38.12100
O  9.33400 59.51700 37.82600
C  7.11000 60.05500 38.20300
N  4.06100 55.28300 38.97900
C  4.24300 56.69700 38.81700
C  2.94300 57.35100 38.87500
C  1.90400 56.19400 38.92800
C  2.76500 54.97000 39.23600
C  2.83700 58.41200 40.05100
C  1.09400 55.99600 37.56000
C  -0.32600 55.36700 37.64100
N  4.36600 52.44000 39.70800
C  3.01300 52.44300 39.66200
C  2.48000 51.07900 39.92800
C  3.59400 50.29400 39.93400
C  4.68100 51.14500 39.71300
C  1.04800 50.74200 40.13700
C  4.08000 49.00400 39.86500
O  3.43700 47.96900 39.93200
C  5.59700 49.02300 39.66800
C  5.89000 48.14200 38.46300
O  5.23400 48.15900 37.44100
O  6.84800 47.19800 38.81500
C  6.97400 46.18500 37.75900
H  10.13400 54.41400 39.44400
H  5.28100 58.19600 37.91400
H  1.18800 53.61300 39.60800
H  8.40100 49.68600 39.99400
H  10.17100 51.86900 39.11500
H  9.37300 52.65500 41.60300
H  10.82000 51.50300 41.36500
H  9.13900 50.90100 41.68400
H  8.70400 48.90900 37.70600
H  10.11400 49.86000 38.07400
H  9.67700 51.14300 36.21900
H  8.08800 51.64900 36.80000
H  10.91500 57.53100 37.77900
H  11.27600 56.09600 38.67200
H  10.88800 57.49000 39.62000
H  7.48300 61.07300 38.31200
H  6.53300 59.85100 39.10500
H  6.52600 59.94100 37.29000
H  2.93800 57.81900 37.89100
H  1.25600 56.15600 39.80300
H  3.84200 58.59000 40.43300
H  2.17300 58.05200 40.83700
H  2.37900 59.31400 39.64600
H  1.72500 55.29800 37.01100
H  1.09400 56.94200 37.01900
H  -1.05100 55.84800 36.98500
H  -0.71400 55.66000 38.61700
H  -0.32800 54.28200 37.53700
H  0.80600 50.81700 41.19700
H  0.89900 49.69200 39.88200
H  0.38100 51.40300 39.58400
H  6.11300 48.55800 40.50800
H  7.14700 46.72600 36.82900
H  6.06100 45.60100 37.63900
H  7.87700 45.59000 37.89600

