158

Mg 8.15500 3.26900 27.42100
C  9.52900 1.72700 30.23100
C  6.64200 5.48200 29.46600
C  6.83500 4.55600 24.74300
C  9.70700 0.73800 25.39900
N  8.00900 3.38100 29.65800
C  8.70400 2.74800 30.59000
C  8.43100 3.35200 31.97100
C  7.43600 4.54600 31.67100
C  7.31600 4.50100 30.16700
C  6.04700 4.55700 32.43400
C  9.65200 3.80500 32.89700
C  9.29500 4.66500 34.07400
H  9.87900 4.48800 35.47300
N  6.71400 4.71100 27.12900
C  6.23600 5.52300 28.08600
C  5.31600 6.48300 27.48400
C  5.43300 6.28800 26.11700
C  6.31600 5.15200 25.89400
C  4.54400 7.44400 28.31600
C  4.74200 7.05100 24.98700
O  4.81800 6.78200 23.76400
C  3.92600 8.25300 25.39300
N  8.27800 2.75100 25.39600
C  7.69500 3.49800 24.43000
C  7.90900 2.96700 23.02600
C  9.08900 1.98700 23.26700
C  9.02600 1.80100 24.74500
C  6.59000 2.51600 22.38900
C  10.46300 2.39900 22.71600
C  11.46100 2.99100 23.70300
N  9.21500 1.45200 27.67700
C  9.79600 0.57800 26.81600
C  10.58700 -0.41600 27.52200
C  10.43900 0.00300 28.85000
C  9.61400 1.15400 28.89500
C  11.47100 -1.51800 26.85400
C  11.05200 -0.17400 30.13500
O  11.93500 -0.94900 30.53400
C  10.51400 0.97800 31.04100
C  9.90400 0.34700 32.27200
O  8.96000 -0.48400 32.19800
O  10.61600 0.62500 33.41700
C  10.26700 -0.00700 34.65100
H  6.27700 6.29700 30.09500
H  6.37000 5.04100 23.88200
H  10.34000 0.21300 24.68000
H  7.91800 2.59500 32.56400
H  7.91800 5.48900 31.92600
H  5.27600 4.83600 31.71700
H  6.15000 5.40900 33.10600
H  5.82200 3.65500 33.00200
H  10.44200 4.20300 32.26000
H  10.03800 2.90200 33.36900
H  8.22800 4.57500 34.27700
H  9.56500 5.68100 33.78700
H  4.80400 8.50000 28.23100
H  4.63000 7.22500 29.38000
H  3.48100 7.42200 28.07400
H  3.63000 8.70900 24.44800
H  4.62600 8.98400 25.79600
H  3.11200 8.03000 26.08300
H  8.23000 3.84200 22.46100
H  8.84600 1.06500 22.73800
H  5.65600 2.56800 22.94800
H  6.74900 1.44400 22.27200
H  6.54200 2.96700 21.39800
H  10.14100 2.91300 21.81000
H  10.98100 1.49400 22.39900
H  12.27400 2.35200 24.04900
H  10.88900 3.38500 24.54300
H  11.89500 3.89300 23.27200
H  12.52300 -1.35800 27.09100
H  11.38500 -1.55700 25.76800
H  11.14900 -2.46500 27.28600
H  11.41200 1.47900 31.40400
H  9.61200 0.68100 35.18600
H  11.17700 -0.04900 35.24900
H  9.84300 -1.00600 34.55100
Mg 42.29600 41.35400 26.11100
C  41.55600 43.77200 28.53700
C  43.62900 39.43900 28.55400
C  43.51600 39.47500 23.68200
C  41.92000 44.00000 23.71900
N  42.48500 41.62200 28.34800
C  41.94400 42.59900 29.15000
C  41.97100 42.20900 30.67100
C  42.86300 40.98900 30.66500
C  43.01900 40.65700 29.11500
C  44.22500 41.20700 31.39800
C  40.55500 41.88200 31.23200
C  40.57500 41.51200 32.70600
H  39.90700 42.52000 33.67400
N  43.29200 39.65500 26.11700
C  43.77400 38.99200 27.22600
C  44.40500 37.83800 26.81800
C  44.41100 37.77700 25.38100
C  43.69100 38.98700 24.97700
C  45.04100 36.89400 27.84900
C  45.04600 36.78300 24.44100
O  45.14200 36.99400 23.24500
C  45.81000 35.49400 25.00100
N  42.48800 41.66900 23.97600
C  42.97700 40.67100 23.22000
C  42.87900 41.02300 21.73100
C  42.41400 42.47600 21.73400
C  42.18900 42.75900 23.22100
C  44.09900 40.74000 20.83700
C  41.10800 42.56400 20.89200
C  40.68500 43.92800 20.36500
N  41.64100 43.40600 26.06400
C  41.58700 44.34700 25.05100
C  41.24800 45.61900 25.51400
C  41.02700 45.37700 26.89100
C  41.38600 44.07800 27.15100
C  41.04600 46.85000 24.65100
C  40.70800 46.06300 28.16500
O  40.37400 47.21000 28.37200
C  40.96900 44.97100 29.24900
C  41.96800 45.53100 30.24400
O  43.16300 45.64800 30.01000
O  41.40600 45.61100 31.43300
C  42.31800 45.51100 32.59200
H  44.07300 38.84300 29.35400
H  43.60400 38.76800 22.85500
H  41.79100 44.86000 23.05900
H  42.51000 43.00400 31.18700
H  42.45000 40.09500 31.13300
H  44.21500 40.72100 32.37400
H  44.29300 42.27200 31.61600
H  45.02100 40.83900 30.75100
H  40.35100 40.97700 30.65900
H  39.80600 42.63100 30.97500
H  41.61400 41.59700 33.02300
H  40.18300 40.54400 33.02000
H  44.83900 35.86600 27.54900
H  44.56800 36.89300 28.83100
H  46.12600 37.00300 27.83900
H  46.48000 35.82900 25.79300
H  46.37900 35.09500 24.16200
H  45.20200 34.74900 25.51400
H  42.10500 40.37500 21.32000
H  43.18800 43.14400 21.35400
H  44.38400 41.52100 20.13200
H  43.89300 39.92400 20.14400
H  44.92600 40.49900 21.50500
H  40.33400 42.17000 21.55000
H  41.09800 41.81900 20.09600
H  41.23300 44.83300 20.62900
H  39.67100 44.27900 20.55700
H  40.89000 43.92500 19.29400
H  40.02100 46.94400 24.29400
H  41.82700 46.90000 23.89200
H  41.14200 47.71600 25.30600
H  40.07900 44.63900 29.78400
H  43.08400 46.27900 32.70000
H  42.85300 44.56300 32.55400
H  41.67900 45.57700 33.47300

