158

Mg 43.56300 4.29500 47.44400
C  41.32400 7.02100 47.08800
C  40.70800 2.27900 47.35700
C  45.52000 1.50400 47.22400
C  46.22700 6.34800 47.08200
N  41.31400 4.67100 47.28900
C  40.61700 5.85800 47.18400
C  39.05900 5.71300 47.32100
C  38.94500 4.22000 47.70600
C  40.39300 3.64800 47.45000
C  38.21200 3.83700 49.08500
C  38.21100 6.09700 46.04700
C  38.77700 5.62900 44.67300
H  39.14900 6.63100 43.55100
N  43.14200 2.17200 47.41700
C  41.93400 1.60100 47.23200
C  42.11200 0.19400 47.05500
C  43.50100 -0.14300 47.22800
C  44.10700 1.18000 47.24200
C  40.99900 -0.76700 46.84300
C  44.15500 -1.57900 47.32300
O  43.46500 -2.55800 47.31100
C  45.62600 -1.74900 47.48100
N  45.60700 3.94300 47.22200
C  46.19700 2.75300 47.23900
C  47.74600 2.81300 47.31700
C  47.91800 4.37200 47.24000
C  46.50300 4.95000 47.12300
C  48.41300 2.00100 48.48400
C  48.83200 4.94100 46.12900
C  50.12900 5.40400 46.63100
N  43.78100 6.31600 47.19000
C  44.92900 7.09600 47.09400
C  44.61600 8.52400 47.00400
C  43.25100 8.56100 47.05200
C  42.73900 7.19600 47.15400
C  45.61100 9.64300 46.84700
C  42.10400 9.49000 46.96500
O  42.04000 10.70400 47.03400
C  40.78100 8.50000 47.01900
C  40.00400 8.73500 48.21000
O  40.46000 8.60700 49.34400
O  38.70300 9.13400 47.84000
C  37.88900 9.57300 49.01600
H  39.82500 1.64400 47.44700
H  46.23800 0.69700 47.06200
H  47.06500 7.04300 46.99400
H  38.77700 6.36900 48.14400
H  38.34500 3.60900 47.03100
H  37.57000 4.70500 49.23300
H  38.90600 3.57900 49.88500
H  37.64600 2.91000 48.99500
H  38.19500 7.18600 46.02400
H  37.19400 5.77500 46.27200
H  38.00200 4.99400 44.24400
H  39.60600 4.93800 44.82500
H  40.74100 -1.24100 47.79000
H  41.38400 -1.61300 46.27300
H  40.21600 -0.22000 46.31700
H  46.06300 -1.09300 48.23300
H  46.00200 -1.70700 46.45800
H  45.75700 -2.78200 47.80400
H  48.13500 2.44200 46.36900
H  48.15700 4.77600 48.22400
H  47.84500 1.08300 48.63500
H  48.50900 2.55700 49.41700
H  49.35800 1.60700 48.10900
H  48.32400 5.78900 45.66900
H  49.03600 4.21100 45.34500
H  50.87800 5.53500 45.85000
H  50.62100 4.78900 47.38400
H  49.86400 6.39700 46.99500
H  46.50700 9.30800 46.32400
H  45.95200 10.13300 47.75900
H  45.23600 10.39400 46.15100
H  40.17400 8.74800 46.14800
H  38.41000 10.47600 49.33500
H  37.78700 8.93900 49.89700
H  36.87900 9.72800 48.63800
Mg 47.92200 34.19400 26.80600
C  46.14800 32.93000 29.60900
C  48.68600 37.00000 28.58200
C  48.91000 35.76600 23.92600
C  46.89100 31.50700 24.98300
N  47.49800 34.76100 28.85200
C  46.85000 34.08600 29.88200
C  46.97600 34.78400 31.18900
C  47.36700 36.22100 30.68300
C  47.94700 36.02700 29.26400
C  46.21600 37.27800 30.77800
C  48.02700 34.16800 32.19500
C  47.69700 34.36400 33.62400
H  46.71900 35.45300 34.08900
N  48.65800 36.13800 26.36900
C  48.99400 37.05400 27.27200
C  49.60100 38.21000 26.59900
C  49.60900 37.92900 25.17800
C  48.93900 36.57400 25.09100
C  50.09500 39.38400 27.31600
C  50.22500 38.71100 24.11100
O  50.24000 38.25200 22.95800
C  51.01500 39.98700 24.32500
N  47.80800 33.71200 24.73800
C  48.37900 34.46700 23.74600
C  48.40700 33.73000 22.45900
C  47.65000 32.37900 22.64800
C  47.47900 32.49500 24.19000
C  47.90500 34.52500 21.25200
C  48.49100 31.12300 22.30100
C  49.60600 30.67100 23.22500
N  46.84100 32.45000 27.21400
C  46.50500 31.42100 26.35700
C  45.80000 30.40900 27.08800
C  45.53300 31.02600 28.35500
C  46.23200 32.23900 28.41000
C  45.23800 29.16500 26.63200
C  44.78000 30.82600 29.53700
O  44.06600 29.84800 29.85500
C  45.03500 32.13700 30.40000
C  45.32300 31.74700 31.78700
O  46.33900 31.19200 32.15300
O  44.22600 32.19800 32.59600
C  44.38000 31.85300 34.03100
H  48.87900 37.85700 29.23100
H  49.56400 36.10400 23.11900
H  46.67100 30.58300 24.44400
H  45.96000 34.72600 31.57900
H  48.08900 36.58000 31.41700
H  45.28900 36.92000 31.22500
H  45.90000 37.48400 29.75500
H  46.50600 38.23100 31.22000
H  49.06500 34.47000 32.05000
H  48.12300 33.08300 32.17100
H  48.63200 34.60800 34.12900
H  47.22000 33.47300 34.03100
H  49.68800 40.27900 26.84700
H  51.18300 39.33600 27.26500
H  49.89000 39.43500 28.38600
H  51.29700 40.46500 23.38700
H  51.90300 39.70600 24.89200
H  50.53600 40.68500 25.01200
H  49.45900 33.51400 22.27100
H  46.77000 32.54900 22.02900
H  46.95200 34.11500 20.91900
H  48.75800 34.64700 20.58400
H  47.65100 35.53300 21.58000
H  48.90800 31.29800 21.31000
H  47.73500 30.35500 22.46300
H  49.92200 31.46600 23.90100
H  50.53800 30.39200 22.73300
H  49.30200 29.79100 23.79100
H  45.46100 28.44000 27.41500
H  45.64800 28.87200 25.66500
H  44.15800 29.26900 26.52600
H  44.08400 32.66900 30.41600
H  43.72400 31.01000 34.25000
H  44.01700 32.70900 34.60000
H  45.37100 31.59900 34.40700

