158

Mg 46.76400 24.64900 28.94200
C  47.47500 26.87600 31.37800
C  45.87100 22.36900 31.41900
C  46.72200 22.21100 26.63600
C  48.43900 26.73600 26.63900
N  46.87400 24.62400 31.19300
C  47.07300 25.72400 31.94800
C  46.56300 25.51200 33.44400
C  46.41900 23.88500 33.48900
C  46.37000 23.59400 31.94100
C  47.58100 23.10400 34.19600
C  45.22100 26.18600 33.69600
C  44.91100 26.85900 34.98400
H  45.66700 26.50600 36.22700
N  46.27200 22.67500 29.03300
C  45.78600 21.91300 30.10400
C  45.30700 20.60400 29.67800
C  45.52700 20.52400 28.23200
C  46.20300 21.84900 27.90000
C  44.61800 19.60900 30.63500
C  45.23000 19.42200 27.24100
O  45.35300 19.45900 26.02100
C  44.67600 18.18400 27.75400
N  47.64100 24.51300 26.93800
C  47.39800 23.31800 26.20100
C  47.77900 23.50400 24.70200
C  48.26600 24.98500 24.67200
C  48.07500 25.46900 26.15600
C  48.79700 22.40400 24.18600
C  47.75800 25.85300 23.52000
C  46.70100 27.00500 23.80500
N  47.64400 26.51700 28.94400
C  48.29600 27.21500 27.91800
C  48.63400 28.48600 28.41300
C  48.36400 28.40400 29.75300
C  47.74000 27.16400 30.03100
C  49.28600 29.51800 27.60300
C  48.45900 29.09900 30.99000
O  48.78900 30.27200 31.20600
C  47.87400 28.14600 32.13400
C  48.97700 27.87800 33.15500
O  50.00400 27.25400 32.90600
O  48.68200 28.56400 34.30700
C  49.66900 28.35000 35.39600
H  45.50300 21.63000 32.13300
H  46.50900 21.54300 25.79900
H  48.80500 27.32400 25.79500
H  47.38300 25.75900 34.11900
H  45.53900 23.45800 33.97000
H  47.79700 22.13100 33.75400
H  47.29100 22.90100 35.22600
H  48.44900 23.76300 34.23000
H  44.41800 25.48900 33.45500
H  45.06200 27.05000 33.05200
H  43.92200 26.52800 35.30000
H  44.91200 27.93900 34.83700
H  44.20700 20.12400 31.50400
H  45.32600 18.87100 31.01100
H  43.82000 18.98400 30.23400
H  45.23000 17.94500 28.66200
H  44.47900 17.37400 27.05200
H  43.69400 18.50500 28.10200
H  46.87900 23.50900 24.08800
H  49.33800 24.89700 24.49300
H  48.46400 21.77400 23.36100
H  48.98000 21.70000 24.99700
H  49.72300 22.85600 23.83200
H  47.26800 25.22600 22.77500
H  48.64400 26.33300 23.10500
H  47.07800 27.97600 23.48600
H  46.39100 27.01900 24.84900
H  45.79300 26.85400 23.22100
H  48.84600 29.54000 26.60500
H  50.33000 29.22700 27.48800
H  49.12700 30.50400 28.04100
H  46.99800 28.53900 32.65000
H  50.48200 29.07300 35.33500
H  49.99800 27.31800 35.51600
H  49.16000 28.62400 36.32000
Mg -6.09700 25.44500 25.85600
C  -4.41600 26.87400 28.60600
C  -7.19600 22.99400 28.00900
C  -6.82100 23.48500 23.16300
C  -4.25100 27.65200 23.80200
N  -5.77300 25.03500 28.09000
C  -5.28800 25.89000 29.02600
C  -5.62100 25.50900 30.43700
C  -6.27300 24.06800 30.18800
C  -6.41200 24.00800 28.63900
C  -5.41700 22.85300 30.81500
C  -6.67500 26.44800 31.09900
C  -6.64900 26.72000 32.62500
H  -5.84400 25.78400 33.53700
N  -6.95200 23.58900 25.65200
C  -7.46000 22.79300 26.65000
C  -8.21000 21.69500 26.10000
C  -8.03700 21.75200 24.69400
C  -7.20800 22.98200 24.48100
C  -8.94000 20.63200 26.90400
C  -8.44800 20.80500 23.59300
O  -8.19500 21.01200 22.44900
C  -9.26200 19.46000 23.86800
N  -5.52400 25.49600 23.74600
C  -6.04100 24.64800 22.84000
C  -5.58700 24.98000 21.45300
C  -4.99100 26.45500 21.60300
C  -4.88500 26.54800 23.14400
C  -4.55300 23.89500 20.87100
C  -5.81500 27.66500 21.01300
C  -5.01200 28.50700 19.92400
N  -4.67500 27.00300 26.10700
C  -4.04200 27.80000 25.17300
C  -3.27600 28.83600 25.83600
C  -3.42700 28.53300 27.16400
C  -4.17700 27.37700 27.28800
C  -2.43500 29.97000 25.20300
C  -2.92200 28.95600 28.54000
O  -2.17700 29.82700 28.92100
C  -3.58500 27.82800 29.47900
C  -2.44700 27.06000 30.01800
O  -1.64300 26.42100 29.39000
O  -2.38200 27.07100 31.41700
C  -1.27600 26.47400 32.18300
H  -7.53700 22.20100 28.67800
H  -6.95200 22.89300 22.25500
H  -3.78200 28.33200 23.08700
H  -4.69500 25.42500 31.00600
H  -7.30400 24.06900 30.54000
H  -4.78100 22.26000 30.15800
H  -6.18600 22.21300 31.24800
H  -4.87000 23.33300 31.62700
H  -7.71900 26.31600 30.81300
H  -6.50000 27.42800 30.65500
H  -7.65800 26.89500 32.99700
H  -6.18700 27.69700 32.76800
H  -8.26700 19.79400 27.08900
H  -9.84600 20.22100 26.45800
H  -9.21900 21.09900 27.84900
H  -8.69400 18.80600 24.53000
H  -9.37600 18.76900 23.03200
H  -10.21000 19.65700 24.36800
H  -6.38200 25.07300 20.71400
H  -3.97600 26.49800 21.20600
H  -4.22400 23.46400 21.81700
H  -3.73400 24.29700 20.27500
H  -5.05500 23.14000 20.26700
H  -6.12100 28.22700 21.89500
H  -6.60700 27.22600 20.40600
H  -5.66400 29.24800 19.46100
H  -4.40900 27.85400 19.29300
H  -4.28900 29.11800 20.46500
H  -1.96500 29.55800 24.31000
H  -1.85200 30.62400 25.85000
H  -3.24400 30.60100 24.83300
H  -4.22800 28.17900 30.28600
H  -0.99900 25.51400 31.74500
H  -1.76800 26.23500 33.12600
H  -0.46600 27.14500 32.46400

