158

Mg 34.68600 2.81700 29.84900
C  32.20700 3.78000 32.18400
C  36.95800 2.59900 32.46000
C  37.07400 1.98400 27.62500
C  32.36300 3.29600 27.28400
N  34.59000 3.30300 32.01600
C  33.46300 3.53500 32.80700
C  33.78600 3.55500 34.31100
C  35.31400 3.32700 34.32600
C  35.61600 2.98700 32.83300
C  36.20500 4.35600 35.03400
C  33.05700 2.49800 35.10900
C  33.00100 2.52700 36.64200
H  33.86700 3.48400 37.39100
N  36.68000 2.42700 30.00300
C  37.46000 2.36600 31.22100
C  38.82600 1.98000 30.82400
C  38.92500 1.74200 29.47400
C  37.54000 2.07100 28.95000
C  39.94700 1.82800 31.79000
C  40.04200 1.37200 28.61300
O  39.81200 1.06200 27.46800
C  41.50300 1.32000 29.15000
N  34.71200 2.81200 27.74800
C  35.78500 2.28400 27.07500
C  35.34400 1.99200 25.55100
C  33.94700 2.59200 25.44500
C  33.65200 2.95600 26.90400
C  36.36300 2.57800 24.45600
C  32.98200 1.68900 24.55000
C  32.04600 0.78900 25.31100
N  32.65100 3.38700 29.69700
C  31.86500 3.52500 28.59000
C  30.56200 3.99700 29.02700
C  30.62400 4.16500 30.42000
C  31.96200 3.79000 30.77500
C  29.27900 4.02200 28.20000
C  29.92700 4.52900 31.60200
O  28.80000 5.03500 31.75800
C  30.86500 4.19200 32.85800
C  31.02000 5.47300 33.59100
O  31.44900 6.56100 33.09900
O  30.77900 5.21900 34.89000
C  31.06600 6.25100 35.90700
H  37.64800 2.51200 33.30300
H  37.79500 1.65600 26.87400
H  31.68500 3.52300 26.45800
H  33.51900 4.51600 34.75100
H  35.52700 2.45600 34.94500
H  36.79900 4.91200 34.30900
H  36.84300 3.86900 35.77200
H  35.67300 5.01200 35.72300
H  33.63400 1.62700 34.79700
H  32.05500 2.44300 34.68400
H  33.02200 1.52900 37.08100
H  31.99200 2.83400 36.91500
H  40.31300 0.80100 31.77800
H  39.62300 2.11300 32.79000
H  40.74600 2.52400 31.53600
H  41.69200 2.33400 29.50400
H  42.21900 1.04200 28.37600
H  41.64000 0.65300 30.00000
H  35.28400 0.90400 25.54700
H  34.06300 3.60100 25.05100
H  36.95000 3.47000 24.67800
H  35.84800 2.83000 23.52900
H  37.07900 1.77600 24.27700
H  33.46200 1.00600 23.85000
H  32.45200 2.41700 23.93600
H  31.06400 1.12600 24.97900
H  32.20900 0.80600 26.38900
H  32.05600 -0.22800 24.91900
H  29.59000 3.52700 27.28000
H  28.97800 5.06800 28.14400
H  28.55600 3.43900 28.77000
H  30.43700 3.46500 33.54800
H  31.98900 5.95700 36.40600
H  30.35600 6.27800 36.73400
H  31.21500 7.23600 35.46500
Mg 36.58100 49.21300 25.55000
C  36.49400 47.24900 28.52700
C  35.25800 51.84700 27.41700
C  36.32200 50.98700 22.68700
C  37.45300 46.36700 23.81400
N  35.88100 49.42000 27.64600
C  36.14700 48.55200 28.70000
C  35.96200 49.29000 30.06300
C  35.31500 50.65400 29.69800
C  35.50800 50.64200 28.18600
C  33.84100 50.86300 30.10300
C  37.32500 49.46400 30.92900
C  37.20200 49.65500 32.48200
H  35.81300 49.70000 33.01000
N  35.93400 51.16200 25.09600
C  35.43400 52.10200 25.99300
C  35.33300 53.35200 25.28800
C  35.65300 53.15800 23.90800
C  36.05900 51.73800 23.84000
C  34.87200 54.55000 26.00100
C  35.80200 54.24000 22.72600
O  36.19600 53.89600 21.64100
C  35.64200 55.72000 22.86500
N  36.66900 48.66100 23.52300
C  36.63700 49.64100 22.50900
C  36.99500 49.03300 21.16500
C  37.57600 47.66700 21.67300
C  37.23200 47.54500 23.04700
C  35.77800 49.14600 20.15300
C  39.10900 47.55300 21.31300
C  40.16600 48.34400 22.06100
N  36.86500 47.14300 26.01700
C  37.24700 46.14200 25.17600
C  37.59900 44.99900 26.04000
C  37.31800 45.38500 27.36800
C  36.82300 46.67000 27.31100
C  38.28400 43.77200 25.66800
C  37.29300 44.89900 28.71900
O  37.74500 43.83800 29.25700
C  36.65100 46.07200 29.51400
C  35.25700 45.80000 30.01600
O  34.28700 45.72500 29.31000
O  35.24200 45.83900 31.39500
C  33.94400 45.37600 31.97300
H  34.87100 52.67000 28.02100
H  36.27500 51.48900 21.71800
H  37.87700 45.41000 23.50500
H  35.30800 48.69000 30.69600
H  35.91000 51.48900 30.06700
H  33.81100 51.78600 30.68300
H  33.50800 50.03100 30.72300
H  33.14800 50.98300 29.27000
H  37.90100 50.29900 30.53100
H  37.92900 48.56500 30.80700
H  37.84900 50.47600 32.79000
H  37.66000 48.79100 32.96400
H  35.63400 55.30600 26.19400
H  34.33500 54.37600 26.93300
H  34.11000 55.06600 25.41700
H  35.16800 56.19100 23.72600
H  35.04100 56.00300 22.00100
H  36.66600 56.08600 22.79300
H  37.86300 49.58100 20.79800
H  37.03400 46.81700 21.25800
H  35.67300 48.17800 19.66400
H  36.03900 49.88800 19.39800
H  34.92400 49.46200 20.75200
H  39.04500 47.74000 20.24100
H  39.27500 46.48000 21.40300
H  39.82100 49.13800 22.72400
H  40.93100 48.75600 21.40200
H  40.71700 47.65100 22.69700
H  38.80100 43.97500 24.73100
H  37.58200 42.94200 25.59000
H  39.14000 43.58100 26.31600
H  37.19200 46.47000 30.37200
H  33.85400 45.71800 33.00400
H  34.02000 44.29200 32.05500
H  33.10300 45.74100 31.38300

