158

Mg 7.34700 1.62300 27.49600
C  8.75800 0.16300 30.59600
C  5.51200 3.54300 29.56100
C  5.72700 2.42100 24.91400
C  9.08300 -1.02500 25.90800
N  7.25600 1.77400 29.83500
C  7.92600 1.24800 30.86500
C  7.58600 1.86400 32.22900
C  6.47400 2.88000 31.79600
C  6.35700 2.72900 30.30800
C  5.11100 2.65500 32.45700
C  8.82100 2.60000 32.94300
C  8.48900 3.03400 34.42100
H  9.45300 2.54800 35.50200
N  5.89500 2.96800 27.20400
C  5.23200 3.67000 28.18100
C  4.24700 4.53700 27.51000
C  4.34800 4.26500 26.12700
C  5.29200 3.13900 26.02000
C  3.31200 5.58100 28.21500
C  3.57700 4.86600 24.99200
O  3.73200 4.45300 23.82400
C  2.57200 5.93100 25.28100
N  7.17600 0.62200 25.70700
C  6.57800 1.35700 24.72800
C  6.94100 0.65200 23.37400
C  8.09200 -0.31700 23.69200
C  8.20200 -0.21200 25.19500
C  5.74900 -0.10600 22.76600
C  9.48100 -0.05100 23.02900
C  10.43000 0.99500 23.71000
N  8.70700 -0.10100 28.01500
C  9.28800 -1.05800 27.25400
C  10.09300 -1.96900 28.10200
C  9.90700 -1.47700 29.43800
C  9.00600 -0.39500 29.27400
C  10.92900 -3.13600 27.53800
C  10.29000 -1.65100 30.80600
O  11.07800 -2.43100 31.32100
C  9.54700 -0.59100 31.58500
C  8.77100 -1.25700 32.69300
O  7.68700 -1.87200 32.63000
O  9.44500 -1.08900 33.91300
C  9.13800 -1.75900 35.15000
H  4.89800 4.23100 30.14600
H  5.21900 2.75900 24.00900
H  9.46600 -1.80100 25.24200
H  7.16500 1.07300 32.84900
H  6.81600 3.90900 31.90300
H  5.38200 2.20100 33.41000
H  4.51300 2.00600 31.81600
H  4.44600 3.51600 32.52700
H  9.02000 3.46600 32.31200
H  9.76700 2.06300 32.87400
H  7.47400 2.64400 34.48400
H  8.39800 4.12000 34.38000
H  3.66800 5.60500 29.24500
H  2.27100 5.25900 28.22900
H  3.63100 6.55900 27.85500
H  3.06700 6.78800 25.73800
H  1.82500 5.47800 25.93200
H  2.15600 6.19800 24.30900
H  7.32200 1.36000 22.63800
H  7.75100 -1.30000 23.36800
H  4.93800 -0.09300 23.49400
H  5.93100 -1.10900 22.38000
H  5.40800 0.40900 21.86700
H  9.34400 0.27300 21.99800
H  9.98000 -1.01600 22.93700
H  9.90500 1.50700 24.51600
H  10.70900 1.79800 23.02800
H  11.37000 0.50600 23.96900
H  11.27200 -2.93500 26.52400
H  10.49900 -4.13700 27.54200
H  11.81600 -3.16000 28.17000
H  10.29400 -0.01800 32.13300
H  8.43600 -2.56200 34.92400
H  8.70700 -1.03600 35.84300
H  10.00800 -2.14400 35.68200
Mg 47.62700 25.38300 27.97100
C  48.19500 27.75100 30.32400
C  46.47000 23.24900 30.29500
C  46.66700 23.50700 25.43800
C  49.03500 27.62200 25.48200
N  47.40700 25.51700 30.06600
C  47.62900 26.59900 30.89000
C  47.26300 26.32500 32.32700
C  46.73300 24.88000 32.31600
C  46.85100 24.52200 30.78700
C  47.26100 23.87300 33.31300
C  46.19600 27.29300 32.79700
C  45.46800 27.11100 34.13700
H  45.34000 28.34200 35.07100
N  46.82100 23.60700 27.85900
C  46.46700 22.82500 28.91700
C  45.97000 21.58100 28.38900
C  45.72800 21.78400 27.00900
C  46.40200 23.00100 26.74900
C  45.56200 20.42200 29.25300
C  44.85800 21.02900 26.06700
O  44.80400 21.30600 24.86100
C  44.07700 19.77500 26.38100
N  47.95600 25.55500 25.73400
C  47.36600 24.60200 24.94600
C  47.84700 24.81800 23.48000
C  48.43600 26.17200 23.48000
C  48.42500 26.51800 24.94700
C  48.89400 23.75200 23.03200
C  47.79800 27.33900 22.66000
C  48.75200 28.11900 21.67400
N  48.42900 27.25300 27.83500
C  49.01000 28.02700 26.81200
C  49.45800 29.27800 27.42500
C  49.17300 29.15400 28.78400
C  48.53200 27.96100 28.96000
C  50.11900 30.37100 26.75500
C  49.30800 29.89800 29.99900
O  49.84500 30.96900 30.28300
C  48.55400 29.00200 31.01500
C  49.60900 28.69600 32.08500
O  50.46500 27.82000 32.07200
O  49.50700 29.61700 33.04200
C  50.26500 29.24100 34.28600
H  46.10400 22.52000 31.02100
H  46.44100 22.88900 24.56700
H  49.46700 28.42000 24.87500
H  48.16700 26.32300 32.93700
H  45.65900 24.89900 32.50300
H  47.78500 23.11100 32.73500
H  46.41200 23.38700 33.79300
H  47.76600 24.42000 34.10900
H  45.39500 27.43600 32.07300
H  46.62800 28.29200 32.85500
H  45.96200 26.37500 34.77100
H  44.55200 26.63400 33.78700
H  44.47400 20.39700 29.30100
H  45.96200 20.56200 30.25800
H  46.00700 19.63200 28.64800
H  43.42500 19.95500 27.23700
H  44.70600 18.89300 26.50200
H  43.30200 19.57300 25.64200
H  46.98000 24.72200 22.82800
H  49.48800 26.13400 23.20000
H  49.87700 23.92900 23.46900
H  48.82500 23.50700 21.97200
H  48.51800 22.86100 23.53500
H  47.32600 28.00300 23.38400
H  47.02900 26.92500 22.00800
H  48.45700 29.16300 21.77800
H  48.64800 27.80500 20.63600
H  49.80000 27.90100 21.88000
H  51.17600 30.11300 26.68000
H  49.97700 31.32000 27.27100
H  49.74100 30.48500 25.73900
H  47.76700 29.59900 31.47500
H  51.28000 28.86100 34.17000
H  49.58200 28.52300 34.74000
H  50.32300 30.09100 34.96600

