158

Mg 26.12000 1.07400 29.27400
C  28.08700 0.54700 32.03300
C  23.39200 1.56200 31.12100
C  24.20500 0.95000 26.36300
C  28.89800 -0.07000 27.30200
N  25.82200 1.06500 31.35100
C  26.73700 0.88400 32.29200
C  26.12200 0.96200 33.76200
C  24.58600 1.07600 33.36800
C  24.55600 1.22000 31.84400
C  23.71800 -0.03400 33.97900
C  26.66900 2.12100 34.68400
C  26.61800 1.91500 36.15600
H  27.04800 3.09100 37.11300
N  24.15000 1.42200 28.80200
C  23.19600 1.69900 29.72600
C  21.91800 1.93400 29.06500
C  22.15700 1.80500 27.66700
C  23.54000 1.34800 27.53400
C  20.67400 2.38100 29.84500
C  21.18800 1.85000 26.54400
O  21.42800 1.47300 25.40300
C  19.75600 2.16200 26.97200
N  26.44900 0.44800 27.11100
C  25.53300 0.54400 26.14700
C  26.19600 0.16500 24.77800
C  27.73600 0.19000 25.09400
C  27.70500 0.21300 26.63400
C  25.65400 -1.10400 24.08100
C  28.60800 1.33800 24.50800
C  29.78000 0.89300 23.66600
N  28.14100 0.32800 29.52500
C  29.09300 0.04800 28.68900
C  30.23000 -0.29600 29.38800
C  29.98100 -0.11200 30.74400
C  28.63600 0.31300 30.78100
C  31.49300 -0.60900 28.76200
C  30.43900 -0.06800 32.12500
O  31.53500 -0.25500 32.56500
C  29.20100 0.41500 32.99800
C  28.94300 -0.50700 34.16100
O  28.24700 -1.51100 34.21900
O  29.60700 -0.06300 35.31700
C  29.33500 -0.84200 36.56000
H  22.46400 1.62000 31.69300
H  23.69500 1.02100 25.40000
H  29.68400 -0.31400 26.58400
H  26.33900 0.05400 34.32500
H  24.15700 1.98600 33.78700
H  23.10100 -0.42400 33.17000
H  23.05700 0.48200 34.67600
H  24.28500 -0.86600 34.39600
H  25.90000 2.89000 34.61000
H  27.55100 2.53800 34.19800
H  27.19200 1.01000 36.35200
H  25.61300 1.58500 36.41600
H  20.87700 2.79900 30.83000
H  20.00000 1.53300 29.96900
H  20.23900 3.28400 29.41600
H  19.01200 2.17600 26.17600
H  19.72100 3.12600 27.48100
H  19.50700 1.35300 27.65800
H  25.86200 1.03800 24.21700
H  28.21000 -0.72700 24.74600
H  26.45300 -1.50100 23.45500
H  24.79300 -0.89600 23.44500
H  25.45400 -1.88300 24.81500
H  28.87200 1.90300 25.40200
H  28.01800 1.94000 23.81700
H  30.10700 -0.14100 23.77600
H  30.67600 1.48000 23.86800
H  29.54300 1.03700 22.61100
H  31.58600 0.02300 27.87900
H  31.56800 -1.60700 28.33300
H  32.38200 -0.34500 29.33500
H  29.35400 1.46200 33.25900
H  28.83400 -1.79700 36.40100
H  28.85000 -0.27800 37.35700
H  30.32600 -1.06300 36.95600
Mg 30.21400 58.95200 39.60500
C  27.76200 56.53000 39.16700
C  32.54200 56.61800 38.64500
C  32.53900 61.39300 39.59000
C  27.71800 61.27400 40.24300
N  30.09200 56.80100 39.01000
C  28.98500 56.00600 38.86500
C  29.29600 54.71700 38.34200
C  30.90400 54.66300 38.39300
C  31.19300 56.11700 38.74000
C  31.51000 53.71100 39.37300
C  28.75500 54.78500 36.86500
C  27.93500 53.54800 36.55100
H  27.41500 53.48100 35.09800
N  32.30400 58.95200 39.27100
C  33.07300 57.91400 38.89500
C  34.45000 58.27100 38.64800
C  34.46300 59.70700 38.76300
C  33.11700 60.06800 39.29500
C  35.51500 57.20900 38.29400
C  35.63700 60.50300 38.41800
O  36.68000 59.98800 37.91900
C  35.63300 61.97300 38.69400
N  30.14800 60.94700 39.88300
C  31.25600 61.73800 39.90200
C  30.88900 63.22900 40.10900
C  29.39300 63.17600 40.38800
C  29.05800 61.68500 40.07600
C  31.58200 63.96700 41.26400
C  28.58300 64.26000 39.51700
C  27.94900 65.37000 40.34100
N  28.11400 58.98600 39.79500
C  27.26600 59.96900 40.08800
C  25.94100 59.44300 40.29700
C  26.08300 58.09300 39.85400
C  27.41800 57.87500 39.55300
C  24.74000 60.26200 40.61900
C  25.34200 56.88200 39.49700
O  24.19300 56.60400 39.51300
C  26.43700 55.82300 39.14100
C  26.51000 54.84500 40.25700
O  26.81100 55.13500 41.38800
O  25.99500 53.66600 39.82400
C  26.07100 52.63700 40.87200
H  33.15300 55.89200 38.10400
H  33.36500 62.10400 39.65200
H  26.97000 62.04400 40.44100
H  28.88400 53.90100 38.93600
H  31.37600 54.48900 37.42600
H  30.79900 52.88400 39.36500
H  31.69600 54.15100 40.35200
H  32.45900 53.45600 38.90200
H  29.59500 54.67000 36.17900
H  28.15200 55.65200 36.59600
H  27.00300 53.41300 37.09900
H  28.52900 52.64600 36.70000
H  35.27600 56.23200 38.71300
H  36.54700 57.38500 38.59900
H  35.39400 57.04100 37.22400
H  34.83000 62.43600 38.12100
H  36.56600 62.47500 38.43600
H  35.50400 62.22500 39.74700
H  31.12700 63.67500 39.14300
H  29.16200 63.25500 41.45000
H  31.78700 63.29300 42.09600
H  31.09900 64.88100 41.60900
H  32.58800 64.31000 41.02100
H  27.84700 63.72300 38.91800
H  29.20600 64.80100 38.80400
H  28.12300 65.19300 41.40200
H  26.87900 65.39900 40.13400
H  28.29900 66.31100 39.91400
H  24.68200 61.09600 39.91900
H  24.70400 60.71700 41.60900
H  23.91400 59.57300 40.44800
H  26.17600 55.41100 38.16600
H  25.16200 52.80200 41.45000
H  26.97400 52.71500 41.47800
H  26.05700 51.61900 40.48300

