158

Mg 16.16000 -0.91000 27.01100
C  15.02100 0.82400 29.90100
C  18.46600 -2.49600 28.98600
C  17.69300 -2.04900 24.31400
C  14.17400 1.06200 25.13800
N  16.63500 -0.81900 29.16900
C  15.99700 -0.16100 30.17900
C  16.39600 -0.52500 31.52100
C  17.69400 -1.35600 31.18700
C  17.58300 -1.64900 29.64700
C  19.11000 -0.74000 31.52200
C  15.29000 -1.21900 32.37500
C  15.18200 -0.70900 33.81300
H  16.40100 0.01900 34.53500
N  17.77800 -2.28600 26.69000
C  18.57700 -2.85100 27.62000
C  19.36000 -3.86300 27.01700
C  19.06600 -3.83900 25.62900
C  18.20900 -2.68800 25.48200
C  20.21800 -4.75500 27.84100
C  19.60100 -4.71000 24.41200
O  19.19200 -4.54700 23.26500
C  20.68200 -5.80300 24.59000
N  16.06800 -0.45200 25.05700
C  16.78700 -1.07100 24.07700
C  16.54700 -0.48500 22.69900
C  15.23300 0.36600 22.97400
C  15.05800 0.24600 24.45200
C  17.80200 0.31100 22.13600
C  13.97100 0.02100 22.20000
C  13.83900 0.80300 20.89500
N  14.78400 0.51100 27.44500
C  14.01000 1.17100 26.52700
C  13.06900 1.97500 27.22400
C  13.41000 1.87200 28.57600
C  14.54400 1.06400 28.62200
C  12.01100 2.70000 26.49200
C  13.06600 2.36200 29.84800
O  12.19600 3.10300 30.24500
C  14.07600 1.61300 30.80400
C  14.71200 2.73800 31.63700
O  15.51000 3.55300 31.24900
O  14.16700 2.72800 32.94100
C  14.26100 4.14300 33.42100
H  19.11900 -2.95900 29.72900
H  18.19600 -2.40900 23.41400
H  13.41700 1.64200 24.60600
H  16.79400 0.39800 31.94100
H  17.58000 -2.37600 31.55300
H  19.56100 -0.21700 30.67900
H  19.79500 -1.52800 31.83600
H  19.05900 0.06800 32.25200
H  15.46400 -2.29400 32.33100
H  14.33000 -1.09900 31.87200
H  15.15000 -1.68200 34.30300
H  14.29000 -0.18200 34.15200
H  20.66200 -5.52500 27.20900
H  19.69200 -5.22600 28.67200
H  20.99200 -4.07600 28.19700
H  21.45400 -5.49700 25.29700
H  20.99300 -6.06100 23.57800
H  20.13300 -6.69100 24.90200
H  16.28200 -1.39400 22.15900
H  15.51300 1.41300 22.86100
H  18.50400 -0.43100 21.75600
H  18.16600 0.90600 22.97400
H  17.46300 0.97500 21.34000
H  13.13200 0.17800 22.87800
H  13.98500 -1.03200 21.91800
H  14.76600 1.23900 20.52400
H  13.09600 1.55800 21.15300
H  13.65600 0.12300 20.06300
H  12.63900 3.36800 25.90300
H  11.34100 3.30300 27.10500
H  11.46500 1.97200 25.89200
H  13.54100 0.99000 31.52100
H  14.06900 4.91900 32.68000
H  15.15700 4.37000 33.99800
H  13.42000 4.26000 34.10500
Mg 24.50100 2.72600 29.78400
C  26.80300 2.15700 32.42700
C  21.89700 2.61800 32.30500
C  22.30500 2.90500 27.32000
C  26.99400 1.93700 27.56500
N  24.40000 2.53300 32.11900
C  25.52200 2.41800 32.94500
C  25.12000 2.60600 34.37800
C  23.53800 2.57100 34.23400
C  23.24300 2.53700 32.76900
C  22.87300 1.35900 34.94600
C  25.76900 3.84800 35.03900
C  26.62900 3.73500 36.33900
H  26.16200 4.70900 37.47700
N  22.37900 2.65800 29.75000
C  21.55100 2.69300 30.86000
C  20.23000 2.88300 30.33600
C  20.25400 2.83600 28.91800
C  21.68400 2.79300 28.55100
C  18.99000 3.05100 31.12500
C  19.18700 2.95900 27.89700
O  19.36000 3.31600 26.70500
C  17.77100 2.62000 28.28200
N  24.66300 2.73300 27.76800
C  23.63900 2.87900 26.95700
C  24.10700 2.87500 25.42500
C  25.61700 2.58200 25.53900
C  25.77700 2.41400 27.06600
C  23.34200 2.09100 24.27600
C  26.51400 3.59900 24.68600
C  26.85200 4.93600 25.40200
N  26.51300 2.23800 29.91800
C  27.36800 1.85800 28.97800
C  28.68900 1.40800 29.54300
C  28.48500 1.53400 30.87500
C  27.17700 2.02700 31.08200
C  29.98600 0.98800 28.85000
C  29.15800 1.30300 32.13600
O  30.34300 1.03400 32.37900
C  28.10000 1.85800 33.27300
C  27.96600 0.89200 34.40400
O  27.31400 -0.12200 34.31100
O  28.71300 1.38000 35.50200
C  28.62400 0.66000 36.81600
H  21.11800 2.80000 33.04800
H  21.59500 2.98600 26.49400
H  27.71000 1.53700 26.84400
H  25.30200 1.64300 34.85600
H  23.19100 3.54700 34.57300
H  22.60600 0.59800 34.21300
H  21.92700 1.80700 35.25100
H  23.38400 0.88500 35.78500
H  25.01500 4.55800 35.37800
H  26.47000 4.35800 34.37800
H  27.61600 4.10600 36.06200
H  26.65600 2.69500 36.66300
H  18.38400 2.15700 30.97500
H  18.44500 3.95000 30.83700
H  19.32000 3.10700 32.16300
H  17.36600 3.46700 28.83600
H  17.86600 1.76300 28.94800
H  17.15900 2.32000 27.43100
H  23.98700 3.90800 25.09900
H  25.81600 1.56800 25.19200
H  22.48000 1.66100 24.78600
H  23.93400 1.23700 23.94900
H  23.08600 2.71300 23.41900
H  25.92800 3.89600 23.81600
H  27.43700 3.16500 24.30200
H  26.66800 4.87100 26.47400
H  26.15600 5.72800 25.12700
H  27.86000 5.19300 25.07800
H  30.43800 1.78600 28.26100
H  29.77400 0.23700 28.08900
H  30.69300 0.41800 29.45400
H  28.53500 2.80500 33.59200
H  29.63100 0.30500 37.03400
H  27.96800 -0.21000 36.82100
H  28.26800 1.34000 37.59000

