158

Mg 48.18000 35.40700 28.06800
C  46.12100 33.67300 30.21100
C  48.39800 37.91900 30.36900
C  49.85700 37.30500 25.67000
C  47.31800 33.15200 25.53200
N  47.56700 35.65400 30.14800
C  46.76300 34.77700 30.81900
C  46.92600 35.08900 32.33300
C  47.12400 36.58600 32.28400
C  47.76400 36.73800 30.90100
C  45.94500 37.46200 32.58600
C  48.20900 34.32300 32.80100
C  47.88300 33.69200 34.15700
H  47.18000 34.60500 35.18200
N  49.09100 37.27400 28.02200
C  49.14000 38.11600 29.16200
C  50.05800 39.23500 28.82900
C  50.50900 39.01200 27.46500
C  49.83000 37.80900 26.98800
C  50.26300 40.40400 29.82300
C  51.50900 39.87800 26.71500
O  51.67800 39.77600 25.51600
C  52.37400 40.90600 27.27600
N  48.40500 35.31800 25.93500
C  49.13900 36.18300 25.17300
C  49.38300 35.73200 23.72200
C  48.82800 34.30000 23.75700
C  48.13700 34.23300 25.15000
C  48.87600 36.63600 22.51100
C  49.92800 33.21000 23.62400
C  50.25700 32.76100 22.21900
N  46.96200 33.72600 27.92500
C  46.70800 32.98100 26.80400
C  45.71500 31.95800 27.17500
C  45.39000 32.26400 28.47800
C  46.14000 33.34800 28.89300
C  45.14800 30.83700 26.37000
C  44.61700 31.85600 29.58300
O  43.79200 30.97900 29.64000
C  45.00900 32.75900 30.82800
C  45.38000 32.03600 32.11900
O  46.25100 31.22600 32.30200
O  44.37000 32.34000 33.03400
C  44.35400 31.64400 34.32100
H  48.44400 38.75600 31.07000
H  50.43500 37.84600 24.91800
H  47.07000 32.32600 24.86200
H  46.05200 34.79800 32.91600
H  47.84400 36.92000 33.03100
H  45.64500 38.07100 31.73400
H  46.11100 38.10900 33.44800
H  45.06400 36.85600 32.79400
H  49.09100 34.95100 32.92400
H  48.41000 33.46300 32.16200
H  48.82800 33.24500 34.46500
H  47.22600 32.83100 34.03000
H  50.43600 41.31500 29.25000
H  51.16000 40.19100 30.40400
H  49.37400 40.59100 30.42600
H  53.33800 40.97400 26.77200
H  52.69100 40.85900 28.31800
H  51.86200 41.86700 27.25300
H  50.46900 35.65000 23.68000
H  47.99000 34.29100 23.06000
H  48.21600 37.33300 23.02700
H  48.21500 36.07300 21.85200
H  49.63100 37.21500 21.98100
H  49.63500 32.42000 24.31600
H  50.89400 33.49800 24.04000
H  51.29100 32.93200 21.92000
H  49.55300 33.20600 21.51600
H  50.07000 31.68800 22.16700
H  45.92400 30.37200 25.76100
H  44.42400 31.28600 25.68900
H  44.55800 30.01800 26.77900
H  44.18800 33.43700 31.05800
H  45.00800 30.77200 34.31900
H  43.32600 31.35000 34.53400
H  44.63000 32.32000 35.13000
Mg -11.97100 37.83800 42.13500
C  -10.07400 35.17900 41.04100
C  -9.60800 40.01200 40.60600
C  -14.12100 40.59300 42.51500
C  -14.27700 35.74000 43.37200
N  -10.14900 37.59300 40.82100
C  -9.53700 36.33300 40.61000
C  -8.22000 36.55000 39.86200
C  -8.01700 38.10000 40.04100
C  -9.31300 38.63700 40.59300
C  -6.81500 38.62600 40.85000
C  -8.33800 35.92700 38.39000
C  -7.23200 34.90300 37.89800
H  -6.46400 35.32400 36.61200
N  -11.82200 40.05400 41.74900
C  -10.71400 40.67300 41.16900
C  -11.07400 42.08700 41.00500
C  -12.39900 42.29800 41.69400
C  -12.88400 40.93000 42.00300
C  -10.08400 43.16400 40.36400
C  -13.00300 43.65600 41.89600
O  -12.50800 44.67100 41.37300
C  -14.24700 43.77100 42.65000
N  -13.91600 38.16500 42.74100
C  -14.57500 39.30200 42.96400
C  -16.01200 39.01500 43.52400
C  -15.85800 37.60200 44.10300
C  -14.63500 37.07000 43.32100
C  -16.52900 40.00000 44.48000
C  -17.07600 36.70300 44.01500
C  -17.40100 36.02600 45.40600
N  -12.23500 35.82400 42.26300
C  -13.17100 35.07700 42.82200
C  -12.86000 33.64100 42.81200
C  -11.65700 33.66500 42.04500
C  -11.36600 34.94600 41.76000
C  -13.67200 32.53500 43.30700
C  -10.67200 32.82000 41.45200
O  -10.51800 31.60300 41.42800
C  -9.65000 33.77800 40.75600
C  -8.29400 33.52400 41.36500
O  -7.33300 33.03600 40.82300
O  -8.40300 33.80600 42.76800
C  -7.14400 33.79500 43.50000
H  -8.84400 40.66800 40.18400
H  -14.87400 41.38100 42.58000
H  -14.86700 35.10200 44.03400
H  -7.47400 35.98500 40.42000
H  -7.80600 38.58800 39.09000
H  -6.10300 37.80000 40.86300
H  -7.18300 38.86400 41.84800
H  -6.33300 39.46800 40.35200
H  -8.46400 36.71000 37.64200
H  -9.26800 35.37400 38.26300
H  -7.74000 33.96700 37.66700
H  -6.49000 34.71800 38.67500
H  -9.37300 42.67400 39.69800
H  -9.67300 43.72500 41.20300
H  -10.71800 43.85900 39.81400
H  -15.00200 43.25400 42.05800
H  -14.58400 44.80500 42.71600
H  -14.17000 43.25000 43.60500
H  -16.71500 39.05500 42.69200
H  -15.66900 37.78300 45.16100
H  -17.41300 40.42700 44.00700
H  -15.78600 40.73200 44.79900
H  -16.86400 39.55200 45.41600
H  -16.99400 35.89200 43.29000
H  -17.99300 37.24100 43.77500
H  -18.45600 36.22000 45.60000
H  -16.76700 36.42600 46.19700
H  -17.13200 34.98000 45.25400
H  -13.05200 31.64800 43.43500
H  -14.45000 32.22500 42.60900
H  -14.07500 32.84600 44.27100
H  -9.53600 33.48000 39.71400
H  -6.61200 34.70500 43.22200
H  -6.58200 32.92100 43.16900
H  -7.46900 33.61700 44.52500

