158

Mg 54.95600 24.36300 44.17300
C  52.27000 26.27100 43.22300
C  53.37700 21.50100 43.27900
C  58.05700 22.68600 44.13900
C  56.90700 27.38000 44.50400
N  53.06200 24.00600 43.25400
C  52.03900 24.90800 43.01000
C  50.75800 24.18600 42.53200
C  51.11300 22.74000 43.08900
C  52.61700 22.71400 43.22800
C  50.34000 22.54700 44.44000
C  50.63200 24.12600 41.00600
C  49.24200 24.01500 40.44600
H  49.04100 23.73100 38.94300
N  55.58800 22.32600 43.79900
C  54.75500 21.30400 43.45700
C  55.44300 20.09900 43.51900
C  56.82100 20.40500 43.80300
C  56.86100 21.87800 43.96500
C  54.73700 18.86700 43.09000
C  57.86400 19.37500 43.90100
O  57.53800 18.23900 43.69500
C  59.27800 19.65200 44.35900
N  57.15900 24.92800 44.17900
C  58.16200 24.04600 44.23200
C  59.53300 24.71500 44.44900
C  59.21900 26.21000 44.57800
C  57.61600 26.17400 44.35000
C  60.38700 24.12800 45.55600
C  59.97800 27.05300 43.54100
C  60.69100 28.23800 44.10100
N  54.66200 26.45500 43.92000
C  55.48700 27.54100 44.23800
C  54.61500 28.68200 44.42000
C  53.31900 28.22400 43.98900
C  53.49000 26.86700 43.67000
C  54.98800 30.02900 44.90900
C  51.93700 28.63100 43.94400
O  51.36300 29.60600 44.30200
C  51.17200 27.39400 43.34400
C  50.69300 27.86700 42.03100
O  51.46000 28.27600 41.12100
O  49.32500 27.79000 41.84300
C  48.70200 28.24700 40.58200
H  52.85200 20.55200 43.40700
H  58.96600 22.08100 44.12600
H  57.50100 28.25000 44.79300
H  49.83900 24.62500 42.92000
H  50.77700 21.97800 42.38600
H  51.02200 22.24800 45.23500
H  49.63900 21.74100 44.22200
H  49.84200 23.44600 44.80200
H  51.16500 23.21700 40.72800
H  51.18900 24.93000 40.52400
H  48.73000 24.97600 40.48500
H  48.70200 23.30300 41.07100
H  54.34700 19.04700 42.08800
H  53.83500 18.82400 43.70100
H  55.25100 17.91700 43.23100
H  59.83400 20.23500 43.62500
H  59.74700 18.73600 44.72000
H  59.29600 20.18300 45.31100
H  60.09500 24.54800 43.53000
H  59.46300 26.61700 45.55900
H  60.60400 24.89400 46.30100
H  61.24600 23.57800 45.17300
H  59.67000 23.42500 45.98000
H  59.30400 27.42000 42.76800
H  60.78400 26.58300 42.97700
H  61.65800 28.34900 43.60900
H  60.86700 28.18600 45.17500
H  60.11400 29.15200 43.95700
H  55.57700 29.88100 45.81400
H  54.13400 30.69600 45.01900
H  55.58000 30.49700 44.12200
H  50.33900 27.12000 43.99100
H  48.76100 27.53100 39.76200
H  49.34900 29.08100 40.30900
H  47.66300 28.57500 40.58100
Mg 50.45300 45.21100 41.40200
C  47.30900 46.03400 40.04000
C  49.85700 41.89900 40.30700
C  53.88700 44.48900 41.45600
C  51.25900 48.58900 41.32500
N  48.67900 44.08500 40.58700
C  47.50400 44.57400 40.04400
C  46.69300 43.44000 39.44400
C  47.35500 42.13100 39.90200
C  48.74000 42.71300 40.38100
C  46.76700 41.33400 41.04000
C  46.74700 43.60300 37.88000
C  45.36600 43.60200 37.18100
H  45.22300 44.54100 35.99400
N  51.59500 43.41800 41.15100
C  51.19900 42.22700 40.65900
C  52.41600 41.46500 40.41700
C  53.54000 42.08700 40.99400
C  53.02800 43.36100 41.30200
C  52.34800 40.22100 39.61800
C  54.95400 41.50700 41.13200
O  55.35000 40.49300 40.55700
C  55.93200 42.10200 42.02100
N  52.30000 46.34600 41.41100
C  53.57700 45.80800 41.55900
C  54.63100 46.95800 41.38100
C  53.80000 48.22100 41.38000
C  52.35000 47.71000 41.44500
C  55.75800 46.85800 42.42800
C  53.98800 49.22800 40.23100
C  54.39300 50.65600 40.72500
N  49.46400 46.96000 41.03800
C  49.89600 48.25400 41.07100
C  48.81900 49.22300 40.78500
C  47.77500 48.33800 40.36700
C  48.19300 47.00500 40.44600
C  48.91700 50.64900 40.70200
C  46.43400 48.38900 39.82500
O  45.69900 49.32100 39.50800
C  46.15500 46.91400 39.47900
C  44.82900 46.51400 40.04000
O  43.85900 46.20400 39.35800
O  44.76700 46.54700 41.40100
C  43.40100 46.60400 41.99700
H  49.81000 40.92800 39.80900
H  54.97000 44.37900 41.37000
H  51.40000 49.66500 41.44600
H  45.68500 43.49000 39.85700
H  47.48400 41.45700 39.05500
H  46.14500 42.02200 41.61300
H  47.48600 40.88000 41.72200
H  46.11900 40.65700 40.48400
H  47.39900 42.81200 37.50800
H  47.27100 44.53600 37.67300
H  44.51700 43.65700 37.86200
H  45.18400 42.56100 36.91100
H  51.42700 39.72900 39.93200
H  53.11300 39.46300 39.78700
H  52.16000 40.42500 38.56400
H  55.49200 42.69800 42.82100
H  56.61100 42.72900 41.44300
H  56.54200 41.32600 42.48400
H  54.99900 46.80900 40.36600
H  54.01300 48.69500 42.33900
H  56.09800 47.80100 42.85700
H  56.70000 46.54500 41.97800
H  55.60400 46.11100 43.20700
H  53.06300 49.26000 39.65600
H  54.69100 48.81700 39.50600
H  55.10300 51.05500 40.00000
H  54.88300 50.79000 41.68900
H  53.52600 51.31100 40.63800
H  47.90100 51.03000 40.80900
H  49.40200 50.97700 39.78300
H  49.52500 50.94600 41.55600
H  45.98400 46.80700 38.40800
H  43.39800 46.48500 43.08000
H  42.80800 45.82600 41.51600
H  42.86600 47.49400 41.66500

