158

Mg 26.95000 50.42500 26.17800
C  24.96700 51.38100 28.93000
C  29.20500 49.28000 28.43600
C  28.85100 49.90200 23.62200
C  24.38600 51.79900 24.10800
N  26.89200 50.10600 28.41700
C  26.02600 50.65100 29.33600
C  26.50900 50.43800 30.78200
C  27.98100 49.88400 30.56500
C  28.06700 49.64500 29.08100
C  29.16000 50.65000 31.17700
C  25.49000 49.43000 31.56000
C  24.96800 49.85900 32.92200
H  25.88400 50.27500 34.09500
N  28.76200 49.70500 26.04400
C  29.62800 49.32800 27.05300
C  30.91900 48.88200 26.50500
C  30.72600 48.93800 25.11700
C  29.41400 49.53600 24.85900
C  32.14200 48.39100 27.41800
C  31.61700 48.47800 24.00200
O  31.38400 48.48300 22.82000
C  32.99200 48.04800 24.43800
N  26.78400 51.08200 24.24100
C  27.68500 50.59300 23.33900
C  27.23300 50.90700 21.88800
C  25.74400 51.21200 22.09000
C  25.59500 51.30500 23.60000
C  28.04900 52.00500 21.31500
C  24.63900 50.29100 21.45600
C  23.50700 50.99700 20.62400
N  25.06100 51.39500 26.41500
C  24.14800 51.89500 25.46700
C  23.01900 52.45600 26.14600
C  23.26400 52.31200 27.50700
C  24.56300 51.68400 27.62300
C  21.79200 53.10000 25.55900
C  22.79700 52.63700 28.89800
O  21.77700 53.12600 29.30400
C  23.81800 51.95000 29.83100
C  24.22100 53.01400 30.77400
O  25.14800 53.82000 30.56400
O  23.41600 53.06100 31.85000
C  23.74900 54.02100 32.91600
H  30.03100 48.98800 29.08800
H  29.48000 49.73700 22.74500
H  23.52400 51.97400 23.46000
H  26.61100 51.36900 31.33900
H  28.00200 48.93500 31.10100
H  29.76900 51.01500 30.35000
H  29.75600 50.02000 31.83800
H  28.82300 51.50600 31.76200
H  25.76200 48.37400 31.57100
H  24.62100 49.51100 30.90700
H  24.38800 48.97700 33.19300
H  24.20100 50.61900 32.77500
H  31.76800 48.21700 28.42800
H  32.76400 49.28200 27.33600
H  32.71600 47.53600 27.06100
H  32.93300 47.04100 24.85100
H  33.34800 48.79500 25.14700
H  33.63200 47.88200 23.57000
H  27.53200 49.98900 21.38200
H  25.51200 52.24000 21.81200
H  28.76300 52.39200 22.04200
H  27.35100 52.81900 21.11800
H  28.59100 51.60400 20.45900
H  24.21600 49.53200 22.11300
H  25.22400 49.68900 20.76100
H  23.72800 52.05300 20.47000
H  22.51200 50.88700 21.05700
H  23.68800 50.56400 19.64100
H  20.96800 53.09700 26.27300
H  21.53200 52.54800 24.65600
H  21.96400 54.14000 25.28300
H  23.30200 51.11000 30.29500
H  24.15400 53.52100 33.79600
H  22.86300 54.56400 33.24200
H  24.53300 54.69600 32.57500
Mg 9.79400 47.98500 25.80500
C  7.38600 47.88400 28.35800
C  12.12600 49.08000 27.99800
C  11.79100 48.79700 23.20300
C  7.21100 47.30600 23.48000
N  9.72800 48.35600 27.89500
C  8.66900 48.34000 28.77100
C  9.18500 48.60600 30.25600
C  10.52100 49.36700 29.95200
C  10.87900 48.81800 28.54500
C  10.46400 50.98800 30.05000
C  9.50400 47.29400 30.99500
C  9.12700 47.47700 32.49700
H  9.23000 46.17800 33.34300
N  11.78000 48.54200 25.59300
C  12.60800 48.97700 26.60800
C  13.94500 49.33300 26.09000
C  13.89600 48.97900 24.67100
C  12.46300 48.84000 24.40200
C  15.18000 49.74700 26.93000
C  14.96700 48.86200 23.67600
O  14.80000 48.50900 22.49300
C  16.35900 49.00600 24.19600
N  9.42900 48.12900 23.71300
C  10.45900 48.41700 22.92800
C  10.09400 48.14700 21.44400
C  8.79800 47.38900 21.55000
C  8.44400 47.62200 23.00200
C  10.05200 49.46200 20.55800
C  8.75600 45.92400 21.07300
C  7.91900 45.72700 19.77500
N  7.64400 47.69000 25.89700
C  6.75600 47.40400 24.83700
C  5.39300 47.17000 25.41500
C  5.64300 47.30400 26.82300
C  6.95800 47.59500 27.03200
C  4.09700 46.86500 24.55900
C  4.95100 47.24900 28.08000
O  3.83500 46.97800 28.45400
C  6.12800 47.64900 29.17400
C  6.25300 46.43100 29.94100
O  6.80300 45.38300 29.64500
O  5.46700 46.58900 30.97400
C  5.36600 45.46000 31.92200
H  12.96200 49.38700 28.63000
H  12.46800 49.14500 22.42000
H  6.49300 46.98200 22.72300
H  8.61100 49.24400 30.92700
H  11.33300 49.03000 30.59600
H  10.60900 51.35500 29.03300
H  11.07900 51.27400 30.90400
H  9.41800 51.18900 30.28200
H  10.56400 47.05100 30.92200
H  9.08800 46.41000 30.51200
H  8.07300 47.74300 32.57700
H  9.80100 48.23600 32.89500
H  14.72200 50.03800 27.87500
H  15.64900 50.64300 26.52100
H  15.96800 49.01100 27.09000
H  16.53700 50.00300 24.59900
H  16.99700 48.74600 23.35200
H  16.47600 48.29600 25.01500
H  10.84500 47.49500 20.99600
H  8.01700 47.98300 21.07700
H  9.07900 49.57700 20.08000
H  10.76100 49.26800 19.75400
H  10.43000 50.34300 21.07800
H  8.33900 45.21900 21.79300
H  9.81100 45.68000 20.95100
H  7.21700 44.90000 19.87700
H  8.61100 45.57600 18.94700
H  7.34100 46.59000 19.44400
H  3.81700 45.84200 24.80900
H  4.31400 46.86900 23.49100
H  3.43600 47.68200 24.84800
H  6.00800 48.52000 29.81800
H  5.03800 45.93000 32.84900
H  6.28300 44.91100 32.13400
H  4.59200 44.77200 31.58000

