158

Mg 45.76700 4.44900 47.89500
C  43.35000 6.88100 47.30500
C  43.21100 2.10600 47.81000
C  48.11000 2.04800 47.84200
C  48.14400 6.94000 47.69800
N  43.57600 4.41800 47.49100
C  42.79600 5.60200 47.40000
C  41.38100 5.25500 47.14600
C  41.27800 3.82900 47.81300
C  42.75400 3.40500 47.73600
C  40.76900 3.93900 49.23000
C  41.05900 5.34700 45.60200
C  39.90300 6.37500 45.18900
H  40.18900 7.51600 44.17100
N  45.67900 2.34400 47.79800
C  44.51600 1.59200 47.68600
C  44.89800 0.22700 47.61700
C  46.33200 0.11500 47.53000
C  46.78900 1.51800 47.78300
C  43.82900 -0.93000 47.55700
C  47.09900 -1.17600 47.19300
O  46.57500 -2.28400 47.15600
C  48.60300 -1.18600 47.03500
N  47.75800 4.50000 47.87000
C  48.57700 3.32600 47.91000
C  50.06000 3.70400 47.82200
C  49.98000 5.24200 47.89700
C  48.53900 5.62600 47.82700
C  50.91700 2.97700 48.85600
C  50.94800 5.90100 46.80200
C  52.19200 6.73300 47.30200
N  45.80100 6.58600 47.62700
C  46.86100 7.41800 47.59200
C  46.29900 8.74700 47.36600
C  44.93600 8.61900 47.28200
C  44.70300 7.25000 47.43000
C  47.05900 10.00400 47.11400
C  43.69600 9.31600 47.18400
O  43.56600 10.54100 47.07500
C  42.62600 8.25100 47.13500
C  41.65400 8.58600 48.20600
O  41.53600 7.96700 49.28200
O  40.79500 9.62700 47.88000
C  39.71800 9.94900 48.80400
H  42.42900 1.34500 47.75300
H  48.98600 1.39900 47.78000
H  48.93400 7.69400 47.65000
H  40.81100 5.95200 47.76000
H  40.56600 3.25100 47.22200
H  41.09800 3.03800 49.74800
H  39.68200 4.01300 49.25600
H  41.16400 4.83200 49.71300
H  40.70900 4.36200 45.29400
H  41.96400 5.66700 45.08500
H  39.48600 6.78800 46.10800
H  39.09400 5.77100 44.77700
H  42.96700 -0.75900 46.91200
H  43.42900 -1.02700 48.56600
H  44.18800 -1.93100 47.31900
H  49.06500 -2.09400 46.64800
H  49.12200 -0.84400 47.93100
H  48.75700 -0.42400 46.27100
H  50.25700 3.18800 46.88200
H  50.32500 5.64500 48.84900
H  51.63500 3.70900 49.22400
H  51.41100 2.17200 48.31100
H  50.34200 2.55400 49.67900
H  50.40500 6.55600 46.12000
H  51.40900 5.11300 46.20800
H  52.21700 7.59800 46.64000
H  53.11600 6.19200 47.09500
H  52.14100 7.03000 48.34900
H  46.50000 10.87000 46.76000
H  47.78900 9.72200 46.35500
H  47.67600 10.30000 47.96300
H  42.04800 8.34700 46.21600
H  39.88800 10.79900 49.46400
H  39.42300 9.09300 49.41000
H  38.82600 10.12900 48.20400
Mg 46.93600 25.10500 27.87500
C  48.01800 27.28500 30.29600
C  46.68400 22.72000 30.28700
C  46.53600 22.84500 25.36800
C  47.82400 27.42300 25.32800
N  47.31500 25.04400 30.01900
C  47.69200 26.07500 30.85200
C  47.83900 25.74700 32.32700
C  47.33300 24.23100 32.30000
C  47.17900 23.90200 30.76900
C  48.17300 23.18300 33.09000
C  46.93700 26.66800 33.15500
C  46.21900 26.02500 34.35700
H  46.11900 26.92100 35.60600
N  46.58800 23.08800 27.86800
C  46.47500 22.31700 28.96100
C  46.27000 20.93900 28.53800
C  46.01300 20.94900 27.13700
C  46.38900 22.35100 26.74700
C  46.17600 19.78600 29.46000
C  45.59700 19.79300 26.17300
O  45.48300 19.91900 24.95200
C  45.12600 18.50100 26.67100
N  47.23600 25.06500 25.56600
C  46.87500 24.06800 24.79000
C  46.74800 24.38900 23.33100
C  47.05700 25.94000 23.39800
C  47.37000 26.21300 24.90300
C  47.72400 23.66000 22.44000
C  45.82200 26.74800 22.90200
C  46.07000 27.89900 21.88200
N  47.70800 26.93600 27.76100
C  48.09800 27.77100 26.69100
C  48.51800 29.05000 27.18500
C  48.39800 28.92400 28.57100
C  48.01700 27.62800 28.90600
C  48.69200 30.29300 26.38800
C  48.56000 29.64600 29.84500
O  48.88800 30.80200 30.15200
C  48.30900 28.66400 31.01000
C  49.42800 28.77600 31.99800
O  50.45200 28.21600 31.87000
O  49.01000 29.50600 33.09500
C  49.73900 29.20700 34.30400
H  46.48400 21.91500 30.99700
H  46.34500 22.08200 24.61000
H  47.83100 28.22200 24.58300
H  48.88400 25.78100 32.63600
H  46.32000 24.18300 32.70000
H  48.77700 23.71700 33.82300
H  48.75000 22.62500 32.35200
H  47.49600 22.45500 33.53500
H  46.29300 27.31100 32.55500
H  47.72900 27.23500 33.64300
H  46.73100 25.12500 34.69900
H  45.21600 25.77200 34.01300
H  45.13300 19.50700 29.61200
H  46.50500 19.94000 30.48800
H  46.67100 18.89100 29.08400
H  44.84400 17.91500 25.79700
H  44.34200 18.55800 27.42700
H  45.99500 18.15100 27.22800
H  45.74800 24.17200 22.95600
H  47.95800 26.19000 22.83800
H  48.57200 24.17600 21.99100
H  47.14000 23.38800 21.56100
H  48.03800 22.68100 22.80200
H  45.33000 27.14100 23.79200
H  45.14100 26.05500 22.40800
H  47.12000 27.85100 21.59300
H  45.77700 28.83500 22.35900
H  45.44100 27.69900 21.01500
H  47.91700 30.20200 25.62800
H  49.75800 30.24100 26.16600
H  48.51700 31.21700 26.93900
H  47.37900 29.04700 31.43000
H  49.15600 28.54600 34.94500
H  49.87000 30.09200 34.92600
H  50.70400 28.70900 34.20600

