158

Mg 25.67300 -0.24000 28.64600
C  27.51700 -0.68000 31.58100
C  22.76800 -0.38600 30.52200
C  23.92800 -0.31100 25.77700
C  28.62400 -0.48800 26.87200
N  25.25700 -0.72500 30.88600
C  26.11100 -0.57700 31.82700
C  25.50300 -0.23900 33.20000
C  24.01700 -0.16000 32.86800
C  23.95300 -0.49800 31.27900
C  23.02500 -1.00700 33.61000
C  26.15700 1.08200 33.86800
C  26.78800 0.93200 35.24400
H  26.32600 1.86300 36.33800
N  23.67900 -0.34800 28.20800
C  22.65600 -0.29500 29.14300
C  21.35300 -0.01200 28.42400
C  21.70100 -0.06700 26.98800
C  23.14800 -0.30300 26.92900
C  20.08200 0.23400 29.18000
C  20.77300 0.12100 25.80500
O  21.11200 0.07400 24.62100
C  19.26900 0.20800 25.95600
N  26.20000 -0.61000 26.60400
C  25.26400 -0.32300 25.63400
C  25.96200 -0.13500 24.27100
C  27.41900 -0.01100 24.62200
C  27.44700 -0.44200 26.14500
C  25.58000 -1.14000 23.15200
C  27.98300 1.45500 24.45200
C  29.51900 1.57900 24.32700
N  27.70300 -0.68500 29.11000
C  28.75900 -0.74900 28.25900
C  29.95100 -1.04100 29.08600
C  29.52700 -0.96300 30.40900
C  28.10900 -0.76300 30.34100
C  31.40200 -1.22400 28.60200
C  29.95000 -1.06300 31.77100
O  31.04400 -1.25800 32.23000
C  28.68300 -0.74100 32.50700
C  28.46700 -1.71900 33.57600
O  27.91800 -2.80400 33.42300
O  29.02300 -1.30500 34.78400
C  28.75500 -2.21300 35.92800
H  21.86300 -0.14000 31.08100
H  23.35100 -0.23200 24.85300
H  29.61200 -0.41400 26.41300
H  25.75200 -1.15400 33.73700
H  23.53200 0.81400 32.80900
H  22.88900 -0.45400 34.54000
H  23.59000 -1.91800 33.80600
H  22.08900 -1.32600 33.15200
H  25.43600 1.89800 33.91300
H  26.90800 1.46100 33.17400
H  27.80600 1.16200 34.92700
H  26.79900 -0.10300 35.58700
H  19.85600 1.26900 29.43700
H  19.99600 -0.45600 30.01900
H  19.20100 -0.01300 28.58800
H  19.03200 1.06300 26.58900
H  18.90300 -0.72900 26.37600
H  18.86600 0.23800 24.94400
H  25.55100 0.81000 23.91500
H  28.01000 -0.78500 24.13200
H  26.39400 -1.77000 22.79300
H  25.14100 -0.59900 22.31400
H  24.78000 -1.84100 23.39100
H  27.57100 2.03600 25.27700
H  27.44800 1.85700 23.59300
H  29.85900 2.27900 25.09000
H  29.80200 1.92100 23.33200
H  30.02100 0.62700 24.50200
H  31.28000 -2.11800 27.99100
H  31.96100 -1.44900 29.50900
H  31.77600 -0.38100 28.02000
H  28.77600 0.22300 33.00800
H  27.92300 -1.96800 36.58800
H  29.62900 -2.22600 36.57800
H  28.70200 -3.26300 35.63900
Mg -8.91000 40.17100 43.60900
C  -7.88200 36.90100 42.44400
C  -6.34000 41.37700 41.67700
C  -10.07500 43.18800 44.28200
C  -11.89500 38.73600 44.81700
N  -7.33600 39.21600 42.23600
C  -7.10300 37.89100 41.94800
C  -5.76600 37.76000 41.18600
C  -5.36700 39.22100 40.93300
C  -6.41200 40.00700 41.66400
C  -3.87900 39.63200 41.24800
C  -5.87200 36.88100 39.87000
C  -4.96500 37.22500 38.63100
H  -4.52100 36.18300 37.65400
N  -8.21100 42.08900 43.16000
C  -7.19800 42.37800 42.33800
C  -7.07700 43.82900 42.13100
C  -7.95100 44.36100 43.10800
C  -8.75000 43.19900 43.71100
C  -6.02100 44.49100 41.19100
C  -8.13800 45.84600 43.32800
O  -7.62600 46.69900 42.60000
C  -8.82300 46.32300 44.58000
N  -10.81400 40.90400 44.33200
C  -10.99400 42.19600 44.66100
C  -12.28100 42.43900 45.23300
C  -12.89700 41.03400 45.29400
C  -11.79100 40.11300 44.83100
C  -12.28900 43.15300 46.65900
C  -14.38400 40.85100 44.76500
C  -14.48300 40.16600 43.42600
N  -9.83600 38.28600 43.63100
C  -11.00800 37.86100 44.14300
C  -11.04600 36.46300 44.04800
C  -9.84900 36.01000 43.36800
C  -9.14700 37.21700 43.11100
C  -12.21900 35.62600 44.54700
C  -9.10600 34.89400 42.91400
O  -9.38700 33.67900 42.88600
C  -7.77500 35.39300 42.27600
C  -6.56300 34.83400 42.98700
O  -6.31900 34.98900 44.18600
O  -5.71700 34.12400 42.10500
C  -4.50900 33.63300 42.68900
H  -5.56400 41.90300 41.11700
H  -10.39500 44.16800 44.64200
H  -12.84300 38.46900 45.28800
H  -5.09400 37.20700 41.84200
H  -5.46600 39.45200 39.87200
H  -3.44700 40.18700 40.41500
H  -3.25200 38.74900 41.36900
H  -3.80800 40.31200 42.09700
H  -6.84100 37.17300 39.46500
H  -6.02200 35.82700 40.10400
H  -4.03100 37.61900 39.03200
H  -5.51600 38.00200 38.10100
H  -6.36500 45.50100 40.97100
H  -5.88100 43.87500 40.30200
H  -5.12000 44.54000 41.80200
H  -8.39100 47.28700 44.84600
H  -8.79600 45.64000 45.42900
H  -9.88100 46.44200 44.34500
H  -12.83200 43.05600 44.52300
H  -12.82800 40.84000 46.36500
H  -11.38100 42.88100 47.19700
H  -13.10000 42.79600 47.29500
H  -12.37100 44.22900 46.50600
H  -14.93300 41.78400 44.88800
H  -14.89400 40.08100 45.34400
H  -13.56800 40.12600 42.83500
H  -15.20200 40.78900 42.89300
H  -14.87700 39.14900 43.41500
H  -12.26400 34.74000 43.91400
H  -13.14600 36.18800 44.65700
H  -11.92800 35.38200 45.56800
H  -7.70900 35.21300 41.20300
H  -4.47900 33.18000 43.68000
H  -3.71700 34.38200 42.68200
H  -4.19500 32.91000 41.93700

