158

Mg 45.20100 4.69900 46.50700
C  42.96900 7.45500 46.58600
C  42.26800 2.74000 46.13900
C  47.13400 2.10200 45.71100
C  47.85600 6.95100 46.06000
N  42.85600 5.09500 46.33600
C  42.25500 6.30200 46.45800
C  40.69800 6.18200 46.32300
C  40.48500 4.65000 46.36700
C  41.97700 4.10800 46.35700
C  39.59300 4.09600 47.51700
C  40.03300 6.94800 45.08300
C  40.81300 6.77500 43.77500
H  40.11000 6.23700 42.50600
N  44.71200 2.69100 45.95100
C  43.47600 2.09000 45.92300
C  43.73300 0.64800 45.87100
C  45.08600 0.48100 45.44200
C  45.73400 1.81700 45.67500
C  42.61100 -0.32400 45.70500
C  45.76800 -0.76400 44.92900
O  45.19900 -1.84200 44.87500
C  47.12100 -0.76600 44.30600
N  47.20300 4.59000 45.93500
C  47.82600 3.39000 45.77500
C  49.33400 3.53100 45.47600
C  49.50100 5.10800 45.63700
C  48.09600 5.61800 45.85300
C  50.39400 2.75800 46.32800
C  50.23400 5.85600 44.45700
C  49.39200 5.96500 43.18800
N  45.41900 6.72800 46.43500
C  46.58200 7.55200 46.32100
C  46.16900 8.94200 46.62400
C  44.80500 8.93000 46.67700
C  44.36000 7.57900 46.57400
C  47.06800 10.17400 46.55100
C  43.71200 9.78900 46.83000
O  43.54200 11.01200 46.86600
C  42.40100 8.80800 46.77600
C  41.71100 8.88800 48.12200
O  41.94800 8.14800 49.08800
O  40.67000 9.79300 48.01200
C  39.83300 10.00000 49.20700
H  41.38400 2.10900 46.25300
H  47.75700 1.20600 45.67900
H  48.70000 7.64100 46.00100
H  40.39800 6.73500 47.21300
H  40.04700 4.30500 45.43000
H  38.85700 3.37200 47.16600
H  38.95800 4.91000 47.86600
H  40.20100 3.62800 48.29100
H  39.98400 8.01300 45.31300
H  38.96400 6.73700 45.11100
H  41.60200 6.03500 43.90800
H  41.27300 7.71500 43.47000
H  42.39800 -0.95300 46.56900
H  42.79200 -1.02600 44.89100
H  41.63900 0.15900 45.60800
H  47.85200 -0.90400 45.10300
H  47.20200 0.11100 43.66300
H  47.24400 -1.61600 43.63600
H  49.46700 3.15300 44.46300
H  49.98600 5.29700 46.59400
H  49.92600 2.37200 47.23300
H  51.25700 3.38200 46.56300
H  50.85700 1.94200 45.77400
H  51.11800 5.34000 44.08200
H  50.55600 6.87300 44.67900
H  49.98800 5.46000 42.42700
H  49.17500 6.92800 42.72800
H  48.41600 5.49700 43.31200
H  46.67500 11.19000 46.58300
H  47.60000 10.30100 45.60800
H  47.76400 10.23600 47.38800
H  41.71500 9.15100 46.00100
H  39.97000 9.06400 49.74700
H  38.84700 10.39900 48.96600
H  40.35700 10.76200 49.78300
Mg 0.13800 43.68700 25.52500
C  2.21900 43.44500 28.32500
C  -2.49200 43.13700 27.72300
C  -1.76000 43.17900 22.80300
C  3.09900 43.91200 23.50700
N  -0.15300 43.51300 27.74100
C  0.87700 43.36200 28.63900
C  0.30700 43.48000 30.09700
C  -1.26600 43.31400 29.90000
C  -1.28800 43.19800 28.34300
C  -1.86500 42.03000 30.63600
C  0.73900 44.81100 30.75700
C  0.88400 44.70500 32.27000
H  0.44000 43.45800 33.11500
N  -1.87300 43.29500 25.32200
C  -2.81500 43.17900 26.31700
C  -4.18600 43.10200 25.69900
C  -3.92400 42.83900 24.33300
C  -2.50400 43.18000 24.05800
C  -5.45900 43.07900 26.61000
C  -4.97200 42.56600 23.22600
O  -4.63600 42.20700 22.06000
C  -6.43800 42.63400 23.59100
N  0.60100 43.31500 23.38400
C  -0.37600 43.24100 22.46000
C  0.24300 43.39300 21.06900
C  1.57500 44.19100 21.39500
C  1.81200 43.77700 22.88500
C  0.44700 41.98600 20.33300
C  1.72000 45.73000 21.20400
C  2.54500 46.20500 19.90700
N  2.24700 43.73100 25.86500
C  3.32300 43.84200 24.93300
C  4.55200 43.90500 25.61600
C  4.20100 43.73000 26.96600
C  2.82200 43.62400 27.02000
C  5.86800 44.12600 24.99700
C  4.75600 43.55900 28.28300
O  5.88800 43.47000 28.71000
C  3.49600 43.58000 29.20700
C  3.66100 42.52800 30.22600
O  3.51800 41.30800 30.16400
O  4.13000 43.12200 31.36200
C  4.49900 42.27800 32.43800
H  -3.40100 42.98400 28.31000
H  -2.44200 43.24200 21.95300
H  3.96500 44.12200 22.87600
H  0.66400 42.62900 30.67600
H  -1.85000 44.19900 30.15000
H  -2.56000 41.57200 29.93300
H  -2.45700 42.55000 31.38900
H  -1.10100 41.33200 30.98000
H  0.01700 45.61500 30.61300
H  1.68300 45.11300 30.30400
H  0.37100 45.55800 32.71300
H  1.91900 44.89600 32.55400
H  -6.27100 43.49100 26.01000
H  -5.40400 43.63400 27.54700
H  -5.66800 42.02700 26.80400
H  -7.05800 42.37000 22.73400
H  -6.59100 43.68900 23.81400
H  -6.52300 41.87800 24.37200
H  -0.28200 44.14400 20.47900
H  2.37100 43.72000 20.81700
H  1.46000 41.61200 20.18400
H  -0.01100 42.08200 19.34900
H  -0.18100 41.19600 20.74600
H  2.13100 46.20700 22.09300
H  0.77100 46.26400 21.15200
H  3.33000 46.87900 20.24800
H  1.92100 46.69300 19.15700
H  3.07900 45.44200 19.34200
H  5.79400 43.97900 23.91900
H  6.50400 43.38200 25.47700
H  6.13300 45.16500 25.19200
H  3.62000 44.54200 29.70400
H  4.37900 42.92200 33.30900
H  5.55600 42.01500 32.39600
H  3.83300 41.44200 32.65100

