158

Mg 49.28900 35.55800 27.96900
C  47.07200 34.35700 30.32200
C  49.75100 38.42600 30.11600
C  51.12800 37.22300 25.62400
C  48.70900 32.99200 25.76800
N  48.50400 36.29100 30.01400
C  47.62600 35.53800 30.76200
C  47.36900 36.30900 32.07600
C  48.13400 37.72200 31.86600
C  48.81900 37.48200 30.51300
C  47.12600 38.87200 31.72100
C  47.72500 35.61900 33.39000
C  49.02500 34.76500 33.54100
H  50.28100 35.40700 34.10700
N  50.21300 37.57000 27.81600
C  50.34300 38.49800 28.80400
C  51.12300 39.65900 28.30800
C  51.49000 39.35100 26.94200
C  50.91600 37.99700 26.72200
C  51.36600 40.92700 29.22300
C  52.25600 40.16600 25.95700
O  52.64000 39.75100 24.86900
C  52.79700 41.48600 26.43700
N  49.86400 35.13700 26.00000
C  50.72700 35.89100 25.30500
C  51.21500 35.08400 24.07600
C  50.45200 33.72700 24.17600
C  49.60600 33.93800 25.36000
C  51.02500 35.84400 22.66200
C  51.36700 32.48700 24.16200
C  50.87500 31.40900 23.12400
N  48.18300 33.95700 28.02900
C  48.02800 33.00500 27.02800
C  46.85400 32.16200 27.51700
C  46.50000 32.59100 28.85100
C  47.33300 33.68600 29.05600
C  46.20500 31.01000 26.77500
C  45.58100 32.41000 29.88000
O  44.61800 31.62100 29.95600
C  45.85800 33.55600 30.93300
C  46.30500 32.76900 32.10100
O  47.36000 32.18400 32.21900
O  45.35300 32.83300 33.05400
C  45.59800 32.11300 34.29600
H  50.00100 39.26900 30.76400
H  51.80700 37.56500 24.84000
H  48.45300 32.13900 25.13700
H  46.29700 36.47400 31.97000
H  48.93200 37.97300 32.56400
H  46.82500 39.25200 32.69700
H  46.24200 38.72200 31.10100
H  47.65600 39.68000 31.21700
H  46.83100 35.02100 33.56700
H  47.85700 36.42200 34.11500
H  49.21100 34.39400 32.53300
H  48.76800 33.93700 34.20200
H  52.37700 41.03000 29.61600
H  50.65500 40.93600 30.05000
H  51.16100 41.81900 28.63200
H  52.15600 42.33700 26.66700
H  53.43400 41.90000 25.65500
H  53.44200 41.19700 27.26700
H  52.27400 34.84900 24.18200
H  49.86600 33.78000 23.25800
H  50.44700 36.76600 22.72000
H  50.64700 35.13300 21.92800
H  52.02800 36.05500 22.29200
H  51.29800 31.93500 25.09900
H  52.43500 32.69900 24.10800
H  51.78700 31.13600 22.59200
H  49.96600 31.66900 22.58200
H  50.61500 30.47000 23.61400
H  45.50400 30.48100 27.42100
H  46.97500 30.29000 26.49900
H  45.61800 31.25700 25.89000
H  44.88300 34.01100 31.10900
H  45.67000 31.03600 34.14500
H  44.81700 32.43800 34.98400
H  46.59200 32.29500 34.70400
Mg -1.37900 33.58700 26.50300
C  -3.19000 31.98200 29.10500
C  -0.22700 35.81500 29.01400
C  0.04700 35.50500 24.18800
C  -3.29400 31.91800 24.17700
N  -1.62600 33.76000 28.80300
C  -2.34700 32.96600 29.67900
C  -2.28200 33.42100 31.06800
C  -1.42900 34.74200 30.98900
C  -1.09000 34.81000 29.50000
C  -2.20500 35.95500 31.52700
C  -1.63700 32.37800 32.08700
C  -2.33600 32.39300 33.54400
H  -1.37200 32.17800 34.72400
N  -0.21000 35.35100 26.61000
C  0.20100 36.09500 27.65800
C  1.14400 37.09200 27.25100
C  1.17100 37.10900 25.84100
C  0.30000 35.97700 25.49500
C  1.81300 38.06300 28.23300
C  1.86100 38.12000 24.92100
O  1.77100 38.10400 23.73400
C  2.73400 39.13200 25.56000
N  -1.72800 33.82000 24.49500
C  -0.86700 34.53600 23.73900
C  -1.12000 34.28900 22.23600
C  -2.03700 32.95700 22.26000
C  -2.36000 32.91400 23.70100
C  -1.85900 35.47500 21.55400
C  -1.42000 31.64900 21.68400
C  -0.95400 30.47700 22.65000
N  -2.82800 32.12200 26.53000
C  -3.60300 31.58300 25.53900
C  -4.50200 30.58100 26.13100
C  -4.33800 30.68600 27.50800
C  -3.38700 31.61800 27.72700
C  -5.50500 29.90700 25.40200
C  -4.84300 30.18000 28.73900
O  -5.71800 29.39500 29.08700
C  -3.99200 30.93500 29.86600
C  -5.00900 31.50300 30.72600
O  -5.55000 32.58200 30.74700
O  -5.18600 30.59000 31.73400
C  -5.96900 30.95700 32.97800
H  0.14300 36.51200 29.76900
H  0.59100 36.03700 23.40500
H  -3.69200 31.26500 23.39800
H  -3.30200 33.67300 31.35800
H  -0.44600 34.68900 31.45700
H  -1.58300 36.48000 32.25200
H  -3.08500 35.64800 32.09300
H  -2.52800 36.68800 30.78900
H  -0.64300 32.71200 32.38400
H  -1.52700 31.38400 31.65400
H  -3.08800 31.60500 33.50900
H  -2.90300 33.31300 33.68400
H  1.98200 37.56000 29.18500
H  1.18400 38.94700 28.34100
H  2.84800 38.35700 28.05900
H  3.64900 38.72300 25.98800
H  2.20700 39.73000 26.30300
H  3.18400 39.76700 24.79700
H  -0.16300 34.21800 21.71800
H  -3.02400 33.04200 21.80600
H  -1.47500 35.74200 20.56900
H  -2.00000 36.32800 22.21800
H  -2.86300 35.07300 21.42600
H  -0.42200 31.86000 21.29900
H  -1.99200 31.33500 20.81100
H  -0.61700 30.88300 23.60400
H  -0.00400 30.11800 22.25400
H  -1.63400 29.63300 22.76300
H  -5.04600 28.98600 25.04200
H  -5.79200 30.54000 24.56400
H  -6.38800 29.69500 26.00400
H  -3.41500 30.21400 30.44400
H  -6.93500 31.30500 32.61100
H  -5.49500 31.78600 33.50400
H  -6.21900 30.10800 33.61400

