158

Mg 7.77700 2.93200 26.89700
C  9.21700 1.68800 29.99500
C  5.55800 4.59700 28.86600
C  6.33500 3.91100 24.06300
C  9.60700 0.48900 25.22800
N  7.54600 3.21500 29.16300
C  8.20300 2.62200 30.23100
C  7.63300 3.04700 31.57100
C  6.29900 3.84400 31.18400
C  6.42900 3.83500 29.61300
C  4.96300 3.08700 31.64600
C  8.62400 3.80700 32.38700
C  8.54200 3.51500 33.92100
H  9.37800 4.45000 34.85400
N  6.36500 4.32500 26.51900
C  5.55300 4.86400 27.45200
C  4.68700 5.85100 26.81500
C  4.94100 5.72800 25.39100
C  5.92100 4.62400 25.21400
C  3.65700 6.72700 27.50300
C  4.49700 6.64700 24.17600
O  4.75300 6.35200 23.02000
C  3.66400 7.91600 24.54400
N  8.00300 2.30400 24.94000
C  7.20000 2.80600 23.91100
C  7.49100 2.09600 22.57600
C  8.68600 1.13100 22.95700
C  8.82200 1.32900 24.45200
C  6.26100 1.32300 22.14300
C  10.06100 1.51700 22.21200
C  10.71100 0.23000 21.66300
N  9.18700 1.49600 27.42000
C  9.78700 0.57000 26.61500
C  10.69600 -0.20600 27.39100
C  10.53400 0.21600 28.74100
C  9.58900 1.26200 28.67100
C  11.62300 -1.32000 26.90200
C  11.02200 0.01300 30.07600
O  11.92600 -0.68200 30.60600
C  10.03900 0.93200 30.95200
C  9.32400 0.01200 31.96300
O  8.23800 -0.55700 31.69500
O  9.98800 -0.02500 33.22100
C  9.16300 -0.67400 34.27800
H  4.93700 5.25200 29.48200
H  5.96400 4.32200 23.12100
H  10.19400 -0.28500 24.73000
H  7.43000 2.13900 32.13800
H  6.32100 4.86600 31.56200
H  5.16100 2.21000 32.26200
H  4.32200 2.85700 30.79500
H  4.37900 3.71200 32.32200
H  8.59100 4.89000 32.26500
H  9.64200 3.54700 32.09600
H  9.01200 2.54000 34.04800
H  7.51800 3.46800 34.29200
H  2.70300 6.44700 27.05600
H  3.68600 7.81500 27.44900
H  3.48100 6.43400 28.53800
H  4.32500 8.65300 24.99800
H  2.80800 7.73400 25.19400
H  3.16500 8.21200 23.62100
H  7.64900 2.89600 21.85200
H  8.43800 0.08700 22.76900
H  5.38800 1.50900 22.77000
H  6.34200 0.25600 21.93500
H  5.90800 1.55800 21.13900
H  10.68900 2.08300 22.90000
H  9.80600 2.20700 21.40900
H  11.41100 0.60500 20.91500
H  10.02400 -0.47200 21.19100
H  11.18700 -0.41600 22.40100
H  11.10500 -1.67400 26.01000
H  11.53100 -2.15900 27.59200
H  12.60500 -0.93100 26.63300
H  10.64900 1.56900 31.59300
H  8.51300 0.11900 34.64700
H  9.85000 -0.87400 35.10100
H  8.57600 -1.56600 34.06000
Mg 49.03300 34.76400 28.33900
C  47.33100 33.24700 31.03300
C  49.28500 37.61700 30.32000
C  50.28400 36.37000 25.53600
C  48.15200 32.03900 26.28300
N  48.38100 35.32400 30.44400
C  47.82700 34.58300 31.36500
C  48.09200 35.15700 32.77500
C  48.33800 36.67500 32.41800
C  48.75600 36.54700 30.96300
C  47.11300 37.60500 32.82900
C  49.38000 34.46100 33.38300
C  49.42700 34.27800 34.93200
H  48.73900 35.31400 35.85900
N  49.75000 36.65800 27.97700
C  49.81800 37.68000 28.96800
C  50.47700 38.86500 28.40600
C  50.63800 38.61200 27.00300
C  50.17000 37.15400 26.79100
C  50.93900 39.96900 29.30000
C  51.26100 39.49200 25.99100
O  51.46600 39.05600 24.90800
C  51.48400 40.87700 26.28500
N  49.26500 34.28600 26.21100
C  49.93300 35.01500 25.31300
C  50.45100 34.09100 24.16900
C  49.58800 32.82300 24.27100
C  48.98700 33.02700 25.67300
C  50.46200 34.79600 22.75400
C  50.21700 31.43200 24.03100
C  51.50400 31.35700 23.08500
N  47.98000 33.02400 28.56000
C  47.73700 31.97900 27.67100
C  47.01800 30.83200 28.33900
C  46.91200 31.29600 29.68000
C  47.39300 32.62700 29.72500
C  46.74800 29.42800 27.72400
C  46.35300 30.95300 30.97600
O  45.71900 29.98100 31.33400
C  46.47500 32.27800 31.82600
C  46.87900 31.91400 33.19900
O  47.85300 31.22700 33.51400
O  45.93900 32.25500 34.08000
C  46.19600 31.90200 35.49600
H  49.33100 38.52500 30.92500
H  50.80800 36.85600 24.71100
H  48.11400 31.10000 25.72700
H  47.19500 35.04600 33.38500
H  49.17000 37.06900 33.00200
H  47.39400 38.25600 33.65700
H  46.23000 37.03000 33.10700
H  46.82300 38.20500 31.96600
H  50.27000 34.98100 33.02900
H  49.43900 33.50600 32.86200
H  50.49100 34.25300 35.16600
H  49.20300 33.23600 35.16200
H  50.24800 40.80900 29.22700
H  51.93700 40.16900 28.91100
H  51.01000 39.76500 30.36800
H  52.32800 41.13000 26.92500
H  50.59100 41.26400 26.77700
H  51.56500 41.44300 25.35700
H  51.44100 33.82800 24.54300
H  48.74800 32.92000 23.58300
H  51.32600 35.43900 22.58300
H  49.54700 35.38100 22.65600
H  50.40700 34.12500 21.89700
H  49.47800 30.71200 23.68000
H  50.41500 31.06400 25.03800
H  51.21600 30.54100 22.42200
H  52.35200 31.21300 23.75500
H  51.74200 32.26700 22.53400
H  47.02600 28.65300 28.43900
H  47.24900 29.16500 26.79300
H  45.67100 29.30400 27.60300
H  45.46300 32.67900 31.88600
H  46.59900 30.89400 35.59500
H  45.25000 31.92200 36.03600
H  46.93700 32.59700 35.89200

