158

Mg 16.73800 -2.43100 27.75400
C  15.46800 -0.20900 30.20300
C  18.77400 -3.73100 30.16400
C  18.48800 -3.92300 25.18000
C  15.20300 -0.32500 25.39000
N  17.14200 -1.94300 29.91100
C  16.45300 -1.05400 30.68900
C  16.86100 -1.20700 32.15600
C  18.07600 -2.20100 32.05200
C  18.01500 -2.67800 30.66000
C  19.44200 -1.58300 32.34800
C  15.70100 -1.58100 33.15200
C  15.52900 -0.83400 34.55100
H  16.76800 -0.18700 35.19400
N  18.29800 -3.77900 27.62000
C  18.92400 -4.15200 28.76100
C  19.71700 -5.34900 28.42000
C  19.66000 -5.46600 27.02200
C  18.80700 -4.35500 26.51200
C  20.48800 -6.22700 29.43700
C  20.44200 -6.49300 26.08600
O  20.32200 -6.38900 24.88500
C  21.24800 -7.59800 26.64200
N  16.88000 -2.08100 25.54800
C  17.63900 -2.87600 24.77500
C  17.38000 -2.57000 23.31900
C  16.45300 -1.33300 23.36800
C  16.12600 -1.22800 24.82100
C  18.68500 -2.31900 22.53400
C  15.25700 -1.24500 22.38600
C  15.32100 -0.17700 21.38100
N  15.56600 -0.66300 27.73800
C  14.89800 -0.07900 26.73300
C  13.88700 0.87500 27.20600
C  14.09700 0.84400 28.59000
C  15.12500 -0.13200 28.85000
C  12.97500 1.64900 26.37200
C  13.73900 1.40600 29.86000
O  12.97000 2.30700 30.09100
C  14.57400 0.78000 30.97900
C  15.53000 1.81800 31.62700
O  16.58900 2.19600 31.10500
O  15.03100 2.36100 32.79100
C  15.60200 3.52800 33.31200
H  19.38100 -4.18600 30.94900
H  18.92300 -4.52100 24.37700
H  14.68200 0.27800 24.64300
H  17.38900 -0.28600 32.40100
H  18.02500 -3.10500 32.65900
H  19.78400 -1.88000 33.34000
H  19.39100 -0.49500 32.34600
H  20.32300 -1.80300 31.74600
H  15.74300 -2.61800 33.48500
H  14.77700 -1.39500 32.60400
H  15.13200 -1.57700 35.24300
H  14.72100 -0.16800 34.24800
H  19.92600 -7.15800 29.51600
H  20.55400 -5.74500 30.41200
H  21.52900 -6.39300 29.16200
H  20.73700 -8.30000 27.30100
H  22.13600 -7.24600 27.16600
H  21.42900 -8.21100 25.75900
H  16.86000 -3.46100 22.96500
H  16.95300 -0.38000 23.19400
H  19.51800 -1.98900 23.15500
H  18.48200 -1.56600 21.77300
H  18.94500 -3.26800 22.06500
H  14.22200 -1.35500 22.71100
H  15.44500 -2.11000 21.75000
H  16.27300 -0.07400 20.85900
H  15.24700 0.78500 21.88800
H  14.60800 -0.42500 20.59400
H  12.52000 1.02800 25.60100
H  13.52400 2.47600 25.92200
H  12.25000 2.08400 27.06000
H  13.84900 0.41800 31.70900
H  14.77100 4.21700 33.46200
H  16.26900 4.03500 32.61400
H  16.08600 3.25600 34.25000
Mg 50.43100 46.83300 43.10100
C  47.21400 47.36800 41.74100
C  50.53100 43.79800 41.84400
C  53.70300 46.97400 43.70400
C  50.38600 50.40400 43.85500
N  48.99500 45.77700 41.94900
C  47.76400 46.11900 41.43900
C  47.08800 44.82800 40.86900
C  48.01900 43.70800 41.22400
C  49.27500 44.47500 41.75000
C  47.52800 42.67900 42.27700
C  46.72700 44.92300 39.33600
C  45.27200 44.65700 38.95900
H  45.01000 43.48800 37.99700
N  51.96300 45.58700 42.78900
C  51.77500 44.32500 42.29600
C  53.02500 43.62300 42.22600
C  54.00100 44.53800 42.86400
C  53.28000 45.76500 43.14800
C  53.15000 42.30800 41.51000
C  55.48000 44.14600 43.06300
O  55.95900 43.11900 42.66500
C  56.39000 44.94100 44.01900
N  51.73400 48.44400 43.88800
C  53.05200 48.15100 44.03100
C  53.89400 49.41000 44.41700
C  52.75600 50.47600 44.66100
C  51.58400 49.77000 43.99300
C  54.80800 49.30700 45.63800
C  53.09600 51.89400 43.99400
C  52.40800 53.11300 44.61400
N  49.03500 48.53400 42.93500
C  49.18000 49.85900 43.36100
C  47.93100 50.59500 43.09400
C  47.09000 49.60000 42.44500
C  47.84400 48.41200 42.40500
C  47.69100 52.07700 43.35400
C  45.78700 49.33700 41.90600
O  44.80300 50.02900 41.81800
C  45.79700 47.85200 41.42800
C  44.76700 47.22600 42.28200
O  44.58700 47.30100 43.49500
O  43.86600 46.66400 41.35300
C  42.56300 46.25200 41.87900
H  50.55900 42.76800 41.48200
H  54.79200 46.98800 43.78100
H  50.35200 51.44300 44.18900
H  46.14500 44.77400 41.41200
H  48.25500 43.25500 40.26100
H  46.44000 42.62800 42.29900
H  47.88800 42.71900 43.30500
H  47.80400 41.70900 41.86200
H  47.42100 44.33800 38.73200
H  46.77400 45.97200 39.04300
H  44.92100 45.52900 38.40600
H  44.65400 44.57400 39.85200
H  54.05700 42.40500 40.91400
H  52.33700 42.11900 40.80900
H  53.34800 41.48200 42.19200
H  56.76500 45.91300 43.69800
H  57.28500 44.34800 44.20800
H  56.07400 45.03500 45.05800
H  54.51900 49.65000 43.55700
H  52.46100 50.62600 45.70000
H  55.77900 49.70500 45.34200
H  55.00700 48.29600 45.99300
H  54.43000 49.88800 46.48000
H  52.87600 51.80300 42.93000
H  54.14700 52.12400 44.16800
H  53.16100 53.75700 45.06800
H  51.51800 52.87500 45.19800
H  52.08500 53.80400 43.83600
H  48.60500 52.63000 43.56800
H  46.85500 52.06200 44.05300
H  47.33500 52.50600 42.41800
H  45.65300 47.75600 40.35200
H  42.65700 45.43100 42.58900
H  41.89900 45.98700 41.05700
H  42.13500 47.02200 42.52000

