158

Mg 55.65500 23.16700 44.50100
C  53.12000 25.57400 43.55900
C  53.49800 20.78700 43.46700
C  58.12400 21.02300 44.89700
C  57.71600 25.75500 45.44100
N  53.54300 23.21300 43.64700
C  52.74600 24.25100 43.30400
C  51.34700 23.78200 42.82800
C  51.37500 22.34800 43.28000
C  52.88600 22.06900 43.43800
C  50.56800 21.98100 44.59100
C  51.08100 24.08000 41.31600
C  49.58800 24.10000 40.88100
H  49.26000 23.19400 39.73900
N  55.81400 21.17300 44.11900
C  54.80600 20.38700 43.71100
C  55.34700 19.02500 43.62000
C  56.73700 19.06000 44.02700
C  56.97300 20.46700 44.33300
C  54.50900 17.90600 43.12600
C  57.67500 17.87100 43.96500
O  57.31700 16.75900 43.59000
C  59.12900 18.00300 44.28900
N  57.72400 23.35200 45.03400
C  58.45400 22.28900 45.31800
C  59.88700 22.75300 45.78000
C  59.70100 24.25600 46.16200
C  58.29200 24.50500 45.43300
C  60.50600 21.85100 46.90100
C  60.76800 25.23100 45.66000
C  61.10200 26.50300 46.50400
N  55.52900 25.19700 44.37600
C  56.44900 26.13700 44.94200
C  55.90900 27.49900 44.81500
C  54.59800 27.25400 44.26300
C  54.39500 25.87200 44.07100
C  56.56700 28.76000 45.26100
C  53.42100 28.00400 43.99500
O  53.20900 29.25400 44.16800
C  52.40500 26.97900 43.36300
C  52.14900 27.27600 41.92600
O  52.94500 27.47000 41.05400
O  50.77300 27.28000 41.77100
C  50.36800 27.97900 40.52400
H  52.91100 19.89100 43.25800
H  59.09100 20.51900 44.95800
H  58.20800 26.52600 46.03900
H  50.45000 24.15300 43.32400
H  50.87500 21.74900 42.51900
H  51.18800 21.35500 45.23300
H  49.66100 21.48100 44.25400
H  50.40400 22.92600 45.11000
H  51.49800 23.17000 40.88400
H  51.72200 24.95400 41.20600
H  49.17700 25.09000 40.68500
H  49.11400 23.70700 41.78100
H  54.43500 17.91900 42.03800
H  53.51200 17.83300 43.55800
H  54.86800 16.91900 43.41800
H  59.46100 18.52700 43.39300
H  59.59400 17.02600 44.41900
H  59.16900 18.58400 45.21000
H  60.54200 22.62600 44.91800
H  59.57300 24.34000 47.24100
H  59.81600 21.18600 47.42100
H  61.03400 22.45000 47.64300
H  61.27100 21.23400 46.43000
H  60.57600 25.52500 44.62900
H  61.65900 24.61200 45.55500
H  61.19700 27.45500 45.98100
H  62.03100 26.20300 46.98900
H  60.38800 26.66900 47.31000
H  57.07500 29.20700 44.40700
H  57.42700 28.55400 45.89900
H  55.89200 29.31300 45.91400
H  51.42200 26.92700 43.83000
H  51.13400 28.59400 40.05200
H  49.50400 28.57400 40.81900
H  49.99000 27.33800 39.72800
Mg -4.58300 25.51300 25.77300
C  -3.67000 27.05500 28.80700
C  -6.65200 23.51800 27.57500
C  -5.06500 23.63200 23.06500
C  -2.36600 27.52500 24.21000
N  -5.07100 25.37200 28.00600
C  -4.60000 26.03600 29.03600
C  -5.17200 25.53200 30.35200
C  -6.10400 24.29100 29.97700
C  -5.94300 24.37200 28.43900
C  -5.49800 22.92700 30.36400
C  -5.84800 26.73200 31.16700
C  -5.46800 26.94000 32.57400
H  -5.25000 25.74400 33.42500
N  -5.80700 23.82700 25.37600
C  -6.60800 23.23700 26.18800
C  -7.40600 22.26900 25.44500
C  -6.96000 22.22100 24.08600
C  -5.92700 23.29200 24.11400
C  -8.45600 21.42400 26.09000
C  -7.31400 21.31300 22.89300
O  -6.84600 21.40900 21.71600
C  -8.10500 20.13100 23.16900
N  -3.89000 25.64200 23.85300
C  -4.21200 24.77000 22.83900
C  -3.43400 25.18000 21.55600
C  -2.86300 26.56500 21.92100
C  -3.08100 26.64200 23.39900
C  -2.45500 24.09100 21.03200
C  -3.65300 27.73900 21.22100
C  -3.03700 28.49800 20.01200
N  -3.35200 27.04400 26.26400
C  -2.43100 27.77200 25.54100
C  -1.73000 28.77500 26.37800
C  -2.26600 28.55100 27.63300
C  -3.18100 27.47900 27.55500
C  -0.56100 29.61800 26.02700
C  -2.00800 28.86000 29.03400
O  -1.21600 29.59400 29.59900
C  -2.96100 27.92400 29.80000
C  -2.19300 27.18700 30.83200
O  -1.63700 26.10200 30.61700
O  -2.18100 27.89500 32.00700
C  -1.26400 27.42400 33.04000
H  -7.30500 22.90700 28.20200
H  -5.21300 23.04500 22.15600
H  -1.78900 28.20100 23.57500
H  -4.39000 25.16500 31.01700
H  -7.18300 24.38700 30.10200
H  -4.49200 23.02800 30.77000
H  -5.48000 22.32100 29.45900
H  -6.27900 22.57600 31.03900
H  -6.88200 26.39000 31.12600
H  -5.77600 27.69300 30.65800
H  -6.33100 27.41800 33.03700
H  -4.59300 27.57700 32.70100
H  -7.99600 20.54800 26.54800
H  -9.29100 21.12700 25.45600
H  -9.00100 21.98600 26.84900
H  -8.19300 19.55500 22.24700
H  -9.07600 20.58400 23.37300
H  -7.66900 19.50100 23.94300
H  -4.22400 25.16400 20.80400
H  -1.78500 26.49100 21.77900
H  -2.32800 23.29900 21.76900
H  -1.41800 24.42400 20.98400
H  -2.86600 23.72900 20.08900
H  -3.80900 28.53700 21.94700
H  -4.64500 27.34600 20.99900
H  -2.92100 29.57300 20.14900
H  -3.61600 28.20200 19.13700
H  -1.99600 28.18400 19.93300
H  -0.21600 30.25300 26.84300
H  -0.87700 30.18000 25.14800
H  0.18900 28.88000 25.74400
H  -3.62000 28.51200 30.43900
H  -0.36300 28.01700 32.88300
H  -1.00300 26.36800 32.95800
H  -1.55700 27.68200 34.05700

