158

Mg 2.74800 -2.44700 43.68600
C  6.04300 -1.48800 43.11000
C  1.58600 0.03800 41.51900
C  -0.24400 -3.95500 43.58900
C  4.04300 -5.35400 45.17700
N  3.73300 -0.94200 42.48000
C  5.15000 -0.68000 42.37700
C  5.44000 0.49100 41.40800
C  3.95100 0.97000 41.08300
C  2.99600 -0.06000 41.69400
C  3.60400 2.34500 41.62100
C  6.40700 -0.03400 40.23200
C  7.71600 0.78800 40.06600
H  8.30400 0.97200 38.66100
N  0.84600 -1.79000 42.96500
C  0.59200 -0.76600 42.08700
C  -0.80600 -0.67700 41.83200
C  -1.35700 -1.88000 42.34300
C  -0.30400 -2.60400 43.01800
C  -1.39000 0.59500 41.07700
C  -2.82700 -2.27500 42.16300
O  -3.57800 -1.47900 41.52000
C  -3.49700 -3.54600 42.54700
N  2.06500 -4.44600 44.17000
C  0.72500 -4.74800 44.16100
C  0.43200 -6.23600 44.58800
C  1.74600 -6.51800 45.34700
C  2.72000 -5.43100 44.81600
C  -0.88300 -6.37500 45.44200
C  2.34200 -7.95900 45.12600
C  2.94200 -8.79300 46.27700
N  4.59800 -3.22500 44.25400
C  4.97800 -4.40400 44.82100
C  6.41500 -4.40300 45.11700
C  6.80500 -3.18800 44.49900
C  5.69000 -2.62600 43.88900
C  7.18800 -5.45100 45.88000
C  7.96000 -2.40600 44.21100
O  9.10900 -2.62600 44.51900
C  7.48500 -1.23900 43.35500
C  7.72200 0.02700 44.13800
O  7.26000 0.25300 45.24500
O  8.46800 0.86800 43.32400
C  8.63400 2.17200 43.84400
H  1.18500 0.84100 40.89600
H  -1.21900 -4.44300 43.52900
H  4.37300 -6.19500 45.79000
H  6.00300 1.24600 41.95700
H  3.81400 1.08800 40.00800
H  4.53000 2.90300 41.76200
H  3.03200 2.24000 42.54300
H  3.01900 2.88500 40.87700
H  5.90900 0.18300 39.28700
H  6.63500 -1.09600 40.31800
H  8.41700 0.24300 40.69800
H  7.53300 1.79100 40.44900
H  -2.40900 0.76900 41.42300
H  -1.34200 0.45700 39.99600
H  -0.81400 1.51500 41.17300
H  -3.43100 -3.92500 43.56600
H  -3.02400 -4.28300 41.89900
H  -4.57700 -3.43000 42.45800
H  0.31300 -6.77200 43.64700
H  1.64400 -6.29800 46.41000
H  -1.21900 -5.34100 45.51200
H  -0.71900 -6.95900 46.34800
H  -1.72900 -6.82500 44.92300
H  3.04200 -7.91000 44.29200
H  1.48900 -8.56600 44.82500
H  3.04200 -8.17100 47.16600
H  3.98300 -8.96900 46.00600
H  2.31300 -9.64800 46.52200
H  8.20200 -5.05800 45.79600
H  7.02100 -6.39900 45.36900
H  6.87900 -5.47900 46.92500
H  7.99400 -1.28700 42.39200
H  8.66300 2.79300 42.94900
H  9.43900 2.21600 44.57800
H  7.87900 2.60700 44.49900
Mg 1.30700 42.65000 26.80800
C  2.63600 42.44400 30.07800
C  -1.73100 41.88300 28.14700
C  0.26300 42.36600 23.78200
C  4.64000 43.24800 25.66100
N  0.50200 42.42400 28.86300
C  1.22500 42.45300 30.00900
C  0.25000 42.26400 31.21200
C  -0.96700 41.66600 30.57100
C  -0.75100 42.06900 29.13200
C  -1.21900 40.16900 30.79600
C  0.06000 43.59300 31.92500
C  0.36200 43.72100 33.47200
H  0.14500 42.60000 34.44100
N  -0.52000 42.37000 26.02400
C  -1.68300 42.04300 26.73700
C  -2.77600 41.82100 25.80700
C  -2.20200 41.95300 24.51100
C  -0.77900 42.21400 24.74300
C  -4.19700 41.63900 26.20900
C  -2.78300 41.63600 23.12800
O  -2.11100 41.63200 22.09800
C  -4.20700 41.07800 23.02700
N  2.37000 42.65300 25.03800
C  1.66100 42.57300 23.85800
C  2.58300 42.53600 22.63700
C  3.88900 43.07000 23.22900
C  3.62600 43.05900 24.76700
C  2.60600 41.13200 22.00100
C  4.55800 44.44600 22.71100
C  3.65900 45.72200 22.54600
N  3.25700 42.91100 27.65900
C  4.55800 43.13400 27.04100
C  5.55900 43.17300 28.04800
C  4.87500 42.82100 29.28200
C  3.49900 42.66000 28.94900
C  6.98800 43.60500 27.97500
C  5.03300 42.62200 30.73300
O  6.07400 42.57000 31.41000
C  3.50400 42.50700 31.31300
C  3.53600 41.25000 32.20000
O  3.45100 40.08400 31.83500
O  3.62600 41.66000 33.48700
C  3.89000 40.63400 34.52100
H  -2.64300 41.49700 28.60600
H  -0.02000 42.33200 22.72800
H  5.58800 43.50700 25.18500
H  0.69200 41.57400 31.93000
H  -1.92600 42.12600 30.81100
H  -0.45500 39.69500 31.41300
H  -1.33000 39.62900 29.85600
H  -2.10500 40.12900 31.43000
H  -0.99100 43.88100 31.89600
H  0.45400 44.40100 31.30900
H  -0.24100 44.51500 33.91200
H  1.41800 43.98600 33.42200
H  -4.44400 40.57900 26.16200
H  -4.96500 42.18300 25.65800
H  -4.18400 41.95600 27.25200
H  -4.45700 40.67900 22.04400
H  -4.85400 41.92500 23.25700
H  -4.28000 40.38800 23.86700
H  2.15000 43.25800 21.94400
H  4.52900 42.18900 23.18000
H  1.84400 40.51800 22.48100
H  3.56700 40.61900 22.04200
H  2.39100 41.32200 20.95000
H  5.27700 44.28000 21.90800
H  5.19700 44.68500 23.56100
H  3.93600 46.36300 23.38400
H  2.60000 45.50300 22.68700
H  3.84000 46.22800 21.59800
H  7.16800 44.01300 26.98100
H  7.69800 42.84400 28.29800
H  7.05600 44.55400 28.50700
H  3.35000 43.47900 31.78100
H  4.67000 39.94600 34.19600
H  2.94600 40.09200 34.57200
H  4.09000 41.06200 35.50300

