158

Mg 25.00500 1.06000 29.67200
C  27.05600 1.08100 32.63200
C  22.22700 0.90500 31.65500
C  23.15900 0.69600 26.82000
C  27.96300 0.87600 27.76800
N  24.74200 0.91900 31.91600
C  25.68600 1.15400 32.87500
C  24.95300 1.25400 34.28900
C  23.41000 1.04500 33.87600
C  23.46200 0.98200 32.39200
C  22.56500 -0.13000 34.52000
C  25.27000 2.55200 35.07900
C  25.49600 2.38300 36.57200
H  24.86300 3.49800 37.48900
N  22.96300 0.99300 29.31300
C  21.97500 0.91100 30.25300
C  20.71500 0.76900 29.53500
C  21.02800 0.79200 28.15000
C  22.44400 0.83800 28.03200
C  19.34500 0.73200 30.21300
C  19.95600 0.68000 27.06400
O  20.15700 0.87000 25.92500
C  18.48500 0.26400 27.41700
N  25.51500 0.80900 27.65000
C  24.56200 0.69300 26.60600
C  25.22900 0.67000 25.23400
C  26.67900 1.00600 25.54900
C  26.71200 0.80900 27.09000
C  24.91400 -0.40200 24.23900
C  27.02000 2.42900 25.05500
C  26.59100 3.65200 25.95300
N  27.01500 0.80700 30.09400
C  28.09700 0.64900 29.20200
C  29.33000 0.45100 29.92200
C  28.98000 0.62900 31.20300
C  27.55000 0.84500 31.31700
C  30.72000 0.23400 29.43700
C  29.51600 0.70100 32.56600
O  30.70200 0.65600 32.92100
C  28.24800 1.09600 33.54900
C  28.10300 0.09000 34.55000
O  27.42700 -0.93000 34.46800
O  28.69300 0.46800 35.74500
C  28.84500 -0.54200 36.82700
H  21.33600 0.94200 32.28500
H  22.59900 0.48500 25.90700
H  28.83800 0.90100 27.11500
H  25.21500 0.39100 34.90200
H  22.84400 1.94900 34.10200
H  23.21100 -0.46900 35.33000
H  22.37000 -0.94100 33.81900
H  21.63500 0.25200 34.94300
H  24.39600 3.16800 34.86500
H  26.04700 3.23400 34.73400
H  26.58000 2.43700 36.67400
H  25.28600 1.36600 36.90200
H  18.69800 1.44700 29.70500
H  19.51200 1.10300 31.22400
H  18.88700 -0.25700 30.22100
H  18.50300 -0.59700 28.08600
H  18.04200 -0.01100 26.46000
H  17.90800 1.10900 27.79200
H  24.68200 1.52300 24.83400
H  27.40800 0.25500 25.24700
H  24.23100 -1.12700 24.68100
H  25.87100 -0.89100 24.05800
H  24.61400 -0.04100 23.25500
H  26.69900 2.54500 24.02000
H  28.10700 2.35900 25.09600
H  27.11200 3.50100 26.89800
H  25.51600 3.49100 26.04300
H  26.79900 4.58100 25.42300
H  31.38200 0.84300 30.05300
H  30.88700 0.50100 28.39300
H  31.08900 -0.78400 29.55600
H  28.38900 2.07500 34.00700
H  29.15700 -1.51200 36.44200
H  27.89300 -0.77400 37.30400
H  29.47300 -0.24900 37.66800
Mg 0.96000 42.47900 25.31700
C  1.92000 42.44600 28.78000
C  -1.84200 41.01000 26.24200
C  0.64000 41.88400 22.13900
C  4.11500 43.91200 24.61900
N  0.06600 42.00400 27.30000
C  0.58200 42.22600 28.55200
C  -0.47500 42.02000 29.59400
C  -1.68200 41.31200 28.79800
C  -1.16500 41.45600 27.33900
C  -2.03300 39.84600 29.23800
C  -0.99600 43.30600 30.24800
C  -1.44500 43.39400 31.71800
H  -1.84900 42.07800 32.38700
N  -0.46000 41.68700 24.32200
C  -1.47900 41.07100 24.85400
C  -2.30500 40.45800 23.83200
C  -1.64400 40.69000 22.59400
C  -0.41700 41.46900 22.94400
C  -3.47600 39.65700 24.31100
C  -1.98300 40.27500 21.17500
O  -1.22900 40.50200 20.22000
C  -3.45700 39.68100 20.91100
N  2.17000 42.97800 23.62800
C  1.77600 42.59100 22.38100
C  2.62700 43.12800 21.24200
C  3.63300 43.96500 22.13600
C  3.34300 43.58200 23.52300
C  3.28600 42.07900 20.30900
C  3.56500 45.49400 21.92600
C  4.11900 45.85900 20.55900
N  2.72800 42.95800 26.38900
C  3.97300 43.48900 25.93000
C  4.91300 43.57000 27.07800
C  4.12800 43.13800 28.18800
C  2.84900 42.73500 27.67300
C  6.29700 44.25300 27.02200
C  4.12600 42.99600 29.61500
O  5.05100 43.02300 30.43600
C  2.71200 42.73300 30.02300
C  2.68300 41.57100 30.91400
O  2.87700 40.42900 30.59800
O  2.38100 41.99200 32.18100
C  2.19600 40.88500 33.12300
H  -2.83400 40.64700 26.51800
H  0.58000 41.69000 21.06600
H  5.06100 44.40400 24.38100
H  -0.19700 41.33200 30.39200
H  -2.52900 41.99500 28.73500
H  -1.77700 39.23000 28.37600
H  -3.05800 39.63500 29.54300
H  -1.41300 39.53000 30.07800
H  -1.75700 43.81000 29.65200
H  -0.16500 44.00700 30.17800
H  -2.09100 44.27100 31.74400
H  -0.52000 43.71900 32.19500
H  -3.98700 38.97800 23.62900
H  -4.06200 40.44700 24.78100
H  -3.10700 38.89000 24.99200
H  -4.14700 40.30200 21.48200
H  -3.51200 38.69700 21.37700
H  -3.90400 39.75800 19.91900
H  2.12400 43.91700 20.68200
H  4.67900 43.70600 21.97200
H  4.36400 42.10400 20.47000
H  3.04700 42.05300 19.24600
H  3.02000 41.08200 20.66100
H  4.36700 45.86800 22.56200
H  2.62100 45.95200 22.22400
H  4.99800 46.50100 20.60900
H  3.41400 46.54300 20.08700
H  4.19600 45.04700 19.83700
H  6.98400 43.81400 27.74600
H  6.16600 45.31800 27.21500
H  6.78100 44.17200 26.04900
H  2.26100 43.56700 30.56000
H  3.19900 40.78700 33.53900
H  1.89700 39.97500 32.60200
H  1.49300 41.22900 33.88100

