158

Mg -12.30800 38.75400 42.16000
C  -10.01900 36.40700 40.85200
C  -10.60500 41.13700 40.68500
C  -14.93500 40.81300 42.67200
C  -14.33100 36.03300 43.25300
N  -10.50700 38.70400 40.90100
C  -9.74700 37.71400 40.47000
C  -8.63100 38.17300 39.60000
C  -8.59200 39.69700 40.01400
C  -10.03900 39.87900 40.51700
C  -7.42700 40.08600 40.97400
C  -9.03300 37.74700 38.12400
C  -7.94600 37.08500 37.30700
H  -7.30400 37.77200 36.18200
N  -12.65500 40.73200 41.79500
C  -11.81400 41.54200 41.22000
C  -12.26000 42.91900 41.40500
C  -13.54300 42.84700 41.95700
C  -13.77800 41.42900 42.18600
C  -11.40300 44.13700 41.03000
C  -14.40900 44.05600 42.22900
O  -14.12300 45.18300 41.79600
C  -15.68900 44.01100 42.90500
N  -14.40400 38.45300 42.73600
C  -15.20400 39.47300 43.03600
C  -16.60700 39.03600 43.59600
C  -16.28300 37.53800 43.74000
C  -14.91300 37.30200 43.25000
C  -17.02800 39.80000 44.88000
C  -17.49900 36.71700 43.14400
C  -17.34100 36.29600 41.73300
N  -12.26900 36.64900 42.01100
C  -13.08200 35.70100 42.62300
C  -12.53500 34.38900 42.36400
C  -11.38000 34.63800 41.62500
C  -11.22300 36.03200 41.52300
C  -12.85500 33.05000 42.88600
C  -10.24100 33.98700 40.94100
O  -10.01500 32.79300 40.87200
C  -9.27000 35.13300 40.44800
C  -7.93100 34.88900 41.14500
O  -7.78200 34.98600 42.34200
O  -6.91500 34.60500 40.25700
C  -5.64800 34.07400 40.83400
H  -9.90900 41.91100 40.35600
H  -15.72500 41.53100 42.90100
H  -14.86000 35.15100 43.62100
H  -7.73000 37.69000 39.97900
H  -8.51600 40.24700 39.07700
H  -6.51300 39.49200 40.97700
H  -7.90400 40.19100 41.94900
H  -7.03800 41.02500 40.58000
H  -9.31800 38.61700 37.53300
H  -9.85600 37.04100 38.23300
H  -8.45500 36.19900 36.92800
H  -7.23700 36.76700 38.07200
H  -11.92000 44.46200 40.12700
H  -10.34100 43.96800 40.85300
H  -11.36000 44.98800 41.71000
H  -16.52800 43.76200 42.25500
H  -15.94200 44.92800 43.43700
H  -15.60000 43.37900 43.78900
H  -17.38000 39.18600 42.84200
H  -16.29700 37.25100 44.79200
H  -17.65600 40.65000 44.61600
H  -16.24500 40.23800 45.49900
H  -17.66600 39.13600 45.46200
H  -18.34200 37.40300 43.22300
H  -17.52400 35.81500 43.75600
H  -17.63700 35.24700 41.73400
H  -16.28400 36.32700 41.46800
H  -17.94900 36.85300 41.02000
H  -13.91400 32.95800 43.12900
H  -12.30700 32.81800 43.79900
H  -12.58200 32.31300 42.13200
H  -9.12000 34.99200 39.37700
H  -5.80900 33.49100 41.74000
H  -4.86200 34.79900 41.04500
H  -5.20500 33.30300 40.20300
Mg -2.94200 35.78500 26.59700
C  -4.48900 33.94900 29.14700
C  -1.44000 37.82700 28.98800
C  -1.77100 37.76000 24.05600
C  -4.76400 33.98900 24.34900
N  -3.12800 35.90300 28.81200
C  -3.65600 34.95800 29.66600
C  -3.49900 35.38700 31.14800
C  -2.38800 36.47700 30.97300
C  -2.32500 36.78400 29.49300
C  -2.39100 37.80100 31.79300
C  -3.18000 34.22700 32.12700
C  -2.01900 34.32100 33.11600
H  -2.07400 33.48200 34.38700
N  -1.72200 37.46200 26.53900
C  -1.14400 38.12100 27.60300
C  -0.13500 39.06100 27.10100
C  -0.25200 39.11800 25.68800
C  -1.31900 38.12500 25.37200
C  0.66200 39.97500 28.05500
C  0.46600 39.93500 24.70800
O  0.26500 39.91000 23.49100
C  1.53900 40.80500 25.18300
N  -3.45500 36.08100 24.53500
C  -2.70400 36.77800 23.65600
C  -3.15000 36.55100 22.28000
C  -3.88600 35.21000 22.39400
C  -3.97200 35.06500 23.90300
C  -3.96500 37.73500 21.84400
C  -3.21900 34.03100 21.58000
C  -2.12200 33.22500 22.28000
N  -4.51800 34.37300 26.66600
C  -5.08900 33.68300 25.63800
C  -5.96400 32.67600 26.13700
C  -5.68400 32.72700 27.49000
C  -4.91500 33.80000 27.80700
C  -6.84200 31.58200 25.42900
C  -6.02100 32.06000 28.75300
O  -6.67200 31.02100 28.91200
C  -5.29900 32.83300 29.91800
C  -6.37200 33.35300 30.71400
O  -7.22000 34.10900 30.32000
O  -6.29600 32.81700 31.95900
C  -7.32500 33.24600 32.86100
H  -0.85100 38.38100 29.72300
H  -1.42000 38.39500 23.24000
H  -5.09800 33.25100 23.61600
H  -4.38500 35.97400 31.39000
H  -1.45200 35.97900 31.22700
H  -2.55700 38.71000 31.21400
H  -1.42000 37.80500 32.28900
H  -3.08600 37.64200 32.61700
H  -3.06800 33.33400 31.51200
H  -3.89500 34.10400 32.94100
H  -1.87000 35.37200 33.36100
H  -1.08500 34.04800 32.62500
H  1.71700 39.83600 27.82000
H  0.56300 39.73300 29.11300
H  0.49300 41.05100 28.02700
H  1.90700 41.24500 24.25600
H  2.33300 40.22500 25.65300
H  1.03700 41.58500 25.75500
H  -2.24600 36.35900 21.70200
H  -4.87600 35.42700 21.99200
H  -4.75700 37.57500 21.11300
H  -3.21200 38.28900 21.28300
H  -4.34900 38.27300 22.71100
H  -2.67800 34.36200 20.69400
H  -3.97900 33.37200 21.15900
H  -1.37700 32.91000 21.54900
H  -2.54200 32.30800 22.69500
H  -1.64300 33.78100 23.08600
H  -6.32300 30.63800 25.59300
H  -7.08900 31.88500 24.41100
H  -7.80800 31.53300 25.93200
H  -4.69200 32.04300 30.36000
H  -8.23200 33.12500 32.26900
H  -7.19400 34.26600 33.22100
H  -7.30100 32.58600 33.72800

