158

Mg 17.21000 -1.83600 28.33400
C  16.19800 0.38600 30.80700
C  19.28700 -3.38700 30.58900
C  18.44600 -3.59100 25.79600
C  15.47600 0.32400 26.00400
N  17.62300 -1.55200 30.43900
C  17.03500 -0.58500 31.24600
C  17.48800 -0.83500 32.66800
C  18.60600 -1.96900 32.61500
C  18.45000 -2.38000 31.13800
C  20.07400 -1.72500 32.97700
C  16.24900 -1.28300 33.61000
C  16.20500 -0.47000 34.88600
H  17.52100 -0.08300 35.55000
N  18.74800 -3.24400 28.23200
C  19.40400 -3.83300 29.24400
C  20.05500 -5.01600 28.83400
C  19.77400 -5.20900 27.39300
C  18.90300 -4.00500 27.06600
C  20.87700 -5.94600 29.75900
C  20.28100 -6.17800 26.41000
O  20.07500 -6.23400 25.16000
C  21.25100 -7.21400 26.89200
N  16.93400 -1.74300 26.24000
C  17.67900 -2.50400 25.39500
C  17.29400 -2.18700 23.92100
C  16.34900 -0.92800 23.98900
C  16.25000 -0.71900 25.51900
C  18.52300 -1.95800 23.01200
C  14.97100 -1.16100 23.28000
C  13.99500 -2.03500 24.03100
N  15.92800 -0.07500 28.38100
C  15.34700 0.67600 27.39000
C  14.46000 1.69600 27.97300
C  14.79900 1.67300 29.33300
C  15.72400 0.64400 29.48400
C  13.47700 2.65800 27.33500
C  14.62600 2.37100 30.65100
O  13.92600 3.32800 30.94900
C  15.49000 1.50400 31.63400
C  16.35800 2.30900 32.35200
O  17.42400 2.70700 32.01200
O  15.83300 2.71600 33.52500
C  16.47400 3.73600 34.34000
H  19.96600 -3.85700 31.30400
H  18.82700 -4.12400 24.92400
H  14.98400 0.99900 25.30100
H  18.04800 0.04500 32.98300
H  18.29800 -2.83900 33.19600
H  20.05000 -0.87500 33.65800
H  20.59000 -1.55300 32.03200
H  20.42000 -2.60400 33.52000
H  16.39500 -2.31200 33.93900
H  15.34200 -1.16600 33.01600
H  15.52900 -1.04200 35.52100
H  15.66600 0.42100 34.56200
H  20.46800 -6.94300 29.59800
H  20.83300 -5.70500 30.82100
H  21.92000 -5.84600 29.45700
H  20.73800 -7.82100 27.63900
H  22.20400 -6.80000 27.22000
H  21.58200 -7.88100 26.09600
H  16.78100 -3.08400 23.57500
H  16.71700 -0.02300 23.50700
H  18.34100 -1.31600 22.15100
H  18.75800 -2.97000 22.68200
H  19.30100 -1.45900 23.59100
H  15.08100 -1.64500 22.30900
H  14.41000 -0.22900 23.20700
H  13.08800 -1.45100 24.18900
H  14.39300 -2.40200 24.97700
H  13.67600 -2.89700 23.44500
H  13.10400 2.16000 26.44000
H  14.04800 3.51600 26.97900
H  12.61600 2.97500 27.92300
H  14.73500 1.04800 32.27400
H  17.23100 4.28500 33.78000
H  17.00500 3.37100 35.22000
H  15.62100 4.34100 34.64600
Mg 1.32500 41.41800 26.14400
C  3.52300 41.73500 29.10400
C  -1.19500 40.81800 28.23000
C  -0.27600 41.01400 23.37400
C  4.25500 42.22500 24.21900
N  1.27100 41.29900 28.40100
C  2.17000 41.55700 29.44400
C  1.46500 41.62800 30.80700
C  0.12800 40.80000 30.47600
C  -0.00400 41.00800 28.95000
C  0.18100 39.36700 31.09400
C  1.29500 43.09300 31.34100
C  1.32900 43.17300 32.88400
H  1.22000 41.84800 33.66600
N  -0.51100 40.96000 25.82500
C  -1.46700 40.75000 26.81700
C  -2.68500 40.30400 26.12900
C  -2.44600 40.36300 24.74200
C  -1.04900 40.80200 24.55900
C  -4.02300 40.21900 26.89400
C  -3.22600 39.81300 23.54500
O  -2.84400 39.76000 22.39100
C  -4.60000 39.31300 23.70400
N  1.83900 41.87700 24.15000
C  1.01000 41.58800 23.16200
C  1.63400 41.70500 21.79200
C  2.95600 42.37500 22.09800
C  3.07800 42.08300 23.51200
C  1.72100 40.43500 20.86300
C  3.01500 43.91400 21.85600
C  2.31700 44.86300 22.79800
N  3.45900 41.83800 26.48900
C  4.47100 42.13700 25.60700
C  5.72000 42.37800 26.33300
C  5.37400 42.19800 27.66100
C  4.01100 41.90100 27.79000
C  7.06000 42.73100 25.78600
C  5.94300 42.13200 28.94500
O  7.14300 42.22300 29.11600
C  4.77500 42.06500 29.94500
C  5.09600 41.06600 30.96700
O  5.20900 39.83500 30.75400
O  5.00900 41.62400 32.17300
C  5.31100 40.74100 33.26800
H  -2.02200 40.58300 28.90300
H  -0.81700 40.73600 22.46800
H  5.13400 42.24800 23.57200
H  2.03500 40.96900 31.46200
H  -0.65800 41.27700 31.06200
H  0.76300 39.40900 32.01500
H  0.70300 38.74100 30.37000
H  -0.82000 39.01900 31.34700
H  0.27100 43.25500 31.00500
H  1.96300 43.86300 30.95300
H  0.64600 43.96800 33.18400
H  2.31300 43.54900 33.16400
H  -4.35100 39.18500 26.99700
H  -4.80300 40.77000 26.36900
H  -3.84100 40.57800 27.90800
H  -4.76700 38.60400 24.51500
H  -4.87500 38.75900 22.80600
H  -5.22000 40.18000 23.93300
H  0.94900 42.39800 21.30400
H  3.71200 41.81900 21.54300
H  2.66600 40.53100 20.32900
H  0.89200 40.53700 20.16200
H  1.60500 39.43000 21.26900
H  2.52000 44.08800 20.90000
H  4.05900 44.20500 21.74000
H  2.59400 45.87500 22.50100
H  2.61800 44.75800 23.84000
H  1.27200 44.55500 22.79000
H  6.90600 43.40500 24.94400
H  7.60100 41.87600 25.37900
H  7.75400 43.25500 26.44200
H  4.55400 42.99300 30.47300
H  5.45100 41.37500 34.14400
H  6.26300 40.38800 32.87200
H  4.59300 39.93600 33.42300

