158

Mg 0.96600 8.07600 26.32400
C  1.71700 10.28400 29.05000
C  1.24500 5.40000 28.68900
C  0.69400 5.99500 23.80600
C  1.02600 10.76200 24.26100
N  1.45100 7.88200 28.60300
C  1.62600 8.95800 29.48700
C  1.76700 8.47500 30.92100
C  1.87200 6.91100 30.75500
C  1.47900 6.70400 29.27100
C  3.30300 6.35900 30.98400
C  0.53400 8.91700 31.74900
C  0.85000 9.27900 33.24100
H  1.96100 8.60900 34.11900
N  0.90300 5.99600 26.24300
C  0.99400 5.07100 27.28800
C  0.82700 3.78400 26.77600
C  0.70700 3.88400 25.38000
C  0.82100 5.34600 25.06500
C  0.73500 2.53000 27.68500
C  0.67900 2.81700 24.31600
O  0.64500 2.99700 23.07000
C  0.74900 1.43300 24.74100
N  0.95700 8.36300 24.31100
C  0.77900 7.32800 23.47200
C  0.82300 7.81700 22.04400
C  0.53200 9.32000 22.22100
C  0.86200 9.51700 23.70400
C  2.22400 7.51400 21.38400
C  -0.91000 9.75200 22.05700
C  -1.21800 10.38600 20.75000
N  1.34400 10.17800 26.53500
C  1.33300 11.13500 25.64000
C  1.65100 12.51800 26.21800
C  1.80100 12.18200 27.58000
C  1.57200 10.77700 27.73700
C  1.64600 13.77000 25.45300
C  2.07500 12.72600 28.83600
O  2.40400 13.87500 29.10000
C  2.00000 11.53300 29.86400
C  3.30900 11.50500 30.61400
O  4.41100 11.29700 30.14400
O  3.00900 11.72500 31.90200
C  4.10800 11.99900 32.83200
H  1.39100 4.60400 29.42100
H  0.67600 5.38900 22.89800
H  0.91000 11.56700 23.53100
H  2.66100 8.97200 31.29800
H  1.05800 6.52200 31.36700
H  3.99300 7.12200 31.34700
H  3.65000 5.83100 30.09600
H  3.15500 5.61600 31.76800
H  -0.24800 8.16200 31.67400
H  0.07700 9.72400 31.17600
H  -0.03600 9.41200 33.86100
H  1.20800 10.30400 33.13800
H  -0.04100 1.79100 27.49000
H  0.59100 2.75900 28.74100
H  1.68000 1.99500 27.78200
H  1.63200 1.31500 25.36900
H  0.91100 0.81200 23.85900
H  -0.15600 1.04600 25.21000
H  -0.08500 7.38900 21.61800
H  1.16100 9.90100 21.54700
H  2.99100 7.59900 22.15400
H  2.41000 8.12600 20.50200
H  2.03000 6.47700 21.10800
H  -1.24500 10.47700 22.79800
H  -1.62300 8.93200 22.14000
H  -0.36200 10.15600 20.11600
H  -1.44600 11.43900 20.91200
H  -2.02600 9.96400 20.15300
H  0.59800 13.90200 25.18300
H  2.32900 13.75200 24.60400
H  1.97400 14.60400 26.07400
H  1.20000 11.82300 30.54400
H  4.86900 12.50100 32.23400
H  4.70000 11.18900 33.25800
H  3.81600 12.70800 33.60700
Mg 47.65000 34.01000 26.92000
C  45.80100 32.55600 29.50600
C  48.07500 36.81400 29.07400
C  49.04600 35.81000 24.37400
C  46.95500 31.47900 24.85000
N  46.93500 34.65500 29.02800
C  46.24100 33.81800 29.91000
C  46.08900 34.55700 31.27300
C  46.44300 35.97900 30.82100
C  47.25300 35.78300 29.58200
C  45.21300 36.86800 30.61100
C  47.02700 33.99700 32.31000
C  46.49400 33.97600 33.75800
H  45.62200 35.06600 34.33100
N  48.65200 35.93800 26.77900
C  48.72200 36.86800 27.80200
C  49.55700 37.90400 27.30500
C  49.80800 37.71200 25.95000
C  49.13500 36.47200 25.62700
C  50.06600 39.06200 28.22100
C  50.51300 38.58000 24.87400
O  50.64600 38.26200 23.72000
C  51.29900 39.74800 25.40500
N  47.87500 33.78500 24.94300
C  48.55400 34.62600 24.03900
C  48.60200 34.01300 22.67000
C  48.25100 32.45600 23.00000
C  47.65400 32.56200 24.37400
C  47.97100 34.73500 21.47000
C  49.44800 31.48500 23.00700
C  49.30100 30.28600 22.07500
N  46.61000 32.37600 27.08500
C  46.42300 31.40100 26.15700
C  45.71700 30.30800 26.80800
C  45.48400 30.66700 28.14200
C  46.06500 31.95500 28.23500
C  45.25400 29.02200 26.15900
C  44.83200 30.26100 29.35100
O  44.26000 29.23800 29.61700
C  44.85600 31.51200 30.21500
C  45.21400 31.14500 31.64500
O  46.32800 30.88900 32.01900
O  44.07600 30.89800 32.35200
C  44.39600 30.30900 33.68600
H  48.32500 37.61000 29.78000
H  49.61000 36.30600 23.58200
H  46.82900 30.63400 24.17100
H  45.07900 34.40000 31.65200
H  47.06500 36.36100 31.63100
H  44.24200 36.40900 30.80100
H  45.09400 37.22900 29.59000
H  45.16100 37.68700 31.32800
H  47.94200 34.57400 32.44200
H  47.39300 33.00000 32.06500
H  47.43100 34.05400 34.30900
H  46.12900 32.95900 33.89900
H  51.08900 39.42500 28.12400
H  50.18000 38.69100 29.24000
H  49.36900 39.87600 28.02300
H  50.60100 40.43600 25.88200
H  51.63600 40.17900 24.46300
H  52.11300 39.65000 26.12400
H  49.68500 34.07100 22.56500
H  47.42900 32.17700 22.33900
H  47.80800 34.13800 20.57300
H  48.55600 35.59500 21.14300
H  46.94100 34.99400 21.71600
H  49.67800 31.21700 24.03800
H  50.34400 32.05800 22.76600
H  49.45800 29.45500 22.76300
H  50.04600 30.44400 21.29500
H  48.35500 30.16400 21.54900
H  45.54700 28.23700 26.85600
H  45.79000 28.86400 25.22300
H  44.17300 28.96900 26.03300
H  43.86100 31.94000 30.33600
H  44.89700 31.02300 34.34000
H  44.98500 29.39600 33.60400
H  43.47100 29.99400 34.16900

