158

Mg 42.76400 41.37500 26.36300
C  41.83000 43.55600 29.10700
C  44.07000 39.22800 28.94000
C  43.71700 39.29400 24.07500
C  42.01600 43.78600 24.09800
N  42.90900 41.33400 28.80800
C  42.43800 42.38000 29.61900
C  42.50000 41.81800 31.12600
C  43.54000 40.62500 30.97700
C  43.54900 40.44000 29.52900
C  44.98900 40.86200 31.47000
C  41.03700 41.57800 31.76300
C  40.71800 41.41900 33.33500
H  41.82900 41.32000 34.31700
N  43.65200 39.46600 26.45900
C  44.15500 38.79300 27.56700
C  44.64000 37.53400 27.07700
C  44.44400 37.46000 25.63700
C  43.99100 38.76900 25.31300
C  45.18400 36.45800 28.01200
C  44.52800 36.33400 24.65000
O  44.37700 36.48600 23.43900
C  44.88200 34.91500 25.16300
N  42.81700 41.52300 24.37700
C  43.30900 40.57400 23.60900
C  43.31200 40.97400 22.10800
C  42.57200 42.30900 22.08500
C  42.40400 42.56200 23.64000
C  44.66900 41.12800 21.35900
C  41.27300 42.29900 21.40000
C  40.26600 41.17500 21.62500
N  41.99000 43.24000 26.47000
C  41.72900 44.18700 25.45700
C  41.30300 45.37900 26.04600
C  41.32000 45.19500 27.44500
C  41.70200 43.81900 27.65700
C  40.98900 46.64100 25.25800
C  41.11700 45.88900 28.71100
O  40.77500 47.05100 28.95700
C  41.23600 44.76400 29.87400
C  42.02400 45.34300 30.90300
O  43.05800 45.91700 30.68400
O  41.54000 44.92200 32.12700
C  42.58900 45.05500 33.13600
H  44.54700 38.62100 29.71100
H  43.97800 38.71600 23.18600
H  41.79300 44.58500 23.38700
H  42.93800 42.60100 31.74500
H  43.18600 39.63900 31.27700
H  45.26600 41.89500 31.68100
H  45.69500 40.47700 30.73500
H  45.08000 40.22900 32.35300
H  40.75500 40.64500 31.27500
H  40.44200 42.35300 31.27900
H  40.32300 40.42200 33.53000
H  39.93400 42.14500 33.55200
H  45.36600 36.81900 29.02500
H  46.15600 36.10900 27.66500
H  44.56800 35.56100 27.94000
H  44.01200 34.51600 25.68500
H  45.74300 34.89200 25.83100
H  45.14800 34.22700 24.36100
H  42.73100 40.22900 21.56400
H  43.14300 43.04800 21.52200
H  44.82600 42.08900 20.86900
H  44.59700 40.40000 20.55100
H  45.55000 40.96700 21.98000
H  41.52500 42.36700 20.34200
H  40.77000 43.24500 21.60000
H  40.67300 40.37500 22.24200
H  39.98400 40.63300 20.72300
H  39.41100 41.63100 22.12500
H  40.50400 46.43300 24.30400
H  41.95200 47.15100 25.29700
H  40.30700 47.22400 25.87700
H  40.23900 44.49300 30.22000
H  42.89800 46.10000 33.15600
H  43.43700 44.39600 32.94800
H  42.18000 44.88200 34.13100
Mg 9.90900 47.04400 26.41700
C  7.78300 47.42500 29.23200
C  12.43300 48.36800 28.16100
C  11.66200 46.85900 23.67000
C  6.87400 46.47500 24.48100
N  10.11100 47.84100 28.50800
C  9.14200 47.74100 29.50400
C  9.79000 48.25200 30.82900
C  11.06200 49.04000 30.37000
C  11.22000 48.37300 28.96100
C  10.94700 50.59600 30.28000
C  10.12100 47.05200 31.79700
C  9.45200 47.29900 33.21100
H  9.29500 46.04900 34.06600
N  11.78600 47.35500 25.99800
C  12.75300 47.80700 26.86200
C  14.07700 47.91300 26.25700
C  13.87400 47.55100 24.89500
C  12.38600 47.26200 24.78400
C  15.28200 48.19800 27.01000
C  14.87600 47.22800 23.87800
O  14.55200 47.15300 22.70400
C  16.40400 47.15600 24.17400
N  9.27200 46.75200 24.33800
C  10.25700 46.69600 23.43900
C  9.63500 46.79200 22.06400
C  8.15300 46.37400 22.24700
C  8.06600 46.53000 23.76700
C  9.80800 48.20500 21.42700
C  7.77500 44.99800 21.65600
C  8.68400 43.75800 21.97000
N  7.84700 46.94200 26.71300
C  6.74700 46.66300 25.83200
C  5.50800 46.53000 26.60100
C  5.84500 46.85200 27.94200
C  7.29000 47.10800 27.92500
C  4.08400 46.37300 25.97300
C  5.28100 47.10000 29.29400
O  4.13100 47.16800 29.74500
C  6.58900 47.31000 30.17600
C  6.68500 46.15900 31.13200
O  7.37800 45.14900 30.84000
O  6.00800 46.35000 32.34600
C  5.83500 45.05600 33.09900
H  13.25600 48.80700 28.72800
H  12.31300 46.86500 22.79300
H  5.99800 46.20600 23.88700
H  9.04100 48.90900 31.27100
H  11.96400 48.85200 30.95300
H  11.65800 51.02600 30.98600
H  9.93000 50.91100 30.51100
H  11.11100 51.03400 29.29600
H  11.20500 47.06300 31.91700
H  9.78400 46.10000 31.38800
H  8.51300 47.77000 32.92100
H  9.97100 48.01800 33.84600
H  15.14800 48.15800 28.09100
H  15.73900 49.17300 26.84300
H  16.05300 47.43400 26.90800
H  16.72900 47.93600 24.86400
H  16.93200 47.19300 23.22200
H  16.59100 46.12400 24.47000
H  10.19600 46.15700 21.37800
H  7.61200 47.23700 21.85800
H  10.79600 48.57200 21.70600
H  9.07400 48.94800 21.73900
H  9.86300 48.04600 20.35000
H  7.76300 45.00500 20.56600
H  6.80400 44.67400 22.02900
H  9.34400 43.93800 22.81900
H  9.22700 43.48100 21.06600
H  7.94700 43.06200 22.37000
H  3.59700 45.42300 26.19400
H  4.15900 46.52900 24.89700
H  3.44100 47.16700 26.35200
H  6.43200 48.16200 30.83600
H  5.63300 45.55000 34.04900
H  6.74200 44.47500 33.26700
H  4.95000 44.52000 32.75500

