158

Mg 43.45000 4.89800 47.01300
C  41.20200 7.56900 47.12900
C  40.75700 2.80200 47.01400
C  45.66700 2.31600 46.64500
C  46.10300 7.13300 46.27400
N  41.23300 5.21000 47.08200
C  40.54000 6.32000 47.10400
C  39.02600 6.07100 47.19300
C  38.92700 4.55800 47.43300
C  40.40300 4.14200 47.11300
C  38.69100 4.23200 48.92500
C  38.23500 6.56500 45.92200
C  39.05600 6.61300 44.64500
H  38.30200 7.01100 43.36400
N  43.18500 2.81300 46.91700
C  42.01600 2.14600 46.87100
C  42.33600 0.73100 46.84100
C  43.78100 0.52800 46.98100
C  44.29500 1.94800 46.91600
C  41.24200 -0.30100 46.92400
C  44.51000 -0.76400 47.18500
O  43.85000 -1.76900 47.07800
C  46.08200 -0.85100 47.44400
N  45.52500 4.76300 46.43900
C  46.21900 3.60500 46.50400
C  47.73300 3.79700 46.20000
C  47.77200 5.38800 45.80800
C  46.37400 5.81900 46.19200
C  48.79300 3.46600 47.30500
C  48.16700 5.63700 44.27800
C  49.68000 5.91500 44.02500
N  43.67000 6.95000 46.62500
C  44.80900 7.70900 46.51200
C  44.37100 9.16300 46.59000
C  42.95400 9.13500 46.84200
C  42.65100 7.75300 46.87100
C  45.35100 10.28800 46.46900
C  41.81400 9.97600 47.15900
O  41.65300 11.22000 47.16900
C  40.63000 8.98300 47.21700
C  39.95200 9.23200 48.55000
O  40.37700 8.75100 49.58400
O  38.73900 9.76900 48.35000
C  37.69400 9.49000 49.40100
H  39.96000 2.08400 47.21900
H  46.44400 1.54900 46.66300
H  46.94600 7.81100 46.12700
H  38.55500 6.43500 48.10700
H  38.28400 4.09000 46.68700
H  38.09100 4.93400 49.50300
H  39.69100 4.08400 49.33400
H  38.25600 3.23300 48.89400
H  37.94800 7.55100 46.28800
H  37.33000 5.96000 45.85600
H  39.58800 5.67500 44.48800
H  39.88300 7.31300 44.76200
H  40.26600 0.11700 46.67700
H  41.17600 -0.57200 47.97700
H  41.45300 -1.23600 46.40500
H  46.31100 -0.17200 48.26500
H  46.72600 -0.73300 46.57300
H  46.33200 -1.84000 47.83000
H  47.85500 3.13100 45.34500
H  48.50600 5.90800 46.42400
H  49.47500 4.28300 47.54100
H  49.44600 2.64500 47.00800
H  48.24500 3.05500 48.15200
H  47.48300 6.37100 43.85000
H  47.92600 4.68400 43.80700
H  49.60500 6.68400 43.25500
H  50.21900 5.08900 43.56100
H  50.11700 6.39600 44.90000
H  45.58200 10.64100 47.47400
H  44.99100 11.19300 45.98000
H  46.24300 10.03600 45.89500
H  39.90500 9.08100 46.40900
H  36.96800 10.30100 49.34800
H  38.06200 9.29500 50.40800
H  37.20700 8.55100 49.13800
Mg 1.09300 42.06500 26.10600
C  2.84800 41.92800 29.18500
C  -1.86700 41.10600 27.85100
C  -0.52900 41.80800 23.21000
C  4.04500 42.61600 24.49700
N  0.59500 41.57400 28.24200
C  1.45000 41.76500 29.32800
C  0.68800 41.62100 30.71300
C  -0.78300 41.32300 30.27800
C  -0.70900 41.32200 28.72100
C  -1.45200 40.06500 30.98300
C  0.81100 42.89000 31.61900
C  1.24000 42.74300 33.15200
H  0.85100 41.47700 33.83500
N  -0.84600 41.47700 25.56700
C  -1.88600 41.19200 26.42700
C  -3.07600 40.88900 25.66700
C  -2.69100 40.98800 24.26000
C  -1.30700 41.37800 24.26500
C  -4.53800 40.77600 26.21200
C  -3.51300 40.69500 23.00900
O  -3.11200 40.72900 21.89800
C  -4.94900 40.23600 23.14600
N  1.60100 42.29200 24.19600
C  0.81500 42.09400 23.08900
C  1.54500 42.25400 21.76600
C  2.95200 42.73400 22.22100
C  2.88600 42.51600 23.77000
C  1.54800 40.91400 21.01500
C  3.39000 44.13500 21.91900
C  3.59200 44.40200 20.40300
N  3.08800 42.20100 26.63700
C  4.19400 42.47600 25.87000
C  5.42000 42.51300 26.70200
C  4.91000 42.28100 27.95200
C  3.49300 42.06100 27.89000
C  6.72800 42.99200 26.24800
C  5.29800 42.30100 29.29600
O  6.40400 42.40400 29.74100
C  4.01500 42.12700 30.18400
C  4.24800 41.03000 31.27100
O  4.03400 39.87300 31.06200
O  4.65200 41.62700 32.41800
C  5.07300 40.74000 33.48900
H  -2.84900 41.02900 28.32200
H  -0.96100 41.81800 22.20700
H  4.99500 42.75000 23.97500
H  1.15800 40.76100 31.19000
H  -1.51500 42.11300 30.44300
H  -1.88500 39.37700 30.25600
H  -2.26200 40.39700 31.63200
H  -0.94300 39.38300 31.66400
H  -0.14000 43.42300 31.61400
H  1.49900 43.58600 31.13900
H  0.82800 43.60100 33.68300
H  2.31700 42.89800 33.21900
H  -5.21700 41.48200 25.73300
H  -4.53000 41.04100 27.27000
H  -4.96500 39.78000 26.09400
H  -5.37100 40.04100 22.16000
H  -5.65700 40.93000 23.59900
H  -4.96200 39.26500 23.64100
H  1.06200 43.05500 21.20600
H  3.80500 42.13200 21.90700
H  2.50900 40.43100 21.19600
H  1.39800 41.07000 19.94600
H  0.79100 40.24400 21.42100
H  4.40500 44.26500 22.29500
H  2.61500 44.84600 22.20500
H  2.82600 45.12400 20.11900
H  3.55300 43.45300 19.86800
H  4.59600 44.80100 20.25600
H  6.71000 43.22400 25.18300
H  7.57100 42.32700 26.43700
H  6.81500 43.98800 26.68400
H  3.87200 43.04900 30.74700
H  4.37000 39.95100 33.75900
H  5.25600 41.37100 34.35800
H  6.02400 40.25300 33.27400

