158

Mg 1.36300 -0.81800 43.01700
C  4.89600 -0.41100 42.72000
C  0.93400 1.86900 40.93800
C  -1.96500 -1.58200 42.91900
C  2.03400 -3.99500 44.25300
N  2.79800 0.43100 41.76800
C  4.15100 0.48000 41.94000
C  4.73500 1.56700 40.99700
C  3.56500 2.44300 40.52900
C  2.33700 1.54900 41.06600
C  3.41300 3.87900 41.08400
C  5.44700 0.88900 39.76600
C  6.88900 1.28300 39.49500
H  7.12300 2.12400 38.27200
N  -0.33500 0.15000 42.18100
C  -0.28100 1.21700 41.41800
C  -1.64700 1.67500 41.13800
C  -2.56100 0.80500 41.75400
C  -1.64300 -0.29100 42.36600
C  -1.92400 2.96300 40.32300
C  -4.02500 0.82700 41.77800
O  -4.70100 1.63600 41.20300
C  -4.72700 -0.19500 42.52500
N  0.25600 -2.57900 43.33300
C  -1.13200 -2.60800 43.38900
C  -1.67100 -3.98100 43.63100
C  -0.36900 -4.77100 44.00300
C  0.73200 -3.65600 43.94000
C  -2.88400 -4.12000 44.63300
C  -0.12900 -6.06900 43.15500
C  -0.13300 -7.49100 43.86800
N  3.02700 -2.00900 43.50700
C  3.12400 -3.24900 43.95800
C  4.57700 -3.57400 44.24200
C  5.30000 -2.55000 43.70100
C  4.32500 -1.57300 43.32900
C  5.16100 -4.81500 44.96300
C  6.59100 -2.03800 43.41900
O  7.69600 -2.55500 43.55500
C  6.37500 -0.56900 42.92000
C  7.03700 0.22100 43.98100
O  6.54500 0.44600 45.05500
O  8.21600 0.79500 43.59600
C  9.16500 1.44600 44.50000
H  0.80600 2.80900 40.39700
H  -2.99900 -1.91000 42.79100
H  2.19100 -4.96200 44.73500
H  5.38700 2.15400 41.64400
H  3.51100 2.54100 39.44500
H  4.33000 4.34400 41.44600
H  2.66500 3.82400 41.87500
H  3.22300 4.65000 40.33700
H  4.84600 1.04000 38.86900
H  5.57700 -0.18100 39.92800
H  7.66400 0.53500 39.66000
H  7.10000 2.07800 40.21000
H  -1.56400 2.93100 39.29400
H  -1.45800 3.81400 40.81800
H  -2.96400 3.27400 40.42200
H  -5.81000 -0.17900 42.39800
H  -4.31000 -0.26200 43.53000
H  -4.56100 -1.09000 41.92500
H  -2.14200 -4.22400 42.67900
H  -0.50000 -5.11200 45.03000
H  -3.33400 -3.13200 44.72500
H  -2.54300 -4.37800 45.63600
H  -3.58500 -4.86900 44.26300
H  0.83300 -6.04600 42.64300
H  -0.95300 -6.15500 42.44700
H  -0.58800 -7.41000 44.85500
H  0.86800 -7.92000 43.85800
H  -0.68500 -8.27100 43.34300
H  6.24100 -4.84400 45.10300
H  4.73800 -5.67500 44.44300
H  4.64800 -4.80200 45.92500
H  6.96200 -0.58400 42.00200
H  9.35700 0.81600 45.36800
H  8.75000 2.41100 44.79400
H  10.11900 1.56300 43.98600
Mg 54.63200 22.05400 45.13500
C  52.80200 24.85600 43.90500
C  52.29900 20.04900 43.93700
C  56.83300 19.51000 45.76900
C  57.38100 24.36000 45.68800
N  52.84500 22.42800 43.73900
C  52.21100 23.62200 43.49800
C  50.76600 23.41100 42.98000
C  50.61900 21.91500 43.33100
C  52.00500 21.43700 43.73200
C  49.59900 21.57700 44.46900
C  50.45200 23.69800 41.47800
C  48.93300 24.07300 41.34200
H  48.40300 23.97100 39.89800
N  54.60700 19.98600 44.93000
C  53.47100 19.34000 44.45600
C  53.68200 17.91500 44.56200
C  54.98800 17.71100 45.08000
C  55.53600 19.08600 45.30600
C  52.62100 16.90100 44.09800
C  55.64700 16.43700 45.38000
O  55.13100 15.37300 45.02100
C  56.90200 16.28600 46.15400
N  56.87000 21.95200 45.53900
C  57.41700 20.79700 45.91200
C  58.89400 21.04600 46.34600
C  59.10000 22.56400 46.13400
C  57.69600 23.03900 45.67800
C  59.31000 20.48700 47.76600
C  60.23200 22.93400 45.07100
C  61.70700 22.88000 45.55900
N  55.05200 24.09800 44.99000
C  56.12900 24.92800 45.28200
C  55.73400 26.31500 45.27200
C  54.48500 26.27100 44.73300
C  54.10700 24.96700 44.50300
C  56.45100 27.47400 45.71800
C  53.40400 27.14900 44.26600
O  53.33800 28.39500 44.21800
C  52.23000 26.24200 43.83400
C  51.86000 26.54800 42.45600
O  52.58300 26.32900 41.53500
O  50.62600 27.08700 42.37700
C  50.37700 27.63900 41.03200
H  51.37100 19.48400 43.82100
H  57.50100 18.74000 46.16000
H  58.12200 25.10700 45.97900
H  50.08900 23.94200 43.64900
H  50.30800 21.43100 42.40500
H  49.61200 22.42000 45.16000
H  49.91600 20.67400 44.99200
H  48.62900 21.32700 44.04000
H  50.69400 22.83400 40.85900
H  51.02700 24.55500 41.12500
H  48.84800 25.03900 41.84000
H  48.31900 23.38500 41.92300
H  52.89300 16.66700 43.06800
H  51.64300 17.37300 44.19300
H  52.51400 15.99900 44.70000
H  57.70800 16.56600 45.47600
H  57.14600 15.25400 46.40300
H  56.99800 16.84800 47.08300
H  59.42500 20.56500 45.52500
H  59.40300 23.10900 47.02900
H  59.61200 21.24800 48.48600
H  60.14100 19.78400 47.70100
H  58.43400 20.00500 48.20000
H  59.92700 23.90100 44.67000
H  60.05500 22.27700 44.21900
H  62.16900 23.74300 45.07900
H  62.18100 21.97800 45.17400
H  61.76900 22.85700 46.64700
H  57.32900 27.58300 45.08100
H  56.79900 27.22000 46.71900
H  55.89700 28.40300 45.84800
H  51.31500 26.47100 44.37900
H  49.58400 28.38400 41.10300
H  50.22400 26.92300 40.22500
H  51.25700 28.16400 40.66100

