158

Mg 54.71800 24.36900 44.64300
C  52.07600 26.36900 43.39200
C  52.83500 21.49700 44.04500
C  57.52900 22.53000 45.07000
C  56.52000 27.30500 45.32100
N  52.63500 24.02500 44.00400
C  51.78700 24.94800 43.36900
C  50.54400 24.22900 42.88700
C  50.67600 22.76400 43.47500
C  52.15500 22.70500 43.92300
C  49.67000 22.15900 44.56000
C  50.32200 24.33100 41.35500
C  48.89900 23.97400 40.93300
H  48.84200 22.79500 40.01700
N  55.24500 22.27700 44.52300
C  54.28700 21.30600 44.34500
C  54.96000 20.03000 44.35500
C  56.31400 20.27500 44.70400
C  56.42100 21.75000 44.75100
C  54.26200 18.69800 43.91200
C  57.31300 19.19900 44.95700
O  56.97200 17.99800 44.97700
C  58.70100 19.55200 45.40500
N  56.80000 24.89300 44.87700
C  57.71100 23.89800 45.14600
C  59.04100 24.47600 45.76000
C  58.69200 26.03900 45.78200
C  57.22800 26.11500 45.26700
C  59.43400 24.00400 47.16300
C  59.61300 26.83000 44.88000
C  59.94700 28.26400 45.39200
N  54.41800 26.47100 44.40900
C  55.22800 27.57300 44.76800
C  54.44500 28.76400 44.63000
C  53.24600 28.34200 44.08600
C  53.27600 26.91200 43.89700
C  54.98500 30.13600 44.94100
C  52.00400 28.78700 43.56100
O  51.56400 29.88000 43.34600
C  51.24700 27.55800 42.92200
C  51.28900 27.70200 41.40200
O  52.25800 27.57300 40.67700
O  49.99700 27.92000 41.06500
C  49.75100 28.00200 39.64800
H  52.25100 20.57500 44.01400
H  58.45500 22.06300 45.41200
H  57.07000 28.22700 45.52400
H  49.78700 24.71800 43.50000
H  50.61400 22.09500 42.61600
H  49.07800 23.00900 44.89700
H  50.23900 21.70800 45.37300
H  49.05400 21.41700 44.05000
H  51.00800 23.65900 40.83800
H  50.49900 25.31600 40.92400
H  48.31600 24.81400 40.55600
H  48.38800 23.68900 41.85200
H  54.04800 18.09600 44.79500
H  54.93000 18.01700 43.38500
H  53.38300 18.97900 43.33100
H  59.19900 20.04100 44.56900
H  59.24400 18.63500 45.63400
H  58.59900 20.13700 46.31900
H  59.84300 24.32400 45.03700
H  58.86300 26.47600 46.76600
H  59.11100 22.98000 47.34900
H  59.04800 24.62300 47.97300
H  60.51400 23.86200 47.13000
H  59.14400 27.07600 43.92700
H  60.59900 26.37600 44.77900
H  60.76600 28.14800 46.10300
H  59.18900 28.90600 45.84000
H  60.31400 28.85800 44.55400
H  54.76200 30.39900 45.97500
H  54.53100 30.95700 44.38600
H  56.07500 30.13600 44.94900
H  50.29400 27.29700 43.38300
H  49.64500 27.02900 39.16900
H  50.61200 28.47400 39.17300
H  48.86200 28.58400 39.40700
Mg -10.40000 38.80600 40.61300
C  -8.77300 35.71200 39.90400
C  -7.60800 40.35700 39.27400
C  -11.98100 41.74400 40.59000
C  -13.23000 37.12400 41.49700
N  -8.47000 38.13100 39.73300
C  -8.06800 36.81300 39.54100
C  -6.67700 36.71500 38.74600
C  -6.18200 38.20900 39.02600
C  -7.50900 38.94500 39.37000
C  -5.09300 38.44600 40.08800
C  -6.88200 36.23400 37.25300
C  -6.18300 36.88300 36.00500
H  -7.12500 37.60700 35.00100
N  -9.86000 40.75400 40.02900
C  -8.68300 41.22100 39.54800
C  -8.67200 42.69500 39.58200
C  -9.98200 43.08800 39.83600
C  -10.66700 41.85400 40.13100
C  -7.41900 43.54800 39.13000
C  -10.44000 44.50000 39.99600
O  -9.57400 45.36400 39.88100
C  -11.82800 44.91000 40.43100
N  -12.40100 39.28200 40.89600
C  -12.78300 40.60500 40.90400
C  -14.33900 40.62900 41.10900
C  -14.68100 39.20100 41.49200
C  -13.35200 38.46500 41.36300
C  -14.94800 41.62200 42.16400
C  -15.87300 38.56600 40.69700
C  -16.72800 37.51100 41.41400
N  -10.91500 36.87100 40.68000
C  -12.10800 36.36000 41.10000
C  -11.96400 34.86100 41.15800
C  -10.73400 34.59000 40.57900
C  -10.10200 35.86400 40.38900
C  -12.87000 33.87700 41.86000
C  -9.82000 33.52400 40.23000
O  -10.01400 32.32600 40.25900
C  -8.56800 34.19800 39.69300
C  -7.43700 33.67900 40.39700
O  -7.15000 33.87300 41.57400
O  -6.59900 32.98400 39.52100
C  -5.22200 32.69000 39.92600
H  -6.64200 40.80100 39.02300
H  -12.58600 42.65300 40.59500
H  -14.04100 36.51900 41.90700
H  -6.14100 35.92600 39.27200
H  -5.83100 38.72000 38.12900
H  -4.33400 39.10400 39.66500
H  -4.71800 37.48000 40.42600
H  -5.55600 38.86100 40.98200
H  -7.92900 36.31900 36.96400
H  -6.60300 35.18100 37.27100
H  -5.63400 36.02700 35.61100
H  -5.47600 37.64700 36.33100
H  -7.63200 44.19700 38.28000
H  -6.62400 42.87000 38.82000
H  -7.04300 44.15400 39.95400
H  -12.45100 44.73100 39.55500
H  -11.89100 45.98200 40.61700
H  -12.00400 44.40400 41.38000
H  -14.83800 40.94800 40.19400
H  -14.83800 39.13100 42.56800
H  -14.94500 41.13900 43.14100
H  -15.95600 41.94200 41.90100
H  -14.37000 42.54500 42.16600
H  -15.46800 38.14800 39.77500
H  -16.58700 39.31500 40.35600
H  -16.72900 36.55600 40.88900
H  -17.75000 37.88600 41.36700
H  -16.43000 37.38000 42.45500
H  -12.90800 33.88900 42.94900
H  -12.59200 32.89200 41.48600
H  -13.88600 34.04900 41.50300
H  -8.37400 33.95400 38.64900
H  -4.72900 33.65500 39.81200
H  -4.85600 31.88700 39.28600
H  -5.10800 32.40600 40.97200

