158

Mg 41.44200 8.90300 29.67300
C  43.41600 10.21300 32.39200
C  39.17300 7.71600 31.84700
C  39.78000 7.62000 27.03900
C  44.13200 9.68500 27.50900
N  41.41700 8.95000 31.92400
C  42.19700 9.61800 32.88200
C  41.57400 9.39500 34.32000
C  40.37000 8.48500 34.01800
C  40.30000 8.36800 32.51000
C  40.41400 7.08800 34.62300
C  41.40300 10.82800 35.00700
C  40.38700 10.86600 36.15200
H  40.78100 11.84500 37.28000
N  39.68600 7.82900 29.52300
C  38.88000 7.49100 30.50400
C  37.61000 6.94300 30.05200
C  37.74900 7.06800 28.64900
C  39.08700 7.50000 28.31600
C  36.61300 6.21500 30.97700
C  36.69900 6.84400 27.52300
O  36.97900 6.97700 26.29800
C  35.27800 6.52600 28.02900
N  42.00700 8.30500 27.62900
C  41.08000 7.97700 26.72500
C  41.50700 8.25200 25.30300
C  42.91400 8.91400 25.35600
C  43.07400 8.97200 26.93200
C  41.32800 6.95300 24.49200
C  43.05600 10.29600 24.79000
C  42.18200 11.39000 25.42400
N  43.40400 9.77600 29.85600
C  44.33600 10.02900 28.86900
C  45.38300 10.75100 29.46300
C  45.07800 10.87300 30.84400
C  43.83700 10.23400 31.03100
C  46.45000 11.34200 28.64000
C  45.45700 11.42700 32.20200
O  46.51600 11.92000 32.49000
C  44.39700 10.93000 33.24900
C  45.14500 10.05300 34.29700
O  45.78100 9.04000 33.95100
O  44.88100 10.56300 35.55600
C  45.38000 9.78600 36.73900
H  38.39500 7.48600 32.57800
H  39.17500 7.40700 26.15500
H  44.85400 10.05800 26.78000
H  42.28400 8.80800 34.90200
H  39.47100 8.89400 34.48000
H  39.52800 6.93400 35.23800
H  41.29900 6.82500 35.20400
H  40.33800 6.28900 33.88600
H  41.06100 11.46800 34.19400
H  42.33300 11.22900 35.41100
H  40.25800 9.89000 36.61900
H  39.39400 11.26000 35.93200
H  37.12300 6.10300 31.93400
H  36.25100 5.31800 30.47500
H  35.76400 6.87900 31.14400
H  35.37600 5.64500 28.66400
H  34.52400 6.35700 27.26000
H  34.99800 7.41000 28.60100
H  40.78200 8.96800 24.91400
H  43.79200 8.33200 25.07700
H  42.15200 6.87700 23.78100
H  40.41100 7.07600 23.91500
H  41.22000 6.10200 25.16400
H  43.02900 10.39700 23.70500
H  44.12800 10.48800 24.84100
H  42.84100 12.03500 26.00500
H  41.44200 10.99700 26.12200
H  41.70800 12.09900 24.74500
H  46.83600 12.17800 29.22300
H  46.02000 11.81700 27.75900
H  47.22900 10.60600 28.44200
H  43.94900 11.78000 33.76400
H  45.90500 8.87100 36.46600
H  44.52700 9.51700 37.36100
H  45.98500 10.43900 37.36800
Mg 55.84300 24.69900 44.64200
C  52.93300 26.44600 43.48400
C  54.41800 21.92100 43.30700
C  58.94300 23.28100 44.78700
C  57.09600 27.68500 45.68600
N  54.03400 24.32700 43.28800
C  53.01600 25.17100 42.96200
C  51.99800 24.49700 42.04400
C  52.23000 23.05600 42.57100
C  53.67600 23.05500 43.07400
C  51.15700 22.48900 43.52000
C  52.43000 24.67500 40.48400
C  51.37600 25.21200 39.44500
H  51.12600 24.33600 38.25100
N  56.53300 22.86400 44.25700
C  55.80900 21.81500 43.84800
C  56.59100 20.62500 43.81900
C  57.93100 20.94300 44.33900
C  57.84100 22.41500 44.40800
C  56.03800 19.30100 43.44400
C  59.11400 19.96500 44.67200
O  58.89700 18.80600 44.42200
C  60.47600 20.33400 45.09200
N  57.76600 25.39100 45.10700
C  58.95000 24.65100 45.01700
C  60.19200 25.55700 45.21200
C  59.53200 26.91500 45.68700
C  58.05700 26.69900 45.49900
C  61.32400 24.97300 46.15200
C  60.04100 28.16500 44.96300
C  60.28600 29.44800 45.81700
N  55.19900 26.60300 44.71100
C  55.75000 27.68100 45.38300
C  54.81900 28.78000 45.42600
C  53.71600 28.37600 44.68400
C  54.00600 27.03100 44.28000
C  55.07600 30.09900 46.13500
C  52.36900 28.66200 44.22500
O  51.67800 29.62400 44.48400
C  51.85700 27.42100 43.42800
C  51.62000 27.86000 42.04700
O  52.51500 28.21500 41.24700
O  50.30900 27.70400 41.81400
C  49.87600 28.25500 40.59000
H  53.90900 20.96700 43.15700
H  59.93200 22.82400 44.70600
H  57.45900 28.64600 46.05700
H  50.97500 24.81400 42.24700
H  52.30100 22.42200 41.68800
H  51.67200 22.42400 44.47900
H  50.88200 21.49200 43.17500
H  50.25900 23.10700 43.51900
H  52.97600 23.80100 40.12900
H  53.21500 25.43200 40.47000
H  51.73500 26.21100 39.19500
H  50.44200 25.16400 40.00400
H  56.04300 19.16000 42.36300
H  55.00500 19.40000 43.77600
H  56.54900 18.51900 44.00600
H  61.07700 19.46700 45.36600
H  60.42800 21.04500 45.91700
H  61.00900 20.88200 44.31500
H  60.57100 25.66200 44.19600
H  59.64800 26.98700 46.76800
H  61.68500 25.69500 46.88400
H  62.13200 24.57600 45.53700
H  60.83300 24.18500 46.72200
H  59.35100 28.47700 44.17900
H  60.98400 27.80100 44.55600
H  59.58000 29.65800 46.61900
H  60.39400 30.38800 45.27500
H  61.20600 29.22100 46.35600
H  55.32000 30.80000 45.33600
H  55.93700 29.97700 46.79200
H  54.20600 30.35500 46.74000
H  50.88200 27.18500 43.85400
H  48.84200 27.92800 40.48900
H  50.38500 27.96000 39.67200
H  49.75100 29.33000 40.71800

