158

Mg 41.50800 8.10300 29.79200
C  43.34700 9.34800 32.53400
C  39.28200 6.70200 31.94200
C  39.86600 7.08200 27.11800
C  44.10100 9.34500 27.80800
N  41.42300 7.88000 32.01400
C  42.23300 8.53200 32.96100
C  41.72100 8.19500 34.39400
C  40.54600 7.21400 34.11300
C  40.37600 7.25700 32.60500
C  40.74400 5.72500 34.56400
C  41.34400 9.38600 35.23500
C  41.96500 9.35500 36.66900
H  42.09300 10.55400 37.48600
N  39.82100 6.95900 29.56200
C  38.96900 6.61200 30.59500
C  37.76600 5.98000 30.07600
C  37.92300 6.14000 28.58200
C  39.24600 6.73700 28.31000
C  36.69300 5.46600 30.91600
C  36.90400 5.82400 27.52200
O  37.04000 6.01200 26.34600
C  35.60100 5.23600 27.87200
N  41.93900 8.22100 27.69800
C  41.11800 7.61600 26.80200
C  41.81800 7.62900 25.41800
C  43.15400 8.50500 25.64000
C  43.02100 8.78900 27.09700
C  42.11000 6.26900 24.77500
C  43.17000 9.85300 24.85000
C  42.06900 10.89500 24.92400
N  43.33600 9.24000 30.05600
C  44.27600 9.58800 29.15800
C  45.35600 10.24900 29.89500
C  45.02100 10.29200 31.24500
C  43.79800 9.63400 31.24200
C  46.54900 10.84300 29.29100
C  45.48100 10.72600 32.55600
O  46.42800 11.33500 33.03100
C  44.37200 10.12200 33.43800
C  45.04700 9.36600 34.61600
O  45.43300 8.21200 34.58400
O  45.43900 10.34500 35.49800
C  46.28800 9.93200 36.61500
H  38.54200 6.35700 32.66700
H  39.26200 6.69400 26.29600
H  44.95500 9.47400 27.14000
H  42.51300 7.68600 34.94400
H  39.62700 7.44300 34.65100
H  40.06600 5.52800 35.39500
H  41.79900 5.56300 34.78300
H  40.61100 5.08800 33.68900
H  40.27400 9.55100 35.35900
H  41.58700 10.32500 34.73700
H  42.96300 8.91600 36.66800
H  41.21600 8.79600 37.23000
H  35.93300 6.24300 30.99200
H  37.02500 5.18600 31.91600
H  36.20700 4.60700 30.45400
H  35.17200 5.87000 28.64900
H  35.71200 4.23800 28.29600
H  34.95500 5.11600 27.00300
H  41.12900 8.09700 24.71500
H  44.06700 7.95600 25.40900
H  41.45700 5.53600 25.25000
H  43.13200 5.97600 24.53500
H  41.66500 6.31600 23.78100
H  43.42900 9.48400 23.85800
H  44.05200 10.41800 25.15200
H  41.33900 10.50400 25.63200
H  41.47500 10.97600 24.01400
H  42.40300 11.86200 25.30100
H  47.46400 10.36600 29.64300
H  46.50900 11.84000 29.73200
H  46.49000 10.89500 28.20400
H  43.86200 11.00100 33.83100
H  47.34100 10.08800 36.38000
H  46.10900 8.91800 36.97300
H  46.00000 10.59600 37.43000
Mg 55.17200 23.15800 44.63100
C  52.77700 25.43100 43.81300
C  53.20300 20.57500 43.52500
C  57.86700 21.09800 44.65300
C  57.27000 25.91400 45.65500
N  53.31200 22.97500 43.66200
C  52.46600 24.10300 43.45100
C  51.02600 23.67400 42.97900
C  51.04800 22.13500 43.34700
C  52.57800 21.81000 43.55000
C  50.19500 21.58400 44.50300
C  50.83600 23.87800 41.46600
C  49.50500 24.14100 40.91900
H  49.30800 23.82700 39.39100
N  55.46700 21.09600 44.18400
C  54.58200 20.20100 43.65000
C  55.12000 18.94400 43.53100
C  56.39900 19.03200 44.11000
C  56.65500 20.48500 44.37000
C  54.33000 17.78200 42.92000
C  57.26200 17.80500 44.48300
O  56.91100 16.67800 44.15200
C  58.56400 17.95600 45.24000
N  57.25500 23.44500 45.16700
C  58.13900 22.41200 45.03800
C  59.58600 22.83000 45.41500
C  59.35900 24.35700 45.95100
C  57.89800 24.66200 45.52800
C  60.38000 22.01900 46.43600
C  60.39700 25.30200 45.36000
C  61.35000 25.84200 46.46400
N  54.99300 25.23400 44.86100
C  55.86600 26.25800 45.27100
C  55.16200 27.54000 45.34200
C  53.91200 27.24700 44.80400
C  53.91600 25.87100 44.46300
C  55.80000 28.81900 45.92800
C  52.69200 27.81600 44.30700
O  52.41400 28.99200 44.31400
C  51.85800 26.66400 43.68900
C  51.67000 27.08600 42.33200
O  52.53900 27.00200 41.45200
O  50.35500 27.39600 42.12400
C  49.98600 28.04500 40.85200
H  52.49000 19.79700 43.24600
H  58.74700 20.45200 44.60100
H  57.81300 26.79600 46.00300
H  50.22900 24.09600 43.59200
H  50.78300 21.61800 42.42400
H  49.93400 22.37800 45.20300
H  50.67500 20.82400 45.12100
H  49.27400 21.23600 44.03600
H  51.41800 23.12000 40.94200
H  51.42200 24.79200 41.37700
H  49.26500 25.18700 41.10900
H  48.86300 23.50500 41.52800
H  53.63100 18.20600 42.19800
H  53.78800 17.24800 43.70100
H  55.06500 17.11100 42.47600
H  59.36700 18.28800 44.58300
H  58.98100 17.04500 45.67000
H  58.36400 18.50400 46.16100
H  60.19400 22.93700 44.51600
H  59.43500 24.35500 47.03900
H  61.26600 21.61200 45.94700
H  59.81900 21.17500 46.83800
H  60.55000 22.59800 47.34300
H  59.85600 26.04000 44.76900
H  61.03000 24.79100 44.63500
H  62.31000 25.33200 46.37600
H  61.02300 25.66600 47.48900
H  61.40900 26.93000 46.48900
H  56.39400 29.28100 45.14000
H  56.49800 28.58300 46.73200
H  54.96500 29.46500 46.19700
H  50.97400 26.51300 44.30900
H  50.80500 28.49300 40.28900
H  49.18600 28.77500 40.97800
H  49.62400 27.15900 40.33100

