158

Mg 16.85000 -1.04100 27.29100
C  16.04700 1.18400 29.91400
C  18.90500 -2.68200 29.47500
C  18.30100 -2.61800 24.68900
C  15.52800 1.49300 25.01200
N  17.57400 -0.68900 29.43600
C  16.91800 0.15400 30.33700
C  17.39600 -0.10900 31.80500
C  18.44200 -1.24700 31.61600
C  18.35400 -1.59700 30.09500
C  19.91300 -0.86900 31.99700
C  16.16200 -0.42000 32.73600
C  16.25600 0.01600 34.27000
H  17.62100 0.57000 34.77200
N  18.17600 -2.64400 27.10800
C  18.83000 -3.13600 28.13200
C  19.69300 -4.25800 27.61000
C  19.45900 -4.29000 26.25900
C  18.60900 -3.16000 25.92700
C  20.48600 -5.19700 28.42800
C  19.95400 -5.30800 25.22500
O  19.67300 -5.28200 24.00000
C  20.66800 -6.50800 25.69900
N  16.97800 -0.51200 25.22100
C  17.46600 -1.46200 24.30700
C  17.29700 -1.00800 22.89200
C  16.27400 0.13100 23.05000
C  16.26300 0.39600 24.51100
C  18.60400 -0.46200 22.23800
C  14.87100 -0.23900 22.43900
C  13.68400 -0.58300 23.42900
N  15.87100 0.91200 27.44000
C  15.32800 1.77100 26.42800
C  14.58100 2.86800 27.01400
C  14.80900 2.67900 28.43700
C  15.61400 1.50100 28.61900
C  13.87000 3.94300 26.19700
C  14.59300 3.17400 29.72900
O  13.90000 4.18000 30.09200
C  15.38300 2.29100 30.74500
C  16.42200 3.13600 31.38100
O  17.62600 3.09200 31.28200
O  15.79100 3.80400 32.35000
C  16.62000 4.61000 33.29300
H  19.61500 -3.15200 30.15900
H  18.74500 -3.06900 23.79900
H  15.13300 2.35100 24.46500
H  17.85400 0.75500 32.28700
H  18.04100 -2.14600 32.08300
H  19.82800 0.03300 32.60300
H  20.52600 -0.65500 31.12200
H  20.32500 -1.62800 32.66300
H  15.90000 -1.47700 32.75000
H  15.32400 0.11600 32.29100
H  15.98900 -0.79200 34.95100
H  15.41900 0.68800 34.45500
H  20.20800 -6.23500 28.24500
H  20.46200 -4.87200 29.46800
H  21.50600 -4.90800 28.17300
H  21.58100 -6.15400 26.17800
H  21.01100 -7.18700 24.91700
H  20.15900 -7.25000 26.31400
H  16.84000 -1.77400 22.26600
H  16.66700 1.03800 22.59200
H  18.34000 0.28800 21.49200
H  19.05500 -1.32200 21.74400
H  19.37200 -0.07700 22.90900
H  14.96500 -0.87400 21.55700
H  14.42600 0.69700 22.10100
H  14.06600 -1.17900 24.25800
H  12.98200 -1.26000 22.94300
H  13.15900 0.33400 23.69600
H  13.74200 3.60500 25.16900
H  14.42800 4.87800 26.24000
H  12.94900 4.23600 26.70000
H  14.65600 1.93800 31.47600
H  15.84400 5.30900 33.60400
H  17.41500 5.12500 32.75500
H  17.00100 4.04100 34.14200
Mg 16.54500 51.54100 26.92900
C  18.41900 50.00500 29.45200
C  14.41500 52.61800 29.42500
C  14.84400 52.95400 24.54700
C  18.67500 50.02100 24.55600
N  16.33800 51.18700 29.24800
C  17.32600 50.71100 30.10800
C  17.10500 51.09400 31.61800
C  15.59600 51.63000 31.47500
C  15.40500 51.84300 29.92900
C  14.54900 50.79300 32.05600
C  18.04400 52.07900 32.28600
C  18.41800 51.96700 33.77400
H  17.49400 51.05600 34.65100
N  14.83200 52.58400 27.02200
C  14.12900 53.02500 28.13800
C  13.08000 53.93400 27.68600
C  13.27300 54.17000 26.26800
C  14.39900 53.19700 25.87300
C  12.18200 54.52100 28.74500
C  12.48900 55.10300 25.37000
O  12.61700 55.18300 24.16600
C  11.35000 55.87300 26.01400
N  16.59900 51.29800 24.82200
C  15.80500 52.08000 24.06900
C  16.13500 51.89200 22.56500
C  17.28500 50.73900 22.59800
C  17.54800 50.67000 24.06900
C  15.02200 51.72100 21.53800
C  18.44300 50.99200 21.61700
C  19.55100 52.04600 22.12100
N  18.20800 50.31400 26.88200
C  19.03400 49.73300 25.84500
C  20.10300 48.97200 26.44800
C  19.87900 49.20200 27.82900
C  18.69800 49.90400 28.07700
C  21.22700 48.20600 25.80300
C  20.47100 48.82900 29.09100
O  21.48200 48.09600 29.30400
C  19.53700 49.34600 30.24800
C  19.06700 48.31600 31.15200
O  18.06800 47.64800 31.10800
O  19.91900 48.40700 32.25500
C  19.61700 47.66400 33.48500
H  13.83700 53.01900 30.26100
H  14.39200 53.50900 23.72300
H  19.37100 49.59700 23.82800
H  17.13700 50.19500 32.23400
H  15.43700 52.61400 31.91600
H  14.95600 50.41200 32.99200
H  14.41600 49.95800 31.36800
H  13.57000 51.18000 32.34000
H  17.46700 52.98800 32.11000
H  18.95200 52.05300 31.68400
H  18.36600 52.99400 34.13500
H  19.42700 51.57200 33.89100
H  11.28700 55.02200 28.37700
H  12.89300 55.18500 29.23600
H  11.85500 53.72800 29.41800
H  10.91700 56.60100 25.32900
H  11.56000 56.46100 26.90800
H  10.52100 55.16600 26.05600
H  16.53400 52.86900 22.29300
H  16.90500 49.78900 22.22100
H  15.10800 50.78900 20.98000
H  15.01700 52.53800 20.81700
H  14.08300 51.78400 22.09000
H  18.13300 51.31400 20.62300
H  18.98000 50.05700 21.45500
H  19.70600 52.77500 21.32700
H  20.44500 51.58400 22.54100
H  19.21400 52.57100 23.01500
H  20.82400 47.70000 24.92600
H  21.73000 47.58600 26.54500
H  21.96700 48.91000 25.42300
H  20.10000 50.08800 30.81400
H  18.71600 47.05200 33.53400
H  19.58700 48.33600 34.34200
H  20.55400 47.11600 33.58000

