158

Mg 54.02100 24.92500 45.31100
C  51.15600 26.67200 44.11600
C  52.94400 22.12300 43.70400
C  57.10500 23.57900 45.72200
C  55.18600 27.95400 46.65800
N  52.27800 24.55200 44.04900
C  51.25700 25.35600 43.63600
C  50.47400 24.69500 42.50500
C  50.77400 23.15200 42.85900
C  52.08800 23.28700 43.63500
C  49.66700 22.39500 43.73300
C  50.97700 25.17500 41.09400
C  49.83500 25.25500 40.02700
H  50.24400 25.68300 38.69000
N  54.82600 23.03000 44.96200
C  54.22000 22.00900 44.36900
C  55.02900 20.85600 44.42500
C  56.21200 21.19600 45.15200
C  56.09400 22.67700 45.31600
C  54.74700 19.41300 44.05000
C  57.31700 20.23500 45.78200
O  57.31400 19.02200 45.47500
C  58.50100 20.78900 46.54200
N  55.90100 25.72400 45.92800
C  56.97300 24.96800 45.98100
C  58.18700 25.77000 46.28400
C  57.58800 27.18600 46.71900
C  56.12300 26.95500 46.46200
C  59.29500 25.14800 47.18300
C  58.19000 28.34000 45.91400
C  58.20200 29.79900 46.56500
N  53.32800 26.82700 45.57700
C  53.86400 27.92700 46.21000
C  52.93900 29.00400 46.30400
C  51.90400 28.59900 45.42100
C  52.19100 27.21900 45.04300
C  52.99900 30.22700 47.17900
C  50.64700 29.01500 44.73300
O  50.01600 30.07400 44.80600
C  50.09000 27.76500 43.92700
C  49.78000 28.14800 42.56000
O  50.47500 28.80900 41.83800
O  48.49800 27.74000 42.32400
C  47.79900 28.46800 41.18400
H  52.69900 21.21900 43.14300
H  58.08300 23.10200 45.81700
H  55.48000 28.94200 47.01700
H  49.43800 24.97000 42.70600
H  50.78900 22.60900 41.91400
H  48.68900 22.87500 43.76400
H  50.00600 22.53300 44.76000
H  49.54100 21.37100 43.38300
H  51.73000 24.51100 40.66900
H  51.57700 26.08300 41.15900
H  49.21800 25.97300 40.56700
H  49.43100 24.25300 39.88700
H  55.44100 19.21900 43.23200
H  53.72400 19.16900 43.76300
H  54.95500 18.81500 44.93700
H  58.12100 21.54800 47.22700
H  59.15100 21.40100 45.91700
H  59.06600 20.09200 47.16100
H  58.54100 25.90900 45.26200
H  57.66200 27.40100 47.78500
H  58.87800 24.45300 47.91200
H  59.77100 25.83500 47.88200
H  60.08600 24.78700 46.52600
H  57.65100 28.48500 44.97800
H  59.16900 28.10300 45.49700
H  57.68500 29.77500 47.52400
H  57.81300 30.61400 45.95500
H  59.22500 30.03100 46.86000
H  52.04200 30.74900 47.13600
H  53.80800 30.78800 46.71200
H  53.13300 30.02200 48.24200
H  49.14900 27.51800 44.41700
H  48.39000 28.28100 40.28700
H  47.73300 29.54700 41.32900
H  46.81800 27.99400 41.14500
Mg 35.60000 48.90700 25.14800
C  35.86500 47.15300 28.35200
C  34.31400 51.48300 26.80500
C  34.80500 50.28000 22.15100
C  36.70500 45.95800 23.71200
N  35.06700 49.22200 27.31600
C  35.40500 48.50200 28.48700
C  35.09900 49.22200 29.83300
C  34.48900 50.52800 29.24800
C  34.65500 50.47500 27.68800
C  33.03400 50.98900 29.55600
C  36.33300 49.54600 30.79300
C  36.27600 49.05100 32.33500
H  34.87900 48.89000 32.98800
N  34.88200 50.67400 24.51600
C  34.40500 51.65100 25.40300
C  34.05800 52.86700 24.68700
C  34.04100 52.48800 23.25700
C  34.60200 51.08600 23.23500
C  33.62500 54.16600 25.28300
C  33.57100 53.25700 22.05200
O  33.63100 52.88800 20.86700
C  33.01500 54.69000 22.27800
N  35.67600 48.18400 23.18300
C  35.36500 48.90400 22.08900
C  35.81100 48.16300 20.79800
C  36.71500 47.00200 21.34200
C  36.30800 47.00800 22.83200
C  34.65000 47.70000 19.89700
C  38.21800 47.31300 21.13700
C  39.22400 46.19100 21.57700
N  35.99100 46.90800 25.83400
C  36.37300 45.80000 25.09400
C  36.63300 44.68800 25.99000
C  36.46000 45.17700 27.24700
C  36.03600 46.53500 27.08900
C  37.11100 43.34600 25.58200
C  36.48800 44.80100 28.65600
O  36.82300 43.71800 29.21700
C  36.03300 46.09900 29.37700
C  34.80100 45.76900 30.03800
O  33.74300 46.27800 29.84000
O  35.09200 44.98400 31.13300
C  34.00300 44.72100 32.11000
H  34.08700 52.46900 27.21500
H  34.66400 50.69700 21.15100
H  37.11300 45.13400 23.12300
H  34.27600 48.67800 30.29700
H  35.19000 51.31000 29.54000
H  33.02900 52.00700 29.94600
H  32.73500 50.38300 30.41100
H  32.32900 50.80600 28.74500
H  36.58800 50.59500 30.94300
H  37.27100 49.17600 30.37700
H  37.03100 49.56100 32.93300
H  36.62200 48.01800 32.33200
H  32.58200 54.14500 25.59700
H  33.83800 55.14200 24.84700
H  34.07400 54.28500 26.26900
H  33.65100 55.50400 22.62700
H  32.22300 54.83400 23.01300
H  32.52600 55.06100 21.37700
H  36.32300 48.93800 20.22600
H  36.50800 45.99500 20.98100
H  33.66500 47.75200 20.36000
H  34.83600 46.67200 19.58400
H  34.72700 48.31700 19.00300
H  38.43200 48.29000 21.57000
H  38.33100 47.35600 20.05400
H  39.83100 46.41100 22.45600
H  39.88300 45.91900 20.75200
H  38.71600 45.27200 21.86900
H  36.33400 42.58900 25.68800
H  38.04700 42.99000 26.01100
H  37.19300 43.30600 24.49500
H  36.82500 46.42900 30.04900
H  33.17000 44.41600 31.47700
H  33.83200 45.56000 32.78500
H  34.16000 43.81600 32.69600

