158

Mg 35.61200 48.57300 26.15400
C  36.02700 46.54500 28.95200
C  34.89500 51.19600 28.17400
C  34.77200 50.24400 23.36500
C  36.60200 45.84100 24.16400
N  35.55300 48.82600 28.37200
C  35.70500 47.88200 29.32500
C  35.46500 48.41300 30.69700
C  34.94400 49.82300 30.42000
C  35.12400 49.99700 28.90500
C  33.42800 50.12600 30.77200
C  36.86100 48.41300 31.43700
C  36.83200 47.82400 32.80400
H  36.80600 48.84300 33.88100
N  35.01500 50.41700 25.81800
C  34.89900 51.40300 26.77000
C  34.66900 52.67400 26.11300
C  34.57100 52.40100 24.66000
C  34.70500 50.97500 24.60700
C  34.41700 53.90200 26.92200
C  34.33900 53.44400 23.48400
O  34.27200 53.17300 22.32500
C  34.12500 54.87200 23.92000
N  35.37400 48.02600 24.02300
C  35.21600 49.00600 23.08400
C  35.24500 48.37400 21.67500
C  35.99000 47.05900 21.96700
C  35.99900 46.95300 23.47000
C  33.92700 48.20800 20.99400
C  37.46200 46.97100 21.47700
C  38.66000 47.60500 22.31200
N  36.02200 46.62200 26.45500
C  36.53100 45.65800 25.57600
C  36.92300 44.46900 26.35400
C  36.62000 44.75500 27.65900
C  36.22300 46.13600 27.62500
C  37.49400 43.14400 25.96100
C  36.66300 44.22100 28.94800
O  36.91000 43.12000 29.35200
C  36.22500 45.41200 29.86700
C  34.99400 44.93600 30.51800
O  33.93000 44.85800 29.93800
O  35.36700 44.46500 31.74300
C  34.27000 43.91100 32.57100
H  34.66000 52.01200 28.86000
H  34.55000 50.79900 22.45000
H  37.06500 45.08100 23.53100
H  34.68200 47.75600 31.07400
H  35.58400 50.58500 30.86500
H  32.98700 49.34300 31.38900
H  32.77600 50.17100 29.89900
H  33.26600 50.95500 31.46100
H  37.36700 49.37800 31.45800
H  37.47500 47.77300 30.80400
H  37.65300 47.11600 32.91200
H  35.94000 47.21900 32.96800
H  34.94300 53.86100 27.87700
H  33.34400 54.06100 27.02800
H  34.87000 54.77500 26.45200
H  33.46100 55.14000 23.09900
H  35.01200 55.50500 23.93200
H  33.63000 54.92300 24.89000
H  35.94800 48.96600 21.09000
H  35.54300 46.14700 21.57100
H  33.72800 49.03600 20.31400
H  33.10500 48.20000 21.71000
H  33.81700 47.39800 20.27400
H  37.47100 47.62700 20.60600
H  37.81600 45.98500 21.18000
H  39.01700 48.41700 21.68000
H  39.39800 46.80500 22.35800
H  38.51500 47.96300 23.33200
H  38.30600 42.89300 26.64300
H  37.79200 43.10300 24.91300
H  36.77200 42.34300 26.11600
H  37.07700 45.52700 30.53700
H  34.07800 42.87800 32.27900
H  33.37700 44.53600 32.58900
H  34.70800 43.88800 33.56800
Mg -8.33700 39.23000 39.49400
C  -7.62400 35.87500 38.70100
C  -5.18100 40.12600 38.47700
C  -9.46300 42.35200 39.31700
C  -11.77200 38.18500 39.81000
N  -6.65300 38.07100 38.50100
C  -6.50300 36.75800 38.51500
C  -5.02200 36.37400 38.30300
C  -4.30100 37.75600 38.57200
C  -5.44600 38.72200 38.55300
C  -3.51500 37.97100 39.84100
C  -4.90400 35.74900 36.93200
C  -5.45300 36.46300 35.70400
H  -6.57500 35.88800 34.89800
N  -7.44100 40.97300 39.03300
C  -6.09200 41.17900 38.62600
C  -5.80600 42.49800 38.39800
C  -7.02400 43.24800 38.64300
C  -8.03400 42.19700 38.97900
C  -4.42400 43.01300 37.89800
C  -7.21600 44.76800 38.44100
O  -6.29700 45.40200 37.92100
C  -8.54500 45.45700 38.75300
N  -10.37300 40.15100 39.48600
C  -10.53000 41.47800 39.39900
C  -11.98900 41.90200 39.78000
C  -12.63400 40.54700 39.95200
C  -11.56700 39.53500 39.68200
C  -12.21400 42.79600 41.01100
C  -13.91400 40.36400 38.98400
C  -15.20200 39.69200 39.54600
N  -9.51600 37.40500 39.34400
C  -10.82300 37.13600 39.58700
C  -11.06000 35.71200 39.48000
C  -9.81700 35.16400 39.13600
C  -8.94100 36.24900 38.99800
C  -12.35800 34.97000 39.57500
C  -9.11700 33.93800 38.97700
O  -9.49900 32.82000 38.99200
C  -7.61900 34.35300 38.75900
C  -6.68900 33.75000 39.67900
O  -6.69700 33.70400 40.90200
O  -5.79100 33.05600 38.90000
C  -4.80700 32.30900 39.67800
H  -4.11100 40.31600 38.37100
H  -9.74300 43.39000 39.50800
H  -12.79900 37.85200 39.97300
H  -4.65700 35.61000 38.99000
H  -3.85000 38.01200 37.61300
H  -4.08100 38.41100 40.66200
H  -2.75200 38.71500 39.61200
H  -3.22600 36.96600 40.14700
H  -5.29000 34.73600 37.04100
H  -3.83400 35.61800 36.77000
H  -4.62400 36.43500 34.99600
H  -5.79200 37.46600 35.96500
H  -3.77900 42.23900 37.48000
H  -3.91500 43.46000 38.75200
H  -4.69900 43.69300 37.09200
H  -8.70300 45.43600 39.83100
H  -9.40300 44.98600 38.27300
H  -8.44400 46.50600 38.47500
H  -12.32600 42.47400 38.91600
H  -12.94000 40.23800 40.95100
H  -12.84900 43.58500 40.60700
H  -11.29700 43.19900 41.44100
H  -12.75800 42.21800 41.75700
H  -13.57500 39.71800 38.17300
H  -14.17100 41.27000 38.43500
H  -15.40900 40.14200 40.51700
H  -15.08600 38.61000 39.60100
H  -15.95000 39.88600 38.77800
H  -13.21100 35.64700 39.61100
H  -12.31500 34.21600 40.36100
H  -12.51800 34.36900 38.67900
H  -7.42400 33.96600 37.75900
H  -5.24300 31.82300 40.55100
H  -3.99900 32.95100 40.02800
H  -4.32900 31.57500 39.02900

