158

Mg 25.37200 -5.76900 46.48700
C  27.13200 -2.88800 45.59500
C  22.79200 -4.84600 44.47200
C  23.98300 -8.82900 46.76600
C  28.23500 -6.84200 48.04000
N  24.97600 -4.04200 45.27600
C  25.93100 -3.04200 44.96600
C  25.44400 -2.12000 43.80200
C  23.87100 -2.57700 43.68800
C  23.82300 -3.88100 44.53600
C  22.98000 -1.51000 44.31600
C  26.22700 -2.19700 42.43500
C  26.40700 -1.01000 41.52200
H  25.55200 -1.04000 40.22600
N  23.57400 -6.69100 45.79800
C  22.57200 -6.10600 45.04800
C  21.50300 -7.03100 44.87400
C  21.79800 -8.18300 45.63800
C  23.12300 -7.89300 46.18300
C  20.21400 -6.79000 43.99300
C  20.90500 -9.31600 45.76400
O  19.87800 -9.35000 45.14400
C  21.27800 -10.46200 46.66800
N  26.06400 -7.60800 47.17100
C  25.26500 -8.74700 47.23400
C  25.90000 -9.87400 48.02900
C  27.34300 -9.23800 48.36500
C  27.24300 -7.83900 47.85300
C  25.09300 -10.50400 49.28200
C  28.53600 -10.05200 47.80500
C  29.52500 -10.77400 48.71600
N  27.25700 -5.02400 46.88500
C  28.33900 -5.55100 47.52700
C  29.47000 -4.67400 47.54900
C  28.98500 -3.60300 46.76800
C  27.61700 -3.84000 46.45300
C  30.82900 -4.87100 48.17100
C  29.41500 -2.28700 46.20500
O  30.39900 -1.63700 46.34200
C  28.24000 -1.88000 45.28900
C  27.86000 -0.53500 45.63800
O  28.23400 0.43000 45.00900
O  27.11400 -0.58300 46.80200
C  26.55100 0.65500 47.26800
H  21.91400 -4.64000 43.85600
H  23.69200 -9.88000 46.82400
H  29.13600 -7.12300 48.59000
H  25.56100 -1.09500 44.15300
H  23.48800 -2.70800 42.67600
H  23.46900 -0.54000 44.22200
H  22.81500 -1.60700 45.38900
H  22.09200 -1.40500 43.69400
H  25.77500 -3.03700 41.90700
H  27.19200 -2.62400 42.70800
H  27.45400 -1.02200 41.22000
H  26.22300 -0.14600 42.16000
H  19.99800 -7.53000 43.22200
H  20.35500 -5.89600 43.38600
H  19.40200 -6.66200 44.71000
H  21.49700 -10.04200 47.65000
H  22.03600 -11.15900 46.31000
H  20.46800 -11.16500 46.86000
H  25.92100 -10.66800 47.28300
H  27.53200 -9.22900 49.43900
H  25.43100 -9.98500 50.17900
H  25.31200 -11.57200 49.31700
H  24.05200 -10.20300 49.16500
H  29.26100 -9.43100 47.27900
H  28.16200 -10.79400 47.10000
H  29.08200 -10.94300 49.69800
H  30.30700 -10.05000 48.94000
H  29.93200 -11.64100 48.19500
H  31.42700 -3.96300 48.10300
H  31.32300 -5.74500 47.74800
H  30.77700 -5.13800 49.22700
H  28.50300 -1.85400 44.23200
H  25.48800 0.48000 47.43700
H  26.58400 1.43300 46.50400
H  27.06100 1.04700 48.14800
Mg 35.95700 1.37800 29.60300
C  33.79300 2.11500 32.22200
C  38.58600 1.30700 31.82800
C  38.06500 0.73200 27.10400
C  33.36900 1.99200 27.47400
N  36.12600 1.54500 31.83500
C  35.08200 1.84600 32.70500
C  35.61700 2.03100 34.05300
C  37.15800 2.07000 33.85800
C  37.34000 1.64100 32.39900
C  37.84500 3.35000 34.21300
C  35.09900 0.92000 35.05000
C  34.82300 1.35500 36.50700
H  35.57000 2.42200 37.25100
N  38.03800 0.92700 29.47800
C  38.89300 0.87100 30.55400
C  40.25100 0.37000 30.06600
C  40.12900 0.30000 28.63000
C  38.69200 0.59800 28.35900
C  41.44300 0.20400 31.00500
C  41.25700 -0.05600 27.60600
O  41.12000 0.00400 26.40900
C  42.62000 -0.50700 28.20300
N  35.70300 1.19500 27.61800
C  36.71900 1.00500 26.74800
C  36.25300 0.94200 25.27400
C  34.72500 1.20300 25.42200
C  34.57000 1.48200 26.97200
C  36.97900 1.90700 24.27400
C  33.88700 0.06300 24.81700
C  33.17100 -0.97400 25.69900
N  34.00700 2.00100 29.75200
C  33.05200 2.20600 28.78000
C  31.73200 2.48100 29.34800
C  32.03100 2.49700 30.72500
C  33.35500 2.22800 30.88700
C  30.52900 2.63000 28.64200
C  31.45300 2.73200 32.03400
O  30.31000 3.11800 32.26000
C  32.55100 2.50800 33.04000
C  32.72200 3.70300 33.93300
O  33.07300 4.76500 33.52000
O  32.23000 3.43200 35.20800
C  32.17200 4.60500 36.09200
H  39.35700 1.24000 32.59800
H  38.84800 0.56300 26.36100
H  32.54100 2.12400 26.77400
H  35.16600 2.92600 34.48200
H  37.58700 1.33500 34.53900
H  38.57600 3.21500 35.01000
H  37.26100 4.14500 34.67500
H  38.33800 3.73600 33.32100
H  35.71500 0.02200 35.00300
H  34.10800 0.62800 34.70400
H  34.95200 0.41400 37.04200
H  33.81100 1.75900 36.49500
H  42.12100 0.91100 30.52800
H  41.88100 -0.79100 30.92700
H  41.13700 0.61400 31.96800
H  43.12000 0.38000 28.59200
H  43.25500 -0.92600 27.42300
H  42.54600 -1.23500 29.01100
H  36.32300 -0.08400 24.91400
H  34.43100 2.13500 24.94000
H  37.92500 2.29500 24.65100
H  36.45700 2.84600 24.09200
H  37.21100 1.29600 23.40200
H  34.52400 -0.42300 24.07900
H  33.05100 0.62600 24.40000
H  32.12100 -0.83000 25.44300
H  33.41100 -0.88100 26.75800
H  33.32800 -2.03500 25.50900
H  30.39200 1.84300 27.90000
H  30.41800 3.53500 28.04400
H  29.79500 2.54600 29.44300
H  32.22600 1.77800 33.78100
H  31.18800 4.65900 36.55800
H  32.33300 5.52700 35.53300
H  32.97100 4.55300 36.83100

