158

Mg 1.52300 -2.09500 45.37900
C  4.83500 -1.02600 44.81900
C  0.37900 0.40600 43.36100
C  -1.50100 -3.68500 45.11200
C  2.82800 -5.02600 46.95300
N  2.59200 -0.56800 44.08400
C  3.86700 -0.22300 44.13000
C  4.17500 0.98700 43.22500
C  2.70900 1.59200 43.11500
C  1.79500 0.42700 43.62500
C  2.49200 2.88900 43.95300
C  4.71900 0.50100 41.85500
C  5.77400 1.34600 41.14400
H  5.31500 2.13300 39.95100
N  -0.46900 -1.52900 44.51200
C  -0.69500 -0.47300 43.70900
C  -2.02000 -0.55500 43.25800
C  -2.61800 -1.71700 43.91700
C  -1.53300 -2.35000 44.56300
C  -2.67900 0.43800 42.34800
C  -4.07200 -2.04100 43.96800
O  -4.83400 -1.33700 43.37600
C  -4.61200 -3.21500 44.74200
N  0.86000 -4.23600 45.69000
C  -0.52900 -4.49500 45.66800
C  -0.80100 -5.91400 46.36000
C  0.63500 -6.39700 46.81200
C  1.53800 -5.17800 46.47400
C  -1.77300 -5.75000 47.50200
C  0.98600 -7.76200 46.15300
C  1.34800 -8.92200 47.06000
N  3.41800 -2.83700 45.95800
C  3.78300 -4.03000 46.57900
C  5.22100 -4.03900 46.82000
C  5.72500 -2.93900 46.07100
C  4.57400 -2.21600 45.60400
C  5.89200 -5.02100 47.71800
C  6.82700 -2.16900 45.70000
O  7.99400 -2.33400 45.84200
C  6.31000 -0.91300 44.82800
C  6.87800 0.31300 45.46800
O  7.23400 0.34200 46.61900
O  7.10600 1.27100 44.53700
C  8.01800 2.28500 45.05400
H  0.00900 1.30500 42.86200
H  -2.45800 -4.20100 45.00800
H  3.02300 -5.79800 47.70000
H  4.82000 1.68700 43.75600
H  2.36200 1.78000 42.09900
H  3.42500 3.44200 44.06100
H  2.26500 2.58100 44.97400
H  1.63000 3.46600 43.61600
H  3.87500 0.53700 41.16600
H  5.00700 -0.54900 41.90000
H  6.51200 0.63900 40.76400
H  6.16200 2.12900 41.79600
H  -3.66400 0.24800 41.92100
H  -2.06100 0.57700 41.46100
H  -2.80700 1.37800 42.88500
H  -4.55600 -4.10500 44.11500
H  -5.62300 -2.88800 44.98200
H  -4.05500 -3.35200 45.66900
H  -1.13200 -6.58600 45.56800
H  0.64700 -6.63000 47.87600
H  -2.70700 -6.03100 47.01500
H  -1.87600 -4.71700 47.83500
H  -1.64800 -6.49400 48.28900
H  1.86700 -7.77200 45.51000
H  0.17200 -8.27000 45.63800
H  1.03700 -9.86300 46.60600
H  0.70100 -8.85000 47.93400
H  2.36300 -8.90600 47.45600
H  6.26500 -4.72300 48.69800
H  6.80400 -5.27200 47.17600
H  5.25200 -5.89700 47.81900
H  6.76300 -1.04600 43.84600
H  8.88400 1.76700 45.46800
H  7.49800 2.96000 45.73300
H  8.28300 2.89800 44.19200
Mg 10.23200 46.65300 25.27700
C  8.23300 47.02900 28.22100
C  12.83300 48.15000 27.19300
C  12.11600 46.47200 22.64900
C  7.35900 46.24700 23.55500
N  10.51700 47.39000 27.45100
C  9.59100 47.37500 28.46700
C  10.20000 47.71800 29.78200
C  11.43200 48.51300 29.33100
C  11.66900 48.01300 27.88700
C  11.31700 50.04600 29.45600
C  10.43900 46.43000 30.65900
C  10.77800 46.72900 32.16600
H  10.20900 45.82600 33.24500
N  12.30400 47.06500 24.97900
C  13.14200 47.68400 25.86600
C  14.44700 47.68400 25.29100
C  14.25500 47.19100 23.94300
C  12.86200 46.93300 23.79400
C  15.67900 47.87500 26.17600
C  15.30700 46.89500 22.84000
O  15.01500 46.30500 21.80900
C  16.74900 47.39300 23.09900
N  9.77500 46.55700 23.30700
C  10.71800 46.35600 22.38700
C  10.21100 45.78400 21.00500
C  8.69300 45.78700 21.29500
C  8.59500 46.22600 22.78200
C  10.63400 46.52900 19.66500
C  7.91900 44.42000 20.99900
C  6.61300 44.64300 20.14700
N  8.19500 46.47800 25.70400
C  7.11700 46.32900 24.85300
C  5.87900 46.29600 25.61100
C  6.29200 46.61700 26.86700
C  7.71100 46.68200 26.93900
C  4.49500 46.05200 25.07400
C  5.79200 46.66100 28.26700
O  4.65900 46.53500 28.69800
C  7.07600 46.92700 29.25500
C  7.16300 45.83600 30.25200
O  7.65700 44.71500 30.19300
O  6.37700 46.26100 31.31900
C  6.07500 45.24900 32.26500
H  13.56400 48.68900 27.79900
H  12.56800 46.28300 21.67300
H  6.48600 46.12300 22.91100
H  9.51400 48.27200 30.42300
H  12.26100 48.16500 29.94800
H  10.34000 50.39500 29.78900
H  11.61600 50.44800 28.48800
H  12.05900 50.37900 30.18200
H  11.33600 45.99100 30.22300
H  9.58300 45.77600 30.82500
H  10.33200 47.67800 32.46100
H  11.84100 46.85500 32.37500
H  16.40700 47.11600 25.88900
H  15.49700 47.73900 27.24200
H  16.13600 48.86000 26.07900
H  17.19100 47.73300 22.16200
H  17.31900 46.59200 23.57200
H  16.53700 48.25200 23.73500
H  10.60700 44.79400 20.77800
H  8.18900 46.59600 20.76700
H  11.06300 45.77500 19.00500
H  11.32600 47.27800 20.05000
H  9.80100 47.02100 19.16300
H  7.59000 44.13600 21.99800
H  8.54000 43.67100 20.50700
H  6.57400 45.59500 19.61900
H  5.73200 44.75200 20.77900
H  6.38600 43.94400 19.34200
H  3.83000 46.37300 25.87600
H  4.16500 45.08200 24.70200
H  4.32300 46.73400 24.24100
H  6.82300 47.86000 29.75900
H  5.08500 44.83100 32.08400
H  6.16600 45.73000 33.23900
H  6.74500 44.39900 32.39800

