158

Mg 56.36100 24.13300 44.84100
C  54.35400 26.88800 44.11900
C  53.73500 22.03800 44.33000
C  58.55900 21.54500 45.16000
C  58.93300 26.36600 45.50500
N  54.36800 24.40200 44.02300
C  53.76700 25.64200 43.86900
C  52.32600 25.37700 43.40100
C  52.07700 23.95600 43.90100
C  53.42400 23.38200 44.07000
C  51.21300 23.82500 45.19700
C  52.16300 25.56300 41.84800
C  50.86200 26.06800 41.35000
H  50.34900 25.38400 40.04200
N  56.20300 22.04500 44.61600
C  54.99900 21.37800 44.46100
C  55.24700 19.97400 44.47700
C  56.65200 19.80100 44.64300
C  57.23400 21.17400 44.80000
C  54.12900 18.85900 44.31000
C  57.35100 18.33200 44.57800
O  56.69600 17.35900 44.24100
C  58.85200 18.25000 44.70000
N  58.55400 24.03300 44.95800
C  59.15700 22.83900 45.29600
C  60.55100 23.04900 45.88100
C  60.75800 24.57500 45.94000
C  59.35600 25.08700 45.40700
C  60.72200 22.34000 47.21900
C  61.92100 25.14300 45.12500
C  63.14900 25.63600 45.95700
N  56.71300 26.19600 44.77800
C  57.72400 26.91400 45.23400
C  57.36800 28.34400 45.23900
C  56.02900 28.34100 44.82500
C  55.67900 27.02500 44.54000
C  58.12600 29.56500 45.61600
C  54.86400 29.20100 44.48400
O  54.77200 30.42400 44.57900
C  53.73500 28.25700 43.85900
C  53.76900 28.50300 42.38100
O  54.69800 28.20400 41.58400
O  52.62400 29.12200 41.98300
C  52.47500 29.27700 40.51200
H  52.90100 21.35100 44.16800
H  59.27000 20.72400 45.27300
H  59.74100 27.01200 45.85600
H  51.60300 26.04900 43.86300
H  51.62600 23.37400 43.09700
H  50.38000 23.12800 45.11400
H  50.69100 24.76500 45.37700
H  51.83100 23.64100 46.07600
H  52.12300 24.56900 41.40300
H  52.96300 26.10400 41.34200
H  50.97900 27.14500 41.23400
H  50.03600 25.91200 42.04400
H  54.44800 18.34100 43.40600
H  53.13700 19.30600 44.37600
H  54.20000 18.10800 45.09600
H  59.16100 19.03300 44.00800
H  59.20100 17.31800 44.25600
H  59.23400 18.41600 45.70800
H  61.24600 22.63900 45.14800
H  60.78200 24.95900 46.96000
H  59.77200 21.85900 47.45600
H  60.99100 22.97200 48.06600
H  61.43400 21.51600 47.16200
H  61.65200 26.03300 44.55600
H  62.27500 24.34100 44.47700
H  63.05700 25.32500 46.99700
H  63.10800 26.72500 45.94500
H  64.08000 25.23900 45.55200
H  58.11700 30.13500 44.68700
H  59.13000 29.41200 46.01300
H  57.59100 30.12600 46.38300
H  52.78700 28.44700 44.36200
H  52.85000 28.38400 40.01100
H  53.13600 30.08000 40.18800
H  51.40500 29.34700 40.31500
Mg 35.52300 48.65200 25.24900
C  35.74800 46.79800 28.26500
C  34.28300 51.39300 27.03300
C  34.81600 49.99500 22.34600
C  36.37700 45.58400 23.53100
N  34.92400 48.96500 27.33700
C  35.18500 48.10800 28.37600
C  35.16200 48.83100 29.66000
C  34.44100 50.15200 29.29400
C  34.54600 50.20000 27.83900
C  32.97300 50.46900 29.89100
C  36.54500 49.01400 30.36800
C  36.64000 48.61700 31.85500
H  35.44500 48.97300 32.76400
N  34.78300 50.50400 24.69000
C  34.38500 51.57400 25.59300
C  34.07700 52.73400 24.83000
C  34.20700 52.32700 23.46200
C  34.57700 50.85300 23.43800
C  33.70500 54.12000 25.49700
C  33.97000 53.12100 22.17700
O  34.18700 52.63200 21.07900
C  33.48800 54.52700 22.24500
N  35.47200 47.85200 23.20400
C  35.17400 48.62400 22.21400
C  35.39100 47.92000 20.80100
C  35.93900 46.55800 21.16700
C  35.99600 46.72100 22.71700
C  34.03400 47.86900 19.96800
C  37.23200 46.08100 20.47400
C  38.52500 46.82700 20.74500
N  36.02200 46.60800 25.74800
C  36.37000 45.56400 24.93800
C  36.75800 44.35300 25.78600
C  36.59700 44.80200 27.08300
C  36.09100 46.16600 26.99600
C  37.27900 43.00900 25.39100
C  36.70500 44.48400 28.48400
O  36.99700 43.43900 29.09900
C  36.24700 45.75900 29.30100
C  35.14800 45.40000 30.20000
O  33.97000 45.17300 29.92400
O  35.58800 45.23700 31.50900
C  34.65000 44.65000 32.46200
H  33.85900 52.29200 27.48600
H  34.76600 50.40200 21.33400
H  36.67600 44.73800 22.90800
H  34.49500 48.33500 30.36500
H  34.98100 51.04100 29.61900
H  32.21700 50.60100 29.11700
H  32.97300 51.30000 30.59700
H  32.78300 49.54400 30.43500
H  36.84400 50.06000 30.30000
H  37.37400 48.46300 29.92400
H  37.58900 48.86700 32.33000
H  36.60600 47.52800 31.89400
H  33.84000 55.03500 24.92000
H  34.28800 54.23800 26.41100
H  32.66000 54.16700 25.80300
H  32.65900 54.69800 22.93100
H  33.19700 54.88400 21.25700
H  34.32800 55.08800 22.65400
H  36.12400 48.51000 20.25100
H  35.26900 45.71500 20.99400
H  33.99000 46.94700 19.38800
H  33.92700 48.64300 19.20800
H  33.16700 47.94300 20.62500
H  37.03700 46.11100 19.40200
H  37.37700 45.04700 20.78400
H  39.32100 46.22500 21.18400
H  38.39500 47.65100 21.44700
H  39.06200 47.26800 19.90500
H  37.52400 42.92200 24.33200
H  36.51600 42.23500 25.47100
H  38.12300 42.78700 26.04300
H  37.06600 46.04100 29.96300
H  34.17200 43.78500 32.00200
H  33.75700 45.22400 32.71000
H  35.21800 44.46100 33.37300

