158

Mg 8.30000 4.37800 27.41500
C  9.62200 2.57300 30.21700
C  6.44200 6.15100 29.54300
C  7.23900 5.84400 24.74700
C  9.84500 1.72500 25.40600
N  7.82100 4.08100 29.64400
C  8.64100 3.54000 30.56400
C  8.22100 3.91800 32.00100
C  7.04800 4.96100 31.72900
C  7.05200 5.06200 30.16700
C  5.66900 4.69000 32.29400
C  9.38200 4.53100 32.80500
C  8.94300 5.29200 34.12900
H  9.87100 5.20100 35.37500
N  7.08500 5.89800 27.20000
C  6.38100 6.60200 28.21500
C  5.70700 7.74000 27.59700
C  5.91000 7.58500 26.19100
C  6.74800 6.38800 25.97900
C  4.77400 8.64500 28.41600
C  5.25600 8.44900 25.11600
O  5.34100 8.16700 23.91600
C  4.55200 9.71000 25.42200
N  8.50200 3.78900 25.38000
C  7.86000 4.59600 24.52500
C  8.05800 4.04900 23.05900
C  9.10600 2.84900 23.26100
C  9.16200 2.75200 24.79500
C  6.62800 3.72100 22.47400
C  10.54300 2.95300 22.60100
C  11.10700 1.63100 21.98800
N  9.50300 2.56700 27.71700
C  9.94700 1.60700 26.81800
C  10.74800 0.59800 27.53400
C  10.66700 0.99700 28.80600
C  9.84000 2.12100 28.91300
C  11.70500 -0.43500 26.94700
C  11.16500 0.66900 30.17100
O  11.84000 -0.21200 30.62500
C  10.56600 1.80600 31.09800
C  9.70600 1.02000 32.10500
O  8.52000 0.66500 32.00400
O  10.54100 0.65500 33.17400
C  9.83400 0.21300 34.39800
H  5.90200 6.69100 30.32400
H  6.75000 6.23700 23.85300
H  10.42600 0.99200 24.84200
H  7.74500 3.04800 32.45500
H  7.40700 5.93000 32.07700
H  5.63500 3.68200 32.70700
H  5.03500 4.56100 31.41600
H  5.21100 5.46300 32.91100
H  10.13000 5.05600 32.21300
H  9.92000 3.64500 33.14100
H  7.95000 5.06100 34.51300
H  8.95100 6.32900 33.79300
H  3.74500 8.71600 28.06200
H  5.17400 9.65800 28.37500
H  4.69800 8.34600 29.46100
H  4.37600 10.43600 24.62900
H  5.25600 10.16300 26.12000
H  3.62100 9.49400 25.94500
H  8.56000 4.79900 22.44800
H  8.76000 1.88600 22.88600
H  5.86000 3.95400 23.21200
H  6.46000 2.67300 22.22700
H  6.29100 4.29400 21.61000
H  11.13700 3.26700 23.45900
H  10.60500 3.63500 21.75300
H  11.51000 1.89300 21.01000
H  10.33700 0.86100 22.03400
H  11.98600 1.34500 22.56600
H  11.75800 -1.31200 27.59200
H  12.66000 0.07200 26.81000
H  11.37600 -0.88400 26.00900
H  11.27800 2.43800 31.63000
H  9.13200 -0.60200 34.22300
H  9.34100 1.05100 34.89000
H  10.58200 -0.24700 35.04400
Mg 26.47000 50.40300 26.66900
C  24.48500 51.98700 28.92500
C  28.87900 49.71600 29.12000
C  28.51000 49.31700 24.31300
C  24.20100 51.58300 24.08100
N  26.66300 50.78700 28.71300
C  25.63500 51.33800 29.46300
C  25.86200 51.08500 30.95400
C  27.28700 50.39400 31.05500
C  27.65700 50.29400 29.57100
C  28.37100 51.22400 31.91700
C  24.75400 50.21400 31.68300
C  24.10800 50.72000 32.95800
H  24.82100 51.25800 34.14700
N  28.43100 49.66900 26.70300
C  29.19100 49.44200 27.79200
C  30.43100 48.78700 27.36300
C  30.36800 48.71800 25.94700
C  29.07000 49.28300 25.55700
C  31.54400 48.19500 28.31300
C  31.34300 48.06800 24.94500
O  31.13400 47.92000 23.72500
C  32.61600 47.49600 25.46200
N  26.39100 50.46900 24.46800
C  27.32000 49.81600 23.78300
C  27.14700 50.11400 22.29700
C  25.61400 50.57400 22.19000
C  25.34200 50.92600 23.66900
C  28.12200 51.17600 21.68200
C  24.60700 49.42200 21.76200
C  24.59400 49.02800 20.24400
N  24.69700 51.63300 26.49400
C  23.87200 51.96000 25.39000
C  22.72300 52.66600 25.92200
C  22.92700 52.77900 27.27900
C  24.10700 52.10800 27.61000
C  21.62800 53.29400 25.02100
C  22.36500 53.23600 28.47900
O  21.33500 53.91600 28.72300
C  23.30400 52.65600 29.65600
C  23.73700 53.81000 30.50200
O  24.43900 54.74000 30.12000
O  22.98800 53.77600 31.71600
C  23.11500 55.06000 32.47500
H  29.56700 49.32700 29.87300
H  29.05500 48.82300 23.50600
H  23.47200 51.78400 23.29300
H  25.81000 52.03100 31.49300
H  27.20900 49.36000 31.39000
H  29.09800 51.59500 31.19500
H  28.88000 50.61600 32.66500
H  27.85600 51.97600 32.51400
H  25.29100 49.38200 32.13800
H  24.00700 49.80800 31.00000
H  23.53500 49.88100 33.35100
H  23.48200 51.50200 32.52800
H  31.71400 47.12500 28.19200
H  31.25500 48.23600 29.36300
H  32.51400 48.65000 28.11200
H  33.26500 47.18900 24.64200
H  32.39200 46.60100 26.04300
H  33.09900 48.32000 25.98700
H  27.27000 49.25100 21.64200
H  25.71900 51.41000 21.49900
H  28.85300 51.35400 22.47000
H  27.65000 52.14500 21.51900
H  28.58500 50.71500 20.81000
H  23.59600 49.65400 22.09500
H  24.89100 48.50000 22.26900
H  23.60100 49.31700 19.89900
H  24.85100 47.98000 20.09100
H  25.25200 49.59200 19.58400
H  21.26100 52.45300 24.43200
H  22.07700 53.95000 24.27500
H  20.88600 53.87100 25.57400
H  22.72700 51.92600 30.22400
H  23.47500 55.92700 31.92000
H  23.81600 54.77800 33.25900
H  22.21500 55.34300 33.02100

