158

Mg -11.56100 38.71900 40.68600
C  -9.26500 35.98000 40.15000
C  -9.31300 40.72800 39.17900
C  -13.74900 41.15300 41.02500
C  -13.81000 36.31800 41.81600
N  -9.55000 38.31000 39.72600
C  -8.92100 37.14300 39.52900
C  -7.58400 37.45600 38.66900
C  -7.57900 38.99500 38.51800
C  -8.83300 39.40200 39.26700
C  -6.21200 39.70100 38.87200
C  -7.67100 36.68500 37.23700
C  -6.53900 35.67300 36.97900
H  -5.47600 36.14700 36.06700
N  -11.53700 40.68200 40.18400
C  -10.54100 41.33200 39.57600
C  -10.90200 42.71000 39.38300
C  -12.23500 42.89600 39.82900
C  -12.59100 41.53600 40.36100
C  -9.92700 43.73300 38.89200
C  -12.95400 44.24000 39.85800
O  -12.39700 45.21100 39.47100
C  -14.33700 44.43500 40.35000
N  -13.48200 38.75500 41.26100
C  -14.14300 39.89500 41.42200
C  -15.59900 39.55600 41.99800
C  -15.61600 38.01100 42.16700
C  -14.21400 37.65200 41.73600
C  -16.11000 40.43500 43.17100
C  -16.60300 37.18200 41.31100
C  -17.49500 36.13400 42.10900
N  -11.49200 36.58400 41.15400
C  -12.57600 35.80000 41.56200
C  -12.07700 34.37700 41.62400
C  -10.75300 34.42100 41.15400
C  -10.50200 35.73500 40.78400
C  -12.88100 33.25500 42.13100
C  -9.63200 33.63800 40.78600
O  -9.49600 32.43100 40.83300
C  -8.56100 34.60000 40.24200
C  -7.27300 34.51800 41.11100
O  -6.62600 33.48400 41.22000
O  -6.89700 35.77500 41.51500
C  -5.82600 35.91800 42.49500
H  -8.65900 41.38900 38.60600
H  -14.44300 41.99000 41.12300
H  -14.55800 35.65000 42.24900
H  -6.71300 37.06500 39.19500
H  -7.71200 39.36300 37.50000
H  -5.81900 40.07400 37.92700
H  -5.57200 38.97700 39.37700
H  -6.54300 40.47900 39.56000
H  -7.64100 37.31900 36.35100
H  -8.59800 36.11600 37.17600
H  -6.94000 34.68900 36.73400
H  -6.01800 35.49400 37.92000
H  -10.39700 44.13900 37.99600
H  -8.89100 43.43700 38.72600
H  -10.02200 44.54200 39.61500
H  -14.78500 45.41500 40.18600
H  -14.42300 44.28600 41.42700
H  -15.00200 43.75100 39.82200
H  -16.24000 39.81500 41.15600
H  -15.77500 37.75400 43.21400
H  -15.31600 41.03900 43.60700
H  -16.54800 39.77900 43.92400
H  -16.80700 41.20800 42.84600
H  -16.12500 36.69200 40.46200
H  -17.27000 37.90600 40.84400
H  -17.69400 35.22200 41.54700
H  -18.36100 36.68900 42.47000
H  -16.97800 35.73300 42.98000
H  -12.41800 32.98800 43.08000
H  -12.73200 32.49100 41.36700
H  -13.93400 33.44800 42.33900
H  -8.35900 34.16600 39.26300
H  -6.25100 36.57700 43.25200
H  -4.91100 36.40100 42.15300
H  -5.74400 34.93200 42.95100
Mg -12.69500 17.12700 41.39300
C  -9.87600 15.04900 40.96300
C  -10.93800 19.65100 39.85800
C  -15.68500 18.92500 40.97200
C  -14.58300 14.41100 42.40700
N  -10.63900 17.26100 40.51400
C  -9.65400 16.36000 40.57900
C  -8.28200 16.89000 40.07400
C  -8.58600 18.40900 39.74600
C  -10.17900 18.46100 40.05500
C  -7.72500 19.45500 40.54600
C  -7.76900 16.15000 38.77600
C  -6.17900 16.25700 38.66500
H  -5.54100 16.10400 37.28400
N  -13.19900 19.05100 40.52900
C  -12.31000 19.93600 39.97800
C  -13.07700 21.16800 39.65700
C  -14.44000 21.00700 40.00000
C  -14.48900 19.57700 40.43400
C  -12.42000 22.36100 39.14000
C  -15.51300 22.03600 39.78000
O  -15.25300 23.13000 39.27000
C  -16.88000 21.81700 40.20100
N  -14.84400 16.73600 41.68200
C  -15.84500 17.63000 41.51300
C  -17.20300 17.07300 41.91900
C  -16.89100 15.58700 42.29200
C  -15.35400 15.51100 42.10600
C  -18.08500 17.92700 42.91500
C  -17.66600 14.42300 41.60200
C  -18.14000 13.26600 42.47900
N  -12.37700 15.15800 41.74400
C  -13.21700 14.17300 42.19100
C  -12.43900 12.84200 42.35600
C  -11.14000 13.21600 41.92000
C  -11.17200 14.57300 41.52500
C  -12.96100 11.54700 42.83900
C  -9.80500 12.76000 41.74200
O  -9.43000 11.60900 41.97200
C  -8.87600 13.93100 41.18500
C  -7.92100 14.39300 42.21200
O  -8.18400 14.89300 43.29000
O  -6.62200 14.01000 41.78400
C  -5.48600 14.55100 42.56200
H  -10.32700 20.48400 39.50500
H  -16.64900 19.40200 40.78300
H  -15.17400 13.55600 42.74300
H  -7.55600 16.75900 40.87600
H  -8.43700 18.69100 38.70400
H  -8.38300 19.93600 41.27000
H  -7.29300 20.19600 39.87400
H  -6.96500 18.88100 41.07600
H  -8.20200 16.56500 37.86600
H  -8.00900 15.09000 38.85300
H  -5.67500 15.53500 39.30700
H  -6.04700 17.30500 38.93300
H  -12.56600 23.24500 39.76100
H  -12.84000 22.61000 38.16500
H  -11.36800 22.26400 38.87300
H  -16.92000 21.57300 41.26200
H  -17.31900 21.01900 39.60100
H  -17.45000 22.73400 40.05000
H  -17.71400 16.96000 40.96300
H  -17.13100 15.40600 43.34000
H  -18.09000 17.26300 43.77900
H  -19.11300 18.09300 42.59100
H  -17.57900 18.82000 43.28200
H  -17.11200 13.93200 40.80200
H  -18.47700 14.97900 41.13200
H  -17.81400 13.43500 43.50500
H  -17.86000 12.28300 42.10200
H  -19.22600 13.28500 42.57300
H  -13.86200 11.57800 43.45200
H  -12.15200 11.20200 43.48300
H  -13.08000 11.03200 41.88500
H  -8.25800 13.57700 40.36000
H  -5.32500 15.62500 42.46600
H  -4.70900 14.01700 42.01600
H  -5.41400 14.24200 43.60500

