158

Mg 47.96300 16.02800 27.84100
C  46.18000 15.73500 30.88700
C  50.42000 17.71500 29.58400
C  49.57200 16.39500 24.97800
C  45.21900 14.57500 26.19400
N  48.23400 16.68000 30.05700
C  47.42600 16.37200 31.10000
C  48.01300 16.87700 32.41800
C  49.06400 17.85000 31.84600
C  49.27800 17.40600 30.41600
C  48.65500 19.33500 31.89200
C  48.63200 15.70500 33.16100
C  48.75900 16.01400 34.72000
H  49.01700 17.41900 35.16000
N  49.77200 16.86800 27.35000
C  50.68900 17.46300 28.21400
C  51.91800 17.76400 27.48700
C  51.76700 17.25200 26.17900
C  50.32200 16.79100 26.07500
C  53.25500 18.20000 28.15800
C  52.76600 17.19500 24.99400
O  52.41300 16.64100 23.94700
C  54.14500 17.73500 25.11900
N  47.41400 15.53300 25.86600
C  48.27200 15.92600 24.88000
C  47.61000 15.80700 23.50800
C  46.21800 15.19000 23.91000
C  46.31700 14.96900 25.39300
C  47.52400 17.06000 22.61700
C  45.86600 13.96100 23.12700
C  46.44300 12.55900 23.58600
N  46.05900 15.31000 28.33500
C  45.08600 14.69600 27.58500
C  44.00600 14.29100 28.45400
C  44.32100 14.70000 29.80700
C  45.60600 15.29100 29.65000
C  42.81400 13.49200 28.04300
C  43.97900 14.68300 31.15200
O  42.97400 14.28200 31.70200
C  45.13500 15.35900 31.94700
C  44.60100 16.49200 32.70600
O  44.23000 17.52800 32.21400
O  44.38700 16.15900 34.03900
C  43.80900 17.18500 34.93600
H  51.31800 18.10800 30.06400
H  50.07800 16.42800 24.01100
H  44.36700 14.19300 25.62800
H  47.35500 17.48000 33.04500
H  50.01600 17.74000 32.36600
H  47.57900 19.40800 32.05300
H  48.91700 19.97500 31.04900
H  49.07700 19.80500 32.78000
H  49.62200 15.47200 32.77000
H  47.96900 14.84400 33.07000
H  49.63800 15.42600 34.98300
H  47.84700 15.67800 35.21300
H  54.07200 17.71400 27.62500
H  53.23400 17.96800 29.22300
H  53.44300 19.25600 27.96300
H  54.80500 17.06000 25.66400
H  53.96200 18.75800 25.44900
H  54.46900 17.91000 24.09400
H  48.24100 15.09100 22.98000
H  45.45400 15.96500 23.84400
H  48.29100 17.69900 23.05400
H  46.58100 17.60600 22.65600
H  47.73500 16.75900 21.59100
H  46.26900 14.12900 22.12800
H  44.79100 13.78300 23.09100
H  46.76900 12.10300 22.65100
H  45.64900 11.94700 24.01400
H  47.28700 12.67200 24.26600
H  42.38900 12.92800 28.87400
H  43.10100 12.72800 27.32100
H  42.12100 14.13200 27.49700
H  45.56800 14.68000 32.68200
H  42.97900 17.55800 34.33600
H  44.61500 17.90600 35.07500
H  43.46000 16.82500 35.90300
Mg -0.42000 43.13200 26.60800
C  1.47000 43.45700 29.42000
C  -3.06300 41.89600 28.60400
C  -2.21600 42.32900 23.85800
C  2.43200 43.56100 24.66100
N  -0.66000 42.29000 28.77900
C  0.11300 42.96700 29.67400
C  -0.47400 43.15800 31.04600
C  -1.82300 42.33200 30.88500
C  -1.88200 42.08500 29.35600
C  -1.94800 41.07100 31.76400
C  -0.75100 44.65800 31.37300
C  -0.88000 45.04800 32.77900
H  -1.31300 43.93900 33.76900
N  -2.36900 42.26500 26.26900
C  -3.27300 42.02500 27.24100
C  -4.57300 41.73000 26.58000
C  -4.36900 41.81200 25.20300
C  -2.93900 42.11200 24.99200
C  -5.80100 41.64700 27.35100
C  -5.41400 41.77400 24.08200
O  -5.08800 41.89700 22.90600
C  -6.89300 41.42900 24.30800
N  0.04600 43.11900 24.66000
C  -0.90700 42.80700 23.68600
C  -0.29700 42.77800 22.22900
C  1.05200 43.58800 22.54600
C  1.21400 43.40000 24.04000
C  -0.19800 41.27600 21.69900
C  1.13300 45.11400 22.31200
C  2.37000 45.52200 21.53200
N  1.50500 43.46200 26.96500
C  2.64200 43.58800 26.07900
C  3.86300 43.74200 26.83200
C  3.41300 43.83400 28.14900
C  2.02700 43.59700 28.20800
C  5.20400 43.91300 26.37700
C  3.83200 44.03800 29.44600
O  4.92500 44.32600 29.86500
C  2.51000 43.90900 30.37700
C  2.86600 42.85700 31.34300
O  2.79100 41.66300 31.13600
O  3.21000 43.31700 32.54800
C  3.49300 42.31100 33.60700
H  -3.87500 41.53800 29.24100
H  -2.76000 42.00400 22.96900
H  3.31400 43.82700 24.07400
H  0.21100 42.72200 31.77300
H  -2.69200 42.96500 31.06200
H  -2.58800 40.35600 31.24700
H  -2.28800 41.29400 32.77500
H  -0.93700 40.66800 31.82800
H  -1.67800 45.03800 30.94300
H  0.09200 45.25200 31.02100
H  -1.61900 45.84900 32.79500
H  0.04000 45.39100 33.25300
H  -6.74200 41.94100 26.88600
H  -5.75700 42.36700 28.16800
H  -5.81700 40.64900 27.78800
H  -6.74900 40.51700 24.88800
H  -7.35100 41.26100 23.33300
H  -7.36300 42.24500 24.85700
H  -0.95400 43.27100 21.51300
H  1.79100 43.03400 21.96700
H  -1.02500 41.29300 20.98800
H  -0.43200 40.44300 22.36200
H  0.78300 41.07800 21.26800
H  1.10400 45.72900 23.21200
H  0.22200 45.36700 21.77100
H  2.98400 44.72500 21.11300
H  3.01300 46.20700 22.08500
H  1.99700 46.02100 20.63800
H  5.47000 42.89900 26.08000
H  5.94000 44.23100 27.11600
H  5.23600 44.65500 25.57900
H  2.54700 44.86000 30.90800
H  2.64100 41.75600 33.99900
H  3.88700 42.76500 34.51600
H  4.23100 41.60900 33.21800

