158

Mg 47.55700 45.86800 42.95600
C  44.29800 45.03200 41.83700
C  48.75900 43.17900 40.95300
C  50.78500 46.83500 43.33100
C  46.41500 48.88800 43.86300
N  46.67100 44.25400 41.48300
C  45.30500 44.16800 41.20900
C  45.00400 42.98700 40.24000
C  46.35600 42.18900 40.42800
C  47.34000 43.19300 41.04100
C  46.24600 40.97000 41.41700
C  44.72200 43.49600 38.81500
C  43.30700 43.06400 38.24400
H  43.26500 41.80700 37.29200
N  49.45100 45.00700 42.35000
C  49.72700 43.95800 41.50400
C  51.16600 43.74900 41.45600
C  51.75400 44.71000 42.26700
C  50.68000 45.60800 42.67600
C  51.80500 42.63400 40.64300
C  53.26300 44.86200 42.52300
O  54.01400 43.99900 42.10000
C  53.86700 45.94900 43.40200
N  48.49000 47.69900 43.32500
C  49.84500 47.80000 43.63200
C  50.11100 49.15200 44.21500
C  48.73700 49.87700 44.23300
C  47.78200 48.74500 43.74300
C  50.77000 49.06900 45.63200
C  48.57300 51.04700 43.18200
C  47.64500 52.14600 43.77500
N  45.71900 46.75100 43.05400
C  45.40500 47.94700 43.66200
C  43.97100 48.09700 43.76200
C  43.47800 46.95200 43.04000
C  44.62500 46.14700 42.64300
C  43.10600 49.16100 44.40200
C  42.31000 46.29400 42.51400
O  41.14000 46.71700 42.53000
C  42.80400 45.02600 41.68400
C  42.10000 43.86400 42.22900
O  41.13100 43.35200 41.68300
O  42.77500 43.33200 43.25300
C  42.35000 41.98700 43.62100
H  49.01300 42.26700 40.40900
H  51.78600 47.12400 43.65900
H  46.07300 49.82900 44.29700
H  44.12700 42.49700 40.66400
H  46.78800 41.87200 39.47900
H  45.47700 40.29700 41.03800
H  46.10600 41.28000 42.45200
H  47.19100 40.44600 41.26900
H  45.46400 43.08000 38.13300
H  44.76000 44.57900 38.69400
H  42.61900 43.82900 37.88500
H  42.84300 42.68700 39.15500
H  52.53200 43.01900 39.92700
H  51.12400 41.95100 40.13600
H  52.20900 41.87000 41.30700
H  53.63800 46.83100 42.80300
H  54.94100 45.76700 43.37500
H  53.47500 45.95900 44.41900
H  50.80900 49.53400 43.47000
H  48.33200 50.15400 45.20600
H  51.81100 48.83900 45.40400
H  50.18400 48.28400 46.10900
H  50.62600 49.97400 46.22200
H  48.01200 50.70300 42.31300
H  49.55400 51.24400 42.75000
H  46.80700 52.21000 43.08100
H  48.13100 53.12100 43.76500
H  47.32900 52.07500 44.81600
H  42.67600 49.75100 43.59200
H  43.80100 49.82600 44.91500
H  42.27800 48.78300 45.00200
H  42.50900 44.92100 40.64000
H  42.47300 41.23000 42.84700
H  41.35700 41.82300 44.03900
H  42.91600 41.54400 44.44000
Mg -0.30100 43.88900 26.13100
C  1.81800 43.77100 28.81000
C  -2.91400 43.14000 28.41700
C  -2.41600 43.23600 23.61400
C  2.44900 44.42400 23.93200
N  -0.40500 43.27700 28.40600
C  0.51900 43.55200 29.27000
C  0.03400 43.50000 30.71600
C  -1.46100 43.15400 30.55200
C  -1.60800 43.17300 29.04800
C  -1.86300 41.85000 31.14900
C  0.31200 44.84400 31.47200
C  0.77900 44.77300 32.96700
H  0.51200 43.55600 33.82200
N  -2.37000 43.30900 26.02300
C  -3.28000 43.08700 27.06000
C  -4.51600 42.68500 26.50700
C  -4.35700 42.56300 25.10900
C  -3.01800 43.04200 24.83200
C  -5.73500 42.34500 27.38200
C  -5.33000 41.93600 24.14000
O  -5.07900 41.98900 22.94800
C  -6.64100 41.38700 24.48500
N  -0.01200 43.93500 24.10100
C  -1.07000 43.63700 23.27200
C  -0.54000 43.57600 21.86300
C  0.94300 44.05700 21.95100
C  1.15000 44.10900 23.41900
C  -0.69700 42.13600 21.16200
C  1.21800 45.38000 21.14100
C  1.10600 46.79900 21.77900
N  1.75600 44.18400 26.24300
C  2.70100 44.45600 25.32400
C  3.98100 44.54700 25.97300
C  3.67800 44.21000 27.35200
C  2.33000 44.02600 27.45900
C  5.34300 44.79600 25.25600
C  4.27300 43.92000 28.64200
O  5.41700 43.80800 29.08000
C  3.03300 43.80900 29.63900
C  3.18500 42.63400 30.44700
O  3.18400 41.53900 29.95000
O  3.52400 42.87400 31.78300
C  4.13700 41.78400 32.54600
H  -3.77400 42.90900 29.04900
H  -3.04000 42.96800 22.75900
H  3.25300 44.56400 23.20700
H  0.53500 42.63600 31.15400
H  -2.06200 43.95600 30.98200
H  -0.93800 41.47100 31.58200
H  -2.38100 41.22600 30.42100
H  -2.55200 41.92100 31.99100
H  -0.59300 45.45100 31.47100
H  1.06800 45.35900 30.87900
H  0.10300 45.50400 33.41100
H  1.81900 45.09100 33.03800
H  -6.67300 42.35000 26.82600
H  -5.88900 42.77800 28.37100
H  -5.45500 41.33200 27.67200
H  -6.62600 40.55000 25.18300
H  -6.97700 40.95800 23.54100
H  -7.52800 41.96800 24.73600
H  -1.08200 44.27900 21.23000
H  1.54300 43.21500 21.60500
H  0.25100 41.64600 20.94200
H  -1.31700 42.24600 20.27200
H  -1.32200 41.50800 21.79700
H  0.44400 45.29100 20.37800
H  2.17900 45.41300 20.62700
H  0.25600 47.30200 21.31700
H  1.98800 47.35000 21.45100
H  0.91500 46.85800 22.85100
H  5.38600 44.60900 24.18300
H  6.05500 44.17700 25.80300
H  5.61000 45.84400 25.39000
H  3.06800 44.78200 30.12800
H  4.45600 42.28200 33.46100
H  5.05600 41.41800 32.08600
H  3.40000 41.00800 32.75000

