158

Mg 23.80600 -5.35700 45.44100
C  26.00300 -2.94100 44.14700
C  21.31800 -4.05700 43.47500
C  22.18300 -8.07300 45.98800
C  26.63300 -6.70200 47.18900
N  23.70700 -3.61900 44.17600
C  24.71100 -2.79900 43.77600
C  24.09500 -1.77900 42.71300
C  22.57900 -1.94100 42.87400
C  22.49900 -3.28500 43.59900
C  21.77000 -0.87000 43.69900
C  24.68400 -2.09500 41.27800
C  25.16400 -0.86500 40.42500
H  24.67200 -0.78300 38.96600
N  21.85600 -5.99700 44.88400
C  21.06500 -5.35700 43.98900
C  19.94400 -6.23700 43.66400
C  20.13800 -7.43900 44.34000
C  21.43000 -7.24800 45.11400
C  18.83900 -5.89300 42.60200
C  19.11900 -8.57400 44.31600
O  18.06100 -8.44700 43.61300
C  19.39500 -9.87400 45.07700
N  24.41100 -7.17300 46.35800
C  23.45000 -8.12300 46.52300
C  23.96700 -9.42800 47.18800
C  25.26900 -8.79200 47.84400
C  25.48400 -7.48200 47.11700
C  23.03400 -10.09600 48.24400
C  26.54200 -9.80100 47.85500
C  27.39800 -9.65800 49.15700
N  25.96800 -4.92100 45.67500
C  26.86700 -5.52100 46.43300
C  28.05900 -4.84200 46.33000
C  27.82000 -3.78200 45.43200
C  26.48900 -3.88100 45.05700
C  29.27300 -5.12500 47.07700
C  28.35000 -2.57300 44.81500
O  29.50400 -2.09000 44.80700
C  27.23300 -2.07400 43.88400
C  26.86400 -0.66200 44.22600
O  26.60100 -0.28300 45.34800
O  27.03400 0.06400 43.07900
C  26.78500 1.55900 43.24000
H  20.54900 -3.55400 42.88400
H  21.52700 -8.94300 46.06200
H  27.34500 -7.05500 47.93700
H  24.27000 -0.72300 42.91700
H  22.14000 -1.97500 41.87700
H  22.38900 -0.15000 44.23500
H  21.13000 -1.37100 44.42600
H  21.22100 -0.27200 42.97100
H  23.81900 -2.45700 40.72300
H  25.29900 -2.99500 41.28800
H  26.20500 -1.09300 40.19400
H  25.09300 0.07200 40.97700
H  18.64700 -6.57300 41.77300
H  19.02500 -4.95400 42.07900
H  17.90200 -5.91800 43.15700
H  19.16000 -9.66700 46.12100
H  20.43500 -10.18600 44.97700
H  18.69300 -10.57600 44.62800
H  24.21500 -10.02400 46.31000
H  25.07700 -8.45100 48.86100
H  21.99700 -9.83300 48.03500
H  23.27600 -9.92100 49.29300
H  22.95200 -11.16900 48.07500
H  27.19800 -9.58500 47.01300
H  26.12800 -10.80700 47.77400
H  28.45300 -9.81500 48.93100
H  27.16800 -10.42900 49.89200
H  27.16900 -8.70300 49.63000
H  29.54800 -4.15800 47.49700
H  30.06400 -5.37700 46.36900
H  29.15800 -5.81500 47.91300
H  27.53300 -2.21400 42.84500
H  26.49300 1.81300 44.25900
H  25.93100 1.79300 42.60400
H  27.70300 1.99000 42.84200
Mg 17.56100 52.16900 26.02100
C  19.39800 50.50100 28.59400
C  15.30800 52.90500 28.34600
C  15.69600 53.11300 23.50200
C  19.97200 50.70900 23.74700
N  17.54500 51.85200 28.19400
C  18.35900 51.20100 29.07200
C  18.00200 51.57600 30.53600
C  16.54800 52.06500 30.35100
C  16.45900 52.27000 28.87800
C  15.53000 51.09500 30.87700
C  19.06700 52.56800 31.16400
C  19.22600 52.58900 32.72800
H  18.17900 51.93200 33.60900
N  15.79900 52.99100 25.91500
C  14.94700 53.22100 27.00000
C  13.79800 53.88700 26.65800
C  13.83100 53.99900 25.22700
C  15.14000 53.37500 24.76200
C  12.79000 54.44300 27.66800
C  12.85500 54.61400 24.23500
O  13.05300 54.72100 23.02400
C  11.54500 55.24600 24.79700
N  17.78200 51.99000 23.88800
C  16.89600 52.54900 23.10700
C  17.34500 52.43300 21.60900
C  18.77900 51.79300 21.72300
C  18.84100 51.36400 23.17800
C  16.43900 51.74200 20.60100
C  19.82400 52.76300 21.26400
C  20.92500 52.09100 20.39300
N  19.30500 50.90900 26.16800
C  20.20500 50.51100 25.15100
C  21.32800 49.74800 25.70500
C  21.05200 49.73600 27.09100
C  19.78500 50.44600 27.25200
C  22.37100 49.13900 25.01200
C  21.48200 49.26500 28.42700
O  22.41500 48.61600 28.76500
C  20.48600 49.84300 29.40200
C  20.04100 48.72200 30.29100
O  19.45000 47.73200 29.91800
O  20.37600 49.03200 31.61600
C  19.82300 48.16200 32.62300
H  14.66900 53.29000 29.14400
H  15.01800 53.58000 22.78400
H  20.69900 50.36900 23.00700
H  18.06500 50.65300 31.11100
H  16.46200 53.05200 30.80600
H  14.76800 51.76900 31.26900
H  15.97400 50.57600 31.72600
H  15.13200 50.44100 30.10000
H  18.68000 53.46700 30.68300
H  20.06700 52.44100 30.74900
H  19.23900 53.65200 32.96600
H  20.19900 52.17000 32.98500
H  11.79200 54.33600 27.24300
H  12.94800 55.51800 27.75600
H  12.82100 54.17800 28.72500
H  11.69400 56.06800 25.49700
H  10.96900 54.38300 25.13100
H  10.95300 55.79200 24.06300
H  17.38700 53.48400 21.32400
H  18.69300 50.86100 21.16500
H  16.86100 50.92200 20.01900
H  16.18000 52.47100 19.83300
H  15.57000 51.22300 21.00400
H  20.25700 53.11900 22.19800
H  19.28400 53.53400 20.71400
H  21.92100 52.14100 20.83200
H  20.89500 52.54300 19.40200
H  20.77700 51.01900 20.26200
H  23.35700 49.60200 25.05800
H  22.16300 48.97300 23.95500
H  22.54200 48.17800 25.49700
H  20.91300 50.58200 30.07900
H  20.21400 48.26900 33.63500
H  20.24100 47.17700 32.41700
H  18.73800 48.18500 32.52100

