158

Mg 8.99200 3.32100 27.37200
C  10.31900 1.97400 30.35200
C  6.76300 5.31600 29.33600
C  7.49100 4.35000 24.50200
C  10.90900 0.98000 25.65100
N  8.58300 3.53200 29.57400
C  9.41900 3.00800 30.60700
C  9.17900 3.75200 31.90500
C  7.90700 4.58900 31.65000
C  7.64300 4.45800 30.11800
C  6.66200 4.32300 32.59400
C  10.35800 4.59700 32.43800
C  10.10800 5.22700 33.84700
H  10.88000 4.58200 35.01600
N  7.38500 4.62900 27.03700
C  6.66200 5.45000 27.97200
C  5.79900 6.31300 27.22400
C  6.02500 6.03800 25.83200
C  6.98500 4.90500 25.74500
C  4.93100 7.40900 27.91100
C  5.36000 6.71800 24.63900
O  5.57500 6.44100 23.43500
C  4.41800 7.83000 24.88200
N  9.09100 2.68200 25.30000
C  8.44600 3.32700 24.29300
C  8.89300 2.84500 22.99000
C  10.22700 2.05900 23.36600
C  10.13200 1.90000 24.86000
C  7.73000 2.05400 22.24300
C  11.60900 2.61900 22.95500
C  12.06100 3.94200 23.66200
N  10.34700 1.77700 27.88900
C  11.02000 0.92300 27.05500
C  11.88000 0.04600 27.85100
C  11.61000 0.39100 29.19200
C  10.67400 1.46600 29.13700
C  12.88000 -0.96800 27.22900
C  12.01300 0.25500 30.58900
O  12.89100 -0.39100 31.01500
C  11.21000 1.25600 31.41700
C  10.45000 0.53100 32.33200
O  9.27600 0.15800 32.12300
O  11.13700 0.31800 33.42600
C  10.27600 -0.21200 34.57400
H  6.32200 6.15200 29.88200
H  6.90800 4.59500 23.61200
H  11.52300 0.27800 25.08200
H  9.07300 2.91800 32.59900
H  8.05800 5.64800 31.86000
H  5.84200 3.82500 32.07700
H  6.40300 5.33800 32.89500
H  7.07900 3.80200 33.45500
H  10.55800 5.40200 31.73100
H  11.29700 4.04300 32.44600
H  9.07600 5.01400 34.12500
H  10.30400 6.29900 33.84400
H  5.45600 8.35700 27.79800
H  4.76000 7.22000 28.97100
H  3.94500 7.38400 27.44600
H  3.37800 7.54300 25.03800
H  4.56800 8.51000 24.04400
H  4.75200 8.47800 25.69300
H  9.25500 3.70900 22.43200
H  10.21900 1.04700 22.96000
H  6.76900 2.01500 22.75400
H  8.11200 1.05800 22.01700
H  7.49000 2.47400 21.26600
H  11.58300 2.60300 21.86600
H  12.38400 1.87300 23.13100
H  11.83200 4.03000 24.72400
H  11.65800 4.84000 23.19500
H  13.15000 4.00300 23.66500
H  13.66200 -0.96200 27.98800
H  13.11900 -0.65200 26.21300
H  12.47200 -1.97800 27.19200
H  11.90300 1.87800 31.98300
H  9.80700 -1.18400 34.42000
H  9.51600 0.50700 34.87900
H  10.99500 -0.42800 35.36400
Mg 6.49300 54.21200 40.67800
C  5.87700 50.76800 40.03500
C  9.71900 53.49100 39.78500
C  6.90400 57.45500 40.47900
C  3.15700 54.58800 41.41600
N  7.58400 52.36600 39.61600
C  7.08900 51.07600 39.52100
C  8.22400 50.09700 39.25700
C  9.54400 50.95300 39.72200
C  8.93900 52.34200 39.71400
C  10.06800 50.58600 41.12600
C  8.33100 49.27600 37.86300
C  8.16700 49.98900 36.51000
H  6.98400 49.76500 35.65300
N  8.03500 55.34300 40.08000
C  9.31000 54.87500 39.86300
C  10.22100 55.95900 39.77400
C  9.47400 57.13400 39.95100
C  8.09600 56.68000 40.23400
C  11.64200 55.75500 39.35800
C  9.99500 58.57000 39.95400
O  11.22900 58.71800 39.79700
C  9.17000 59.72900 40.43000
N  5.16700 55.79700 40.71500
C  5.56000 57.06900 40.67500
C  4.44800 58.11100 41.11200
C  3.21400 57.18600 41.15400
C  3.89700 55.74800 41.20200
C  4.84800 58.83300 42.48300
C  2.21800 57.38300 39.96400
C  0.81200 56.81400 39.95600
N  4.87400 52.92600 40.86400
C  3.62100 53.23100 41.26400
C  2.88400 52.03700 41.37700
C  3.68600 50.99400 41.02000
C  4.88100 51.62900 40.60600
C  1.49100 51.84600 41.74200
C  3.81400 49.52700 40.80300
O  2.98600 48.59600 40.89200
C  5.23000 49.36100 40.19200
C  4.99500 48.59100 38.89000
O  4.74200 49.03300 37.76600
O  5.06200 47.26400 39.21100
C  4.67500 46.31500 38.12500
H  10.78200 53.31000 39.61000
H  6.94000 58.54200 40.58500
H  2.15100 54.61000 41.84100
H  8.10800 49.23600 39.91600
H  10.22400 50.83000 38.87800
H  9.45500 49.84700 41.64200
H  9.97400 51.48800 41.73000
H  11.09000 50.25300 40.94200
H  7.59600 48.48300 38.00500
H  9.32100 48.82500 37.92700
H  9.06600 49.78400 35.92900
H  8.22600 51.04300 36.78000
H  11.84000 55.80500 38.28700
H  12.16700 54.85100 39.66500
H  12.17200 56.53700 39.90100
H  8.34600 60.01900 39.77700
H  9.86400 60.55500 40.58400
H  8.86700 59.44400 41.43700
H  4.36800 58.83300 40.29800
H  2.67000 57.26300 42.09500
H  5.87700 58.60600 42.75900
H  4.25100 58.49600 43.33000
H  4.75700 59.88700 42.21800
H  2.70200 56.93800 39.09400
H  2.15100 58.46100 39.82000
H  0.64300 56.30600 40.90600
H  0.67400 56.10400 39.14000
H  0.02900 57.56700 39.86600
H  0.81700 52.24800 40.98600
H  1.30400 52.49200 42.60100
H  1.24600 50.83300 42.06100
H  5.86600 48.59500 40.63500
H  4.83700 46.71200 37.12300
H  3.63500 45.98700 38.13400
H  5.38600 45.49600 38.23500

