158

Mg 1.24300 7.83900 26.14600
C  1.58200 9.52900 29.11100
C  1.22600 4.84400 28.00900
C  1.01600 6.09200 23.23900
C  1.78000 10.77200 24.42700
N  1.37800 7.22500 28.28000
C  1.29500 8.14200 29.27100
C  1.18200 7.51400 30.64800
C  1.28900 6.01400 30.35300
C  1.28200 6.00600 28.77200
C  2.47900 5.26400 31.00400
C  -0.11000 7.95200 31.37500
C  0.00900 8.30400 32.80400
H  1.19300 7.71000 33.60500
N  1.15100 5.67700 25.67900
C  1.11500 4.64500 26.58200
C  0.87700 3.38500 25.90100
C  0.88900 3.74200 24.48100
C  1.04700 5.21600 24.41000
C  0.83700 2.04200 26.54300
C  0.74000 2.94100 23.29500
O  0.69900 3.37500 22.18300
C  0.73400 1.39400 23.37500
N  1.60700 8.33900 24.07700
C  1.26100 7.47400 23.09500
C  1.16700 8.23700 21.79000
C  1.20200 9.68100 22.19400
C  1.56000 9.62100 23.67400
C  2.26000 7.89700 20.72000
C  -0.16500 10.45000 22.08700
C  -1.05700 10.16900 20.85900
N  1.75200 9.69200 26.63900
C  1.84700 10.84200 25.81700
C  1.88200 12.01100 26.58400
C  1.84100 11.53100 27.89200
C  1.74600 10.15200 27.86200
C  2.09400 13.45000 26.05600
C  1.75200 11.97700 29.21600
O  1.65700 13.09600 29.68100
C  1.71500 10.65800 30.11000
C  3.03200 10.62800 30.84800
O  4.01000 9.94400 30.61600
O  2.77400 11.21200 32.09400
C  3.76800 10.85600 33.19400
H  1.22900 3.96800 28.66100
H  0.78000 5.63500 22.27600
H  1.87400 11.74200 23.93500
H  2.01400 7.78200 31.30000
H  0.40900 5.51200 30.75500
H  3.11800 5.95000 31.56000
H  3.03500 4.70600 30.25100
H  2.00300 4.54800 31.67400
H  -0.88400 7.19300 31.26200
H  -0.61900 8.69600 30.76200
H  -0.85700 7.91900 33.34100
H  -0.00200 9.39400 32.80800
H  0.62800 2.11800 27.61000
H  1.79300 1.53200 26.42400
H  -0.03500 1.46100 26.24300
H  1.67800 1.11300 23.84200
H  0.75000 0.91700 22.39400
H  -0.04500 1.07300 24.06600
H  0.21800 8.00100 21.30800
H  1.92400 10.35900 21.73800
H  1.86100 7.57100 19.76000
H  2.85300 7.10100 21.17100
H  2.83100 8.79900 20.50300
H  0.19300 11.47600 22.01200
H  -0.65100 10.34200 23.05700
H  -0.54900 9.68900 20.02300
H  -1.39400 11.13300 20.47700
H  -1.88200 9.53000 21.17200
H  1.37200 13.76800 25.30400
H  3.11100 13.62600 25.70600
H  1.88500 14.03700 26.95000
H  0.86800 10.76800 30.78700
H  3.16700 10.67700 34.08600
H  4.41500 11.70900 33.39800
H  4.29900 9.92800 32.98200
Mg 40.78200 40.88600 26.65200
C  40.31500 43.26300 29.17000
C  41.50000 38.59800 29.12700
C  41.64100 38.75100 24.23200
C  40.55300 43.44000 24.26300
N  41.04100 40.95300 28.96900
C  40.56900 42.00600 29.75300
C  40.62300 41.62900 31.23000
C  41.12400 40.13600 31.15400
C  41.23400 39.87000 29.68700
C  42.45800 39.81000 31.94400
C  39.29400 41.81600 31.97800
C  39.16100 42.84700 33.04700
H  38.52400 42.51300 34.37900
N  41.54500 38.97100 26.70200
C  41.82400 38.20300 27.79800
C  42.32200 36.86600 27.41700
C  42.31700 36.92000 25.99700
C  41.82600 38.19600 25.55600
C  42.74800 35.75500 28.38800
C  42.83400 35.82400 25.00300
O  42.90200 35.99600 23.77600
C  43.45900 34.54600 25.52400
N  41.00900 41.05300 24.53100
C  41.29100 40.02400 23.74300
C  41.18100 40.27800 22.20300
C  40.55400 41.74900 22.32200
C  40.69000 42.11500 23.77800
C  42.61400 40.14300 21.55100
C  39.05800 41.83300 21.88200
C  38.14500 40.60800 22.14800
N  40.39300 42.98500 26.64300
C  40.39400 43.88400 25.59800
C  40.19900 45.14100 26.11000
C  40.17900 45.02300 27.50600
C  40.28600 43.61200 27.76300
C  40.22200 46.41500 25.28000
C  39.96300 45.68200 28.77700
O  39.65500 46.82900 29.06500
C  40.06500 44.58900 29.87100
C  41.07700 44.98000 30.89600
O  42.23800 44.73200 30.78300
O  40.43700 45.79900 31.83500
C  41.39000 46.39100 32.80700
H  41.64300 37.76500 29.81700
H  41.86500 38.04400 23.43000
H  40.48300 44.21000 23.49100
H  41.23800 42.33200 31.79100
H  40.40300 39.41600 31.54000
H  42.23600 39.01900 32.66100
H  42.67400 40.65200 32.60200
H  43.33400 39.59100 31.33300
H  38.72600 40.93900 32.28900
H  38.68200 42.23700 31.18100
H  38.53700 43.69100 32.75100
H  40.13400 43.31000 33.21200
H  43.62200 35.25900 27.96500
H  42.01900 34.94600 28.42700
H  43.15600 36.06000 29.35100
H  42.91300 33.89800 26.21000
H  44.34700 34.90500 26.04500
H  43.54300 33.94500 24.61900
H  40.50600 39.63000 21.64400
H  41.09700 42.36700 21.60800
H  43.39700 40.14600 22.30900
H  42.73600 40.96800 20.84900
H  42.69000 39.34400 20.81400
H  39.03300 42.06900 20.81800
H  38.51500 42.70400 22.24800
H  37.84800 40.00500 21.29000
H  37.15800 40.82000 22.55900
H  38.64300 39.95900 22.86900
H  40.44500 46.24900 24.22500
H  41.03000 47.09900 25.53900
H  39.27200 46.92500 25.43400
H  39.13800 44.53900 30.44200
H  41.90000 45.60300 33.36200
H  40.78800 46.89400 33.56300
H  42.01900 47.16700 32.37000

