158

Mg 8.92600 3.85700 27.94100
C  10.45500 2.34600 30.91600
C  7.14800 5.74600 30.03800
C  7.39500 5.11200 25.14900
C  10.41800 1.31400 26.04400
N  8.81700 3.98900 30.29500
C  9.43900 3.32900 31.27400
C  9.10800 3.93600 32.64800
C  7.96400 5.00000 32.29000
C  7.92900 4.88700 30.77900
C  6.56000 4.74000 33.00800
C  10.28100 4.57300 33.38100
C  10.38700 4.42200 34.91400
H  11.01600 5.61300 35.57800
N  7.40200 5.17300 27.62300
C  6.86500 5.96600 28.58400
C  6.04900 6.96500 28.06300
C  6.17000 6.83000 26.62600
C  7.05100 5.63400 26.38400
C  5.16500 7.86700 28.79900
C  5.47400 7.56900 25.53200
O  5.70300 7.37200 24.35800
C  4.60000 8.68500 25.87300
N  8.92800 3.35700 25.82200
C  8.23400 4.02200 24.86700
C  8.31200 3.28800 23.51500
C  9.41400 2.15500 23.78000
C  9.72300 2.36500 25.30000
C  7.00800 2.77200 22.93900
C  10.74800 2.15000 23.00100
C  11.22300 0.82800 22.35800
N  10.28200 2.33000 28.25600
C  10.71100 1.35100 27.38300
C  11.60000 0.45400 28.10900
C  11.59800 0.86000 29.41400
C  10.68800 1.95200 29.52900
C  12.38600 -0.69500 27.63400
C  12.20400 0.52100 30.72200
O  13.07800 -0.23200 31.04400
C  11.44900 1.49000 31.70300
C  10.78200 0.71500 32.77900
O  9.68300 0.21100 32.73800
O  11.62100 0.70200 33.79300
C  11.05100 0.27400 35.13000
H  6.63400 6.39600 30.74900
H  7.15300 5.59600 24.20100
H  10.98100 0.62700 25.41000
H  8.76300 3.08500 33.23500
H  8.16800 6.02400 32.60100
H  6.40700 3.69200 33.26900
H  5.75700 4.99200 32.31600
H  6.52200 5.32600 33.92600
H  10.16400 5.62900 33.14000
H  11.18200 4.23800 32.86600
H  10.96000 3.50900 35.07500
H  9.41500 4.25800 35.38000
H  5.25800 7.70700 29.87300
H  4.15200 7.71500 28.42700
H  5.43000 8.91300 28.64200
H  3.78600 8.16900 26.38200
H  4.09500 9.12600 25.01400
H  5.05100 9.41700 26.54200
H  8.63100 4.02000 22.77200
H  8.90400 1.19900 23.65600
H  7.03300 1.69900 22.74800
H  6.73000 3.30400 22.02900
H  6.12800 3.03100 23.52900
H  11.55400 2.29800 23.72000
H  10.77800 2.98400 22.30100
H  12.23100 0.61800 22.71500
H  11.36900 0.99900 21.29100
H  10.49900 0.09100 22.70700
H  12.65200 -0.68900 26.57700
H  11.77700 -1.59800 27.66200
H  13.32400 -0.76200 28.18600
H  12.28100 2.05700 32.12000
H  10.04900 0.70400 35.14300
H  11.51100 0.63900 36.04800
H  10.90700 -0.80600 35.16800
Mg 25.19500 -7.38300 47.49800
C  27.08200 -4.74900 46.24500
C  22.76600 -6.73200 45.20500
C  23.44700 -10.08300 48.57300
C  27.85800 -8.30000 49.47800
N  25.10000 -5.98800 45.69200
C  25.91500 -4.95300 45.40800
C  25.47900 -4.18100 44.19600
C  23.94600 -4.65600 44.10100
C  23.90700 -5.87900 45.07200
C  22.93800 -3.56200 44.53500
C  26.31300 -4.34400 42.90100
C  26.81700 -3.16300 41.97900
H  26.07500 -3.06900 40.63000
N  23.34500 -8.38000 46.81500
C  22.48200 -7.86100 45.95100
C  21.29000 -8.64400 45.88500
C  21.49100 -9.73000 46.77700
C  22.81900 -9.36400 47.51200
C  20.14400 -8.28300 44.93900
C  20.59800 -10.91700 46.92500
O  19.68600 -11.01600 46.14100
C  20.84300 -12.00300 47.89300
N  25.65000 -9.11600 48.62200
C  24.74300 -9.96700 49.08200
C  25.30800 -10.96900 50.12500
C  26.73600 -10.48200 50.13800
C  26.78600 -9.21600 49.36600
C  24.62000 -10.90700 51.53700
C  27.87800 -11.59100 49.77900
C  29.11200 -11.65100 50.75400
N  27.12500 -6.76300 47.82400
C  28.11800 -7.17900 48.72600
C  29.30900 -6.31700 48.60100
C  28.89000 -5.38300 47.64900
C  27.58500 -5.63400 47.28200
C  30.65300 -6.58800 49.18300
C  29.35900 -4.13700 47.00900
O  30.49800 -3.61200 47.04600
C  28.23100 -3.71200 46.03800
C  27.92400 -2.29000 46.43400
O  28.08400 -1.35400 45.68900
O  27.52000 -2.09100 47.75200
C  26.95500 -0.74600 48.00700
H  21.94700 -6.41900 44.55500
H  22.81400 -10.79300 49.10900
H  28.70400 -8.52500 50.13000
H  25.54600 -3.13000 44.48000
H  23.69400 -5.00600 43.10000
H  22.10300 -4.05800 45.03000
H  22.41100 -3.20600 43.65000
H  23.32300 -2.72500 45.11700
H  25.77500 -5.10300 42.33300
H  27.17300 -4.97600 43.12500
H  27.89400 -3.21900 41.82200
H  26.68100 -2.21400 42.49800
H  20.15000 -9.08600 44.20200
H  20.22200 -7.27700 44.52600
H  19.22600 -8.39500 45.51500
H  21.88400 -12.31200 47.98000
H  20.26300 -12.89900 47.67400
H  20.52000 -11.66800 48.87900
H  25.20500 -11.99100 49.75900
H  27.02000 -10.23100 51.16000
H  23.96000 -10.04100 51.57000
H  25.36600 -10.76000 52.31900
H  24.02300 -11.78500 51.78500
H  28.19900 -11.44800 48.74700
H  27.38600 -12.55900 49.88600
H  30.03400 -11.55200 50.18100
H  29.03400 -12.63700 51.21100
H  29.00600 -10.89800 51.53600
H  30.61900 -7.04100 50.17300
H  31.16800 -5.63200 49.28200
H  31.16000 -7.25600 48.48600
H  28.59000 -3.67600 45.01000
H  27.79100 -0.09700 48.26800
H  26.28100 -0.82400 48.85900
H  26.50000 -0.32900 47.10800

