158

Mg 34.69600 3.38100 29.22600
C  32.39100 4.21300 31.78900
C  37.25700 4.01300 31.67400
C  37.03400 2.94700 26.94000
C  32.12900 3.59900 27.00900
N  34.77900 4.26200 31.45200
C  33.68800 4.40900 32.25000
C  34.04600 4.47200 33.77600
C  35.65400 4.56800 33.68100
C  35.92500 4.33800 32.18200
C  36.15500 5.93300 34.26300
C  33.60700 3.15000 34.52900
C  33.32000 3.28700 36.00900
H  33.99400 4.42600 36.78000
N  36.79100 3.32400 29.33100
C  37.60700 3.61500 30.37600
C  38.98300 3.30400 29.96100
C  38.99200 3.08400 28.51700
C  37.60500 3.12800 28.21200
C  40.12700 3.41600 30.95900
C  40.05000 2.68300 27.59600
O  39.82600 2.36600 26.41300
C  41.51900 2.52400 28.05400
N  34.55900 3.29400 27.23800
C  35.70200 2.98500 26.51600
C  35.26300 2.75900 25.03700
C  33.74100 3.14600 24.98600
C  33.41900 3.33600 26.46600
C  36.13300 3.55100 23.98900
C  32.74000 2.22200 24.20900
C  32.07600 1.04900 24.95300
N  32.67000 3.71900 29.34300
C  31.75600 3.75100 28.33300
C  30.38700 4.04600 28.84300
C  30.60500 4.20600 30.22400
C  32.00800 4.04900 30.47800
C  29.09600 4.10000 28.04000
C  29.91900 4.46800 31.43000
O  28.75600 4.64900 31.68200
C  31.07500 4.48300 32.50100
C  30.91600 5.69300 33.31400
O  31.30800 6.82700 33.04000
O  30.43500 5.34100 34.58100
C  30.20600 6.43200 35.47000
H  38.08900 4.12400 32.37200
H  37.70400 2.72100 26.10700
H  31.23100 3.60900 26.38700
H  33.59100 5.35300 34.22900
H  36.08000 3.72700 34.22900
H  36.88100 5.69600 35.04100
H  35.35100 6.58900 34.59400
H  36.63500 6.50000 33.46500
H  34.22900 2.27400 34.34500
H  32.70400 2.69900 34.11700
H  33.83700 2.39400 36.35900
H  32.23700 3.29800 36.13000
H  41.12400 3.25300 30.55000
H  40.08500 2.53200 31.59600
H  40.09300 4.37900 31.46800
H  42.10700 2.04200 27.27300
H  41.55900 1.88800 28.93800
H  41.97500 3.48000 28.31200
H  35.34900 1.68700 24.85800
H  33.67800 4.13300 24.52700
H  36.88300 4.14700 24.50900
H  35.51300 4.08500 23.26800
H  36.72700 2.79500 23.47600
H  33.26700 1.86000 23.32600
H  32.05300 3.00400 23.88400
H  31.06400 0.91600 24.57200
H  31.96500 1.18900 26.02800
H  32.50400 0.06600 24.75800
H  29.26800 4.89200 27.31100
H  28.27000 4.44700 28.66100
H  28.91700 3.22200 27.42000
H  30.81300 3.55600 33.01100
H  29.56800 7.22900 35.08800
H  31.13400 6.78500 35.91900
H  29.70300 5.93000 36.29700
Mg 36.03000 48.56900 24.05900
C  36.51700 46.77000 27.04400
C  34.33700 50.93200 25.77500
C  35.39700 49.98200 21.14600
C  37.37000 45.65800 22.26200
N  35.46500 48.74200 26.14500
C  35.93600 48.04200 27.29500
C  35.54600 48.65600 28.56100
C  34.71900 49.92500 28.09100
C  34.76000 49.83200 26.58300
C  33.29000 50.19000 28.70100
C  36.84300 49.07900 29.34400
C  36.85800 48.89600 30.89600
H  35.56000 49.14400 31.63000
N  35.08200 50.25200 23.47500
C  34.40800 51.12600 24.33800
C  34.03000 52.30100 23.59900
C  34.23700 51.99200 22.21400
C  34.95600 50.69900 22.18800
C  33.56300 53.51200 24.31500
C  33.80500 52.78300 20.98700
O  34.12400 52.50200 19.82800
C  33.18400 54.10000 21.28300
N  36.46600 47.99200 21.99000
C  36.11300 48.80200 21.03000
C  36.49500 48.29600 19.63600
C  37.25600 46.90000 19.97500
C  37.07600 46.83500 21.47800
C  35.28500 48.02300 18.61400
C  38.81500 46.94800 19.65500
C  39.26900 46.18300 18.44000
N  36.73100 46.68200 24.50000
C  37.20400 45.60700 23.66300
C  37.36600 44.41400 24.50700
C  37.17400 44.87400 25.83300
C  36.72300 46.20300 25.77000
C  37.57200 43.03400 24.02000
C  37.27100 44.42200 27.26700
O  37.65100 43.42700 27.79400
C  36.87800 45.68400 28.04400
C  35.75900 45.44100 28.97300
O  34.62500 45.34700 28.59700
O  36.21100 45.28700 30.28000
C  35.11600 45.01500 31.27800
H  33.84700 51.73800 26.32500
H  35.23600 50.42600 20.16200
H  37.70500 44.76000 21.73700
H  34.80000 48.09500 29.12400
H  35.28800 50.82900 28.31200
H  33.37200 49.74500 29.69200
H  32.50000 49.71200 28.12000
H  33.08300 51.25800 28.76100
H  37.12500 50.07500 29.00300
H  37.66900 48.50400 28.92600
H  37.65600 49.52900 31.28400
H  37.24300 47.88600 31.03300
H  34.14800 54.30200 23.84300
H  33.81900 53.48600 25.37400
H  32.48100 53.48500 24.19200
H  32.27400 53.80500 21.80700
H  33.05000 54.53300 20.29100
H  33.78500 54.76100 21.90800
H  37.25900 48.96200 19.23500
H  36.80900 46.06900 19.43000
H  34.48300 48.69000 18.93200
H  34.93400 46.99100 18.58600
H  35.48800 48.38700 17.60700
H  39.47100 46.63400 20.46700
H  39.22100 47.94900 19.50800
H  38.49700 45.92500 17.71500
H  39.76800 45.23100 18.62000
H  39.96000 46.88500 17.97400
H  37.56100 42.33700 24.85800
H  38.55800 42.85700 23.59000
H  36.84500 42.68800 23.28500
H  37.69500 45.99400 28.69400
H  35.60900 44.94200 32.24700
H  34.75600 43.99600 31.13600
H  34.22600 45.64400 31.26900

