158

Mg 46.74600 24.96000 28.86900
C  47.46000 27.46300 31.26900
C  45.75900 22.91400 31.34700
C  46.58000 22.51900 26.55900
C  48.31900 26.97600 26.48600
N  46.76800 25.20000 31.01700
C  46.94400 26.29900 31.79200
C  46.58000 26.07400 33.26400
C  46.17700 24.52300 33.32900
C  46.23700 24.17400 31.80400
C  47.14300 23.62100 34.19000
C  45.35300 27.01500 33.81800
C  44.90500 26.76200 35.25400
H  45.86700 26.49700 36.46100
N  46.03300 23.02500 28.92900
C  45.72300 22.35500 30.04400
C  45.26300 21.02500 29.65000
C  45.31200 20.93800 28.16600
C  46.04700 22.20200 27.81500
C  44.80500 19.97700 30.61900
C  44.84300 19.83600 27.16900
O  44.96300 19.93700 25.95900
C  44.17500 18.63100 27.76300
N  47.42900 24.72000 26.89000
C  47.34800 23.64400 26.15500
C  48.03500 23.65800 24.82300
C  48.37400 25.17400 24.75500
C  47.94200 25.71600 26.18400
C  49.09500 22.61000 24.75000
C  47.72000 26.08100 23.64400
C  48.70400 26.79000 22.70200
N  47.60100 26.85400 28.80900
C  48.13800 27.55300 27.75500
C  48.52200 28.89500 28.20300
C  48.30900 28.89600 29.60600
C  47.81400 27.61700 29.89800
C  49.08800 29.95400 27.42200
C  48.40000 29.69300 30.82800
O  48.82300 30.81600 31.01600
C  47.97600 28.73000 31.98800
C  49.13700 28.45500 32.91900
O  50.20900 27.93700 32.62100
O  48.65200 28.59000 34.20600
C  49.73700 28.48000 35.23700
H  45.50400 22.29000 32.20600
H  46.56000 21.68400 25.85500
H  48.87000 27.65000 25.82800
H  47.45400 26.39000 33.83300
H  45.14200 24.44500 33.66400
H  46.51100 23.13100 34.93000
H  47.90000 24.24200 34.66900
H  47.70000 22.92000 33.56900
H  44.44400 26.84500 33.24200
H  45.52900 28.08800 33.73900
H  44.22100 25.91300 35.27200
H  44.25100 27.58700 35.53500
H  43.74000 20.03400 30.84500
H  45.41600 20.12000 31.50900
H  45.07300 18.99400 30.23000
H  43.48200 18.85000 28.57500
H  44.90700 17.92600 28.15900
H  43.61300 18.15300 26.96000
H  47.26500 23.46400 24.07600
H  49.44700 25.32300 24.63900
H  49.01200 21.89800 23.92800
H  49.10300 22.00600 25.65800
H  50.06400 23.09800 24.65100
H  47.10100 26.84200 24.12000
H  47.02500 25.48300 23.05600
H  48.86900 27.83400 22.96900
H  48.51400 26.75900 21.62900
H  49.71200 26.43200 22.91100
H  50.17700 29.96400 27.43900
H  48.68300 30.84800 27.89600
H  48.77200 29.89700 26.38000
H  47.25000 29.21700 32.63900
H  50.75700 28.38000 34.86400
H  49.52300 27.65400 35.91500
H  49.84800 29.48300 35.65000
Mg 41.94200 41.26500 26.19000
C  41.05800 43.72600 28.57000
C  42.38400 39.02900 28.69500
C  43.11200 39.02800 23.91100
C  41.57900 43.57500 23.78600
N  41.78600 41.40800 28.37900
C  41.29100 42.45200 29.13900
C  41.31900 42.18000 30.71900
C  41.79300 40.65600 30.63700
C  42.04800 40.33200 29.15100
C  43.11900 40.38200 31.41000
C  39.94200 42.49200 31.43900
C  39.65700 41.73000 32.71800
H  39.15000 42.55700 33.97500
N  42.61900 39.26200 26.31400
C  42.66400 38.54500 27.43300
C  43.14700 37.16700 27.05200
C  43.38900 37.18900 25.66300
C  42.94000 38.51100 25.21700
C  43.49500 36.04200 28.06700
C  44.02900 36.13100 24.86500
O  44.28300 36.31400 23.69100
C  44.13000 34.70400 25.42900
N  42.39900 41.34100 24.22000
C  42.84100 40.30900 23.40600
C  42.82000 40.65900 21.91800
C  42.24200 42.15100 21.84300
C  42.05400 42.36700 23.36700
C  44.13800 40.61200 21.05500
C  40.91100 42.20400 21.11600
C  39.63000 41.79400 21.82900
N  41.55900 43.31500 26.16400
C  41.35700 44.10800 25.12000
C  40.85400 45.44500 25.52200
C  40.73300 45.28000 26.93600
C  41.20400 44.02200 27.22800
C  40.52000 46.62800 24.63200
C  40.29200 45.98300 28.10100
O  39.81500 47.09700 28.25700
C  40.52700 44.98800 29.24500
C  41.50700 45.68600 30.08000
O  42.61800 46.05500 29.84000
O  41.07500 45.90800 31.37500
C  42.07100 46.27400 32.38300
H  42.23200 38.33600 29.52500
H  43.42800 38.37000 23.09900
H  41.35700 44.25500 22.96000
H  42.07400 42.79500 31.20800
H  41.04400 39.99300 31.07100
H  43.78400 41.20300 31.13900
H  43.58900 39.43500 31.14700
H  43.01300 40.46500 32.49200
H  39.18400 42.42900 30.65800
H  39.95200 43.55900 31.66100
H  40.53100 41.22000 33.12200
H  38.88600 40.97100 32.58900
H  44.52400 35.72600 27.89700
H  42.74200 35.25500 28.05400
H  43.44500 36.51000 29.05000
H  44.99700 34.51400 26.06200
H  44.09900 34.01700 24.58300
H  43.15800 34.44300 25.84700
H  42.14100 40.01600 21.35900
H  43.00400 42.74600 21.33900
H  44.09000 41.26200 20.18100
H  44.35600 39.64700 20.59800
H  44.97800 40.82300 21.71800
H  41.07700 41.63200 20.20300
H  40.82600 43.22800 20.75200
H  39.31400 42.55800 22.53900
H  39.84300 40.88000 22.38300
H  39.01800 41.57900 20.95300
H  40.45000 46.32200 23.58800
H  41.26300 47.40300 24.82300
H  39.55800 46.98800 24.99800
H  39.59500 44.80500 29.78000
H  43.05000 45.83000 32.19800
H  41.69400 45.82900 33.30400
H  42.29200 47.33900 32.45900

