158

Mg 46.67500 24.81800 28.22600
C  47.23900 27.27800 30.59300
C  45.90400 22.59800 30.87900
C  46.19600 22.58800 25.87400
C  47.49700 27.15700 25.69000
N  46.48400 25.02800 30.56600
C  46.78300 26.10000 31.23000
C  46.64000 25.86600 32.72100
C  46.42600 24.27600 32.86100
C  46.24100 23.91700 31.35700
C  47.55600 23.49100 33.58600
C  45.46700 26.70000 33.34700
C  44.81700 26.27100 34.68800
H  44.83700 27.08200 35.99500
N  46.17600 22.88400 28.29600
C  45.84000 22.15000 29.51700
C  45.54700 20.77900 29.05000
C  45.52400 20.78600 27.62600
C  46.03000 22.10400 27.22400
C  45.27300 19.64400 30.01900
C  45.12400 19.75500 26.67900
O  45.47300 19.75900 25.48600
C  44.45300 18.42000 27.13000
N  46.84600 24.91900 26.08100
C  46.56100 23.78000 25.35700
C  46.67700 24.07500 23.84100
C  46.82200 25.61100 23.79100
C  47.00400 25.94600 25.25000
C  47.85700 23.34800 23.21800
C  45.54200 26.38000 23.24400
C  45.67800 27.07400 21.90500
N  47.24900 26.75600 28.12300
C  47.65800 27.54100 27.01500
C  48.32800 28.77200 27.52700
C  48.05800 28.75700 28.91400
C  47.46900 27.48400 29.21700
C  48.92100 29.89400 26.80700
C  48.26900 29.53000 30.13100
O  48.75700 30.60500 30.42400
C  47.75000 28.54000 31.32500
C  48.91200 28.14400 32.29400
O  50.01900 27.83000 32.00800
O  48.60300 28.56400 33.50500
C  49.59700 28.52600 34.56100
H  45.58800 21.95000 31.69900
H  45.86900 21.96500 25.03800
H  47.64800 27.89700 24.90200
H  47.51600 26.22100 33.26400
H  45.48700 24.03400 33.36100
H  47.79100 22.61100 32.98800
H  47.20000 23.14200 34.55600
H  48.41000 24.15700 33.70100
H  44.60800 26.73900 32.67800
H  45.89200 27.64800 33.67700
H  45.43300 25.40300 34.92200
H  43.81000 25.90700 34.48400
H  44.20000 19.45100 30.02500
H  45.68700 19.95900 30.97700
H  45.82700 18.73200 29.80000
H  44.02700 17.96000 26.23800
H  43.77500 18.51700 27.97800
H  45.31000 17.84800 27.48600
H  45.73000 23.77900 23.39100
H  47.75500 25.91900 23.31900
H  48.03600 22.41600 23.75400
H  48.83100 23.82100 23.33600
H  47.71800 23.13600 22.15800
H  45.31500 27.20500 23.91900
H  44.71400 25.67400 23.30200
H  45.41000 28.12400 22.01700
H  44.97300 26.60600 21.21800
H  46.71400 27.07800 21.56600
H  49.16900 29.61400 25.78300
H  49.86100 30.18900 27.27500
H  48.23600 30.72300 26.98500
H  46.98800 29.12800 31.83600
H  49.19700 28.71700 35.55700
H  50.30200 29.32200 34.31900
H  50.13100 27.57600 34.55000
Mg -1.08300 34.99400 27.34800
C  -3.08800 33.22900 29.55300
C  -0.41200 37.20800 29.88900
C  0.46200 36.83000 25.01600
C  -2.45500 33.00900 24.69700
N  -1.79900 35.22900 29.46300
C  -2.40000 34.23500 30.19400
C  -2.29800 34.53000 31.73700
C  -1.70200 35.97700 31.75700
C  -1.24400 36.18900 30.31100
C  -2.65600 37.13500 32.18600
C  -1.43600 33.51300 32.53600
C  -2.07200 32.71300 33.64600
H  -2.61600 33.58200 34.83100
N  0.08800 36.65400 27.53600
C  0.20900 37.42200 28.62400
C  1.14700 38.45200 28.31600
C  1.49100 38.42700 26.91000
C  0.65000 37.31600 26.41200
C  1.64100 39.42900 29.38000
C  2.54500 39.14400 26.08300
O  2.93700 38.78500 24.97800
C  3.06400 40.46300 26.58600
N  -1.08500 34.91600 25.19000
C  -0.34000 35.83700 24.48700
C  -0.25600 35.50700 22.94200
C  -1.25100 34.28300 22.90400
C  -1.62500 34.05400 24.37600
C  -0.63100 36.78400 22.09900
C  -0.50900 32.98200 22.36600
C  0.74000 32.52200 23.20400
N  -2.52400 33.49500 27.11300
C  -2.95100 32.82700 25.95700
C  -3.96100 31.87200 26.37600
C  -3.93800 31.85400 27.74100
C  -3.10100 32.95300 28.16900
C  -4.73200 30.96600 25.45700
C  -4.43000 31.18400 28.94000
O  -5.17200 30.23300 29.10400
C  -3.80600 31.92700 30.18700
C  -4.92800 32.20400 31.11900
O  -5.71700 33.14400 31.03300
O  -4.91200 31.29700 32.11700
C  -5.78200 31.59200 33.25400
H  -0.02300 37.76600 30.74300
H  1.19000 37.24500 24.31500
H  -2.78300 32.39400 23.85600
H  -3.32000 34.48000 32.11400
H  -0.81400 36.13500 32.36900
H  -3.06300 37.51900 31.25100
H  -2.11600 37.90800 32.73200
H  -3.48900 36.87200 32.83800
H  -0.57200 33.98100 33.00700
H  -1.09100 32.73700 31.85200
H  -1.21200 32.18600 34.06000
H  -2.86800 32.07200 33.26800
H  2.58900 39.02100 29.73200
H  0.91100 39.60000 30.17100
H  1.76100 40.45800 29.04300
H  2.32000 41.18900 26.91500
H  3.75300 40.95600 25.90000
H  3.67900 40.25500 27.46100
H  0.78900 35.21400 22.84100
H  -2.15700 34.58700 22.37900
H  -1.45900 36.61900 21.40900
H  0.28900 37.11700 21.61800
H  -0.99600 37.60000 22.72200
H  -0.07700 33.27300 21.40900
H  -1.10000 32.12500 22.04300
H  0.83200 32.99500 24.18100
H  1.64300 32.54600 22.59400
H  0.55800 31.46400 23.39700
H  -4.13100 30.39600 24.74900
H  -5.37500 31.67900 24.94100
H  -5.22000 30.26100 26.13000
H  -3.06300 31.39600 30.78200
H  -5.55700 32.46000 33.87400
H  -5.87600 30.64500 33.78500
H  -6.80500 31.77900 32.92900

