158

Mg 17.30600 -1.43900 27.90900
C  16.40700 0.57000 30.55800
C  19.14500 -3.41900 30.20900
C  18.65700 -3.09700 25.36500
C  16.07800 0.92100 25.80900
N  17.80300 -1.35200 30.10800
C  17.26100 -0.47900 31.01000
C  17.63800 -0.80100 32.40800
C  18.65900 -1.96400 32.20600
C  18.52400 -2.27700 30.74000
C  20.09900 -1.60500 32.57700
C  16.58000 -1.05300 33.53500
C  16.80200 -0.37800 34.90200
H  18.12600 0.02200 35.38000
N  18.48100 -3.09200 27.82900
C  19.18800 -3.74500 28.81300
C  19.81800 -4.88700 28.28400
C  19.59300 -4.86500 26.91200
C  18.90000 -3.59700 26.65200
C  20.71100 -5.82100 29.09800
C  20.00200 -5.95900 25.85100
O  19.77900 -5.86200 24.66300
C  20.69500 -7.27100 26.37700
N  17.23000 -1.19900 25.82400
C  17.96500 -1.97200 25.00800
C  17.98200 -1.28500 23.58700
C  16.84900 -0.19800 23.61000
C  16.70300 -0.12200 25.13400
C  19.38000 -0.85000 23.07000
C  15.47600 -0.52800 22.91300
C  15.41000 -0.19300 21.38200
N  16.43800 0.34400 28.09700
C  15.94000 1.16800 27.18100
C  15.38100 2.42700 27.76300
C  15.55000 2.16700 29.11500
C  16.16500 0.90600 29.30500
C  14.61500 3.58000 27.10700
C  15.21900 2.72300 30.42000
O  14.55500 3.71000 30.73300
C  15.78300 1.70300 31.39000
C  16.77500 2.52100 32.23100
O  17.73500 3.07500 31.78400
O  16.33400 2.70100 33.56900
C  17.07200 3.65500 34.41600
H  19.74800 -4.02500 30.88900
H  19.13200 -3.63600 24.54200
H  15.67200 1.63600 25.09000
H  18.18300 0.10900 32.65700
H  18.42900 -2.87700 32.75600
H  20.56000 -2.41300 33.14500
H  20.13400 -0.70200 33.18600
H  20.76800 -1.47300 31.72600
H  16.33400 -2.10900 33.64500
H  15.67700 -0.60500 33.12000
H  16.32500 -1.03800 35.62700
H  16.34000 0.60700 34.96500
H  20.11600 -6.52300 29.68100
H  21.15000 -5.19300 29.87300
H  21.54400 -6.40900 28.71000
H  21.70600 -7.01400 26.69400
H  20.78100 -8.08100 25.65200
H  20.03400 -7.65500 27.15400
H  17.61800 -2.00400 22.85300
H  17.16300 0.77400 23.22900
H  19.38700 0.20200 22.78500
H  19.78300 -1.44200 22.24800
H  20.11200 -0.95000 23.87200
H  14.57700 -0.16400 23.40900
H  15.52000 -1.60800 23.05100
H  16.39400 0.15900 21.07100
H  14.58600 0.49200 21.18500
H  15.23100 -1.08500 20.78100
H  13.60100 3.27800 26.84800
H  15.06700 3.84400 26.15100
H  14.64600 4.47300 27.73200
H  15.03300 1.39900 32.12000
H  16.90200 4.67200 34.06100
H  18.12400 3.37700 34.35100
H  16.80900 3.51300 35.46400
Mg 41.15000 41.33900 27.05100
C  40.26200 43.71200 29.47200
C  42.04200 39.28500 29.61300
C  42.30300 39.14400 24.80400
C  40.77300 43.80800 24.58500
N  41.07900 41.51800 29.16100
C  40.52900 42.44900 29.95500
C  40.57800 42.14500 31.44700
C  41.17300 40.67500 31.51400
C  41.51600 40.49300 30.00200
C  42.36200 40.48000 32.49900
C  39.23800 42.29400 32.21100
C  39.20900 41.61000 33.56200
H  38.46100 42.24200 34.72100
N  42.06700 39.46200 27.22000
C  42.37900 38.77600 28.39400
C  42.69700 37.42900 28.04800
C  42.63800 37.30400 26.64200
C  42.30000 38.65800 26.12200
C  42.94300 36.34900 29.14000
C  42.90300 36.01600 25.75500
O  42.96000 36.02700 24.51400
C  42.86800 34.73000 26.55100
N  41.63800 41.46300 25.05400
C  42.07400 40.43200 24.33000
C  41.99500 40.69100 22.80400
C  41.40700 42.15200 22.72800
C  41.19900 42.48300 24.21600
C  43.38300 40.46900 22.00000
C  40.15700 42.33700 21.79500
C  38.77700 42.20900 22.44500
N  40.57700 43.31200 26.96000
C  40.53200 44.21900 25.89800
C  39.96800 45.41700 26.37800
C  39.87100 45.30400 27.77100
C  40.29700 44.05900 28.07200
C  39.77400 46.61700 25.56600
C  39.44500 45.99300 29.00700
O  38.94100 47.07100 29.13400
C  39.63700 44.98700 30.11400
C  40.56700 45.61600 31.09700
O  41.78500 45.61100 30.97700
O  39.94000 46.27300 32.17700
C  40.82100 46.83700 33.24800
H  42.35500 38.59300 30.39800
H  42.53800 38.46600 23.98100
H  40.59000 44.46500 23.73200
H  41.36100 42.80500 31.82100
H  40.42900 39.91200 31.74300
H  43.29500 40.23100 31.99400
H  42.06000 39.74300 33.24300
H  42.49400 41.40800 33.05700
H  38.32700 42.00100 31.69000
H  38.95500 43.32800 32.41000
H  40.26900 41.58300 33.81300
H  38.79900 40.60600 33.46000
H  42.51100 36.64600 30.09600
H  44.02100 36.21300 29.23000
H  42.41500 35.43300 28.87700
H  41.93400 34.64200 27.10600
H  43.72000 34.67200 27.22900
H  42.84700 33.91800 25.82400
H  41.24700 40.04400 22.34500
H  42.23600 42.83100 22.52800
H  43.17100 39.70900 21.24800
H  44.09200 40.09400 22.73800
H  43.61100 41.44900 21.58100
H  40.39200 41.73800 20.91600
H  40.06200 43.40200 21.58500
H  38.15300 41.49600 21.90700
H  38.25200 43.15300 22.59400
H  38.93200 41.85900 23.46600
H  39.17700 47.36900 26.08200
H  39.24800 46.28400 24.67100
H  40.60400 47.20600 25.17500
H  38.68200 44.76000 30.58800
H  40.45700 46.60300 34.24800
H  40.95100 47.89700 33.02700
H  41.78600 46.35800 33.41600

