158

Mg 26.20600 -0.60900 29.57000
C  28.16000 -0.52600 32.53700
C  23.49700 -0.08400 31.49000
C  24.43300 -0.99200 26.79200
C  29.19200 -1.14900 27.84200
N  25.93300 -0.42700 31.82700
C  26.87800 -0.27900 32.79600
C  26.14400 0.02400 34.18700
C  24.60300 -0.00200 33.82800
C  24.61900 -0.15900 32.28800
C  23.70900 -0.94100 34.72800
C  26.65600 1.34400 34.89000
C  27.03000 1.10300 36.37100
H  26.53200 2.13000 37.33300
N  24.21400 -0.56600 29.15800
C  23.23600 -0.27900 30.10900
C  21.93800 -0.40800 29.45500
C  22.23700 -0.47800 28.03900
C  23.66800 -0.74600 27.99300
C  20.71900 -0.32100 30.22800
C  21.27600 -0.54700 26.94500
O  21.68700 -0.60100 25.79100
C  19.87700 -0.37700 27.15700
N  26.69200 -1.16400 27.59300
C  25.80200 -1.20400 26.63700
C  26.40500 -1.25800 25.17300
C  27.92900 -1.17700 25.53100
C  27.99500 -1.11100 27.05700
C  25.90700 -2.43100 24.26100
C  28.67200 0.08400 24.87400
C  28.65400 1.44700 25.60400
N  28.22000 -0.86900 30.03300
C  29.29800 -1.18700 29.24100
C  30.55700 -1.20100 30.01700
C  30.10900 -1.03600 31.31700
C  28.68000 -0.81500 31.28000
C  31.98700 -1.33700 29.49600
C  30.59600 -0.85800 32.70300
O  31.71800 -0.91500 33.13100
C  29.29600 -0.41100 33.51800
C  29.28100 -1.46700 34.66000
O  29.08300 -2.64600 34.52500
O  29.57900 -0.82200 35.82600
C  29.52200 -1.64000 37.07700
H  22.59500 0.11100 32.07500
H  23.97400 -1.17900 25.81900
H  30.10400 -1.22600 27.24700
H  26.45700 -0.81900 34.80200
H  24.14700 0.94700 34.10900
H  23.13700 -1.68000 34.16700
H  22.91600 -0.45700 35.29700
H  24.28100 -1.35600 35.55800
H  25.86700 2.08900 34.78900
H  27.60300 1.69900 34.48300
H  28.05900 1.23300 36.70800
H  26.73100 0.10700 36.69900
H  20.17100 0.57200 29.92800
H  20.89500 -0.19100 31.29600
H  20.10600 -1.21400 30.10500
H  19.36200 -0.24600 26.20500
H  19.61100 0.48000 27.77600
H  19.49100 -1.34000 27.49000
H  26.06100 -0.36400 24.65100
H  28.52600 -2.05200 25.27300
H  25.17100 -3.02300 24.80500
H  26.67700 -3.14300 23.96300
H  25.49300 -2.02600 23.33800
H  28.29500 0.17400 23.85500
H  29.67800 -0.21000 24.57400
H  29.55900 2.04300 25.48800
H  28.52200 1.45000 26.68600
H  27.89900 2.09700 25.16200
H  32.13300 -2.40500 29.66000
H  32.63600 -0.62500 30.00500
H  31.96600 -1.09100 28.43400
H  29.54600 0.60700 33.81500
H  30.40800 -1.34000 37.63700
H  29.46000 -2.72000 36.94000
H  28.61500 -1.31100 37.58300
Mg 42.02700 41.15600 26.46100
C  41.21800 43.54300 28.88800
C  42.78000 39.00400 29.06300
C  43.07000 39.04100 24.04500
C  41.34600 43.64300 24.02900
N  42.03100 41.25500 28.70100
C  41.63900 42.35500 29.46800
C  41.60100 42.01400 30.92500
C  42.39600 40.65900 31.03100
C  42.38100 40.22000 29.48400
C  43.81200 40.70600 31.65000
C  40.13700 42.07000 31.47700
C  39.97900 42.98600 32.78000
H  40.10700 42.33000 34.14900
N  42.80000 39.30900 26.54400
C  42.90800 38.52400 27.69700
C  43.23800 37.22300 27.33100
C  43.35100 37.14700 25.90200
C  42.97900 38.53200 25.43700
C  43.67400 36.20200 28.32700
C  43.79700 36.07900 25.01300
O  43.75600 36.16400 23.77200
C  44.32100 34.80600 25.54500
N  42.38600 41.39600 24.39300
C  42.71800 40.35600 23.60800
C  42.51000 40.69500 22.14500
C  41.89700 42.09100 22.20700
C  41.95700 42.42300 23.67400
C  43.64700 40.44900 21.13800
C  40.45600 42.14000 21.63400
C  39.26600 41.79000 22.53700
N  41.55100 43.20100 26.42300
C  41.13100 44.00100 25.37400
C  40.64300 45.26100 25.89000
C  40.70400 45.12700 27.24000
C  41.22800 43.85300 27.51500
C  40.21100 46.40500 25.03600
C  40.39600 45.82500 28.47700
O  39.94300 46.91500 28.63600
C  40.78200 44.83300 29.62900
C  41.94400 45.43100 30.32300
O  43.10500 45.22000 29.98900
O  41.51100 46.09400 31.44800
C  42.53400 46.61000 32.36200
H  42.96700 38.31900 29.89200
H  43.31900 38.29100 23.29200
H  41.02600 44.33200 23.24400
H  42.20100 42.74400 31.46700
H  41.80400 39.91600 31.56500
H  44.01600 41.63900 32.17400
H  44.53200 40.48500 30.86200
H  43.95000 39.91500 32.38700
H  39.82700 41.06400 31.76000
H  39.38500 42.40000 30.76100
H  39.08900 43.59200 32.61000
H  40.88300 43.58800 32.69100
H  42.88500 35.45900 28.43800
H  43.93300 36.65800 29.28300
H  44.53400 35.72700 27.85600
H  45.29700 34.88900 26.02300
H  44.50800 34.04800 24.78500
H  43.77400 34.35800 26.37500
H  41.73400 40.03600 21.75500
H  42.52500 42.80200 21.67100
H  43.78700 41.20900 20.36900
H  43.64800 39.44000 20.72500
H  44.58300 40.62500 21.66600
H  40.45000 41.50100 20.75100
H  40.40100 43.15200 21.23300
H  39.60000 41.17500 23.37300
H  38.64100 41.06500 22.01400
H  38.67400 42.68300 22.73600
H  39.98000 47.24300 25.69300
H  39.38300 46.22700 24.35000
H  41.10300 46.70700 24.48700
H  39.96200 44.63600 30.31900
H  43.47800 46.81600 31.85900
H  42.75600 45.83800 33.09900
H  42.12000 47.56200 32.69500

