158

Mg -3.20900 17.42300 27.09600
C  -3.76200 15.23300 29.86500
C  -3.68600 19.97200 29.27900
C  -3.11400 19.42300 24.44100
C  -3.41000 14.64200 24.99600
N  -3.65500 17.52100 29.35600
C  -3.71800 16.56600 30.26500
C  -3.79600 17.14000 31.74400
C  -4.10300 18.66100 31.43500
C  -3.81700 18.75400 29.90700
C  -5.48600 19.24600 31.98600
C  -2.54600 16.80700 32.60500
C  -2.30900 17.61600 33.93300
H  -1.87300 16.73900 35.10500
N  -3.28300 19.41600 26.93500
C  -3.52800 20.30200 27.91500
C  -3.48900 21.63600 27.35500
C  -3.23800 21.53900 25.95200
C  -3.22500 20.07000 25.72200
C  -3.70100 22.88500 28.32900
C  -3.00900 22.59100 24.89500
O  -3.02700 22.40000 23.69100
C  -2.67700 23.99900 25.40900
N  -3.20800 17.04700 25.10400
C  -3.09200 18.05700 24.17300
C  -3.01800 17.45500 22.73900
C  -2.86400 15.96500 22.99100
C  -3.21800 15.88500 24.41800
C  -4.16500 17.91200 21.71600
C  -1.50500 15.36400 22.62400
C  -0.24600 15.98400 23.41600
N  -3.49200 15.40800 27.41300
C  -3.57200 14.37000 26.39500
C  -3.80100 13.04500 26.97600
C  -3.81300 13.40700 28.33800
C  -3.67600 14.77800 28.57400
C  -3.93300 11.69300 26.27000
C  -3.89800 12.79600 29.66000
O  -3.96400 11.64700 29.93800
C  -3.92700 13.96100 30.71400
C  -2.91100 13.65000 31.71900
O  -1.71400 13.88800 31.61300
O  -3.51300 13.02300 32.74300
C  -2.73700 12.59200 33.88200
H  -3.55800 20.76800 30.01600
H  -3.14100 20.08800 23.57600
H  -3.57600 13.83300 24.28200
H  -4.69700 16.73000 32.20100
H  -3.25900 19.18500 31.88400
H  -5.35000 20.13200 32.60600
H  -6.09700 18.50900 32.50900
H  -6.16000 19.54100 31.18200
H  -1.71900 17.04100 31.93400
H  -2.56300 15.75800 32.90000
H  -3.19100 18.20200 34.19100
H  -1.55200 18.35000 33.66000
H  -4.32900 23.66200 27.89300
H  -2.73500 23.37700 28.44000
H  -4.14200 22.73000 29.31400
H  -2.04900 24.13200 26.28900
H  -3.58700 24.52900 25.69200
H  -2.15700 24.62700 24.68500
H  -2.08500 17.78600 22.28200
H  -3.73700 15.49100 22.54100
H  -5.12400 17.73900 22.20300
H  -3.99300 17.45200 20.74300
H  -4.20200 18.99400 21.59500
H  -1.40300 15.33200 21.54000
H  -1.47300 14.32900 22.96200
H  -0.17700 15.86000 24.49700
H  -0.24200 17.05900 23.24100
H  0.68600 15.57200 23.03000
H  -3.22200 10.97800 26.68500
H  -3.87400 11.63900 25.18300
H  -4.92200 11.47900 26.67600
H  -4.93200 13.94400 31.13400
H  -2.10100 11.71900 33.74100
H  -3.40100 12.16100 34.63100
H  -2.20900 13.39100 34.40200
Mg 46.68600 17.19100 27.65500
C  44.90400 16.82800 30.65000
C  49.09400 18.96700 29.48300
C  48.10200 18.21800 24.73700
C  43.98100 15.86800 25.82100
N  46.91400 17.92800 29.89300
C  46.14000 17.40900 30.88100
C  46.88100 17.53200 32.25800
C  48.09900 18.47000 31.85100
C  48.02200 18.48200 30.32000
C  48.14600 20.00100 32.44000
C  47.21000 16.19800 33.02100
C  47.13300 16.10300 34.53600
H  47.03000 17.39900 35.29900
N  48.40100 18.29600 27.15000
C  49.30000 18.93300 28.05600
C  50.40100 19.44900 27.29200
C  50.04100 19.26900 25.94700
C  48.83600 18.50000 25.87800
C  51.65200 20.00300 27.96400
C  50.74900 19.72300 24.61100
O  50.32700 19.54600 23.47500
C  52.08800 20.29000 24.65900
N  46.14900 16.94900 25.51600
C  46.89800 17.48400 24.56000
C  46.16200 17.39800 23.22800
C  45.03100 16.28800 23.51900
C  45.05400 16.31800 25.01600
C  45.61200 18.70300 22.79800
C  45.29900 14.94100 22.86100
C  44.24300 14.46700 21.86300
N  44.82700 16.54100 28.03500
C  43.91100 15.89200 27.28400
C  42.81100 15.44000 28.13600
C  43.23100 15.72400 29.41800
C  44.42500 16.42100 29.36400
C  41.48500 14.70800 27.87000
C  42.82800 15.55700 30.79700
O  41.94900 15.00600 31.31800
C  43.91600 16.26300 31.73400
C  43.22000 17.24000 32.63700
O  42.89100 18.41000 32.45400
O  43.14900 16.61800 33.82400
C  42.62800 17.45000 34.92800
H  49.88600 19.38600 30.10600
H  48.33900 18.61400 23.74800
H  43.15800 15.44800 25.23900
H  46.29600 18.16500 32.92500
H  49.02700 17.98400 32.15200
H  49.02500 20.11700 33.07400
H  47.29000 20.11200 33.10600
H  48.00700 20.64500 31.57200
H  48.21800 15.92600 32.70900
H  46.50200 15.51300 32.55400
H  47.77200 15.34000 34.98100
H  46.12900 15.69500 34.65500
H  51.51000 21.07000 28.13000
H  52.56500 19.81600 27.39900
H  51.79600 19.49700 28.91800
H  52.03600 21.15100 25.32500
H  52.34200 20.66800 23.66900
H  52.83700 19.53800 24.90500
H  46.80600 17.05200 22.41900
H  44.04400 16.59100 23.17000
H  44.53400 18.76200 22.64900
H  46.21000 19.02700 21.94600
H  45.72500 19.40700 23.62200
H  45.52800 14.21300 23.63900
H  46.22100 15.03500 22.28700
H  43.46300 15.20800 21.69100
H  43.68900 13.63900 22.30600
H  44.67500 14.12300 20.92300
H  40.68300 15.05200 28.52300
H  41.72400 13.69900 28.20500
H  41.19400 14.71800 26.81900
H  44.41000 15.53300 32.37600
H  41.55100 17.49600 35.09300
H  42.99200 18.47700 34.90100
H  42.93600 17.00700 35.87500

