158

Mg 25.82800 1.03900 28.76600
C  27.73100 0.61700 31.79200
C  22.98100 1.22900 30.84000
C  24.04500 1.09300 26.08100
C  28.65800 0.18000 27.04500
N  25.43800 1.01100 31.14300
C  26.34100 0.93900 32.11600
C  25.72600 1.10100 33.47800
C  24.20500 1.15200 33.16600
C  24.16000 1.15400 31.66200
C  23.31200 -0.00300 33.66400
C  26.38100 2.29500 34.28300
C  27.13300 2.09700 35.67500
H  26.92100 3.12600 36.87400
N  23.78800 1.12700 28.48600
C  22.82300 1.20600 29.44800
C  21.48200 1.19300 28.81000
C  21.78800 1.15500 27.41700
C  23.20800 1.16400 27.28800
C  20.19300 0.93400 29.47600
C  20.85600 1.06500 26.19400
O  21.26100 1.14200 25.02200
C  19.35700 0.95000 26.41100
N  26.29100 0.55300 26.83800
C  25.40300 0.87500 25.86300
C  26.11200 1.01000 24.50400
C  27.52600 0.51800 24.81100
C  27.47800 0.38000 26.31700
C  25.44300 0.21000 23.34400
C  28.68900 1.31000 24.16500
C  29.24200 0.72300 22.83800
N  27.77200 0.47500 29.30000
C  28.82800 0.16200 28.40200
C  30.02200 0.01200 29.16100
C  29.66200 0.14400 30.50100
C  28.25900 0.40700 30.51800
C  31.43200 -0.27600 28.62200
C  30.13200 0.11300 31.85900
O  31.25600 -0.16900 32.23500
C  28.90100 0.35100 32.78400
C  28.58500 -0.80600 33.68200
O  27.79500 -1.68400 33.43700
O  29.28300 -0.57400 34.84600
C  28.74800 -1.41100 35.93700
H  22.12100 1.39900 31.49200
H  23.45400 1.36000 25.20200
H  29.63500 0.08200 26.56600
H  25.86400 0.15400 34.00100
H  23.83700 2.15000 33.40300
H  22.55500 0.50100 34.26500
H  23.89100 -0.73900 34.22300
H  22.77400 -0.58000 32.91200
H  25.66900 3.07300 34.55600
H  27.03300 2.83600 33.59700
H  28.19100 2.29100 35.50000
H  26.91300 1.09300 36.03900
H  19.70800 0.03000 29.10800
H  19.59800 1.84500 29.41200
H  20.36600 0.72700 30.53200
H  18.73600 1.28700 25.58100
H  19.09900 1.59900 27.24700
H  19.06400 -0.09700 26.48800
H  26.07000 2.07100 24.26000
H  27.73700 -0.45500 24.36700
H  25.25500 1.03700 22.66000
H  24.42200 -0.14700 23.48200
H  26.16300 -0.51100 22.95700
H  29.57300 1.38200 24.79900
H  28.27800 2.28200 23.89100
H  29.08700 1.49900 22.08900
H  28.75300 -0.18600 22.48800
H  30.30100 0.52500 23.00500
H  31.55200 0.20200 27.65000
H  31.58800 -1.35300 28.55100
H  32.13500 0.25100 29.26800
H  29.09700 1.26600 33.34200
H  28.91100 -2.44600 35.63300
H  27.69800 -1.22900 36.16500
H  29.42300 -1.40500 36.79300
Mg 41.38700 8.80100 29.95500
C  43.03900 10.05600 32.69800
C  39.09400 7.11200 31.95500
C  39.92500 7.42900 27.22600
C  43.86700 10.07100 27.84100
N  41.14100 8.55200 32.08500
C  41.83200 9.30700 33.03100
C  41.29900 9.03600 34.38700
C  40.19200 7.95100 34.11900
C  40.12100 7.84000 32.63300
C  40.35100 6.58400 34.95800
C  40.92000 10.34900 35.07600
C  40.66100 10.15700 36.57500
H  41.42800 11.07400 37.61700
N  39.64200 7.54000 29.63900
C  38.80100 7.04400 30.58000
C  37.68300 6.43600 29.92800
C  37.82100 6.52700 28.52600
C  39.19000 7.14500 28.42500
C  36.58800 5.65600 30.68900
C  36.83200 6.05800 27.47300
O  37.18700 6.08000 26.32000
C  35.39300 5.50300 27.80300
N  41.85000 8.63200 27.78300
C  41.08500 8.09400 26.89800
C  41.60100 8.38800 25.48300
C  42.92300 9.21500 25.69300
C  42.83700 9.39300 27.17600
C  41.79200 7.12300 24.58800
C  42.97600 10.56000 24.93600
C  44.12100 10.58700 23.92700
N  43.20300 9.83000 30.15800
C  44.08000 10.27500 29.19000
C  45.16900 10.85000 29.94300
C  44.79300 10.80000 31.29000
C  43.57700 10.16100 31.37000
C  46.31000 11.43700 29.24800
C  45.18600 11.22900 32.59800
O  46.22500 11.73900 33.03600
C  44.06500 10.72000 33.56300
C  44.68200 9.78200 34.57400
O  45.20600 8.70100 34.29600
O  44.74800 10.40800 35.79500
C  45.37000 9.58600 36.83700
H  38.51700 6.61200 32.73600
H  39.49200 7.03500 26.30500
H  44.63300 10.45100 27.16200
H  42.12100 8.60600 34.96000
H  39.21800 8.30100 34.46100
H  39.42500 6.46000 35.51900
H  41.10600 6.55100 35.74300
H  40.56500 5.79400 34.23800
H  40.02900 10.79800 34.63600
H  41.70800 11.08900 34.94200
H  40.76300 9.11400 36.87500
H  39.61100 10.36000 36.78400
H  36.62600 5.78900 31.77100
H  36.67700 4.59100 30.47400
H  35.59300 6.06700 30.51700
H  34.88400 5.17900 26.89400
H  34.87400 6.32600 28.29400
H  35.50300 4.57100 28.35700
H  40.84700 9.05800 25.07000
H  43.80100 8.59000 25.53400
H  41.71900 6.19900 25.16100
H  42.64900 7.16600 23.91500
H  40.91600 7.13200 23.94000
H  43.14900 11.35700 25.66000
H  42.04400 10.75500 24.40600
H  44.00000 11.29000 23.10300
H  44.30700 9.65100 23.39900
H  45.06900 10.90200 24.36100
H  46.78200 12.16000 29.91300
H  45.97700 12.03100 28.39700
H  47.05100 10.74000 28.85500
H  43.75000 11.59500 34.13100
H  46.44600 9.68900 36.97300
H  44.93400 8.58800 36.88800
H  45.07600 10.02000 37.79200

