158

Mg 9.17500 4.42100 28.15500
C  10.46200 2.66200 30.90700
C  7.04600 6.03400 30.13100
C  8.05700 6.02100 25.42900
C  10.83000 2.10700 26.05800
N  8.72400 4.22900 30.26600
C  9.56000 3.69300 31.21500
C  9.13600 4.07100 32.67300
C  7.90300 4.99300 32.40600
C  7.88700 5.10200 30.81300
C  6.48200 4.58700 32.90500
C  10.27700 4.70100 33.45800
C  10.01500 4.99000 34.98300
H  11.29700 4.82800 35.87200
N  7.79300 5.87500 27.84200
C  6.98200 6.39500 28.80800
C  6.22100 7.56300 28.20500
C  6.61900 7.56600 26.85000
C  7.55300 6.47800 26.63000
C  5.36100 8.44900 29.00600
C  6.18800 8.50600 25.79600
O  6.62300 8.44000 24.65400
C  5.13000 9.52600 26.06300
N  9.27400 4.01200 26.00300
C  8.78100 4.86800 25.03300
C  9.21700 4.54900 23.55300
C  9.97900 3.18800 23.79800
C  10.07800 3.10700 25.36600
C  8.03700 4.45900 22.53000
C  11.35200 3.16200 23.02000
C  11.51700 1.98500 22.01700
N  10.44900 2.81300 28.35500
C  11.05200 1.94800 27.42100
C  11.75700 0.95500 28.10100
C  11.65200 1.19200 29.43300
C  10.84500 2.34600 29.54400
C  12.44900 -0.25100 27.43200
C  12.06900 0.83200 30.76200
O  12.83500 -0.03400 31.11500
C  11.46200 1.91200 31.73600
C  10.89100 1.14200 32.86600
O  9.97900 0.30900 32.82700
O  11.62300 1.39700 34.03100
C  11.23000 0.69600 35.25100
H  6.44800 6.70400 30.75300
H  8.00500 6.64600 24.53500
H  11.34700 1.38700 25.42100
H  8.76200 3.18100 33.18000
H  8.09200 6.01800 32.72300
H  5.67600 4.69400 32.17900
H  6.21400 5.18700 33.77400
H  6.50800 3.54200 33.21300
H  10.66900 5.60700 32.99700
H  11.11800 4.01500 33.35600
H  9.41700 4.20700 35.44900
H  9.57600 5.95700 35.23000
H  4.99700 8.09900 29.97200
H  4.43600 8.60200 28.45100
H  5.80200 9.42000 29.23300
H  5.19600 10.16500 26.94300
H  4.21800 8.97200 26.28700
H  4.89000 10.15200 25.20400
H  9.86700 5.39900 23.34500
H  9.38900 2.29500 23.59100
H  7.10200 4.81500 22.96400
H  7.95300 3.44500 22.13900
H  8.17900 5.15400 21.70200
H  12.11900 3.07900 23.79000
H  11.55600 4.06600 22.44700
H  10.62400 1.71000 21.45700
H  11.84100 1.07300 22.51800
H  12.32700 2.21500 21.32500
H  13.46600 -0.04600 27.09700
H  11.90400 -0.66900 26.58600
H  12.41600 -0.98200 28.24000
H  12.22000 2.60400 32.10400
H  12.02000 0.03300 35.60500
H  10.38600 0.00900 35.18000
H  10.96400 1.47200 35.96900
Mg 16.65400 51.17600 25.36200
C  18.47200 49.97800 28.18600
C  14.26000 52.12200 27.46100
C  15.04200 52.35500 22.62400
C  19.16500 49.75700 23.26000
N  16.27800 50.81900 27.61900
C  17.19200 50.53300 28.56800
C  16.68200 50.88200 29.94500
C  15.21900 51.32000 29.71300
C  15.23700 51.44800 28.15800
C  14.14600 50.43700 30.37700
C  17.52100 51.92900 30.78900
C  18.13200 51.55100 32.11500
H  17.53300 52.13200 33.35200
N  14.93900 52.17000 25.12200
C  14.05000 52.51200 26.13200
C  13.00600 53.35600 25.60600
C  13.14400 53.40000 24.18100
C  14.42600 52.64400 23.94200
C  11.91300 53.86800 26.52100
C  12.20400 54.00200 23.21000
O  12.51600 53.95000 22.03100
C  10.81900 54.47900 23.49900
N  17.18100 51.23500 23.23800
C  16.25200 51.69500 22.32300
C  16.78100 51.54400 20.89800
C  18.09800 50.64700 21.08900
C  18.21100 50.53100 22.57400
C  15.72300 50.95200 19.91000
C  19.30000 51.42300 20.43300
C  20.41200 50.48400 19.97700
N  18.42500 50.01500 25.58200
C  19.31100 49.55800 24.69200
C  20.45100 48.89200 25.38400
C  20.16600 49.10200 26.76600
C  18.90100 49.76300 26.84300
C  21.61400 48.17000 24.64500
C  20.70800 48.93800 28.17200
O  21.72900 48.38300 28.64700
C  19.53200 49.46500 29.08400
C  19.02300 48.49400 30.06700
O  18.01300 47.77300 30.03000
O  19.77700 48.67100 31.19600
C  19.42800 47.76100 32.27400
H  13.52200 52.46700 28.18700
H  14.48900 52.77900 21.78300
H  19.99800 49.32100 22.70400
H  16.69200 49.90900 30.43700
H  15.16000 52.34400 30.08200
H  13.14700 50.60000 29.97300
H  14.16300 50.66500 31.44300
H  14.37700 49.39200 30.17200
H  16.94500 52.84300 30.93900
H  18.19200 52.29700 30.01200
H  19.14500 51.95300 32.13500
H  18.08200 50.46200 32.12300
H  11.82800 54.92400 26.26600
H  12.23000 53.82800 27.56400
H  10.97800 53.32900 26.37200
H  10.43300 53.87700 24.32100
H  10.17300 54.42100 22.62300
H  10.83400 55.47300 23.94700
H  17.07600 52.46700 20.39900
H  17.89300 49.73400 20.53000
H  15.95900 49.97000 19.50100
H  15.46100 51.58300 19.06100
H  14.77900 50.81800 20.43900
H  19.79700 51.96400 21.23700
H  19.04400 52.16400 19.67600
H  20.25100 49.43100 20.20900
H  21.38900 50.86600 20.27200
H  20.48800 50.43000 18.89100
H  21.93300 47.35700 25.29800
H  22.47700 48.83500 24.61300
H  21.42700 47.78000 23.64400
H  19.94400 50.33000 29.60400
H  18.50600 48.14900 32.70700
H  20.15800 47.70600 33.08300
H  19.22900 46.75500 31.90400

