158

Mg 25.09200 1.17800 29.72600
C  27.21500 1.05400 32.67100
C  22.43700 1.27700 31.87900
C  23.30100 1.43100 27.11900
C  27.98800 0.48300 27.90100
N  24.83000 1.13400 31.99300
C  25.78400 1.23500 32.92000
C  25.20800 1.42500 34.31000
C  23.67100 1.41000 34.04900
C  23.63800 1.17500 32.54800
C  22.78500 0.53000 35.01500
C  25.67800 2.68200 35.10500
C  26.23300 2.47300 36.53600
H  25.93000 3.69600 37.51400
N  23.05700 1.30100 29.51200
C  22.07800 1.28500 30.52900
C  20.77600 1.39900 29.89000
C  21.02800 1.52400 28.51200
C  22.52000 1.41700 28.31400
C  19.50200 1.41400 30.64500
C  20.00400 1.72000 27.43300
O  20.44900 1.80600 26.28600
C  18.51400 2.01000 27.68500
N  25.62900 0.98300 27.78900
C  24.64400 1.25100 26.83800
C  25.15900 1.38100 25.39600
C  26.72400 1.11100 25.61000
C  26.82100 0.84100 27.16100
C  24.31000 0.62700 24.26800
C  27.71600 2.31500 25.37600
C  27.25000 3.64400 26.09900
N  27.10600 0.62900 30.21500
C  28.15700 0.37800 29.33000
C  29.40300 0.18000 30.05400
C  29.02900 0.41900 31.36200
C  27.65400 0.66100 31.38700
C  30.75100 -0.22500 29.53700
C  29.55300 0.63900 32.76200
O  30.69000 0.51900 33.24500
C  28.35100 0.97900 33.61600
C  28.15400 0.05500 34.77400
O  27.64000 -1.03000 34.63400
O  28.74300 0.50100 35.93900
C  28.91100 -0.41600 37.07600
H  21.57100 1.52600 32.49600
H  22.84700 1.68800 26.16000
H  28.93300 0.49100 27.35300
H  25.45700 0.53600 34.88900
H  23.37600 2.43500 34.27100
H  22.21100 -0.26900 34.54500
H  22.14700 1.23700 35.54500
H  23.33300 0.04300 35.82200
H  24.87000 3.41300 35.08300
H  26.56800 3.12800 34.66000
H  27.31000 2.53100 36.37900
H  26.05600 1.48700 36.96500
H  19.10000 2.42700 30.62100
H  19.67200 1.08400 31.67000
H  18.83600 0.71400 30.14000
H  17.88000 1.14700 27.48200
H  18.30900 2.65200 26.82800
H  18.38200 2.58800 28.60000
H  24.97400 2.39100 25.03100
H  26.95600 0.18500 25.08500
H  23.46800 0.08200 24.69300
H  25.04600 -0.06800 23.86300
H  23.94100 1.28900 23.48400
H  27.51600 2.40600 24.30800
H  28.72500 1.95400 25.57400
H  26.55100 3.29600 26.85900
H  26.63100 4.25200 25.43900
H  28.08300 4.19800 26.53300
H  31.28800 0.67700 29.24500
H  30.85400 -1.00200 28.77900
H  31.23900 -0.77000 30.34500
H  28.53100 1.96400 34.04700
H  28.01900 -0.26100 37.68300
H  29.86300 -0.23600 37.57500
H  28.95300 -1.45200 36.73800
Mg 28.53800 57.40100 41.76600
C  25.87000 55.39900 40.50700
C  30.69600 55.40500 40.08600
C  30.77500 59.71100 42.19000
C  25.96400 59.68200 42.69200
N  28.33100 55.64600 40.53300
C  27.19800 54.96100 40.15400
C  27.50500 53.85200 39.20900
C  29.00300 53.57000 39.45900
C  29.41300 54.95500 40.14500
C  29.43800 52.52400 40.40400
C  27.10300 54.26100 37.72000
C  26.46300 53.25300 36.81300
H  26.91500 53.22300 35.36600
N  30.56700 57.47100 41.32200
C  31.25000 56.55400 40.57400
C  32.69700 56.94100 40.54400
C  32.73900 58.21900 41.17400
C  31.36900 58.52600 41.64500
C  33.73900 56.03200 39.90500
C  34.03200 58.98600 41.36800
O  35.02900 58.56800 40.86400
C  34.05500 60.19500 42.20400
N  28.36100 59.39100 42.28700
C  29.46000 60.12400 42.50300
C  29.16000 61.52900 42.87000
C  27.61400 61.54300 43.00200
C  27.26700 60.08300 42.72600
C  29.80000 62.02700 44.19700
C  26.86200 62.55900 42.13300
C  25.72700 63.33700 42.74800
N  26.34400 57.45600 41.84100
C  25.50000 58.41400 42.27500
C  24.11500 57.96800 42.15600
C  24.21800 56.73900 41.46200
C  25.58500 56.54300 41.28100
C  22.81400 58.60000 42.72400
C  23.48000 55.69600 40.84900
O  22.28800 55.52300 40.70500
C  24.51600 54.74800 40.13800
C  24.37400 53.42500 40.74200
O  24.75500 53.07800 41.83400
O  23.75000 52.53500 39.85700
C  23.62000 51.08600 40.22800
H  31.41500 54.86100 39.47000
H  31.48400 60.54100 42.23400
H  25.14700 60.34200 42.99300
H  27.02300 52.92100 39.50800
H  29.56300 53.35700 38.54900
H  29.83800 52.88000 41.35300
H  30.14400 51.85100 39.91700
H  28.64700 51.81100 40.63500
H  28.04800 54.44700 37.20900
H  26.54200 55.19500 37.67800
H  25.37700 53.28200 36.90100
H  26.53400 52.29700 37.33100
H  33.74800 56.03500 38.81500
H  33.57000 54.97600 40.11600
H  34.72300 56.17300 40.35100
H  33.76500 60.99700 41.52500
H  35.00000 60.58900 42.57700
H  33.40100 59.93300 43.03500
H  29.47300 62.08200 41.98500
H  27.41400 61.70300 44.06100
H  30.68700 62.57300 43.87800
H  30.10600 61.21000 44.85100
H  29.23800 62.78000 44.74900
H  26.60300 62.15900 41.15200
H  27.65100 63.26600 41.87700
H  26.08000 64.36700 42.78900
H  25.41200 63.06800 43.75600
H  24.87700 63.40100 42.06800
H  22.67800 58.33500 43.77200
H  21.92800 58.24800 42.19500
H  22.76100 59.68300 42.61500
H  24.45000 54.78200 39.05100
H  24.39400 50.59200 40.81600
H  23.57200 50.50700 39.30600
H  22.70900 51.11100 40.82800

