158

Mg 48.43300 46.15800 42.67400
C  45.36400 44.87200 41.85000
C  49.80800 43.00400 41.72900
C  51.60200 47.28300 43.00300
C  47.14100 49.25400 43.04700
N  47.68600 44.21000 41.57500
C  46.32400 43.94700 41.51700
C  46.02400 42.53600 40.96700
C  47.46200 41.90700 41.38200
C  48.47300 43.09100 41.45100
C  47.47600 41.04800 42.70600
C  45.46700 42.48200 39.55200
C  44.42400 41.31100 39.22400
H  44.56000 40.64600 37.86500
N  50.43700 45.30400 42.41600
C  50.72700 44.02800 41.94100
C  52.12100 43.86000 41.83300
C  52.71600 45.12800 42.28000
C  51.58500 45.94900 42.54500
C  52.74900 42.54300 41.37000
C  54.23300 45.48000 42.24600
O  55.04100 44.55500 42.12700
C  54.78900 46.79700 42.47700
N  49.27300 48.05500 42.69100
C  50.60400 48.24500 43.00200
C  50.91800 49.72000 43.22100
C  49.52900 50.32100 42.89600
C  48.54700 49.12400 42.83800
C  51.57900 50.00100 44.64300
C  49.49300 51.14800 41.56500
C  49.68900 52.60900 41.79400
N  46.64600 46.87100 42.67500
C  46.19400 48.20500 42.87100
C  44.75100 48.25000 42.88800
C  44.40100 46.87800 42.57100
C  45.62100 46.19300 42.31100
C  43.92800 49.40500 43.35800
C  43.26800 45.99100 42.36600
O  42.02400 46.09500 42.41500
C  43.81900 44.61400 41.82700
C  43.39900 43.48100 42.71100
O  42.41700 42.77500 42.45800
O  44.14400 43.40500 43.80700
C  43.58600 42.46100 44.80000
H  50.21600 42.01400 41.51500
H  52.57600 47.71900 43.23100
H  46.72300 50.25900 43.13600
H  45.20700 42.10600 41.54600
H  47.87600 41.32100 40.56100
H  47.62800 41.62000 43.62100
H  48.26200 40.29400 42.75500
H  46.52300 40.51800 42.72400
H  46.20900 42.35900 38.76400
H  45.06000 43.47900 39.38000
H  43.40800 41.66200 39.40800
H  44.53100 40.54700 39.99400
H  52.45600 42.38000 40.33300
H  52.46100 41.65500 41.93300
H  53.83300 42.65600 41.37300
H  54.28700 47.59200 41.92500
H  55.84000 46.71900 42.20200
H  54.68400 46.96400 43.54900
H  51.56700 49.99000 42.38800
H  49.29500 50.86500 43.81100
H  52.28600 49.18400 44.78600
H  50.76300 49.91900 45.36100
H  52.07100 50.97200 44.58500
H  48.57800 50.94700 41.00800
H  50.35100 50.87400 40.95000
H  49.39500 52.80700 42.82500
H  49.05000 53.01800 41.01100
H  50.71100 52.96300 41.66600
H  44.44500 50.35500 43.48900
H  43.43600 49.19800 44.30800
H  43.16200 49.38800 42.58200
H  43.56700 44.42000 40.78400
H  43.55700 41.38300 44.64400
H  42.59100 42.74400 45.14400
H  44.30800 42.66200 45.59200
Mg 48.03600 34.16500 26.73600
C  46.32900 33.00700 29.50800
C  48.43400 37.30700 28.25100
C  49.07200 35.48200 23.85400
C  47.16000 31.25300 25.01700
N  47.57200 35.00900 28.69600
C  46.83100 34.32400 29.64800
C  46.54900 35.23700 30.93800
C  47.11300 36.64800 30.41400
C  47.72600 36.31700 29.00900
C  45.98300 37.63100 30.28800
C  47.28800 34.80500 32.24200
C  46.43200 34.68200 33.47000
H  46.16600 36.02000 34.16800
N  48.95000 36.02700 26.19800
C  49.05600 37.18600 26.95800
C  49.93800 38.11200 26.21000
C  50.08500 37.61100 24.86300
C  49.36800 36.34200 24.87300
C  50.47900 39.35000 26.95900
C  50.87200 38.21600 23.66900
O  50.93200 37.70500 22.53900
C  51.61800 39.50000 23.95600
N  48.12600 33.44700 24.70300
C  48.57300 34.16700 23.67600
C  48.56900 33.42600 22.34700
C  48.07400 31.99600 22.77700
C  47.78800 32.26700 24.21400
C  47.72300 34.19700 21.34500
C  49.01100 30.79400 22.61200
C  50.22400 30.81600 23.58900
N  46.91900 32.43300 27.10600
C  46.76700 31.30700 26.39500
C  46.01100 30.35300 27.25000
C  45.81400 30.97300 28.49300
C  46.41900 32.25500 28.37000
C  45.60800 29.01600 26.73700
C  45.22400 30.79400 29.74400
O  44.64700 29.80100 30.17400
C  45.44900 32.17600 30.44400
C  46.05700 31.74500 31.77800
O  47.24900 31.55700 31.99400
O  45.04600 31.43400 32.71300
C  45.41500 31.10800 34.05700
H  48.46200 38.26500 28.77300
H  49.53000 35.82300 22.92200
H  46.91500 30.25500 24.64600
H  45.49200 35.26900 31.20000
H  47.92600 37.03000 31.03000
H  45.72700 38.01700 29.30200
H  46.27400 38.49700 30.88300
H  45.09800 37.32000 30.84400
H  48.03500 35.54800 32.51900
H  47.98000 33.99500 32.01200
H  47.03300 33.98600 34.05400
H  45.48000 34.27800 33.12500
H  49.82700 39.53500 27.81300
H  50.55000 40.21100 26.29500
H  51.43900 39.08800 27.40300
H  52.16200 39.62800 24.89200
H  50.86500 40.27800 23.82900
H  52.24300 39.68000 23.08100
H  49.57800 33.30000 21.95500
H  47.11600 31.67500 22.37000
H  47.22400 35.06000 21.78500
H  46.98900 33.55500 20.85800
H  48.42400 34.56800 20.59700
H  49.34400 30.74600 21.57500
H  48.44500 29.86300 22.65300
H  50.42700 31.77700 24.06000
H  50.99400 30.38900 22.94600
H  49.93300 30.21300 24.44900
H  44.53100 28.98100 26.57400
H  45.84300 28.19500 27.41300
H  46.11200 28.77800 25.80000
H  44.51900 32.71000 30.63800
H  46.33500 31.63700 34.30600
H  45.58700 30.04400 34.22000
H  44.49200 31.38700 34.56400

