158

Mg -1.52300 17.39000 25.99700
C  -1.88400 15.05400 28.68200
C  -2.74000 19.81300 28.24300
C  -2.06100 19.30400 23.41600
C  -1.34000 14.62800 23.71200
N  -2.34800 17.39300 28.19900
C  -2.27800 16.29600 29.09300
C  -2.65500 16.77200 30.53500
C  -3.10500 18.24100 30.22500
C  -2.71500 18.58300 28.80100
C  -4.63000 18.36600 30.46000
C  -1.41600 16.76500 31.59100
C  -1.61700 15.73800 32.79900
H  -2.22300 16.27600 34.10900
N  -2.01000 19.37500 25.92400
C  -2.50700 20.15600 26.89100
C  -2.50200 21.54800 26.22700
C  -2.22700 21.33100 24.85500
C  -2.08300 19.96900 24.68600
C  -2.94500 22.82400 26.96800
C  -2.14300 22.37200 23.69700
O  -1.88300 22.11000 22.51600
C  -2.38600 23.81100 24.02300
N  -1.85300 16.94900 23.75800
C  -1.99600 18.00100 22.94800
C  -2.19000 17.55900 21.51400
C  -1.71100 16.07300 21.60100
C  -1.64400 15.82800 23.13200
C  -3.65000 17.62600 21.00500
C  -0.21900 15.76900 21.10100
C  0.98300 16.31100 21.87300
N  -1.51200 15.22600 26.16100
C  -1.42400 14.27300 25.14100
C  -1.59500 12.97300 25.76500
C  -1.53600 13.25200 27.14300
C  -1.64800 14.64600 27.34200
C  -1.39700 11.71500 24.99400
C  -1.55100 12.60400 28.44600
O  -1.48200 11.44600 28.71400
C  -1.72600 13.77000 29.48700
C  -0.44800 13.86900 30.27800
O  0.51600 14.52900 29.97700
O  -0.49500 13.10000 31.41700
C  0.79900 12.99400 32.16900
H  -2.96900 20.60100 28.96300
H  -2.25800 19.89200 22.51800
H  -1.19400 13.86700 22.94200
H  -3.40000 15.99800 30.72300
H  -2.55200 18.97100 30.81600
H  -5.08000 17.37800 30.55900
H  -5.13400 18.96100 29.69800
H  -4.68000 18.81700 31.45100
H  -1.40000 17.69400 32.16100
H  -0.44800 16.67500 31.09900
H  -0.64300 15.31500 33.04400
H  -2.31800 14.98900 32.43000
H  -3.44700 22.47700 27.87200
H  -3.71000 23.46800 26.53400
H  -2.16700 23.51300 27.29800
H  -1.63200 24.03500 24.77800
H  -3.40400 23.95800 24.38300
H  -2.30600 24.42700 23.12700
H  -1.52900 18.17400 20.90500
H  -2.45900 15.37500 21.22500
H  -4.31300 17.84400 21.84200
H  -4.03700 16.68100 20.62300
H  -3.63100 18.36800 20.20800
H  -0.07900 16.29700 20.15800
H  -0.13200 14.68400 21.04800
H  0.72300 17.19900 22.44900
H  1.77900 16.56000 21.17100
H  1.36100 15.49100 22.48300
H  -1.13300 11.82100 23.94200
H  -2.37400 11.23400 25.04400
H  -0.76600 11.06600 25.60000
H  -2.54400 13.54900 30.17200
H  0.85300 11.94700 32.46600
H  0.79500 13.60100 33.07400
H  1.69300 13.19500 31.57800
Mg 53.34800 22.79600 43.84900
C  50.48700 24.52300 42.70900
C  51.79700 19.84200 43.42000
C  56.37700 21.32600 43.93100
C  54.85700 25.93300 44.36200
N  51.49400 22.19900 42.67600
C  50.45000 23.11500 42.51700
C  49.19200 22.24800 42.23700
C  49.51000 20.86500 42.84900
C  50.99700 20.90900 42.98800
C  48.67800 20.64000 44.20700
C  48.96900 22.12600 40.70800
C  47.80600 21.22200 40.24000
H  48.01000 20.17300 39.18900
N  53.99200 20.80800 43.67700
C  53.20700 19.75500 43.60400
C  53.99800 18.56200 43.54200
C  55.36200 18.89900 43.70500
C  55.27900 20.39800 43.76800
C  53.46200 17.12800 43.37300
C  56.55600 17.95900 43.62600
O  56.35800 16.73600 43.53700
C  58.00600 18.38700 43.66000
N  55.36000 23.53500 43.88800
C  56.42900 22.70700 44.07800
C  57.71800 23.52300 44.33400
C  57.24000 25.02400 44.46100
C  55.72500 24.84400 44.21000
C  58.68200 23.01200 45.43000
C  57.96400 25.95500 43.36900
C  57.21100 26.43200 42.12400
N  52.80100 24.78400 43.75500
C  53.46700 25.87900 44.05200
C  52.56700 26.98800 44.06500
C  51.41600 26.50300 43.50500
C  51.58400 25.14300 43.27000
C  52.70900 28.41500 44.62300
C  50.08100 26.85700 43.03800
O  49.40500 27.86100 43.16800
C  49.45400 25.52800 42.39700
C  49.40700 25.78800 40.95000
O  50.40200 26.02600 40.20000
O  48.14600 25.53100 40.46900
C  47.95100 25.78800 38.99900
H  51.20300 18.92700 43.39200
H  57.35400 20.85300 44.05100
H  55.28500 26.91100 44.58900
H  48.28600 22.68600 42.65400
H  49.27100 20.07300 42.13900
H  48.06100 19.76200 44.01600
H  48.09800 21.51300 44.50700
H  49.35800 20.37400 45.01600
H  49.87100 21.60700 40.38200
H  48.85200 23.11100 40.25800
H  47.07000 21.91000 39.82400
H  47.43900 20.68000 41.11200
H  53.89600 16.54700 42.56000
H  52.38700 17.25400 43.25000
H  53.63200 16.57300 44.29600
H  58.59500 17.53500 43.32000
H  58.13100 18.59100 44.72300
H  58.27300 19.29700 43.12300
H  58.30200 23.35600 43.42900
H  57.40800 25.39900 45.47100
H  58.12400 22.52900 46.23200
H  59.41000 23.75600 45.75400
H  59.31600 22.28300 44.92500
H  58.89400 25.50300 43.02400
H  58.43300 26.73600 43.96800
H  56.41600 25.74400 41.83500
H  57.89100 26.63200 41.29600
H  56.76700 27.38700 42.40600
H  52.21500 29.20600 44.06000
H  53.78400 28.59600 44.63700
H  52.29600 28.53600 45.62400
H  48.43300 25.35200 42.73500
H  48.54400 26.61500 38.60800
H  46.91200 25.96200 38.71900
H  48.19100 24.85400 38.49200

