158

Mg 46.62400 45.68800 44.15000
C  43.29500 44.46900 43.77800
C  47.68700 42.37300 43.83400
C  49.71000 46.87100 43.90300
C  45.35700 48.87400 44.00900
N  45.60500 43.68400 43.69200
C  44.25600 43.43300 43.68100
C  43.97000 41.88800 43.61600
C  45.28800 41.31400 44.04800
C  46.27200 42.50500 43.83700
C  45.37500 40.76400 45.51600
C  43.32000 41.36600 42.24000
C  43.39100 42.32900 40.99500
H  43.04000 41.82900 39.55200
N  48.43800 44.74600 43.79500
C  48.63000 43.41100 43.75700
C  50.04600 43.19500 43.55700
C  50.72200 44.47800 43.66300
C  49.60600 45.43400 43.79300
C  50.55700 41.78700 43.27400
C  52.24300 44.71700 43.53200
O  53.02600 43.74000 43.58900
C  52.82400 46.06700 43.29200
N  47.38800 47.63100 43.65800
C  48.69500 47.80800 43.99700
C  49.04700 49.29500 44.35500
C  47.65500 49.97600 44.10500
C  46.74700 48.72500 43.92900
C  49.54800 49.49400 45.82600
C  47.59500 50.79300 42.74300
C  48.63200 51.90200 42.53800
N  44.71300 46.56600 43.96500
C  44.35600 47.85000 43.98500
C  42.89000 47.97800 43.83400
C  42.47800 46.67600 43.79800
C  43.59200 45.82000 43.90700
C  41.99300 49.27600 43.57200
C  41.29800 45.89100 43.75400
O  40.10200 46.11700 43.71000
C  41.79500 44.40200 43.71900
C  41.27700 43.66300 44.88400
O  40.89200 42.48300 44.86200
O  41.21900 44.46600 46.00900
C  40.48300 43.85000 47.21400
H  48.02200 41.34800 44.00400
H  50.69600 47.33700 43.95900
H  44.96300 49.88800 44.10600
H  43.23300 41.64700 44.38100
H  45.59700 40.46800 43.43300
H  45.50800 39.68300 45.47900
H  44.50000 41.14400 46.04400
H  46.31200 41.08600 45.97100
H  42.30100 41.02100 42.41400
H  43.99700 40.55400 41.97500
H  44.37300 42.80300 40.98900
H  42.82800 43.24300 41.18400
H  51.27800 41.54800 44.05600
H  51.10900 41.62800 42.34700
H  49.84100 40.96600 43.30500
H  52.91900 46.54400 44.26800
H  52.13000 46.57100 42.61900
H  53.76100 45.97600 42.74300
H  49.74900 49.71700 43.63600
H  47.31100 50.57200 44.95000
H  48.70200 49.37400 46.50200
H  50.19300 50.36500 45.94600
H  50.16200 48.64700 46.13300
H  46.64200 51.22700 42.43800
H  47.87000 50.07600 41.97000
H  49.35600 51.72100 41.74300
H  49.26300 52.14600 43.39200
H  48.04500 52.80600 42.38000
H  41.51100 49.31600 42.59500
H  42.62500 50.16300 43.62000
H  41.20700 49.33100 44.32500
H  41.43000 43.81200 42.87800
H  39.48300 44.27300 47.12200
H  40.79300 44.33000 48.14200
H  40.38200 42.77100 47.33100
Mg 0.10300 43.93900 24.78600
C  2.31900 43.25400 27.39800
C  -2.51500 43.15600 26.93300
C  -1.91100 43.98400 22.11100
C  2.95700 44.54800 22.68800
N  -0.10000 43.12100 26.87800
C  0.95700 43.18500 27.79800
C  0.49600 43.12900 29.28500
C  -1.05900 42.92900 29.06800
C  -1.26600 43.01600 27.55600
C  -1.61000 41.62900 29.73700
C  0.79800 44.34500 30.16800
C  1.08700 44.16400 31.66800
H  0.87100 42.79000 32.33000
N  -1.92100 43.58600 24.51200
C  -2.86700 43.38800 25.50500
C  -4.19600 43.36400 24.92500
C  -4.03300 43.60200 23.52500
C  -2.56000 43.75700 23.30500
C  -5.48500 43.21900 25.82400
C  -5.11600 43.81400 22.49900
O  -4.74400 44.07600 21.36500
C  -6.55500 43.83700 22.79800
N  0.50100 44.25500 22.72400
C  -0.51600 44.28000 21.81500
C  0.00300 44.66800 20.35700
C  1.48000 45.02000 20.69400
C  1.67000 44.53900 22.10300
C  -0.22600 43.48300 19.46400
C  1.79900 46.53600 20.49100
C  2.59700 46.97700 19.25700
N  2.15900 43.86300 24.90700
C  3.18600 44.20700 23.98200
C  4.44800 44.02800 24.63400
C  4.18100 43.69700 25.96600
C  2.74900 43.61700 26.07900
C  5.83200 44.32900 24.09900
C  4.81500 43.34800 27.21900
O  5.97900 43.16300 27.50000
C  3.62500 43.27000 28.27400
C  3.76500 42.08700 29.09100
O  3.39300 40.94600 28.83300
O  4.41500 42.45200 30.18200
C  4.73400 41.36400 31.14300
H  -3.31000 42.95900 27.65500
H  -2.51500 43.98600 21.20100
H  3.84100 44.88600 22.14500
H  0.94200 42.26600 29.77900
H  -1.60700 43.74900 29.53400
H  -2.00200 41.03100 28.91400
H  -2.31200 41.84100 30.54300
H  -0.80900 41.04100 30.18700
H  0.08100 45.15400 30.03100
H  1.71700 44.75600 29.75200
H  0.31100 44.74600 32.16500
H  2.07600 44.54900 31.91200
H  -5.99600 44.16700 25.99000
H  -5.25000 42.97900 26.86000
H  -6.22500 42.50000 25.47200
H  -6.68000 42.85400 23.25200
H  -7.21700 43.91500 21.93600
H  -6.83700 44.61000 23.51400
H  -0.57800 45.48800 19.93500
H  2.11100 44.37000 20.08800
H  -0.99900 43.76900 18.75100
H  -0.56600 42.68900 20.12900
H  0.70400 43.24400 18.94900
H  2.25700 46.86600 21.42300
H  0.84900 47.07000 20.51600
H  2.13100 47.80700 18.72500
H  2.80100 46.12500 18.60800
H  3.50800 47.42300 19.65900
H  6.36900 44.97900 24.79000
H  5.78900 44.70600 23.07700
H  6.33000 43.36200 24.03100
H  3.64900 44.13100 28.94200
H  5.81300 41.21800 31.09700
H  4.42900 40.33900 30.93200
H  4.43200 41.78400 32.10200

