158

Mg -1.16400 7.05500 26.34700
C  0.01200 9.34700 28.78100
C  -1.10300 4.61300 28.97500
C  -2.13100 4.79200 24.10500
C  -0.34900 9.34100 23.86800
N  -0.43900 6.96200 28.64800
C  -0.30500 8.09700 29.35400
C  -0.33000 7.72400 30.87400
C  -0.44500 6.21100 30.92800
C  -0.61200 5.86000 29.38100
C  0.71800 5.28400 31.48600
C  -1.53400 8.49200 31.50000
C  -1.60100 8.75100 33.04100
H  -0.39300 8.42700 33.97000
N  -1.66800 5.02100 26.51700
C  -1.52200 4.24800 27.64700
C  -2.07800 2.93600 27.34400
C  -2.30300 2.93300 25.89500
C  -2.00100 4.24700 25.44700
C  -2.22600 1.79700 28.30100
C  -2.80000 1.78100 25.04300
O  -2.92200 1.91500 23.86700
C  -3.10000 0.42000 25.56900
N  -1.19100 7.09800 24.28400
C  -1.78000 6.06200 23.64300
C  -2.07700 6.48800 22.15300
C  -1.68900 8.00900 22.10200
C  -0.99200 8.16600 23.45200
C  -1.37000 5.59400 21.13100
C  -2.83800 8.97200 22.01300
C  -2.72200 10.20900 21.08800
N  -0.31800 8.97500 26.29800
C  -0.11100 9.76700 25.25400
C  0.39000 11.03000 25.70100
C  0.29800 10.98300 27.08800
C  0.00500 9.63700 27.42900
C  0.86200 12.15900 24.85500
C  0.51900 11.72800 28.26900
O  0.95700 12.87100 28.49400
C  0.20100 10.72000 29.47400
C  1.39500 10.65400 30.36200
O  2.38200 9.95500 30.09100
O  1.27200 11.47800 31.44900
C  2.43900 11.36000 32.40200
H  -1.21200 3.94800 29.83400
H  -2.65000 4.14300 23.39700
H  -0.35800 10.11800 23.10000
H  0.56900 8.05100 31.39600
H  -1.30900 5.88100 31.50500
H  0.85300 4.52100 30.72000
H  0.63800 4.84500 32.48100
H  1.58500 5.94500 31.46400
H  -2.39200 7.83300 31.36700
H  -1.76800 9.44900 31.03500
H  -2.40800 8.10600 33.38600
H  -2.01100 9.71600 33.33700
H  -3.27200 1.50100 28.37800
H  -1.85900 2.15300 29.26400
H  -1.66700 0.91200 27.99700
H  -3.75700 -0.20200 24.96100
H  -3.56500 0.45700 26.55400
H  -2.16000 -0.12800 25.50400
H  -3.13200 6.29300 21.96400
H  -0.86900 8.19300 21.40800
H  -1.07800 6.22300 20.29000
H  -1.99700 4.73400 20.89700
H  -0.48300 5.26700 21.67400
H  -3.03900 9.41600 22.98900
H  -3.73900 8.42900 21.73000
H  -3.47400 10.16600 20.30000
H  -1.70600 10.36500 20.72700
H  -2.84600 11.10700 21.69400
H  0.85800 13.03200 25.50800
H  0.21100 12.34300 24.00100
H  1.89100 11.91900 24.58800
H  -0.63700 11.13400 30.03500
H  2.77600 12.26300 32.91000
H  3.34600 10.98300 31.92800
H  2.18500 10.69700 33.22900
Mg 48.94000 24.87000 27.43700
C  49.97100 27.21000 29.83400
C  47.60700 22.99300 29.95200
C  48.07900 22.76600 25.09300
C  50.48800 26.86700 25.07200
N  48.82000 25.12900 29.52300
C  49.20700 26.22800 30.29500
C  48.52300 26.14800 31.70900
C  47.96900 24.66800 31.75000
C  48.12100 24.25800 30.27800
C  48.78500 23.71100 32.63600
C  47.57700 27.36400 32.04000
C  47.58200 27.80100 33.53200
H  46.31000 27.81200 34.35600
N  47.95700 23.00500 27.48000
C  47.49200 22.40300 28.64300
C  46.97900 21.10100 28.26400
C  47.02100 21.07500 26.80000
C  47.72200 22.27400 26.38100
C  46.55300 20.02900 29.31500
C  46.50500 19.95200 25.88100
O  46.67200 19.98100 24.66900
C  45.64900 18.79600 26.39200
N  49.53400 24.69600 25.43400
C  48.86900 23.79200 24.65400
C  49.45600 23.86100 23.23800
C  50.05200 25.34000 23.15300
C  50.05200 25.68500 24.66300
C  50.38700 22.68500 22.88500
C  49.15800 26.27100 22.30100
C  49.45900 26.09100 20.79300
N  50.16500 26.70800 27.39800
C  50.72700 27.36100 26.37100
C  51.31400 28.57900 26.89000
C  50.99600 28.58800 28.23200
C  50.33700 27.39300 28.49000
C  51.96200 29.73400 26.08000
C  51.22100 29.34200 29.43100
O  51.73300 30.44900 29.67100
C  50.47900 28.47000 30.59300
C  51.45000 28.18300 31.62500
O  52.60300 27.81200 31.52100
O  50.92100 28.61400 32.82100
C  51.84000 28.41900 33.90600
H  47.27300 22.32100 30.74600
H  47.82600 22.01200 24.34500
H  50.91300 27.41800 24.23000
H  49.35000 26.21500 32.41600
H  46.92600 24.60800 32.06100
H  49.25500 24.25800 33.45300
H  49.59700 23.13700 32.18900
H  48.05000 23.05100 33.09700
H  46.59900 26.95400 31.78700
H  47.79900 28.21200 31.39300
H  48.03600 28.79200 33.51600
H  48.10000 27.07500 34.15900
H  46.92800 20.33500 30.29200
H  46.94200 19.07500 28.96200
H  45.47200 19.99500 29.45200
H  45.13300 18.50000 25.47900
H  45.05600 19.07900 27.26200
H  46.47300 18.12400 26.63100
H  48.57800 23.70500 22.61000
H  51.07000 25.21100 22.78600
H  49.87600 22.02100 22.18900
H  50.77200 22.00500 23.64600
H  51.31000 23.06200 22.44300
H  49.25400 27.29200 22.67000
H  48.13600 25.92200 22.44800
H  49.84000 27.06500 20.48700
H  48.56500 25.94100 20.18700
H  50.10500 25.21800 20.70000
H  51.70000 29.77400 25.02200
H  53.03600 29.59600 26.20000
H  51.69600 30.64300 26.61900
H  49.69600 29.01700 31.11900
H  51.88600 27.36400 34.17600
H  51.31900 28.87800 34.74600
H  52.81500 28.87000 33.71900

