158

Mg 17.38500 -2.29500 28.11000
C  16.31200 -0.41400 30.80600
C  19.22900 -4.26700 30.23100
C  18.67200 -3.88800 25.41000
C  15.68800 -0.06100 25.99600
N  17.82800 -2.26000 30.27900
C  17.18600 -1.47800 31.18400
C  17.41200 -1.98700 32.61800
C  18.43500 -3.11100 32.40100
C  18.52600 -3.22000 30.85200
C  19.83700 -2.91800 33.09400
C  16.07900 -2.30000 33.34300
C  16.02300 -2.10200 34.89400
H  17.16100 -1.38600 35.61500
N  18.68100 -3.98100 27.83800
C  19.40200 -4.64500 28.83900
C  20.25900 -5.66500 28.29200
C  20.00000 -5.55100 26.90800
C  19.02700 -4.47000 26.66700
C  21.16000 -6.62500 29.06400
C  20.53300 -6.48000 25.83300
O  20.27900 -6.37600 24.63100
C  21.31800 -7.68900 26.22900
N  17.10800 -2.14600 26.04700
C  17.92800 -2.77800 25.07200
C  17.60900 -2.33500 23.67300
C  16.51000 -1.32400 23.92100
C  16.50200 -1.04800 25.43100
C  18.83500 -1.90000 22.92600
C  15.13000 -1.72900 23.16300
C  14.85900 -1.31500 21.71100
N  16.25800 -0.47400 28.29200
C  15.56500 0.19800 27.35000
C  14.66600 1.13900 27.99100
C  14.93900 0.97100 29.41600
C  15.92100 -0.08100 29.52300
C  13.87000 2.16500 27.35000
C  14.72100 1.47300 30.75100
O  13.98500 2.33800 31.16600
C  15.52500 0.52600 31.70500
C  16.46900 1.35100 32.57500
O  17.69300 1.47900 32.37000
O  15.76300 2.17400 33.42300
C  16.58400 3.00800 34.28800
H  19.90800 -4.81000 30.89100
H  19.06800 -4.24200 24.45600
H  15.17600 0.67700 25.37600
H  17.83100 -1.12600 33.13900
H  18.02100 -4.07400 32.69700
H  19.67700 -2.99200 34.17000
H  20.22600 -1.91300 32.93300
H  20.48600 -3.74900 32.81600
H  15.91900 -3.37700 33.29500
H  15.15200 -2.04000 32.83200
H  15.80900 -3.06500 35.35700
H  15.12400 -1.50300 35.04200
H  20.63800 -7.58200 29.09600
H  21.25500 -6.26200 30.08800
H  22.18100 -6.68600 28.68700
H  21.58400 -8.35100 25.40500
H  20.71200 -8.34300 26.85700
H  22.26200 -7.49100 26.73700
H  17.13800 -3.11500 23.07600
H  16.82700 -0.38500 23.46800
H  19.75000 -1.97100 23.51400
H  18.65000 -0.88800 22.56600
H  18.84000 -2.58300 22.07700
H  14.42300 -1.16700 23.77200
H  14.91700 -2.79600 23.23000
H  14.24300 -0.41600 21.69100
H  14.52900 -2.12000 21.05500
H  15.78300 -0.82500 21.40300
H  12.83100 1.83400 27.36600
H  14.13400 2.13500 26.29300
H  13.87100 3.15400 27.80700
H  14.84700 -0.01700 32.36400
H  17.64100 2.74000 34.29500
H  16.42500 2.77400 35.34000
H  16.50300 4.06900 34.05000
Mg 44.23400 4.53600 48.70800
C  41.96800 7.05300 47.82200
C  41.48300 2.24500 48.23400
C  46.35100 2.01600 48.76800
C  46.81800 6.83700 48.41500
N  41.92500 4.63400 48.00600
C  41.31400 5.80100 47.81500
C  39.84100 5.56700 47.40800
C  39.64200 4.07900 47.92400
C  41.12200 3.58900 48.12200
C  38.81800 3.89500 49.27000
C  39.65900 5.69200 45.87400
C  38.52500 6.58700 45.36300
H  37.80200 6.14900 44.14700
N  43.98800 2.41400 48.60100
C  42.78200 1.69600 48.44700
C  43.08600 0.26500 48.43900
C  44.52200 0.19000 48.63600
C  45.02600 1.55600 48.67400
C  41.93400 -0.71300 48.30400
C  45.22200 -1.11400 48.73400
O  44.69400 -2.22800 48.57200
C  46.67600 -1.09200 49.27200
N  46.29800 4.49800 48.59900
C  46.94900 3.25300 48.79900
C  48.43700 3.46300 49.07800
C  48.60900 5.01500 49.17000
C  47.21800 5.50200 48.70400
C  48.98400 2.76800 50.32400
C  49.82700 5.58100 48.41500
C  50.61000 6.68800 49.16600
N  44.40000 6.56400 48.27400
C  45.53000 7.41700 48.13800
C  45.20400 8.76200 47.88200
C  43.77800 8.69300 47.81500
C  43.39700 7.30800 47.93100
C  46.24000 9.88500 47.74600
C  42.53500 9.49800 47.68300
O  42.37800 10.71000 47.59800
C  41.38500 8.38300 47.55800
C  40.35100 8.70400 48.64000
O  40.34100 8.21500 49.77200
O  39.47600 9.63100 48.14800
C  38.58200 10.06500 49.17100
H  40.56700 1.65100 48.23800
H  47.07200 1.19700 48.79900
H  47.45400 7.72300 48.46300
H  39.12100 6.23300 47.88200
H  39.06600 3.43600 47.25800
H  39.48900 3.60300 50.07800
H  38.05400 3.12400 49.16400
H  38.31800 4.83300 49.51300
H  39.45200 4.70100 45.47000
H  40.56600 6.01800 45.36600
H  39.02700 7.54500 45.23100
H  37.67900 6.74800 46.03100
H  41.40200 -0.82900 49.24800
H  42.28500 -1.64700 47.86500
H  41.16100 -0.31100 47.64900
H  47.45100 -0.74200 48.59100
H  46.95600 -2.04700 49.71700
H  46.63500 -0.37700 50.09400
H  48.94900 3.18500 48.15600
H  48.71600 5.32000 50.21100
H  48.12500 2.26100 50.76300
H  49.48400 3.44500 51.01700
H  49.68100 2.00100 49.98600
H  49.36800 6.10800 47.57800
H  50.49000 4.82100 48.00000
H  49.99900 6.93000 50.03600
H  50.56200 7.59800 48.56900
H  51.64400 6.45500 49.41900
H  45.64400 10.79700 47.74500
H  46.74600 9.75300 46.79000
H  46.98800 9.87000 48.53900
H  40.95200 8.43500 46.55900
H  38.84600 9.83300 50.20300
H  37.54200 9.79400 48.98600
H  38.69500 11.13900 49.03000

