158

Mg 2.10500 -1.28000 44.05100
C  5.37200 -0.08600 43.63400
C  0.96300 1.49900 42.25300
C  -0.91800 -2.72200 43.52900
C  3.27200 -4.23700 45.14100
N  3.07200 0.40400 42.90200
C  4.40300 0.81900 43.03700
C  4.66100 2.14400 42.29600
C  3.24800 2.64500 42.01600
C  2.33400 1.43400 42.33100
C  2.90900 3.95900 42.84800
C  5.55100 2.00700 41.09000
C  5.31100 0.81000 40.10100
H  5.77900 0.88500 38.68200
N  0.20100 -0.63600 43.23800
C  -0.04400 0.54200 42.56500
C  -1.47300 0.69100 42.36700
C  -2.05300 -0.56000 42.66300
C  -0.90700 -1.37700 43.14900
C  -2.06000 2.00100 41.82700
C  -3.47000 -0.91200 42.40200
O  -4.21500 -0.00400 42.02500
C  -4.03500 -2.26600 42.56700
N  1.31000 -3.24000 44.25200
C  0.01900 -3.57100 44.09500
C  -0.38800 -4.92900 44.66100
C  0.92900 -5.34100 45.32100
C  1.94600 -4.22800 44.88800
C  -1.64800 -4.84900 45.61200
C  1.33500 -6.73000 44.93100
C  1.67000 -7.67100 46.11400
N  3.87400 -2.01500 44.51800
C  4.29100 -3.23100 45.02500
C  5.66800 -3.28700 45.29100
C  6.13400 -2.12000 44.69600
C  5.05500 -1.32000 44.30300
C  6.47500 -4.38300 45.98200
C  7.36100 -1.35500 44.35300
O  8.49600 -1.65000 44.49800
C  6.82900 0.03100 43.72200
C  7.23400 0.99300 44.67800
O  7.23800 0.88300 45.90600
O  7.36300 2.15900 43.95800
C  7.39800 3.46800 44.70700
H  0.62900 2.47800 41.90200
H  -1.86900 -3.21600 43.31800
H  3.61500 -5.17000 45.59300
H  5.10100 2.77100 43.07100
H  3.11800 2.95200 40.97800
H  3.79200 4.51600 43.16300
H  2.39000 3.74500 43.78200
H  2.21700 4.56200 42.26000
H  6.58500 2.01000 41.43500
H  5.27600 2.91500 40.55400
H  4.24500 0.61600 40.22000
H  5.92100 -0.03500 40.41700
H  -2.19400 1.98500 40.74500
H  -1.37000 2.84400 41.81000
H  -3.06200 2.23100 42.19100
H  -5.12000 -2.18800 42.50400
H  -3.77600 -2.51300 43.59600
H  -3.58400 -2.92800 41.82800
H  -0.48300 -5.62500 43.82800
H  0.97000 -5.35400 46.41000
H  -2.36600 -4.12200 45.23300
H  -1.33300 -4.49600 46.59400
H  -2.19800 -5.78600 45.71000
H  2.26200 -6.61500 44.36800
H  0.57500 -7.19300 44.30200
H  2.74900 -7.79100 46.22100
H  1.14000 -8.59300 45.87800
H  1.29100 -7.31100 47.07000
H  7.28800 -3.90400 46.52700
H  6.93000 -5.08000 45.27800
H  5.82000 -4.94600 46.64800
H  7.38700 0.16400 42.79500
H  7.97600 3.39200 45.62700
H  6.41600 3.91400 44.86900
H  7.90500 4.08200 43.96200
Mg 10.12400 48.12100 26.07100
C  8.21600 48.16100 29.01900
C  12.57500 49.59400 27.63300
C  11.74900 48.32400 23.10100
C  7.27900 47.10300 24.30800
N  10.29000 48.84400 28.06600
C  9.53000 48.61900 29.15700
C  10.17200 49.08700 30.43100
C  11.32800 49.97500 29.82100
C  11.42600 49.46200 28.43500
C  11.06700 51.52200 29.82200
C  10.76000 47.92800 31.37900
C  10.85400 48.24300 32.90000
H  10.32200 47.25400 33.90500
N  11.97300 48.83900 25.44500
C  12.86500 49.42400 26.25300
C  14.14900 49.66800 25.59900
C  13.88900 49.20800 24.23000
C  12.48800 48.81200 24.17300
C  15.35800 50.10700 26.23500
C  14.90400 49.13400 23.08000
O  14.59600 48.58700 22.04000
C  16.29100 49.59800 23.24000
N  9.57700 47.86100 23.92800
C  10.46000 47.87700 22.91800
C  9.86400 47.28100 21.57700
C  8.43100 46.88400 22.07800
C  8.43700 47.26700 23.52100
C  9.96200 48.12000 20.27300
C  8.36900 45.34000 21.88300
C  9.18000 44.41600 22.80200
N  8.19300 47.73200 26.47300
C  7.13200 47.28000 25.69600
C  5.92600 47.10300 26.50200
C  6.34500 47.40300 27.80900
C  7.65900 47.73300 27.79700
C  4.56900 46.87300 26.07500
C  5.92700 47.37600 29.14000
O  4.83000 47.09400 29.68300
C  7.12800 47.73500 30.03600
C  7.39700 46.48900 30.88900
O  8.41900 45.79400 30.77800
O  6.45800 46.30200 31.82400
C  6.65900 45.12900 32.73800
H  13.32100 50.07600 28.26900
H  12.19200 48.44600 22.11100
H  6.39500 46.81900 23.73300
H  9.50100 49.59300 31.12500
H  12.21000 49.67700 30.38800
H  11.06900 51.85700 28.78500
H  11.86700 52.08300 30.30600
H  10.13500 51.91300 30.23200
H  11.81200 47.83800 31.10600
H  10.31700 46.96300 31.13200
H  10.38700 49.22500 32.96400
H  11.89000 48.38800 33.20800
H  15.18500 49.98300 27.30400
H  15.55000 51.16400 26.05400
H  16.19000 49.49100 25.89300
H  16.94800 49.61100 22.37100
H  16.68500 48.77800 23.84000
H  16.24100 50.61000 23.64200
H  10.44200 46.37700 21.38700
H  7.68000 47.42200 21.49900
H  8.97600 48.34700 19.86800
H  10.54300 47.51700 19.57500
H  10.43800 49.08600 20.44100
H  8.75800 45.18600 20.87600
H  7.33800 45.01800 22.03200
H  8.42600 43.76200 23.24000
H  9.83800 44.77300 23.59500
H  9.80700 43.76900 22.18800
H  4.03200 47.80900 25.91900
H  3.99800 46.19800 26.71200
H  4.65700 46.30600 25.14800
H  7.05900 48.61200 30.67900
H  5.92400 44.36900 32.47000
H  6.34400 45.49100 33.71600
H  7.68400 44.76000 32.72200

