158

Mg 47.62500 25.98600 27.63200
C  48.55400 28.22900 30.18800
C  46.36300 23.91600 30.04800
C  47.19900 23.68000 25.27400
C  49.49600 28.05900 25.41600
N  47.59100 26.00400 29.81900
C  47.87000 27.11800 30.69200
C  47.36600 26.89200 32.10900
C  47.00200 25.33100 32.06700
C  46.86700 25.11400 30.54200
C  47.94600 24.33700 32.81800
C  46.17200 27.90900 32.54000
C  46.36700 28.65400 33.83300
H  45.36900 28.41500 34.97600
N  46.77200 24.04900 27.60700
C  46.26900 23.37500 28.71400
C  45.64700 22.11200 28.23600
C  45.86600 22.08600 26.83600
C  46.66300 23.29800 26.49100
C  44.87100 21.08100 29.10900
C  45.47500 21.02400 25.86400
O  45.83800 21.06800 24.67200
C  44.52400 19.90100 26.32500
N  48.58600 25.74400 25.70900
C  48.06800 24.70700 24.92600
C  48.47300 24.98400 23.43200
C  48.99800 26.48500 23.41500
C  49.02400 26.82100 24.96000
C  49.42800 23.96100 22.78100
C  48.07300 27.44900 22.54100
C  48.65400 27.82000 21.12300
N  48.72900 27.80400 27.70500
C  49.40000 28.51100 26.73300
C  49.98300 29.69800 27.28900
C  49.65400 29.67400 28.68400
C  48.90700 28.50600 28.88600
C  50.71200 30.78200 26.62400
C  49.74400 30.36700 30.00500
O  50.24400 31.46000 30.26400
C  48.96100 29.51500 30.97200
C  49.86700 29.15100 32.17700
O  50.89200 28.42600 32.09300
O  49.55700 29.86000 33.26900
C  50.32300 29.50100 34.47700
H  45.93800 23.28400 30.83000
H  47.03800 23.05000 24.39700
H  50.04600 28.73900 24.76200
H  48.16600 26.94900 32.84600
H  46.05100 25.06000 32.52600
H  47.54300 23.67900 33.58800
H  48.79400 24.78300 33.33800
H  48.33000 23.68200 32.03700
H  45.19300 27.43000 32.54700
H  46.03600 28.67200 31.77300
H  46.40600 29.71200 33.57200
H  47.40000 28.44200 34.10800
H  43.88000 20.95300 28.67300
H  44.75000 21.39100 30.14700
H  45.35300 20.10800 29.20100
H  45.01300 19.28500 27.08000
H  44.20500 19.23000 25.52800
H  43.67200 20.39200 26.79600
H  47.55100 25.03800 22.85400
H  50.02400 26.53000 23.05100
H  48.95100 23.32300 22.03700
H  49.75500 23.25300 23.54300
H  50.29200 24.41300 22.29600
H  48.00300 28.37300 23.11600
H  47.07500 27.02700 22.42200
H  49.39400 27.06300 20.86200
H  49.20300 28.76000 21.07500
H  47.85200 27.84100 20.38600
H  51.55900 31.15800 27.19800
H  50.17900 31.71100 26.42200
H  51.10700 30.37400 25.69300
H  48.08600 30.08400 31.28700
H  49.72900 28.83000 35.09800
H  50.57500 30.43100 34.98600
H  51.29700 29.01500 34.41500
Mg 10.19100 47.51400 25.83000
C  8.30600 47.33600 28.63900
C  12.75500 48.96800 27.53700
C  11.94900 47.58700 22.93100
C  7.29400 46.69400 23.88900
N  10.61600 47.76200 27.93900
C  9.62400 47.68300 28.90800
C  10.20300 48.23400 30.24900
C  11.42300 49.10300 29.71500
C  11.62100 48.65800 28.30500
C  11.31600 50.66300 29.68100
C  10.64800 47.14800 31.26800
C  9.96900 47.44100 32.63900
H  9.78600 46.21200 33.55700
N  12.10500 48.16700 25.26500
C  13.03800 48.66700 26.12700
C  14.27300 48.89100 25.48300
C  14.05200 48.46700 24.09900
C  12.66400 48.04600 24.01900
C  15.60800 49.22100 26.22800
C  14.99400 48.34900 22.96200
O  14.67800 48.01000 21.84500
C  16.41500 48.74800 23.18200
N  9.70800 47.29500 23.80000
C  10.65000 47.23100 22.84500
C  10.09000 46.73900 21.53300
C  8.68500 46.32800 21.88100
C  8.52200 46.81200 23.29100
C  10.09800 47.71200 20.37700
C  8.37800 44.76300 21.68200
C  8.77400 43.76100 22.80200
N  8.15800 47.02500 26.14900
C  7.11200 46.86400 25.25400
C  5.89000 46.94000 26.05200
C  6.34600 47.00300 27.37400
C  7.69800 47.07400 27.36100
C  4.52600 46.69000 25.47300
C  5.86600 46.88700 28.71400
O  4.77200 46.62500 29.11000
C  7.14800 47.09500 29.63600
C  7.18700 45.82400 30.48300
O  7.70600 44.75300 30.23600
O  6.42400 46.02200 31.64100
C  6.14200 44.84700 32.54100
H  13.52400 49.53500 28.06400
H  12.55400 47.35600 22.05200
H  6.48300 46.42600 23.20900
H  9.43700 48.93200 30.58700
H  12.33800 48.75000 30.19200
H  10.44000 51.04900 30.20300
H  11.31200 51.04500 28.66000
H  12.19900 51.10200 30.14500
H  11.72200 47.32800 31.29200
H  10.47100 46.14600 30.87700
H  8.94300 47.78800 32.51300
H  10.54100 48.18800 33.19000
H  15.49500 49.11400 27.30700
H  16.20600 50.09400 25.96600
H  16.32100 48.40400 26.11200
H  16.95700 48.04300 23.81200
H  16.42400 49.69800 23.71800
H  16.92800 48.82200 22.22300
H  10.71400 45.86800 21.33300
H  7.94200 46.88100 21.30500
H  10.41700 48.74300 20.52700
H  9.24500 47.52200 19.72600
H  10.85700 47.34900 19.68500
H  9.02400 44.35800 20.90300
H  7.35900 44.73600 21.29400
H  8.73600 44.17800 23.80800
H  9.78000 43.38600 22.61300
H  8.24400 42.80800 22.78600
H  4.49900 47.44700 24.69000
H  3.69700 46.72700 26.17900
H  4.55900 45.68600 25.05200
H  6.90000 47.89600 30.33200
H  7.03600 44.72400 33.15200
H  5.94900 43.94200 31.96500
H  5.22500 45.04900 33.09600

