158

Mg 26.63700 0.67800 29.39600
C  28.56100 0.33800 32.17400
C  23.78300 1.17800 31.38800
C  24.66600 0.63300 26.59100
C  29.48100 -0.09500 27.31000
N  26.25700 0.68100 31.55000
C  27.22200 0.69300 32.52900
C  26.61500 0.89400 33.92000
C  25.08800 1.01000 33.60200
C  25.00900 1.02300 32.09300
C  24.25100 -0.02700 34.27600
C  27.19600 2.25200 34.53500
C  28.08700 2.01400 35.74900
H  27.81600 2.87900 37.03000
N  24.58000 0.88900 28.99400
C  23.61900 1.10900 29.96800
C  22.30600 1.30900 29.28300
C  22.53600 1.04100 27.88200
C  23.96200 0.86800 27.79900
C  20.99100 1.54500 30.00200
C  21.52900 1.07800 26.70100
O  21.89300 0.93900 25.52200
C  20.07400 1.29200 26.94500
N  27.03700 0.23700 27.31900
C  25.99800 0.33900 26.40700
C  26.55200 0.35900 24.92800
C  28.17000 0.23100 25.13400
C  28.23100 0.10400 26.70600
C  25.99700 -0.68500 24.10500
C  28.97800 1.56500 24.72500
C  30.03600 1.28600 23.68600
N  28.54800 0.13500 29.64500
C  29.59100 -0.09100 28.70400
C  30.79200 -0.33800 29.50900
C  30.43200 -0.18200 30.85400
C  29.07300 0.10800 30.87000
C  32.14800 -0.69000 28.93900
C  30.91400 -0.34700 32.19500
O  31.91600 -0.86000 32.70800
C  29.71000 0.10400 33.11200
C  29.40000 -0.99600 34.11400
O  28.63500 -1.97600 33.91800
O  30.07400 -0.74700 35.27800
C  30.09000 -1.81700 36.25800
H  22.81700 1.32800 31.87600
H  24.23100 0.69500 25.59200
H  30.42000 -0.34200 26.81100
H  26.82600 0.06100 34.59000
H  24.74000 1.94400 34.04300
H  23.55900 0.42600 34.98500
H  24.94200 -0.73500 34.73400
H  23.64500 -0.53900 33.52800
H  26.47500 2.97100 34.92500
H  27.81400 2.78100 33.80900
H  29.10600 2.31200 35.49900
H  28.05400 0.96400 36.03800
H  20.39900 0.65300 29.79800
H  20.50800 2.39200 29.51600
H  21.02000 1.68600 31.08200
H  19.48700 1.11600 26.04300
H  20.02100 2.36700 27.12200
H  19.73900 0.62200 27.73700
H  26.34400 1.25800 24.34900
H  28.49400 -0.64700 24.57600
H  26.66800 -1.14900 23.38300
H  25.37400 -0.19900 23.35300
H  25.39600 -1.45200 24.59300
H  29.56200 2.03700 25.51600
H  28.32200 2.34800 24.34500
H  31.05000 1.32600 24.08200
H  30.05800 2.05900 22.91700
H  29.86700 0.32100 23.20700
H  32.93700 -0.46700 29.65900
H  32.36400 -0.15900 28.01200
H  32.12400 -1.77200 28.80900
H  29.91200 1.06200 33.58900
H  30.12500 -2.85200 35.91700
H  29.25100 -1.63800 36.93000
H  31.02000 -1.76100 36.82300
Mg 16.72500 52.60800 25.30700
C  18.49300 51.47100 28.10600
C  14.20800 53.72400 27.32100
C  15.25000 53.87500 22.58300
C  19.27300 51.27900 23.31300
N  16.45300 52.57500 27.43000
C  17.28800 52.15300 28.39400
C  16.87800 52.58500 29.78400
C  15.30900 52.82700 29.45800
C  15.29500 53.09800 27.98300
C  14.38200 51.65400 29.79200
C  17.71100 53.79400 30.25200
C  17.71400 53.97300 31.73900
H  16.75900 53.15300 32.56500
N  14.98300 53.63800 24.93900
C  14.05300 53.98900 25.91200
C  12.95900 54.68600 25.22200
C  13.32000 54.77600 23.88600
C  14.56100 54.14200 23.79300
C  11.74100 55.17700 25.94800
C  12.59100 55.40200 22.65200
O  13.06900 55.51100 21.53800
C  11.27500 56.01100 22.82100
N  17.19200 52.44500 23.20400
C  16.44700 53.18600 22.29500
C  17.24000 53.33900 20.97200
C  18.63700 52.73600 21.27500
C  18.33100 52.00100 22.62700
C  16.53200 52.52800 19.87600
C  19.82800 53.70800 21.46100
C  21.14800 53.33300 20.69500
N  18.50200 51.42300 25.57900
C  19.43000 50.96100 24.67600
C  20.53500 50.28200 25.41400
C  20.12600 50.44900 26.76600
C  18.88300 51.10000 26.77100
C  21.85800 49.67200 24.80500
C  20.58500 50.15600 28.10900
O  21.68100 49.69300 28.42000
C  19.61800 50.94300 28.98100
C  19.14300 50.00600 30.02200
O  18.38800 49.04200 29.90300
O  19.72300 50.33900 31.22000
C  19.39300 49.41700 32.32900
H  13.42000 54.05800 28.00000
H  14.79500 54.33100 21.70100
H  20.12800 50.93000 22.73100
H  16.96400 51.75800 30.48900
H  14.92500 53.68100 30.01600
H  13.70900 51.44200 28.96100
H  13.82800 51.91300 30.69400
H  14.88500 50.72400 30.05700
H  17.20100 54.64200 29.79500
H  18.70100 53.63600 29.82600
H  17.36900 54.99600 31.89100
H  18.75400 53.84200 32.03700
H  10.87400 54.63200 25.57600
H  11.61200 56.25800 25.88700
H  11.59500 54.96300 27.00600
H  11.36000 56.73100 23.63400
H  10.54700 55.29300 23.19700
H  10.86800 56.55700 21.97000
H  17.35400 54.40100 20.75400
H  18.98600 51.98800 20.56400
H  15.50800 52.20900 20.07200
H  17.03000 51.56800 19.74200
H  16.61400 53.05500 18.92600
H  20.00300 53.89500 22.52100
H  19.62700 54.67700 21.00400
H  21.41700 54.22300 20.12600
H  21.10600 52.64900 19.84800
H  22.02300 53.03700 21.27300
H  22.61400 49.59000 25.58600
H  22.27000 50.20300 23.94700
H  21.60100 48.66400 24.47800
H  20.18900 51.69800 29.52200
H  20.13400 48.73000 32.73700
H  18.45700 48.87300 32.20200
H  19.23800 50.00000 33.23700

