158

Mg 42.91000 4.24800 46.45600
C  40.90800 7.15900 46.34000
C  39.81600 2.37100 46.45100
C  44.52800 1.54700 45.62700
C  45.63400 6.21300 46.18000
N  40.52000 4.72600 46.58100
C  40.03300 6.00200 46.42200
C  38.42200 5.99400 46.60300
C  38.23900 4.39100 47.01400
C  39.58800 3.75700 46.65800
C  37.89000 4.13600 48.45500
C  37.59700 6.39700 45.31000
C  37.93200 5.63000 44.08600
H  38.51100 6.36700 42.93800
N  42.29100 2.30700 46.01500
C  41.03600 1.75600 46.11600
C  41.11100 0.40000 45.61600
C  42.45400 0.18300 45.19300
C  43.14000 1.38200 45.59500
C  39.86800 -0.49500 45.33700
C  42.97100 -0.98100 44.35600
O  42.28000 -2.01800 44.19800
C  44.35500 -1.06100 43.77000
N  44.83700 3.98000 45.68000
C  45.37100 2.67300 45.77300
C  46.94000 2.61500 45.82000
C  47.17500 4.17800 46.08700
C  45.80300 4.86300 45.96800
C  47.56600 1.60000 46.87500
C  48.27300 4.87000 45.17800
C  49.14800 5.87700 45.89700
N  43.32500 6.30400 46.31100
C  44.48100 6.94900 46.26600
C  44.25400 8.33700 46.50500
C  42.86600 8.53200 46.37600
C  42.35500 7.17000 46.29200
C  45.23400 9.47800 46.62400
C  41.78600 9.47500 46.31100
O  41.80700 10.71700 46.40000
C  40.51600 8.66200 46.32200
C  39.64000 9.04200 47.46000
O  39.89000 8.88000 48.60800
O  38.42400 9.50900 46.98600
C  37.33700 9.74600 47.99600
H  38.88800 1.80200 46.37700
H  45.09900 0.64900 45.38100
H  46.50900 6.86600 46.16000
H  38.09500 6.66700 47.39500
H  37.46600 3.99300 46.35600
H  38.69600 3.74400 49.07500
H  37.03400 3.46500 48.53200
H  37.54400 5.08700 48.85800
H  37.70300 7.46700 45.12900
H  36.53500 6.23400 45.49400
H  37.08000 5.01700 43.79400
H  38.66000 4.83300 44.23600
H  39.88400 -0.75500 44.27800
H  38.95800 -0.03600 45.72300
H  40.05200 -1.46100 45.80600
H  45.11000 -1.25600 44.53000
H  44.60500 -0.10500 43.31100
H  44.43400 -1.80600 42.97800
H  47.26000 2.29500 44.82900
H  47.43000 4.36800 47.13000
H  46.79200 0.90800 47.20800
H  47.76700 2.20300 47.76100
H  48.43500 1.15700 46.38700
H  47.73200 5.40400 44.39800
H  48.87900 4.14600 44.63300
H  50.17400 5.53200 45.76900
H  49.05200 5.97100 46.97900
H  49.03800 6.91800 45.59300
H  45.78300 9.39300 45.68600
H  46.01100 9.29700 47.36700
H  44.70800 10.42800 46.71300
H  40.05300 8.84800 45.35300
H  36.74400 10.57400 47.60700
H  37.73700 10.27600 48.86000
H  36.89700 8.78200 48.24800
Mg -6.52100 24.94900 25.91800
C  -4.68000 26.06500 28.91100
C  -8.21200 22.90400 28.03100
C  -7.61200 23.40200 23.21500
C  -4.00400 26.63900 24.01000
N  -6.48700 24.66100 28.14900
C  -5.74600 25.21700 29.13800
C  -6.21800 24.80600 30.58400
C  -7.04100 23.53400 30.21500
C  -7.29900 23.74200 28.70100
C  -6.25900 22.15300 30.42700
C  -7.01600 25.99300 31.23700
C  -6.90900 26.10100 32.77000
H  -6.51600 24.80600 33.44600
N  -7.97500 23.55100 25.60200
C  -8.53100 22.81700 26.57700
C  -9.47000 21.88200 25.97100
C  -9.34200 22.03200 24.54300
C  -8.34600 23.11200 24.37300
C  -10.40400 21.03600 26.82700
C  -10.03200 21.20100 23.42100
O  -9.80500 21.35000 22.25000
C  -10.97000 20.15400 23.81600
N  -5.88900 24.95800 23.94100
C  -6.51700 24.26100 22.99700
C  -5.82000 24.31200 21.64300
C  -5.01300 25.62100 21.84200
C  -4.92900 25.80200 23.35100
C  -4.88600 23.14600 21.38400
C  -5.56400 26.88100 21.11300
C  -4.73000 27.55700 20.05600
N  -4.70800 26.06500 26.32500
C  -3.87500 26.74400 25.42200
C  -2.86800 27.54700 26.16800
C  -3.08500 27.16400 27.51100
C  -4.19900 26.31200 27.59400
C  -1.83000 28.42700 25.62800
C  -2.67300 27.48100 28.92000
O  -1.73600 28.17600 29.35300
C  -3.67800 26.77700 29.87400
C  -2.91200 25.95100 30.75400
O  -2.54400 24.80200 30.52200
O  -2.55800 26.70600 31.88400
C  -1.77700 26.08800 32.93600
H  -8.81200 22.25400 28.67100
H  -7.89300 22.81700 22.33700
H  -3.34800 27.19600 23.33800
H  -5.33200 24.51400 31.14800
H  -7.97900 23.57800 30.76900
H  -5.27000 22.44700 30.77700
H  -6.13700 21.55100 29.52700
H  -6.73700 21.51300 31.16900
H  -8.06500 25.84000 30.98600
H  -6.60300 26.93000 30.86300
H  -7.85700 26.54700 33.07000
H  -6.08500 26.81100 32.69900
H  -10.76100 21.62400 27.67200
H  -9.87100 20.14500 27.16100
H  -11.29400 20.57400 26.40000
H  -10.30100 19.42800 24.27800
H  -11.40700 19.65500 22.95200
H  -11.76700 20.62200 24.39400
H  -6.56600 24.49400 20.86900
H  -4.01900 25.47800 21.41900
H  -5.01100 22.36900 22.13900
H  -3.84500 23.43600 21.24500
H  -5.17000 22.64300 20.45900
H  -5.69300 27.68400 21.83800
H  -6.51200 26.65600 20.62400
H  -4.88300 28.60800 20.30100
H  -5.08300 27.36400 19.04300
H  -3.70000 27.25400 20.24100
H  -0.89900 28.42600 26.19600
H  -2.24000 29.43100 25.52300
H  -1.60000 28.07000 24.62400
H  -4.26900 27.54600 30.37100
H  -1.61200 26.82000 33.72700
H  -0.82900 25.73200 32.53300
H  -2.35200 25.25000 33.33000

