158

Mg 10.36200 46.41000 25.40800
C  8.23300 46.80800 28.11800
C  12.69400 48.37300 27.09700
C  12.24700 46.18000 22.71000
C  7.37900 45.67000 23.48100
N  10.39400 47.57100 27.27500
C  9.50800 47.37800 28.33200
C  10.01100 48.03900 29.64400
C  11.19200 48.93700 29.06200
C  11.46100 48.23200 27.75000
C  10.85700 50.38200 28.74200
C  10.48300 46.99700 30.62900
C  9.93900 47.14800 32.12500
H  9.93000 45.90000 33.10400
N  12.31300 47.05000 25.07000
C  13.10400 47.84400 25.84800
C  14.43700 48.01900 25.07100
C  14.27600 47.36900 23.81300
C  12.89900 46.86900 23.80100
C  15.58700 48.79500 25.67500
C  15.25700 47.21200 22.70500
O  15.06700 46.53100 21.66800
C  16.60800 47.86500 22.81900
N  9.92000 45.97400 23.41700
C  10.88800 45.81600 22.49200
C  10.24300 45.34300 21.06300
C  8.71200 45.21700 21.34600
C  8.64100 45.67300 22.86100
C  10.72600 46.22600 19.94800
C  8.17800 43.79200 21.02900
C  6.79300 43.60800 20.30300
N  8.23900 46.16300 25.67500
C  7.18400 45.84200 24.87800
C  5.96400 45.70500 25.60900
C  6.35500 46.05900 26.86400
C  7.73200 46.30500 26.89900
C  4.57700 45.43200 25.07100
C  5.85200 46.27500 28.23500
O  4.72400 46.20800 28.66800
C  7.03400 46.76300 29.08000
C  7.22600 45.93300 30.16700
O  7.88600 44.88800 30.14800
O  6.43500 46.19900 31.29800
C  6.41600 45.09600 32.30600
H  13.26400 49.14100 27.62500
H  12.90100 45.89200 21.88400
H  6.59200 45.23100 22.86500
H  9.20200 48.61800 30.08900
H  12.00000 48.93200 29.79400
H  9.76800 50.36000 28.69700
H  11.25100 50.49400 27.73200
H  11.32100 51.14100 29.37300
H  11.57000 47.05100 30.57900
H  10.17200 46.00800 30.29000
H  8.98200 47.66800 32.14000
H  10.67400 47.89100 32.43600
H  15.29200 49.33300 26.57500
H  15.90800 49.47600 24.88700
H  16.46200 48.20000 25.94000
H  17.09700 47.48800 23.71700
H  16.34900 48.91700 22.93800
H  17.19000 47.73700 21.90700
H  10.78100 44.42000 20.84800
H  8.20700 45.96300 20.73200
H  11.00300 47.23800 20.24300
H  10.06900 46.27000 19.07900
H  11.63200 45.82700 19.49300
H  8.07700 43.28300 21.98800
H  8.90400 43.40400 20.31400
H  6.88600 43.72700 19.22400
H  6.16800 44.43700 20.63400
H  6.35000 42.65400 20.58800
H  3.95300 46.31700 24.95000
H  4.09400 44.72500 25.74600
H  4.71300 44.86600 24.15000
H  6.76100 47.71100 29.54400
H  5.42000 44.65400 32.31300
H  6.44400 45.57100 33.28700
H  7.07200 44.23000 32.21900
Mg -11.04700 37.89800 41.99800
C  -9.48400 34.86000 40.94600
C  -8.81700 39.63400 40.18000
C  -12.99500 40.48300 42.62000
C  -13.73800 35.58500 43.13000
N  -9.39700 37.27800 40.68400
C  -8.95400 35.98000 40.36500
C  -7.96300 36.06600 39.17600
C  -7.57600 37.58200 39.25000
C  -8.70300 38.25300 40.00200
C  -6.15400 37.98100 39.80100
C  -8.55000 35.57300 37.85800
C  -7.67400 34.68600 36.96100
H  -6.69600 35.34600 36.07700
N  -10.81300 39.85000 41.67500
C  -9.78000 40.37000 40.91300
C  -9.86000 41.75300 40.99300
C  -11.11200 42.09900 41.74900
C  -11.68900 40.82200 42.10700
C  -8.88200 42.75500 40.36400
C  -11.69700 43.48400 42.04100
O  -11.20600 44.52000 41.57500
C  -12.81800 43.64600 43.02500
N  -13.00200 37.96700 42.85200
C  -13.58100 39.21200 42.98000
C  -15.06500 39.15000 43.47700
C  -15.24500 37.60500 43.71300
C  -13.89800 37.00000 43.16200
C  -15.33400 40.00600 44.69400
C  -16.44700 36.94100 42.90300
C  -17.32900 35.89100 43.65500
N  -11.54900 35.66400 42.19100
C  -12.62000 34.94900 42.60700
C  -12.44600 33.55200 42.30800
C  -11.18600 33.40700 41.78000
C  -10.67200 34.77300 41.68500
C  -13.29000 32.43100 42.75800
C  -10.15500 32.48100 41.21700
O  -10.08400 31.28300 41.10600
C  -9.02500 33.44900 40.71300
C  -7.77400 33.17000 41.44000
O  -6.66600 33.28600 40.90400
O  -8.00000 32.98200 42.78900
C  -6.76700 33.27500 43.58600
H  -8.03500 40.08700 39.56700
H  -13.82300 41.19400 42.64800
H  -14.56400 34.92100 43.39200
H  -7.10900 35.42600 39.40100
H  -7.54700 38.02600 38.25500
H  -5.56500 38.55100 39.08300
H  -5.55500 37.11800 40.09100
H  -6.32000 38.58900 40.69100
H  -8.77600 36.41000 37.19700
H  -9.53900 35.12200 37.94300
H  -8.30100 33.92800 36.49000
H  -7.05700 34.00700 37.55000
H  -9.29900 43.10000 39.41700
H  -7.97500 42.19700 40.13200
H  -8.80100 43.49200 41.16300
H  -12.82900 44.50200 43.69800
H  -12.69600 42.85000 43.76000
H  -13.75200 43.61900 42.46400
H  -15.70500 39.45300 42.64800
H  -15.35100 37.54600 44.79700
H  -16.31100 40.42800 44.45800
H  -14.68300 40.87000 44.82500
H  -15.44300 39.53500 45.67100
H  -16.07500 36.51800 41.97000
H  -17.08700 37.78000 42.62800
H  -17.51500 34.98300 43.08200
H  -18.33200 36.31300 43.72800
H  -17.00900 35.58100 44.64900
H  -13.43000 31.72300 41.94100
H  -14.21800 32.84600 43.15000
H  -12.74400 31.88900 43.52900
H  -8.88000 33.17500 39.66800
H  -6.07200 32.43600 43.54200
H  -7.19000 33.58500 44.54200
H  -6.29200 34.19500 43.24700

