158

Mg 17.19800 -2.42900 28.14300
C  16.39300 -0.19400 30.80600
C  19.16800 -4.08900 30.29000
C  18.59000 -3.86000 25.59900
C  15.69200 0.04400 26.02100
N  17.87900 -1.98600 30.28300
C  17.21400 -1.25300 31.24700
C  17.52500 -1.70500 32.64900
C  18.64400 -2.76300 32.36700
C  18.52100 -3.00600 30.85400
C  20.04800 -2.32900 32.81900
C  16.30300 -2.22000 33.48400
C  16.24200 -1.67200 34.92200
H  17.49200 -1.03900 35.58200
N  18.56800 -3.97500 27.97000
C  19.18100 -4.54500 28.96700
C  19.82600 -5.77200 28.48700
C  19.75700 -5.69000 27.06600
C  18.94600 -4.48000 26.83800
C  20.42300 -6.87000 29.35600
C  20.19800 -6.64000 25.98200
O  19.87700 -6.46600 24.81000
C  20.85600 -8.03400 26.33000
N  17.10800 -1.98500 26.14600
C  17.83400 -2.70400 25.26000
C  17.64200 -2.23800 23.74200
C  16.68100 -1.08400 23.96000
C  16.39800 -1.00600 25.44100
C  19.04700 -1.69300 23.13100
C  15.39200 -1.05200 23.08100
C  14.12500 -1.56900 23.63300
N  16.11700 -0.51400 28.31800
C  15.46000 0.29400 27.38400
C  14.85100 1.36200 28.03100
C  15.19700 1.23000 29.36500
C  15.99600 0.09500 29.48300
C  13.95000 2.52100 27.45500
C  15.05400 1.84000 30.63400
O  14.44800 2.90200 31.01100
C  15.67300 0.85000 31.65800
C  16.59500 1.69100 32.53700
O  17.69000 2.22900 32.31800
O  15.88100 1.98500 33.63600
C  16.30300 3.08600 34.44800
H  19.76200 -4.70100 30.97200
H  19.00300 -4.29100 24.68400
H  15.23600 0.76900 25.34400
H  17.78900 -0.79800 33.19300
H  18.43300 -3.69600 32.88900
H  20.20000 -1.30000 33.14400
H  20.70400 -2.57600 31.98400
H  20.40300 -3.01100 33.59200
H  16.27400 -3.30300 33.60600
H  15.44000 -2.03500 32.84400
H  16.00800 -2.44100 35.65800
H  15.43100 -0.94900 34.84800
H  20.56700 -6.59000 30.39900
H  21.40100 -7.06400 28.91300
H  19.71000 -7.69200 29.28500
H  20.17000 -8.62300 26.93900
H  21.84800 -7.86000 26.74800
H  20.98200 -8.61100 25.41400
H  17.15700 -3.03800 23.18300
H  17.19400 -0.13800 23.78400
H  18.92100 -0.76700 22.57100
H  19.36400 -2.35100 22.32200
H  19.93300 -1.62800 23.76200
H  15.54300 -1.72500 22.23700
H  15.18600 -0.07600 22.64100
H  14.34900 -2.45800 24.22300
H  13.39200 -1.81800 22.86600
H  13.70300 -0.91600 24.39800
H  12.93200 2.28400 27.14500
H  14.53300 3.02400 26.68400
H  13.86100 3.32200 28.18900
H  14.90700 0.40600 32.29400
H  15.99200 4.03500 34.01200
H  17.39300 3.09200 34.43800
H  15.80500 2.95300 35.40800
Mg 48.06100 15.06300 27.78100
C  46.08300 15.18400 30.69100
C  50.27300 17.31500 29.39400
C  49.95500 15.16700 25.05300
C  45.62000 13.14000 26.20800
N  48.20200 16.14100 29.79400
C  47.25100 15.94400 30.85000
C  47.84800 16.65300 32.12600
C  48.97600 17.57900 31.59800
C  49.17600 17.00700 30.19900
C  48.61300 19.11500 31.50200
C  48.31500 15.54200 33.22600
C  48.01300 15.88700 34.66800
H  49.03900 15.40000 35.70100
N  49.86200 16.17300 27.22100
C  50.61900 16.99800 28.08100
C  51.86800 17.44800 27.36300
C  51.77400 16.72700 26.07600
C  50.45700 16.07100 26.01600
C  52.86500 18.29700 28.01900
C  52.80900 16.69700 25.03900
O  52.64000 16.12000 23.95200
C  54.14500 17.35100 25.31400
N  47.77000 14.48100 25.92100
C  48.74000 14.51600 24.95400
C  48.50500 13.45300 23.81700
C  47.13800 12.79100 24.19800
C  46.83800 13.46300 25.54800
C  48.53100 14.09600 22.34700
C  47.19300 11.27700 24.43000
C  48.07800 10.47600 23.35400
N  46.15100 14.39600 28.22400
C  45.26700 13.60300 27.52600
C  44.08000 13.39200 28.28000
C  44.35800 13.98900 29.49000
C  45.66300 14.54900 29.48400
C  42.82600 12.70000 27.79300
C  43.77100 14.15100 30.81400
O  42.74000 13.77100 31.30200
C  44.92000 14.93800 31.69500
C  44.33900 16.18100 32.29300
O  43.84200 17.12200 31.67200
O  44.40800 16.04800 33.66200
C  44.07800 17.23000 34.46000
H  50.92200 18.08100 29.82400
H  50.61800 15.05000 24.19300
H  45.13400 12.37600 25.59700
H  47.11100 17.29200 32.61300
H  49.86800 17.47600 32.21600
H  48.64600 19.46200 30.47000
H  49.37100 19.78300 31.91100
H  47.74200 19.40000 32.09300
H  49.37700 15.40500 33.02200
H  47.87800 14.58800 32.93500
H  47.09000 15.43000 35.02400
H  47.85200 16.94900 34.84800
H  53.62500 17.78700 28.61100
H  52.36100 18.94600 28.73500
H  53.44800 18.96100 27.38100
H  54.89900 16.99200 24.61400
H  54.45700 17.05900 26.31700
H  54.08800 18.41900 25.10100
H  49.29800 12.71300 23.92400
H  46.46600 13.05700 23.38300
H  48.72500 13.29500 21.63400
H  49.33700 14.82100 22.23200
H  47.59000 14.62000 22.18000
H  46.19000 10.85600 24.35900
H  47.46800 10.88800 25.41000
H  48.57800 11.08900 22.60500
H  47.37200 9.84500 22.81400
H  48.78000 9.80700 23.85100
H  42.13300 12.43400 28.59200
H  43.11400 11.85700 27.16600
H  42.35000 13.41500 27.12200
H  45.08200 14.21500 32.49500
H  44.34200 18.18700 34.01000
H  44.63500 17.12900 35.39200
H  42.99700 17.12600 34.55700

