158

Mg 1.63900 -1.57100 43.42500
C  5.01800 -0.67600 43.05700
C  0.85700 1.31200 41.80900
C  -1.49300 -2.76100 43.15900
C  2.65300 -4.62700 44.66100
N  2.87300 0.01500 42.33500
C  4.20400 0.23900 42.39900
C  4.64100 1.60700 41.82600
C  3.26200 2.27100 41.58000
C  2.23400 1.15100 41.91800
C  2.99200 3.45400 42.51900
C  5.51400 1.49900 40.55700
C  6.44600 2.70200 40.33900
H  6.42900 3.27000 38.97900
N  -0.07600 -0.82900 42.58900
C  -0.24900 0.42000 42.00200
C  -1.63700 0.71600 41.75900
C  -2.33800 -0.42000 42.19000
C  -1.35000 -1.46400 42.58300
C  -2.14200 1.96200 41.08500
C  -3.90000 -0.55300 42.20600
O  -4.68100 0.37200 41.92900
C  -4.60300 -1.84800 42.47900
N  0.79300 -3.53600 43.79100
C  -0.54400 -3.69800 43.67200
C  -1.02800 -5.08500 44.15600
C  0.30200 -5.70700 44.70400
C  1.28100 -4.58600 44.39600
C  -2.30000 -5.18700 45.08500
C  0.72200 -7.11400 44.02100
C  1.30300 -8.10100 44.96700
N  3.43500 -2.45100 43.80800
C  3.72600 -3.70900 44.35300
C  5.17500 -3.80600 44.58300
C  5.68400 -2.59500 44.12200
C  4.60400 -1.84800 43.64800
C  5.96600 -4.98000 45.28800
C  6.87000 -1.76800 44.11400
O  7.99800 -1.95200 44.58400
C  6.48500 -0.52000 43.25100
C  6.83900 0.75700 44.02300
O  6.36800 1.04300 45.14200
O  7.75900 1.48400 43.28200
C  8.05400 2.75100 43.92500
H  0.57500 2.27900 41.38700
H  -2.53400 -3.08200 43.08000
H  2.85000 -5.62400 45.06000
H  5.11300 2.22000 42.59400
H  3.13400 2.60500 40.55000
H  3.80700 3.71800 43.19400
H  2.13900 3.25500 43.16700
H  2.82700 4.33300 41.89500
H  4.98600 1.31200 39.62100
H  6.10600 0.58500 40.59200
H  7.40400 2.36200 40.73200
H  6.15800 3.52300 40.99600
H  -2.68000 2.59800 41.78700
H  -2.89900 1.69200 40.34800
H  -1.42300 2.52900 40.49400
H  -5.62600 -1.57800 42.21800
H  -4.59600 -1.95600 43.56400
H  -4.13300 -2.60700 41.85400
H  -1.28200 -5.62300 43.24300
H  0.24500 -5.90600 45.77400
H  -3.17500 -5.65900 44.63900
H  -2.56200 -4.15700 45.32800
H  -2.09100 -5.66300 46.04300
H  1.48100 -6.86700 43.27900
H  -0.09700 -7.54000 43.44100
H  0.57600 -8.80900 45.36400
H  1.80400 -7.53600 45.75300
H  2.12300 -8.63200 44.48500
H  7.03000 -4.76400 45.38300
H  5.98500 -5.90700 44.71600
H  5.55300 -5.19900 46.27300
H  7.11500 -0.47900 42.36300
H  8.91300 3.03400 43.31600
H  8.40300 2.56400 44.94100
H  7.16800 3.38500 43.91300
Mg 16.52200 51.97300 25.97800
C  18.59300 50.66600 28.69200
C  14.31900 52.97900 28.27100
C  14.70700 53.04000 23.39500
C  18.88900 50.43700 23.71500
N  16.59800 51.91400 28.26100
C  17.48000 51.43200 29.19400
C  17.00700 51.59700 30.59200
C  15.56800 52.10500 30.43300
C  15.43000 52.34000 28.87400
C  14.47800 51.05700 31.01500
C  17.83100 52.61900 31.42800
C  17.81800 52.54600 32.95700
H  16.70900 51.74200 33.56600
N  14.77300 52.89100 25.84300
C  14.06300 53.35400 26.90700
C  13.01300 54.19000 26.43100
C  13.08800 54.16800 24.99300
C  14.23100 53.31700 24.69100
C  11.96000 54.82600 27.31600
C  12.26200 54.93200 23.93800
O  12.51600 55.07300 22.74600
C  11.12300 55.78500 24.39600
N  16.71200 51.65800 23.79700
C  15.88200 52.31300 23.01600
C  16.47600 52.24100 21.55500
C  17.71000 51.29800 21.59700
C  17.81100 51.13200 23.10000
C  15.50400 52.01700 20.42100
C  19.05700 51.89800 21.00600
C  19.87500 50.86100 20.26500
N  18.35900 50.73100 26.05500
C  19.08900 50.20200 25.06600
C  20.29200 49.55100 25.63100
C  20.10700 49.70800 27.04500
C  18.99100 50.46500 27.26600
C  21.39300 48.89200 24.87000
C  20.66400 49.34000 28.34200
O  21.76700 48.89700 28.64800
C  19.72100 49.91500 29.47100
C  19.26500 48.76000 30.28300
O  18.86000 47.64400 29.96300
O  19.42100 49.16500 31.55200
C  19.47600 48.20200 32.59500
H  13.56900 53.12600 29.05100
H  14.19100 53.43500 22.51800
H  19.75200 50.06100 23.16200
H  17.09400 50.60500 31.03400
H  15.42200 53.06300 30.93300
H  15.04500 50.28400 31.53400
H  13.84000 50.57500 30.27400
H  13.85400 51.46000 31.81300
H  17.55200 53.65200 31.22000
H  18.80900 52.41200 30.99400
H  17.88900 53.57000 33.32200
H  18.74300 52.02100 33.19400
H  11.95000 54.48700 28.35200
H  10.93800 54.72300 26.95000
H  12.14500 55.89700 27.23900
H  10.25800 55.12700 24.48200
H  10.88300 56.46000 23.57400
H  11.23800 56.33000 25.33300
H  16.76400 53.27100 21.34500
H  17.46900 50.34000 21.13600
H  14.86200 52.89600 20.48200
H  14.95100 51.08400 20.53400
H  16.02600 51.90700 19.47100
H  19.58200 52.09900 21.94000
H  18.88200 52.86000 20.52400
H  19.28500 49.94500 20.21900
H  20.85200 50.73200 20.73100
H  20.18400 51.27800 19.30700
H  21.68200 49.61100 24.10300
H  21.10800 47.95100 24.39900
H  22.19000 48.73400 25.59600
H  20.32200 50.60500 30.06300
H  19.61100 47.19400 32.20300
H  18.56300 48.25500 33.18800
H  20.25900 48.43400 33.31600

