158

Mg 25.89800 0.82200 29.33800
C  28.01300 0.60100 32.23100
C  23.24500 1.12100 31.43700
C  24.02100 0.95300 26.61100
C  28.70600 -0.02000 27.45800
N  25.72200 0.87200 31.57800
C  26.64900 0.81100 32.55000
C  26.12500 1.05100 33.93200
C  24.56300 1.28700 33.67000
C  24.46600 1.01600 32.11300
C  23.66800 0.37800 34.53900
C  26.78900 2.26000 34.78000
C  27.38500 1.98400 36.15100
H  27.19800 2.97900 37.25300
N  23.93500 0.99900 29.06400
C  22.95300 1.26000 30.02700
C  21.68300 1.25400 29.44100
C  21.86100 1.22600 28.00700
C  23.32800 0.98800 27.85200
C  20.47400 1.45400 30.22900
C  20.84400 1.23700 26.89100
O  21.11400 1.03500 25.67600
C  19.45300 1.50400 27.27800
N  26.25800 0.37300 27.29700
C  25.36600 0.64700 26.31700
C  25.95800 0.38500 24.89100
C  27.48900 0.33800 25.19700
C  27.47000 0.11500 26.73300
C  25.39000 -0.92400 24.30700
C  28.27000 1.58500 24.74200
C  29.44400 1.22900 23.71200
N  27.93800 0.27700 29.68900
C  28.90300 -0.12000 28.82900
C  30.13800 -0.36100 29.59900
C  29.86300 -0.07200 30.95900
C  28.50300 0.36800 30.93300
C  31.51300 -0.74600 29.12300
C  30.41000 0.11800 32.28700
O  31.49800 0.12700 32.71000
C  29.23400 0.48600 33.22800
C  29.07800 -0.66200 34.15700
O  28.62500 -1.80000 33.92900
O  29.46700 -0.29800 35.39200
C  29.16500 -1.34100 36.46000
H  22.35300 1.21500 32.05900
H  23.42700 1.10900 25.70800
H  29.58500 -0.02500 26.81000
H  26.38400 0.19200 34.55100
H  24.30700 2.30700 33.95800
H  23.27400 -0.43000 33.92300
H  22.80700 1.04600 34.56100
H  24.20000 0.00600 35.41400
H  26.17000 3.15700 34.78500
H  27.58600 2.55700 34.09900
H  28.46800 2.01600 36.03300
H  27.22500 0.98600 36.56000
H  20.50000 1.00500 31.22100
H  19.77600 0.79400 29.71300
H  20.05000 2.45800 30.20500
H  19.08700 0.69300 27.90800
H  18.89300 1.48800 26.34300
H  19.40000 2.53900 27.61500
H  25.69500 1.25000 24.28300
H  27.94500 -0.58200 24.83100
H  24.65500 -0.59700 23.57100
H  24.96700 -1.60100 25.04900
H  26.09100 -1.51500 23.71800
H  28.85300 2.06300 25.53000
H  27.58100 2.34200 24.36800
H  30.18300 2.00900 23.89400
H  29.04600 1.42900 22.71700
H  29.85900 0.23700 23.88900
H  32.31000 -0.29000 29.71000
H  31.53500 -0.31900 28.12000
H  31.76200 -1.80500 29.18900
H  29.44500 1.41000 33.76600
H  28.14200 -1.09600 36.74600
H  29.90400 -1.24800 37.25600
H  29.15600 -2.38300 36.14000
Mg 6.58000 54.97300 40.65000
C  5.76900 51.55000 40.88900
C  9.82300 54.04700 39.64600
C  7.15700 58.22800 40.04700
C  3.34000 55.83100 41.77100
N  7.61900 53.09600 40.15200
C  7.03400 51.79300 40.31400
C  7.99500 50.68400 39.83500
C  9.39500 51.49300 39.81900
C  8.90600 52.98000 39.84400
C  10.32000 51.15000 41.05000
C  7.66900 50.01000 38.43000
C  6.86800 50.85300 37.40400
H  6.16700 50.04600 36.21300
N  8.27700 56.03600 39.95900
C  9.53100 55.46400 39.65500
C  10.42900 56.50300 39.24400
C  9.70100 57.76200 39.28300
C  8.30900 57.42700 39.78000
C  11.89300 56.31200 38.88700
C  10.30300 59.06100 38.98900
O  11.40700 59.06600 38.52000
C  9.65500 60.33100 39.45500
N  5.41400 56.70200 40.71800
C  5.89100 57.88600 40.49500
C  4.91100 59.06600 40.71000
C  3.67400 58.33900 41.34500
C  4.19100 56.85900 41.32800
C  5.46300 60.16200 41.65700
C  2.23400 58.61100 40.72000
C  1.73500 60.01900 41.08100
N  4.82800 53.89500 41.17300
C  3.58900 54.42100 41.60500
C  2.68300 53.24400 41.90700
C  3.48700 52.11400 41.65900
C  4.77600 52.56700 41.17500
C  1.26500 53.29200 42.51600
C  3.49100 50.71100 41.76000
O  2.64300 49.98300 42.20500
C  4.94700 50.21700 41.24800
C  4.62000 49.29400 40.05700
O  4.12300 49.58100 38.93000
O  4.98800 48.01000 40.42800
C  4.98000 47.09200 39.28200
H  10.71800 53.57300 39.23700
H  7.39000 59.22600 39.66800
H  2.33000 56.10200 42.08500
H  7.90500 50.03800 40.70800
H  10.03400 51.26800 38.96500
H  10.29900 52.03600 41.68600
H  11.36600 51.02900 40.77000
H  9.92100 50.34100 41.66100
H  7.22000 49.05100 38.68800
H  8.56100 49.80800 37.83700
H  7.58200 51.58300 37.02200
H  6.12900 51.39300 37.99500
H  12.05100 55.29300 38.53200
H  12.61400 56.64500 39.63400
H  12.10900 56.90300 37.99700
H  8.97300 60.79300 38.74100
H  10.43300 61.07500 39.62500
H  9.11600 60.20500 40.39400
H  4.66100 59.54900 39.76600
H  3.62700 58.64100 42.39100
H  6.54800 60.17800 41.76700
H  4.86200 60.38400 42.53900
H  5.30900 61.05500 41.05200
H  1.46500 57.99100 41.18100
H  2.23600 58.43800 39.64300
H  0.86600 59.90100 41.72800
H  1.61500 60.72200 40.25700
H  2.50100 60.32600 41.79200
H  1.31500 53.93200 43.39700
H  0.74000 52.40100 42.85800
H  0.76400 53.74800 41.66200
H  5.34600 49.58000 42.03700
H  4.98500 46.10100 39.73500
H  5.85000 47.30000 38.66000
H  4.08900 47.15100 38.65600

