158

Mg 34.35000 2.28300 29.82300
C  31.92100 3.51600 32.13000
C  36.60300 2.43800 32.54100
C  36.67600 1.36800 27.65500
C  32.02700 2.86500 27.15000
N  34.21200 2.78800 32.00600
C  33.13200 3.26800 32.69200
C  33.40700 3.44900 34.16700
C  34.95800 3.46400 34.21400
C  35.26400 2.84100 32.83600
C  35.55500 4.85100 34.30200
C  32.77800 2.23800 34.96800
C  33.17100 1.99700 36.36100
H  33.60100 3.12200 37.31100
N  36.30900 1.81700 30.09600
C  37.05500 1.88100 31.25900
C  38.38400 1.45100 30.96700
C  38.46000 1.17300 29.56100
C  37.11700 1.43200 29.04700
C  39.45100 1.15600 32.02600
C  39.62300 0.73400 28.66300
O  39.42800 0.43500 27.51100
C  41.09900 0.65200 29.19000
N  34.34300 2.18000 27.74600
C  35.38100 1.77600 27.06900
C  35.19300 1.75000 25.52400
C  33.70200 1.88000 25.49700
C  33.32200 2.45800 26.84500
C  35.98000 2.88200 24.72700
C  32.82400 0.56400 25.12600
C  32.73400 0.31200 23.64900
N  32.35600 2.96300 29.64200
C  31.59200 3.23900 28.50700
C  30.20900 3.55700 28.96300
C  30.35900 3.67000 30.35200
C  31.67500 3.33400 30.73900
C  28.93600 3.92400 28.06600
C  29.53900 3.99200 31.53800
O  28.34900 4.16500 31.75400
C  30.58100 4.00400 32.72300
C  30.61200 5.37300 33.37800
O  30.78500 6.41000 32.77900
O  30.47000 5.20000 34.77000
C  30.76600 6.37600 35.59500
H  37.37400 2.57900 33.30200
H  37.45500 1.22000 26.90400
H  31.29000 2.93200 26.34700
H  32.85800 4.30700 34.55500
H  35.32500 2.91300 35.08000
H  34.74700 5.57800 34.22100
H  36.31300 5.09200 33.55700
H  35.90500 5.02500 35.31900
H  32.96500 1.31700 34.41600
H  31.70300 2.40100 34.89200
H  34.05100 1.37300 36.20600
H  32.56500 1.26800 36.89900
H  40.28100 1.86100 31.97200
H  39.83500 0.13600 32.04300
H  39.16000 1.23900 33.07300
H  41.33900 1.69000 29.42000
H  41.72200 0.28300 28.37600
H  41.17800 0.14300 30.15100
H  35.54500 0.81500 25.09000
H  33.44500 2.54900 24.67600
H  35.27700 3.22800 23.96900
H  36.85000 2.43300 24.24900
H  36.24100 3.72500 25.36700
H  31.79700 0.64200 25.48300
H  33.32400 -0.20900 25.70900
H  32.92300 -0.75000 23.49100
H  33.48800 0.87200 23.09500
H  31.75500 0.58800 23.25800
H  28.20300 4.39500 28.72000
H  28.50700 2.96900 27.76100
H  29.21500 4.45000 27.15400
H  30.18700 3.31300 33.46700
H  29.88500 7.00200 35.74000
H  31.50900 7.04900 35.16800
H  31.12100 5.97300 36.54300
Mg 29.43600 58.03400 41.09400
C  26.51300 56.50200 39.71400
C  31.29100 55.36800 39.84600
C  32.18100 59.90900 41.46100
C  27.37000 60.79400 41.88600
N  28.97300 56.27100 39.95500
C  27.74100 55.91000 39.42200
C  27.98600 54.67400 38.61800
C  29.19400 54.03900 39.19300
C  29.87500 55.25800 39.72800
C  28.85100 53.05700 40.38600
C  28.00700 55.03600 37.09400
C  27.03000 54.34200 36.12600
H  26.40300 55.17600 35.06600
N  31.50100 57.70200 40.79100
C  32.04400 56.54500 40.24400
C  33.45900 56.64900 40.22200
C  33.81500 57.94800 40.70400
C  32.50900 58.58800 41.02600
C  34.33700 55.54500 39.62400
C  35.10000 58.51600 40.75600
O  35.99800 57.89800 40.27400
C  35.39700 59.89200 41.17400
N  29.66900 60.12400 41.37600
C  30.95100 60.59900 41.61200
C  30.94700 62.04400 42.14900
C  29.43300 62.34700 42.24100
C  28.74100 61.02800 41.85400
C  31.75800 62.18000 43.46800
C  28.92600 63.45800 41.33100
C  28.00100 64.50500 41.96300
N  27.37200 58.52700 41.02900
C  26.68000 59.64000 41.48600
C  25.24700 59.47100 41.24600
C  25.19900 58.22100 40.55300
C  26.43400 57.66600 40.48200
C  24.27600 60.55900 41.53500
C  24.27500 57.24800 39.91600
O  23.09000 57.28400 39.97200
C  25.14600 56.06300 39.29900
C  24.69600 54.74200 39.73700
O  24.70600 54.29500 40.86900
O  24.32800 53.99000 38.56800
C  23.87200 52.59800 38.83300
H  31.72800 54.48600 39.37400
H  33.07300 60.48100 41.72600
H  26.82400 61.66500 42.25300
H  27.09800 54.05700 38.75300
H  29.85700 53.63800 38.42700
H  29.55500 53.25600 41.19400
H  28.83300 52.02700 40.03000
H  27.94900 53.24400 40.96900
H  28.97900 54.67500 36.75700
H  28.06600 56.11100 36.92700
H  26.23100 53.92300 36.73700
H  27.56500 53.52300 35.64600
H  33.76800 54.61900 39.53600
H  35.12700 55.41600 40.36400
H  34.74100 55.96800 38.70400
H  34.90800 60.67000 40.58800
H  36.47600 60.03000 41.23700
H  35.02600 60.06800 42.18400
H  31.42700 62.72500 41.44600
H  29.18800 62.56700 43.28000
H  32.44900 63.01800 43.38200
H  32.43900 61.34300 43.62900
H  31.08200 62.30400 44.31400
H  28.36800 63.06300 40.48200
H  29.73700 64.05600 40.91600
H  28.50200 65.43200 41.68500
H  27.86800 64.42500 43.04100
H  27.03900 64.54400 41.45100
H  23.99200 61.03100 40.59500
H  24.63700 61.36700 42.17300
H  23.38600 60.20300 42.05400
H  25.13900 56.15300 38.21300
H  24.63700 52.02500 39.35600
H  23.47100 52.08300 37.96000
H  23.03900 52.68000 39.53100

