158

Mg 44.41700 4.98400 48.00700
C  42.28100 7.81000 47.60700
C  41.72700 2.94500 47.52700
C  46.52800 2.39000 47.79200
C  47.16400 7.25300 48.12800
N  42.21300 5.40200 47.63900
C  41.52400 6.57000 47.58200
C  40.03800 6.40100 47.31500
C  39.93700 4.85700 47.72700
C  41.37500 4.28700 47.61700
C  39.34800 4.48500 49.04000
C  39.46300 7.11400 46.01400
C  38.40900 6.20900 45.32500
H  37.84800 6.64900 43.89800
N  44.14700 2.90600 47.76200
C  42.95900 2.28900 47.50600
C  43.25700 0.93600 47.28100
C  44.66800 0.71900 47.32800
C  45.19600 2.08700 47.68600
C  42.13600 -0.10000 47.11800
C  45.26400 -0.65100 47.15900
O  44.55300 -1.67100 46.98400
C  46.79300 -0.87000 47.24400
N  46.64400 4.82500 47.85200
C  47.22800 3.64000 47.94400
C  48.76100 3.75700 47.95400
C  48.92800 5.35600 47.97300
C  47.48700 5.83800 48.00800
C  49.49200 3.04300 49.10100
C  49.93000 5.89300 47.01400
C  50.94800 6.87900 47.64600
N  44.77700 7.07500 47.88000
C  45.85600 7.81900 47.97400
C  45.54900 9.19300 47.73700
C  44.19600 9.22900 47.64400
C  43.69200 7.95300 47.71900
C  46.57800 10.34200 47.43100
C  43.06000 10.14300 47.56700
O  43.03700 11.34900 47.59700
C  41.75800 9.22200 47.52700
C  40.86300 9.57500 48.64800
O  40.91500 9.09500 49.79900
O  39.93400 10.50000 48.27200
C  38.80200 10.82200 49.14900
H  40.94900 2.18900 47.40600
H  47.16100 1.50700 47.90300
H  48.04000 7.87500 47.93200
H  39.52700 6.99100 48.07500
H  39.33400 4.31700 46.99700
H  38.50300 3.80800 48.91700
H  38.98500 5.33000 49.62500
H  40.10800 4.04700 49.68600
H  40.27300 7.19800 45.28900
H  39.06000 8.06400 46.36600
H  37.61600 5.93100 46.02000
H  38.97400 5.30100 45.11500
H  42.08100 -0.38700 46.06800
H  41.16100 0.32000 47.36600
H  42.36400 -0.87200 47.85300
H  47.04600 -1.85900 46.86200
H  46.89800 -0.74400 48.32200
H  47.33800 -0.18100 46.59800
H  49.02900 3.37200 46.97000
H  49.35400 5.65200 48.93100
H  48.71000 2.78600 49.81500
H  50.28100 3.62300 49.58000
H  49.80100 2.11800 48.61500
H  49.45500 6.28200 46.11400
H  50.44300 5.01400 46.62300
H  50.69700 7.22400 48.64900
H  50.99600 7.85300 47.15900
H  51.95500 6.46900 47.71600
H  47.56000 10.21600 47.88700
H  46.20200 11.25300 47.89700
H  46.67600 10.57900 46.37200
H  41.16100 9.46100 46.64700
H  38.56600 11.88500 49.10000
H  38.87100 10.53700 50.19900
H  37.95200 10.28700 48.72700
Mg -12.41500 37.86900 42.82000
C  -10.24900 35.41500 41.50400
C  -10.32800 40.31200 41.50200
C  -14.80900 40.07700 43.24800
C  -14.60700 35.34800 43.74600
N  -10.60000 37.91000 41.53400
C  -9.83300 36.74500 41.30700
C  -8.56600 37.06000 40.52500
C  -8.45600 38.65000 40.81000
C  -9.87100 39.00100 41.30600
C  -7.34100 39.10500 41.77700
C  -8.69200 36.66100 39.03100
C  -7.58600 35.66500 38.62600
H  -6.61200 36.11000 37.51600
N  -12.61200 39.91600 42.41200
C  -11.59100 40.76900 41.98500
C  -12.04000 42.12100 42.02000
C  -13.40900 42.06900 42.46200
C  -13.69100 40.62900 42.69500
C  -11.17900 43.33600 41.63300
C  -14.31500 43.32900 42.72100
O  -13.89200 44.38000 42.33200
C  -15.76300 43.28700 43.32400
N  -14.50200 37.59400 43.15400
C  -15.20800 38.75900 43.43400
C  -16.48900 38.44800 44.25100
C  -16.28400 36.91500 44.57900
C  -15.09000 36.57000 43.77200
C  -16.83300 39.32700 45.51800
C  -17.51100 35.98300 44.35600
C  -17.78900 34.94500 45.37700
N  -12.42000 35.77600 42.70700
C  -13.38400 34.85600 43.15500
C  -12.79600 33.56900 43.06100
C  -11.55100 33.71300 42.39900
C  -11.38900 35.06300 42.13500
C  -13.42900 32.40900 43.60500
C  -10.38200 33.04100 41.85700
O  -9.99600 31.87200 41.87400
C  -9.53800 34.12400 41.11400
C  -8.10800 34.03000 41.60000
O  -7.24800 33.62900 40.88300
O  -7.87300 34.25400 42.93600
C  -6.52400 34.06900 43.29800
H  -9.62100 41.08200 41.18600
H  -15.52800 40.83600 43.56200
H  -15.11000 34.58100 44.33900
H  -7.73500 36.54400 41.00700
H  -8.14200 39.13700 39.88700
H  -6.94300 38.19800 42.23100
H  -7.71200 39.79200 42.53900
H  -6.57900 39.60800 41.18200
H  -8.60800 37.57400 38.44200
H  -9.73700 36.35900 38.95400
H  -8.07700 34.78400 38.21300
H  -6.96900 35.29000 39.44200
H  -11.31700 43.62800 40.59200
H  -10.14500 43.04500 41.81900
H  -11.46100 44.18000 42.26300
H  -16.33200 42.80200 42.53100
H  -16.24100 44.26500 43.27500
H  -15.90900 42.73900 44.25500
H  -17.37200 38.64100 43.64300
H  -16.04400 36.86600 45.64100
H  -17.47900 40.14600 45.20000
H  -15.96900 39.81900 45.96400
H  -17.35000 38.64500 46.19300
H  -17.43300 35.57500 43.34800
H  -18.37900 36.64100 44.32000
H  -17.06200 34.82700 46.18100
H  -17.85000 34.00600 44.82800
H  -18.77900 35.12000 45.79800
H  -12.85900 31.98800 44.43400
H  -13.47300 31.70200 42.77700
H  -14.45000 32.59500 43.93900
H  -9.60100 33.73800 40.09700
H  -5.92700 34.75700 42.69800
H  -6.17000 33.06300 43.07500
H  -6.34700 34.19000 44.36700

