158

Mg 47.78700 15.63000 27.62800
C  46.08500 15.79400 30.67200
C  50.17900 17.64300 28.89700
C  49.12300 15.79300 24.54400
C  44.92900 14.02300 26.33900
N  48.11800 16.57500 29.61800
C  47.33500 16.46600 30.71300
C  47.99500 17.06300 31.88600
C  49.26600 17.80700 31.30100
C  49.12600 17.39500 29.79600
C  49.33200 19.31200 31.63100
C  48.38600 15.98800 33.01800
C  47.94700 16.38800 34.45800
H  47.76600 17.86200 34.88600
N  49.47100 16.54600 26.81500
C  50.36900 17.32100 27.53700
C  51.48300 17.84000 26.66000
C  51.19600 17.23000 25.39800
C  49.91600 16.52300 25.50900
C  52.62700 18.62000 27.13700
C  52.03000 17.19200 24.14200
O  51.74400 16.56000 23.10800
C  53.31000 17.89900 24.10200
N  47.23300 14.86000 25.74100
C  47.93200 15.12400 24.62400
C  47.14600 14.70100 23.37800
C  45.82900 14.11700 23.98700
C  45.99100 14.37300 25.45800
C  46.99000 15.91200 22.39400
C  45.46300 12.64000 23.60500
C  46.17100 11.59100 24.40700
N  45.86800 14.92100 28.42000
C  44.84200 14.30300 27.69000
C  43.71200 14.00100 28.63600
C  44.17800 14.52300 29.87700
C  45.50400 15.10000 29.68000
C  42.48700 13.22900 28.30900
C  43.91600 14.79300 31.32100
O  42.92500 14.52700 31.99000
C  45.13900 15.46900 31.89300
C  44.65100 16.74100 32.58000
O  44.58600 17.90600 32.25600
O  44.15700 16.30200 33.77300
C  43.40000 17.21800 34.63500
H  50.95500 18.26500 29.34800
H  49.49500 16.03500 23.54600
H  43.99900 13.65100 25.90500
H  47.33700 17.81200 32.32600
H  50.18300 17.27000 31.54100
H  49.23600 19.86500 30.69600
H  50.28700 19.67000 32.01700
H  48.47300 19.67600 32.19400
H  49.47100 15.93000 32.93500
H  48.05500 14.97800 32.77700
H  48.72800 15.93000 35.06500
H  47.09600 15.76800 34.73800
H  52.89100 19.56400 26.66000
H  53.50700 17.98000 27.08100
H  52.42700 18.92500 28.16400
H  53.06900 18.94000 24.31400
H  53.87700 17.73100 23.18700
H  53.92700 17.49000 24.90200
H  47.73100 13.84800 23.03300
H  45.02300 14.79900 23.71800
H  47.57200 15.65200 21.51000
H  47.51100 16.76100 22.83600
H  45.96400 16.04900 22.05400
H  45.78300 12.64900 22.56300
H  44.38700 12.47600 23.54900
H  46.73100 11.96900 25.26200
H  46.65500 10.95900 23.66300
H  45.44700 10.89600 24.83200
H  42.16700 13.36200 27.27600
H  41.60000 13.52200 28.87000
H  42.47500 12.15600 28.50400
H  45.63600 14.87900 32.66200
H  42.66100 17.82100 34.10800
H  44.11000 17.78700 35.23500
H  42.77100 16.58200 35.25700
Mg 47.23300 24.51300 27.52100
C  48.32400 26.80400 30.04500
C  46.54700 22.25400 30.06300
C  46.50200 22.42900 25.02300
C  48.67200 26.73900 25.21700
N  47.27600 24.62500 29.83600
C  47.74100 25.69500 30.63400
C  47.57300 25.27000 32.13400
C  47.22700 23.69400 32.09600
C  46.97100 23.50000 30.56000
C  48.30400 22.73200 32.75000
C  46.57600 26.13100 32.94000
C  46.29700 25.65700 34.38800
H  46.81400 26.54500 35.60500
N  46.57900 22.62200 27.50400
C  46.40000 21.78800 28.66000
C  46.12400 20.44100 28.15800
C  46.06400 20.49400 26.70300
C  46.30300 21.88200 26.32800
C  46.01200 19.30400 29.15600
C  45.80500 19.29900 25.77400
O  45.65800 19.42900 24.54600
C  45.68900 17.89900 26.30700
N  47.68100 24.53200 25.42200
C  47.20500 23.57700 24.57800
C  47.33800 24.04500 23.13200
C  48.02500 25.44500 23.13200
C  48.11600 25.57500 24.68300
C  48.00700 23.04800 22.14900
C  47.28100 26.57400 22.45100
C  48.13700 27.71100 21.77800
N  48.31300 26.40300 27.47300
C  48.82200 27.16400 26.49900
C  49.53500 28.36300 26.99000
C  49.29000 28.17700 28.41900
C  48.57400 27.04400 28.63300
C  50.20500 29.48900 26.19500
C  49.51700 28.91200 29.62000
O  50.09500 29.91900 29.86400
C  48.81300 28.05600 30.74800
C  49.79800 27.83400 31.83500
O  50.69800 26.96300 31.80900
O  49.51000 28.60000 32.94500
C  50.37200 28.52200 34.15200
H  46.30900 21.50500 30.82200
H  46.24200 21.75700 24.20200
H  48.95600 27.52700 24.51700
H  48.55800 25.43500 32.57200
H  46.24400 23.44000 32.49200
H  48.76700 22.24600 31.89100
H  47.79700 21.99500 33.37300
H  48.92500 23.26800 33.46700
H  45.65300 26.23700 32.37100
H  46.96900 27.14500 33.01200
H  46.69600 24.66100 34.58200
H  45.23200 25.64100 34.62200
H  46.57100 19.47400 30.07600
H  46.51000 18.39700 28.81300
H  45.00400 18.95600 29.37700
H  44.96700 17.96500 27.12100
H  46.70700 17.62400 26.58600
H  45.34900 17.25200 25.49900
H  46.28900 24.19100 22.87200
H  49.05800 25.43200 22.78600
H  48.42700 23.62600 21.32600
H  47.26600 22.36700 21.73200
H  48.66300 22.30800 22.60700
H  46.67800 27.11600 23.17900
H  46.70000 26.16000 21.62800
H  47.70200 28.61600 22.20100
H  48.06800 27.54200 20.70400
H  49.19600 27.69700 22.03600
H  49.65900 29.71600 25.27900
H  51.22500 29.24200 25.90000
H  50.20100 30.30100 26.92200
H  47.95700 28.59800 31.15000
H  49.93300 27.90600 34.93700
H  50.69600 29.48700 34.54100
H  51.25900 27.96700 33.84700

