158

Mg 10.00500 48.33400 26.56500
C  7.89300 47.77700 29.30400
C  12.39000 49.40300 28.80200
C  12.12900 48.30700 23.97900
C  7.29800 47.77600 24.32700
N  10.04400 48.64200 28.79300
C  9.08600 48.30800 29.69100
C  9.42900 48.73000 31.11300
C  10.84000 49.40100 30.89300
C  11.13800 49.24000 29.39700
C  10.96700 50.97500 31.28300
C  9.31900 47.62800 32.16700
C  9.80200 48.06300 33.52200
H  9.17100 47.46200 34.81200
N  11.93300 48.80300 26.42200
C  12.78400 49.11400 27.46500
C  14.10300 49.25500 26.97100
C  14.07300 49.10100 25.56700
C  12.63300 48.74100 25.25600
C  15.36000 49.63800 27.84800
C  15.08500 49.44700 24.57100
O  14.87900 49.41500 23.35400
C  16.41800 49.84500 24.98500
N  9.77900 48.17000 24.40600
C  10.80600 48.09700 23.61100
C  10.34500 47.72500 22.17300
C  8.95300 47.16600 22.35500
C  8.63400 47.79000 23.70200
C  10.47000 48.90800 21.14600
C  8.77400 45.60700 22.42100
C  8.14100 44.86800 21.23100
N  7.98700 48.11600 26.71000
C  7.01200 47.79000 25.74400
C  5.73200 47.36300 26.41200
C  6.08100 47.38200 27.75600
C  7.42800 47.78900 27.89300
C  4.43900 47.05200 25.68400
C  5.46700 47.04500 29.04400
O  4.33100 46.69400 29.36700
C  6.65100 47.40300 30.05000
C  6.80500 46.15800 30.85200
O  7.60400 45.22600 30.64600
O  5.88500 46.27200 31.78800
C  5.97600 45.21300 32.80900
H  13.17800 49.81800 29.43400
H  12.82800 48.25200 23.14100
H  6.54100 47.33200 23.67800
H  8.71300 49.47900 31.45200
H  11.57200 48.81800 31.45100
H  11.66800 51.00400 32.11700
H  10.11500 51.51000 31.70300
H  11.34800 51.69800 30.56200
H  9.80000 46.73100 31.77700
H  8.25100 47.42100 32.22800
H  9.87700 49.15100 33.50200
H  10.84600 47.75100 33.49600
H  15.91500 48.71300 28.00300
H  15.05400 50.01500 28.82400
H  15.98100 50.45200 27.47200
H  16.30600 50.82900 25.43900
H  17.07300 49.83400 24.11400
H  16.72200 48.97300 25.56400
H  11.01800 46.89600 21.95200
H  8.25800 47.61000 21.64200
H  11.10600 49.75200 21.41600
H  9.45400 49.21800 20.90100
H  10.84900 48.51800 20.20200
H  8.18900 45.27400 23.27800
H  9.77300 45.17100 22.44700
H  7.95200 45.56800 20.41700
H  7.12200 44.55700 21.46000
H  8.67200 43.98800 20.86900
H  4.61100 46.40200 24.82700
H  4.06400 47.95600 25.20500
H  3.73300 46.58200 26.36900
H  6.28500 48.25300 30.62500
H  5.85000 45.85500 33.68000
H  6.91700 44.66600 32.85400
H  5.04700 44.64600 32.75300
Mg -1.58000 34.43500 26.59400
C  -3.53000 32.76600 29.11000
C  -0.27600 36.33900 29.12300
C  -0.58400 36.76300 24.37400
C  -3.46900 32.90200 24.17500
N  -1.98500 34.54800 28.85600
C  -2.61300 33.64300 29.66600
C  -2.40000 33.90800 31.10300
C  -1.55100 35.22400 31.15900
C  -1.22000 35.40300 29.58400
C  -2.24500 36.49600 31.68100
C  -1.66600 32.66000 31.71400
C  -2.13300 32.27800 33.15400
H  -1.04600 32.38300 34.29300
N  -0.39300 36.24400 26.73800
C  0.04100 36.81200 27.86500
C  0.78600 37.99600 27.46700
C  0.60200 38.24800 26.09100
C  -0.20700 37.08500 25.68200
C  1.70400 38.74900 28.47900
C  1.13800 39.29800 25.19600
O  0.75000 39.43900 24.06000
C  2.13800 40.38500 25.65400
N  -2.01100 34.76400 24.56100
C  -1.41600 35.74900 23.87200
C  -1.67200 35.61600 22.27900
C  -2.51700 34.30100 22.17600
C  -2.67700 33.89000 23.68200
C  -2.34200 36.78000 21.46100
C  -1.84000 33.30200 21.29600
C  -0.87800 32.13000 21.75500
N  -3.15000 33.09300 26.63000
C  -3.73000 32.53900 25.48600
C  -4.67500 31.54500 25.91100
C  -4.60800 31.55200 27.36100
C  -3.66300 32.55400 27.68100
C  -5.71400 30.86800 25.13600
C  -5.12200 30.96300 28.57500
O  -5.91900 30.08900 28.73800
C  -4.40800 31.70500 29.77700
C  -5.44200 32.35500 30.53300
O  -6.08900 33.34300 30.22100
O  -5.50400 31.73600 31.77600
C  -6.61300 32.07100 32.70300
H  0.11100 36.94600 29.94400
H  -0.38600 37.49700 23.59100
H  -4.01900 32.33000 23.42600
H  -3.38500 33.99800 31.56000
H  -0.71100 34.95600 31.80000
H  -1.70300 36.87800 32.54600
H  -3.26800 36.24400 31.96100
H  -2.21800 37.31400 30.96100
H  -0.59700 32.83500 31.83200
H  -1.68400 31.77000 31.08400
H  -2.40400 31.22600 33.07200
H  -2.95300 32.96200 33.37300
H  1.75600 38.32700 29.48200
H  1.36500 39.76800 28.66000
H  2.69500 38.83200 28.03200
H  3.07600 39.98600 26.03900
H  1.70400 41.04100 26.40900
H  2.31100 41.05800 24.81400
H  -0.63100 35.50700 21.97400
H  -3.53500 34.45700 21.82200
H  -1.76800 36.97500 20.55500
H  -2.24800 37.72100 22.00400
H  -3.37500 36.61000 21.15700
H  -1.28300 33.95500 20.62400
H  -2.56600 32.84400 20.62500
H  -0.98700 31.26500 21.10100
H  -1.13300 31.87300 22.78400
H  0.18200 32.36700 21.67500
H  -5.22800 30.19900 24.42600
H  -6.36000 31.54700 24.57800
H  -6.42000 30.36500 25.79700
H  -3.89500 30.94500 30.36500
H  -7.51300 32.32700 32.14300
H  -6.21600 32.72800 33.47600
H  -6.77800 31.16300 33.28300

