158

Mg 26.32700 50.65700 26.71600
C  24.13600 51.45500 29.48500
C  28.66900 49.79700 28.95900
C  28.44000 50.42700 24.20800
C  23.87000 51.98700 24.60300
N  26.33500 50.77300 28.97500
C  25.37800 51.03900 29.92500
C  25.82600 50.71900 31.33400
C  27.29600 50.31500 31.10200
C  27.44800 50.28400 29.57800
C  28.34600 51.23800 31.74000
C  24.97700 49.67500 32.13300
C  24.64600 50.12100 33.62700
H  25.63700 50.60200 34.57500
N  28.23400 50.05900 26.55600
C  29.03300 49.69900 27.60600
C  30.29000 49.17900 27.10800
C  30.26600 49.52000 25.72200
C  28.91000 50.00000 25.40200
C  31.40400 48.62000 27.93400
C  31.34100 49.47300 24.70700
O  31.16000 49.76200 23.52500
C  32.60300 49.04100 25.12400
N  26.29200 51.49600 24.80500
C  27.24500 51.17200 23.90900
C  26.79800 51.22200 22.40600
C  25.38100 51.73400 22.52500
C  25.12700 51.81600 24.03600
C  27.72400 52.08600 21.48300
C  24.44200 50.80500 21.65300
C  23.54100 49.75600 22.30800
N  24.40800 51.58800 26.95700
C  23.47400 52.00500 25.98400
C  22.16400 52.26500 26.58600
C  22.42700 52.19000 27.95200
C  23.76700 51.61500 28.11100
C  20.95100 52.78400 25.85200
C  21.85100 52.43700 29.21400
O  20.81200 52.99300 29.50300
C  22.88000 51.83300 30.31900
C  23.19700 52.93900 31.24300
O  24.21400 53.61200 31.22100
O  22.32500 52.89300 32.24500
C  22.48500 53.77100 33.36400
H  29.32600 49.20900 29.60300
H  28.95500 50.20600 23.27100
H  23.10300 52.26100 23.87500
H  25.81200 51.66100 31.88200
H  27.37500 49.31100 31.51800
H  27.88900 52.22700 31.75300
H  29.24100 51.18200 31.12000
H  28.63000 50.98200 32.76100
H  25.43200 48.69000 32.03800
H  24.00800 49.58700 31.64200
H  24.05000 49.25500 33.91500
H  23.88600 50.89100 33.50100
H  31.07200 48.29000 28.91800
H  32.25700 49.29200 28.01900
H  31.67300 47.66600 27.48200
H  33.18200 48.89500 24.21100
H  32.53400 48.07200 25.61900
H  32.98100 49.68200 25.92000
H  26.81600 50.19100 22.05200
H  25.22000 52.73200 22.11600
H  28.23800 51.49800 20.72200
H  28.39600 52.53900 22.21100
H  27.18500 52.91900 21.03200
H  25.10900 50.29900 20.95500
H  23.73400 51.51600 21.22600
H  23.93600 49.45200 23.27800
H  23.67000 48.91400 21.62800
H  22.51600 50.10500 22.18200
H  20.87500 53.86300 25.71700
H  20.12600 52.68500 26.55800
H  20.70100 52.29000 24.91300
H  22.22900 51.12200 30.82800
H  22.66600 54.81100 33.09000
H  23.34700 53.45400 33.95200
H  21.55900 53.58600 33.90800
Mg -10.17700 18.42500 42.75500
C  -6.77000 17.47600 42.92900
C  -9.11200 21.60400 42.18000
C  -13.29200 19.31800 42.69700
C  -11.05000 14.93500 43.06700
N  -8.11500 19.35600 42.56500
C  -6.88700 18.83300 42.73600
C  -5.78700 19.86200 42.45900
C  -6.53400 21.23000 42.53400
C  -8.04500 20.70600 42.45600
C  -6.36800 22.09400 43.85200
C  -4.80000 19.56500 41.21300
C  -5.34600 18.62600 40.08900
H  -5.23800 19.10900 38.62000
N  -11.09100 20.26500 42.38500
C  -10.47600 21.44400 42.16100
C  -11.51400 22.48300 42.05700
C  -12.80400 21.77300 42.11400
C  -12.47400 20.42600 42.43600
C  -11.10700 23.99000 41.68300
C  -14.17800 22.40600 41.74700
O  -14.36400 23.61900 41.55400
C  -15.40300 21.58500 41.60700
N  -11.94500 17.22800 42.55400
C  -13.14700 17.91000 42.76500
C  -14.28700 16.87700 42.90100
C  -13.56500 15.53000 42.73100
C  -12.09100 15.81900 42.68800
C  -15.16700 17.06200 44.25900
C  -14.08000 14.75900 41.54100
C  -15.20900 13.78500 41.86700
N  -9.17600 16.53800 42.90500
C  -9.65600 15.20800 43.06300
C  -8.52800 14.30500 43.11200
C  -7.39100 15.13300 43.03900
C  -7.79300 16.45600 42.96900
C  -8.72200 12.76300 43.31200
C  -5.94600 15.20400 43.05800
O  -5.13400 14.28100 42.93500
C  -5.49800 16.68500 43.21200
C  -5.11300 16.80300 44.61100
O  -5.94000 16.83700 45.51600
O  -3.75900 16.66500 44.79200
C  -3.18200 16.38000 46.06900
H  -8.90300 22.66800 42.04700
H  -14.36000 19.48500 42.85500
H  -11.29600 13.88500 43.23500
H  -5.16100 19.84600 43.35200
H  -6.39700 21.87100 41.66300
H  -7.07900 21.70800 44.58200
H  -6.63300 23.11900 43.59200
H  -5.37000 22.01100 44.28200
H  -3.94100 19.06300 41.65800
H  -4.37300 20.50600 40.86500
H  -6.35300 18.27900 40.32400
H  -4.65100 17.78700 40.11300
H  -11.94000 24.68100 41.81000
H  -10.46900 24.09300 40.80500
H  -10.50300 24.32300 42.52700
H  -15.93400 21.59100 42.55900
H  -15.22000 20.53900 41.35900
H  -16.09700 21.98800 40.87000
H  -14.99500 17.07000 42.09600
H  -13.81400 14.88300 43.57200
H  -14.98900 18.02200 44.74400
H  -14.96400 16.34000 45.04900
H  -16.20700 17.15600 43.94500
H  -13.29900 14.16100 41.07200
H  -14.53500 15.29600 40.70900
H  -15.95100 13.97900 41.09300
H  -15.60600 13.82100 42.88200
H  -14.86700 12.77100 41.65900
H  -9.12000 12.54400 44.30200
H  -7.73100 12.31100 43.36600
H  -9.20200 12.38300 42.41000
H  -4.68500 16.95000 42.53600
H  -2.45900 15.57100 45.96100
H  -3.95200 16.12400 46.79700
H  -2.68300 17.24800 46.49900

