158

Mg 15.89000 51.08800 25.43900
C  17.62200 49.96300 28.33000
C  13.24300 52.05600 27.57000
C  14.30400 52.12700 22.79100
C  18.65500 50.18400 23.63500
N  15.57500 50.99400 27.74900
C  16.48400 50.61300 28.70700
C  15.95000 50.94700 30.05400
C  14.38400 51.23500 29.76400
C  14.42900 51.49100 28.26600
C  13.47900 49.99300 30.10200
C  16.67300 52.32700 30.54100
C  16.93400 52.49700 32.07000
H  16.14300 51.49800 32.91000
N  14.03600 52.04000 25.23300
C  13.07300 52.28400 26.23700
C  11.86400 52.85600 25.49600
C  12.14400 52.84800 24.10100
C  13.57400 52.32800 24.02400
C  10.59000 53.10500 26.30600
C  11.29000 53.34000 22.94700
O  11.78800 53.44400 21.84300
C  9.91500 53.71600 23.23200
N  16.33200 50.94600 23.54500
C  15.51700 51.47900 22.60800
C  16.21800 51.57100 21.17600
C  17.65800 51.07400 21.57700
C  17.58100 50.80300 22.99300
C  15.49400 50.68600 20.15900
C  18.77600 52.05900 21.13300
C  19.07000 52.12600 19.55000
N  17.70300 50.14300 25.81500
C  18.72100 49.82900 24.94500
C  19.81900 49.22300 25.66500
C  19.47600 49.26700 27.05500
C  18.10200 49.70700 27.05000
C  21.10100 48.54800 25.08000
C  19.82200 48.80300 28.41200
O  20.79600 48.27100 28.82800
C  18.65200 49.35500 29.26800
C  18.07300 48.36300 30.28400
O  17.02800 47.73300 30.13000
O  18.86600 48.37800 31.35100
C  18.46700 47.49700 32.49000
H  12.50600 52.31900 28.33100
H  13.68700 52.28800 21.90400
H  19.58200 50.09500 23.06600
H  15.93700 50.17900 30.82800
H  13.92000 52.04000 30.33500
H  13.07900 50.12700 31.10700
H  14.02400 49.05000 30.15600
H  12.67400 49.83000 29.38500
H  15.98900 53.12200 30.24400
H  17.58300 52.41700 29.94700
H  16.51500 53.47100 32.32300
H  17.98900 52.29500 32.25500
H  9.74900 52.61700 25.81300
H  10.36900 54.16600 26.42300
H  10.68300 52.72900 27.32500
H  9.28800 52.83800 23.38300
H  9.43900 53.98100 22.28800
H  9.75000 54.51800 23.95200
H  16.24600 52.62900 20.91400
H  17.98200 50.15200 21.09500
H  16.17600 49.89500 19.84700
H  15.30200 51.34900 19.31600
H  14.53000 50.24000 20.40600
H  19.75300 51.87200 21.57900
H  18.45400 53.08000 21.33800
H  20.15600 52.18500 19.47500
H  18.56000 53.01400 19.17500
H  18.76400 51.22000 19.02600
H  21.73500 49.32200 24.64600
H  20.71700 47.91900 24.27700
H  21.55700 47.91600 25.84200
H  19.05100 50.24400 29.75700
H  19.19400 46.75100 32.81000
H  17.70100 46.75100 32.27700
H  18.14800 48.11800 33.32700
Mg 9.05600 47.02000 25.04100
C  6.99600 47.07100 27.90000
C  11.62400 48.28000 26.92700
C  10.87000 47.42500 22.25500
C  6.04900 47.02000 23.01400
N  9.26500 47.62000 27.18300
C  8.34800 47.40900 28.15600
C  8.95700 47.80200 29.51300
C  10.18500 48.62000 29.07500
C  10.43600 48.09100 27.67300
C  9.89300 50.13800 29.06100
C  9.25800 46.53200 30.37300
C  9.59500 46.76100 31.83000
H  9.00200 45.69400 32.78400
N  11.08800 47.48200 24.70900
C  11.97700 47.96000 25.60900
C  13.27900 48.02000 24.94400
C  13.13000 47.59300 23.55900
C  11.63600 47.47300 23.42200
C  14.63000 48.40600 25.65400
C  14.14200 47.42500 22.54400
O  13.85600 47.16400 21.38900
C  15.63900 47.69500 22.76600
N  8.48600 47.23100 22.92900
C  9.48700 47.44000 22.04700
C  8.88800 47.68100 20.68100
C  7.36200 47.35900 20.88000
C  7.25400 47.21200 22.38600
C  9.06500 49.18900 20.29500
C  6.76800 46.15400 20.20500
C  5.66700 46.42900 19.19700
N  6.93800 46.98300 25.35400
C  5.87300 46.95500 24.46600
C  4.65100 46.73200 25.27100
C  4.98500 46.77000 26.63600
C  6.42700 46.83400 26.64400
C  3.25000 46.87600 24.68400
C  4.51200 46.75800 28.06200
O  3.40100 46.95600 28.56500
C  5.90000 46.94600 28.89300
C  5.97900 45.69700 29.70000
O  6.33600 44.58300 29.26000
O  5.34700 45.91300 30.91600
C  5.27900 44.75000 31.74700
H  12.34800 48.74000 27.60300
H  11.43600 47.56600 21.33300
H  5.10400 47.21700 22.50300
H  8.23900 48.41400 30.06000
H  11.08200 48.35600 29.63500
H  10.13000 50.67700 29.97800
H  8.84200 50.35800 28.87300
H  10.57300 50.61500 28.35500
H  10.20600 46.21800 29.93800
H  8.47900 45.80600 30.13500
H  9.33600 47.73600 32.24300
H  10.67400 46.65800 31.93900
H  14.39800 48.50900 26.71400
H  14.79900 49.42900 25.31700
H  15.41800 47.68800 25.42800
H  15.93900 48.53700 23.38900
H  16.10300 47.84300 21.79000
H  15.87700 46.74100 23.23800
H  9.39500 47.09200 19.91600
H  6.71600 48.21600 20.69000
H  9.37200 49.65600 21.23100
H  8.23100 49.78100 19.91900
H  9.91900 49.29100 19.62600
H  6.25000 45.50000 20.90600
H  7.55500 45.64100 19.65200
H  5.44600 47.47900 19.00700
H  4.76200 45.91000 19.51200
H  6.02300 46.17000 18.20000
H  2.74800 47.82200 24.89000
H  2.66400 46.13900 25.23300
H  3.22700 46.55500 23.64300
H  5.68800 47.81900 29.51100
H  6.20400 44.18100 31.84800
H  4.46700 44.13700 31.35600
H  4.95900 45.00900 32.75600

