158

Mg 17.44600 -0.81700 28.09100
C  16.44600 1.29000 30.83900
C  19.09800 -2.76600 30.10700
C  18.91100 -2.15400 25.24500
C  15.64700 1.48300 25.96700
N  17.85000 -0.63500 30.20600
C  17.29700 0.24300 31.19200
C  17.79600 -0.13900 32.55700
C  18.79400 -1.38600 32.26600
C  18.53800 -1.63700 30.77300
C  20.32000 -1.10200 32.49000
C  16.56700 -0.62700 33.51900
C  16.65700 -0.15800 35.01100
H  17.92600 0.52300 35.58700
N  18.70500 -2.34000 27.75000
C  19.20800 -3.08900 28.71300
C  19.96100 -4.20600 28.19400
C  19.87500 -4.03700 26.76400
C  19.12900 -2.80500 26.50300
C  20.60800 -5.29200 29.00000
C  20.38200 -4.92900 25.63700
O  20.13700 -4.72300 24.48400
C  21.08700 -6.22600 25.82300
N  17.21300 -0.52800 25.93500
C  18.05800 -1.05300 25.02600
C  17.81400 -0.42800 23.60000
C  16.75200 0.59100 23.88300
C  16.45200 0.47600 25.40100
C  19.19300 0.10600 22.90500
C  15.45100 0.47500 23.03900
C  15.18100 1.47200 21.89100
N  16.21600 1.00700 28.27400
C  15.53000 1.78500 27.33700
C  14.86600 2.89400 27.97600
C  15.14800 2.68500 29.42100
C  16.01900 1.58100 29.50900
C  14.16900 4.03300 27.45700
C  14.94400 3.21800 30.74000
O  14.32600 4.19400 31.22800
C  15.75100 2.32000 31.71600
C  16.72800 3.14000 32.48800
O  17.72100 3.61500 32.03700
O  16.17000 3.41600 33.75100
C  16.73900 4.44900 34.61100
H  19.60500 -3.40500 30.83200
H  19.49000 -2.48900 24.38200
H  15.13200 2.09700 25.22600
H  18.36300 0.66300 33.02900
H  18.57900 -2.25400 32.89000
H  20.92900 -1.13000 31.58700
H  20.72500 -1.69700 33.31000
H  20.47800 -0.08900 32.85900
H  16.66000 -1.71100 33.57000
H  15.62100 -0.30800 33.08100
H  16.41000 -1.00500 35.65100
H  15.84700 0.56000 35.14600
H  20.20500 -6.22400 28.60300
H  20.33300 -5.31400 30.05500
H  21.66600 -5.30600 28.74000
H  21.47800 -6.61600 24.88300
H  20.41300 -6.95700 26.27000
H  21.90700 -6.13800 26.53600
H  17.48300 -1.26100 22.97900
H  17.22800 1.55500 23.70300
H  20.08400 -0.03800 23.51700
H  19.04900 1.17900 22.77800
H  19.30600 -0.37600 21.93400
H  14.61100 0.62500 23.71800
H  15.35400 -0.55500 22.69600
H  16.11400 2.03000 21.81900
H  14.36700 2.18200 22.04200
H  15.17200 0.99700 20.91000
H  14.74500 4.48900 26.65200
H  14.08800 4.90500 28.10600
H  13.18300 3.71900 27.11600
H  15.17900 1.75800 32.45500
H  16.12900 4.45400 35.51500
H  16.85900 5.39100 34.07600
H  17.74900 4.14000 34.87700
Mg -5.34400 25.56100 25.95700
C  -4.12500 27.22300 28.77000
C  -7.43300 23.69100 28.04800
C  -6.24300 23.67400 23.35300
C  -3.36400 27.54700 23.95800
N  -5.74700 25.43300 28.12100
C  -5.04800 26.16300 29.09400
C  -5.63800 25.80800 30.45300
C  -6.43800 24.47100 30.21000
C  -6.50800 24.45200 28.70700
C  -5.72900 23.22200 30.74800
C  -6.54600 26.97200 30.98800
C  -6.57500 27.12600 32.50700
H  -5.91500 26.10500 33.46400
N  -6.71200 23.97900 25.70700
C  -7.52900 23.47300 26.64700
C  -8.43000 22.46000 26.05600
C  -8.03300 22.41200 24.62700
C  -6.96400 23.37700 24.48500
C  -9.54000 21.75100 26.77100
C  -8.59400 21.56300 23.45600
O  -8.14400 21.53200 22.30800
C  -9.82000 20.77200 23.74200
N  -4.97100 25.74100 23.95800
C  -5.23400 24.69700 23.12700
C  -4.60000 24.90700 21.75400
C  -3.97100 26.35900 21.87000
C  -4.14600 26.62200 23.35800
C  -3.67100 23.78700 21.27900
C  -4.63800 27.39300 21.08900
C  -3.94600 28.72200 20.82100
N  -3.94400 27.04000 26.21300
C  -3.26400 27.84300 25.32000
C  -2.48900 28.84800 26.02900
C  -2.80400 28.66200 27.40800
C  -3.67600 27.52000 27.45200
C  -1.52200 29.89200 25.43800
C  -2.53900 29.18200 28.76100
O  -1.94900 30.16200 29.17500
C  -3.47700 28.28200 29.67700
C  -2.72700 27.59100 30.72800
O  -2.14000 26.55700 30.63500
O  -2.76600 28.28200 31.89100
C  -2.03200 27.77600 33.01900
H  -8.10800 23.05900 28.62900
H  -6.33600 23.12000 22.41700
H  -2.69600 28.19600 23.38800
H  -4.80000 25.67200 31.13700
H  -7.44100 24.44100 30.63400
H  -5.60500 22.51000 29.93200
H  -6.41700 22.88800 31.52400
H  -4.87300 23.52400 31.35100
H  -7.55800 26.83600 30.60500
H  -6.28000 27.93900 30.56100
H  -7.63600 27.16900 32.75200
H  -6.33100 28.16800 32.70900
H  -9.78400 20.73200 26.47200
H  -10.43700 22.34700 26.94000
H  -9.23500 21.53900 27.79600
H  -10.25100 20.55100 22.76600
H  -10.57900 21.43300 24.15800
H  -9.69600 19.88000 24.35600
H  -5.44400 25.00300 21.07200
H  -2.91900 26.32900 21.58700
H  -2.84200 24.23100 20.72700
H  -4.24400 23.17300 20.58400
H  -3.22300 23.30000 22.14500
H  -5.54800 27.80100 21.53000
H  -4.91000 26.95100 20.13000
H  -2.90800 28.72800 21.15300
H  -4.48700 29.60200 21.16900
H  -3.95100 28.92800 19.75000
H  -1.64500 29.96600 24.35700
H  -0.46500 29.66900 25.58400
H  -1.69700 30.85800 25.91000
H  -4.22900 28.95700 30.08500
H  -1.07600 28.27600 33.17700
H  -1.78200 26.71900 32.94100
H  -2.59700 28.01900 33.91900

