158

Mg 17.53400 -0.96000 28.53700
C  16.79200 1.20300 31.07600
C  19.60000 -2.79000 30.76600
C  19.02000 -2.53600 25.88500
C  16.02300 1.28500 26.27900
N  18.25500 -0.66400 30.64900
C  17.63000 0.11700 31.50700
C  17.82200 -0.31700 32.96500
C  18.95100 -1.36500 32.85600
C  18.88500 -1.68600 31.34600
C  20.41300 -0.93700 33.22200
C  16.35900 -0.77300 33.57600
C  15.89800 -0.34100 34.96600
H  17.07500 -0.00100 35.94500
N  18.96400 -2.46500 28.35200
C  19.63000 -3.11500 29.39100
C  20.36600 -4.27200 28.82000
C  20.27700 -4.15800 27.35300
C  19.43600 -2.96100 27.14600
C  20.96500 -5.40000 29.61300
C  20.93200 -5.02100 26.35400
O  20.96800 -4.75300 25.16000
C  21.62500 -6.29300 26.77000
N  17.66000 -0.62200 26.38100
C  18.26200 -1.46200 25.51100
C  18.00700 -1.08800 24.03700
C  16.94300 0.06900 24.24500
C  16.82800 0.28900 25.70400
C  19.22900 -0.70700 23.13300
C  15.57800 -0.20800 23.53000
C  14.48600 -1.13600 24.20400
N  16.47200 0.81300 28.62300
C  15.82800 1.59300 27.69700
C  15.22500 2.77000 28.31900
C  15.51700 2.55400 29.66500
C  16.28300 1.40100 29.75500
C  14.61300 3.93400 27.76400
C  15.38800 3.15500 31.00600
O  14.83900 4.19000 31.30700
C  16.09700 2.24900 31.94200
C  17.01300 3.07600 32.76000
O  18.02600 3.63300 32.34500
O  16.47800 3.28900 34.00000
C  17.16700 4.33600 34.83700
H  20.09500 -3.41100 31.51500
H  19.37800 -3.05400 24.99300
H  15.42300 1.93700 25.64200
H  18.21100 0.60800 33.38900
H  18.64000 -2.22800 33.44500
H  21.18400 -1.07300 32.46400
H  20.78100 -1.50800 34.07400
H  20.42600 0.13700 33.40300
H  16.45500 -1.85100 33.69900
H  15.61700 -0.60000 32.79600
H  15.36500 -1.11500 35.51700
H  15.35800 0.60500 35.01600
H  20.33300 -6.25700 29.38400
H  20.86500 -5.28400 30.69300
H  22.03900 -5.49300 29.45400
H  22.48900 -6.16500 27.42100
H  21.91300 -6.78000 25.83800
H  20.89900 -6.89900 27.31300
H  17.40100 -1.89100 23.61600
H  17.32100 0.98100 23.78300
H  20.15200 -0.97200 23.64800
H  19.28300 0.36100 22.92200
H  19.27500 -1.23700 22.18200
H  15.80200 -0.66900 22.56800
H  15.02800 0.73200 23.49700
H  13.49500 -0.71600 24.37900
H  14.75800 -1.62300 25.14000
H  14.36400 -2.05000 23.62200
H  14.63000 4.80500 28.42000
H  13.56300 3.72300 27.56100
H  15.13200 4.08100 26.81700
H  15.27700 1.77500 32.48100
H  16.66300 5.25600 34.54300
H  18.24200 4.45600 34.69900
H  16.95400 3.96500 35.83900
Mg 46.31600 3.68400 47.56000
C  43.85400 6.04500 46.71000
C  43.79100 1.17400 47.22600
C  48.80900 1.45600 47.39200
C  48.72400 6.31700 47.01500
N  44.02300 3.66200 47.10300
C  43.27300 4.72300 46.81100
C  41.77700 4.29200 46.59900
C  41.77000 2.77600 46.93200
C  43.26800 2.49500 47.19400
C  40.85200 2.27200 48.01300
C  41.17000 4.72700 45.23700
C  39.97400 5.75000 45.19400
H  40.17600 6.77000 44.15800
N  46.33200 1.63200 47.43000
C  45.18000 0.74600 47.28100
C  45.67400 -0.66000 47.13800
C  47.11400 -0.52800 47.01900
C  47.50600 0.91800 47.34700
C  44.75600 -1.88600 47.06300
C  48.04400 -1.69700 46.75400
O  47.56000 -2.87600 46.72500
C  49.46900 -1.56800 46.48300
N  48.41000 3.83900 47.17800
C  49.22000 2.74600 47.42300
C  50.75300 3.14600 47.33600
C  50.68900 4.70000 47.48300
C  49.15100 5.00100 47.26900
C  51.62800 2.28300 48.42100
C  51.54500 5.37800 46.31000
C  52.66500 6.42800 46.57200
N  46.34900 5.71600 47.07800
C  47.38300 6.61300 46.89800
C  46.83200 7.89400 46.61800
C  45.44200 7.75700 46.62800
C  45.19300 6.37500 46.83700
C  47.71100 9.15100 46.29500
C  44.19200 8.37900 46.41100
O  43.96200 9.53700 46.09500
C  43.07200 7.35300 46.57000
C  42.26100 7.68300 47.79100
O  42.40000 7.17900 48.89400
O  41.29700 8.57200 47.51900
C  40.43800 8.99800 48.66700
H  43.05700 0.39900 46.99600
H  49.69300 0.81700 47.45200
H  49.47100 7.10100 46.87500
H  41.17700 4.85500 47.31400
H  41.48000 2.30400 45.99300
H  40.26100 3.07300 48.45900
H  41.48000 1.82900 48.78600
H  40.21300 1.48200 47.62100
H  40.84900 3.87100 44.64400
H  41.99800 5.25900 44.76900
H  39.94600 6.12500 46.21700
H  39.07400 5.15400 45.04200
H  45.10300 -2.36700 46.14900
H  43.73200 -1.55400 46.89300
H  44.72200 -2.60600 47.88100
H  49.92700 -2.43500 46.00800
H  49.84900 -1.38900 47.48900
H  49.73900 -0.64800 45.96400
H  51.05100 2.77400 46.35600
H  50.94500 5.08300 48.47100
H  51.05400 1.73100 49.16500
H  52.17900 3.00000 49.02900
H  52.37500 1.69100 47.89200
H  50.85100 5.81800 45.59400
H  52.10100 4.59900 45.78800
H  52.47800 6.69000 47.61300
H  52.70100 7.26800 45.87800
H  53.60400 5.91000 46.37500
H  48.50300 9.12700 47.04300
H  47.10200 10.04900 46.39600
H  48.02500 9.11700 45.25200
H  42.43400 7.35400 45.68600
H  39.51100 8.42600 48.68500
H  40.25800 10.03300 48.37700
H  40.94500 8.86600 49.62300

