158

Mg 2.27300 -1.52500 44.70500
C  5.55200 -0.67100 44.34700
C  1.52200 0.89800 42.20100
C  -0.86300 -2.58600 44.66700
C  3.34500 -4.55100 46.26200
N  3.42500 -0.24300 43.29700
C  4.79800 -0.01200 43.36600
C  5.32000 1.02100 42.38500
C  3.97000 1.50400 41.72600
C  2.89900 0.72300 42.48400
C  3.86600 3.03900 41.76900
C  6.48100 0.43200 41.43000
C  7.78100 1.22100 41.36200
H  8.28100 1.55200 39.95300
N  0.52600 -0.75000 43.79200
C  0.43500 0.19300 42.80000
C  -0.93400 0.49700 42.52400
C  -1.67100 -0.56700 43.18100
C  -0.70100 -1.35600 43.97000
C  -1.45900 1.56500 41.64000
C  -3.32500 -0.65600 43.02000
O  -3.99600 0.18500 42.41300
C  -4.05800 -1.84800 43.72500
N  1.38200 -3.37000 45.28700
C  0.03400 -3.41900 45.31400
C  -0.43500 -4.78900 45.87500
C  0.90500 -5.34400 46.45700
C  1.97200 -4.38000 45.99700
C  -1.73100 -4.98200 46.67300
C  1.30200 -6.80900 46.25600
C  1.65200 -7.80400 47.40400
N  4.05700 -2.48000 45.33200
C  4.30300 -3.60700 46.03900
C  5.66000 -3.57600 46.40600
C  6.20100 -2.40900 45.85000
C  5.15900 -1.82700 45.16700
C  6.51200 -4.57500 47.24300
C  7.35700 -1.57800 45.74000
O  8.50000 -1.74200 46.18000
C  6.94600 -0.36000 44.71400
C  7.10500 0.90500 45.38500
O  6.43800 1.31700 46.33700
O  8.21800 1.57300 44.88500
C  8.61600 2.86400 45.42100
H  1.24700 1.68500 41.49500
H  -1.89600 -2.92200 44.77800
H  3.68400 -5.40500 46.85100
H  5.56300 1.85300 43.04700
H  4.13600 1.24800 40.67900
H  4.77200 3.58200 42.03900
H  3.12300 3.14800 42.55900
H  3.53400 3.43700 40.81100
H  6.06100 0.14700 40.46500
H  6.72100 -0.54600 41.84700
H  8.56300 0.74600 41.95400
H  7.75900 2.16400 41.90800
H  -1.82200 2.41400 42.21900
H  -2.23700 1.19400 40.97300
H  -0.77200 1.89600 40.86000
H  -5.09400 -1.88400 43.38800
H  -4.03300 -1.82500 44.81500
H  -3.57400 -2.76400 43.38800
H  -0.50300 -5.32800 44.93000
H  0.91300 -5.19700 47.53700
H  -2.29500 -4.10400 46.98800
H  -1.65600 -5.70000 47.49000
H  -2.51400 -5.34700 46.00800
H  2.08600 -6.90900 45.50400
H  0.38000 -7.23100 45.85600
H  2.62600 -8.26000 47.22000
H  0.91900 -8.60800 47.46900
H  1.56600 -7.35300 48.39200
H  5.88300 -5.27200 47.79700
H  7.19500 -3.94300 47.80900
H  7.14200 -5.09300 46.51900
H  7.57900 -0.47100 43.83400
H  9.30300 3.23000 44.65800
H  8.98200 2.76600 46.44200
H  7.80100 3.58000 45.53200
Mg 48.43200 34.76800 26.42600
C  46.53400 33.32100 28.92500
C  48.86100 37.59200 28.23400
C  49.28200 36.45500 23.57000
C  47.49000 31.96100 24.21800
N  47.67800 35.39100 28.24600
C  47.08600 34.60400 29.18300
C  47.27300 35.27100 30.52300
C  47.44000 36.76600 30.18700
C  48.07600 36.61500 28.75500
C  46.15900 37.62500 30.18600
C  48.55500 34.68600 31.28300
C  48.44900 34.44500 32.78600
H  47.49000 35.26300 33.66700
N  49.16000 36.65700 25.97700
C  49.34100 37.65700 26.90300
C  50.11500 38.72200 26.30000
C  50.15600 38.45000 24.89800
C  49.55000 37.13100 24.75400
C  50.70600 39.84200 27.20400
C  50.92100 39.16700 23.78800
O  50.85600 38.82900 22.60300
C  51.66700 40.38500 24.11800
N  48.48900 34.24600 24.23700
C  48.76700 35.21300 23.28900
C  48.68100 34.60600 21.85700
C  48.34700 33.10300 22.20800
C  48.13500 33.07400 23.70300
C  47.68600 35.38200 20.90000
C  49.49100 32.23100 21.69900
C  49.29100 31.83300 20.28200
N  47.29400 32.89400 26.54400
C  46.97800 31.93400 25.62000
C  46.17600 30.90300 26.34800
C  46.01700 31.41100 27.63600
C  46.62000 32.62300 27.69400
C  45.65000 29.67400 25.78300
C  45.43800 31.22300 28.94200
O  44.76400 30.26700 29.33700
C  45.60400 32.46000 29.82600
C  46.15300 32.04300 31.12300
O  47.24700 31.63200 31.38500
O  45.20800 32.11700 32.14400
C  45.58600 31.53200 33.49100
H  48.94100 38.51200 28.81600
H  49.72900 36.96900 22.71600
H  47.28300 31.20900 23.45500
H  46.47900 35.17200 31.26400
H  48.09000 37.26300 30.90700
H  45.91300 37.97100 29.18200
H  46.37200 38.53400 30.74800
H  45.36300 37.07100 30.68500
H  49.42700 35.31000 31.08500
H  48.71400 33.70300 30.83900
H  49.45300 34.55900 33.19400
H  48.10900 33.42000 32.93400
H  51.78400 39.93600 27.07500
H  50.51900 39.60000 28.25000
H  50.29500 40.78800 26.85300
H  50.97000 41.22100 24.18200
H  52.26300 40.64400 23.24300
H  52.41900 40.23400 24.89200
H  49.59700 34.57000 21.26800
H  47.37400 32.86100 21.77900
H  46.78500 34.81400 20.66900
H  48.26000 35.56200 19.99100
H  47.28700 36.24100 21.43900
H  49.67600 31.40100 22.38100
H  50.45700 32.73000 21.77300
H  49.89300 32.49300 19.65800
H  48.25000 31.88400 19.96200
H  49.68100 30.82300 20.16200
H  46.43600 29.19600 25.19700
H  44.80100 29.77300 25.10700
H  45.29600 29.10600 26.64400
H  44.66700 32.95600 30.07900
H  46.64900 31.37800 33.67800
H  44.95900 30.67900 33.75000
H  45.35800 32.21600 34.30800

