158

Mg -2.15800 17.10500 26.37300
C  -2.70900 14.67900 29.00700
C  -2.61200 19.69100 28.61500
C  -2.13600 19.22500 23.90900
C  -1.87800 14.44900 24.25100
N  -2.77600 17.14600 28.49900
C  -2.77000 16.04700 29.37000
C  -2.76500 16.54000 30.82500
C  -2.92400 18.16200 30.71200
C  -2.72400 18.38000 29.16400
C  -4.17900 18.75800 31.25900
C  -1.53500 16.04300 31.65400
C  -0.87900 16.96300 32.77400
H  -0.64500 16.32500 34.17100
N  -2.28600 19.11700 26.29400
C  -2.45700 20.04700 27.31800
C  -2.47000 21.38800 26.78600
C  -2.39900 21.25800 25.38100
C  -2.31900 19.86200 25.10800
C  -2.61500 22.54200 27.80500
C  -2.33400 22.36000 24.34500
O  -2.49800 22.20600 23.18100
C  -2.22900 23.84000 24.89400
N  -2.01900 16.95200 24.40900
C  -1.94000 17.92200 23.53800
C  -1.81100 17.46500 22.06100
C  -1.74500 15.95800 22.19200
C  -1.85500 15.73600 23.71600
C  -2.97500 17.97700 21.17600
C  -0.47200 15.41900 21.56000
C  0.85000 15.54800 22.32500
N  -2.23000 14.99400 26.52900
C  -2.10100 14.05800 25.54500
C  -2.15200 12.75300 26.06900
C  -2.45600 12.93400 27.48200
C  -2.52500 14.33900 27.68100
C  -2.00600 11.41800 25.26200
C  -2.67100 12.28400 28.78300
O  -2.68900 11.05400 29.05500
C  -2.77800 13.41300 29.81700
C  -1.69900 13.02300 30.73700
O  -0.50900 13.30900 30.63200
O  -2.30500 12.31800 31.75000
C  -1.34500 12.09500 32.83800
H  -2.63300 20.43400 29.41500
H  -2.02800 19.96600 23.11500
H  -1.60200 13.57800 23.65300
H  -3.65100 16.07500 31.25500
H  -2.15600 18.71600 31.25100
H  -4.83400 18.89400 30.39800
H  -3.92800 19.68600 31.77100
H  -4.70800 18.05600 31.90400
H  -0.73500 15.77800 30.96300
H  -1.88100 15.19500 32.24600
H  -1.56800 17.79500 32.91800
H  0.01200 17.41000 32.33500
H  -1.80900 23.26000 27.65200
H  -2.85500 22.27500 28.83400
H  -3.47500 23.01500 27.33100
H  -3.07500 23.98300 25.56700
H  -2.28400 24.48300 24.01600
H  -1.24800 23.98500 25.34700
H  -0.81000 17.75200 21.73800
H  -2.59300 15.48700 21.69500
H  -3.47200 17.20000 20.59500
H  -2.70500 18.77000 20.47900
H  -3.72500 18.29500 21.89900
H  -0.26100 15.84500 20.58000
H  -0.61700 14.34300 21.46900
H  0.74600 16.08400 23.26900
H  1.59900 15.89300 21.61300
H  1.25900 14.58400 22.62700
H  -1.43100 11.64500 24.36400
H  -3.01200 11.01700 25.14300
H  -1.36100 10.78800 25.87400
H  -3.77800 13.30700 30.23700
H  -0.48600 11.48000 32.57000
H  -1.93400 11.73000 33.68000
H  -1.03000 13.00600 33.34700
Mg 1.51500 42.51600 26.79700
C  3.73600 42.67400 29.61000
C  -0.97400 41.59600 29.01500
C  -0.37400 41.73300 24.14200
C  4.21500 42.99600 24.65700
N  1.44100 42.15800 29.11000
C  2.44000 42.35500 30.01300
C  1.87900 42.31000 31.38300
C  0.45500 41.72300 31.21500
C  0.31900 41.92200 29.69300
C  0.37700 40.16800 31.56200
C  1.84000 43.81500 31.77500
C  1.89300 44.24900 33.28300
H  1.80000 43.05500 34.27400
N  -0.40300 41.75800 26.55700
C  -1.28200 41.46600 27.57600
C  -2.42200 40.93200 26.98700
C  -2.32900 40.89200 25.59100
C  -0.99000 41.42800 25.32300
C  -3.62200 40.50600 27.81400
C  -3.30900 40.46200 24.49000
O  -2.90900 40.38400 23.34300
C  -4.72900 40.08200 24.76900
N  1.80400 42.65300 24.77200
C  0.86900 42.28000 23.84900
C  1.31400 42.54200 22.37700
C  2.76900 43.10000 22.58700
C  2.98200 42.90500 24.06300
C  1.36700 41.21700 21.49800
C  2.76100 44.60500 22.13900
C  3.10800 44.77200 20.62300
N  3.51400 42.78100 27.07600
C  4.47500 42.99500 26.05500
C  5.77900 43.25100 26.68600
C  5.51200 43.08200 28.06600
C  4.10200 42.84500 28.27300
C  7.05700 43.62100 25.98600
C  6.15900 43.02200 29.32300
O  7.37200 42.97900 29.57400
C  5.04900 42.84300 30.39100
C  5.26300 41.66400 31.29300
O  5.39100 40.49800 30.85100
O  5.32600 42.02900 32.62700
C  5.50100 40.97500 33.68000
H  -1.80400 41.35100 29.68100
H  -1.07300 41.57000 23.31900
H  5.08700 43.09000 24.00800
H  2.48100 41.67800 32.03700
H  -0.30400 42.26900 31.77600
H  -0.50800 39.69700 31.13600
H  0.41000 40.00100 32.63900
H  1.27500 39.79100 31.07200
H  0.86100 44.18500 31.47100
H  2.48200 44.46700 31.18300
H  1.04500 44.91100 33.45700
H  2.85800 44.70400 33.50700
H  -3.88200 39.47200 27.59000
H  -4.51400 41.11500 27.67000
H  -3.45100 40.43100 28.88800
H  -4.85700 39.01300 24.94100
H  -5.25400 40.28900 23.83700
H  -5.16800 40.65900 25.58200
H  0.64200 43.27100 21.92500
H  3.51400 42.58500 21.98000
H  1.12800 40.31600 22.06200
H  2.35500 40.95100 21.12300
H  0.75800 41.21200 20.59400
H  3.54100 45.18200 22.63400
H  1.77800 45.06700 22.23600
H  3.71100 45.66400 20.45200
H  2.19800 44.76400 20.02300
H  3.64300 43.92400 20.19400
H  7.21400 44.69000 26.12800
H  7.09000 43.35300 24.93000
H  7.75300 42.98500 26.53400
H  5.01600 43.76100 30.97700
H  4.68800 40.25800 33.56200
H  5.31800 41.50900 34.61300
H  6.49100 40.51800 33.70600

