158

Mg 16.87600 -1.19300 27.84200
C  16.11200 0.79100 30.62400
C  19.22500 -2.93200 29.70300
C  17.90100 -2.94200 25.05900
C  14.75900 0.76500 25.86500
N  17.59200 -1.05500 29.86700
C  17.10300 -0.19000 30.84600
C  17.68200 -0.57700 32.20900
C  18.90000 -1.56600 31.90500
C  18.61000 -1.86100 30.38100
C  20.39300 -0.98700 32.12100
C  16.70200 -1.18000 33.25100
C  16.50200 -0.46800 34.53900
H  17.81100 0.25200 35.06400
N  18.17200 -2.86800 27.49300
C  19.11300 -3.39600 28.35100
C  19.79300 -4.59600 27.72800
C  19.32200 -4.58800 26.37600
C  18.38200 -3.44200 26.24100
C  20.81000 -5.50700 28.32600
C  19.72200 -5.52200 25.19300
O  19.33400 -5.43800 24.04900
C  20.59200 -6.75700 25.27400
N  16.34400 -1.21500 25.75200
C  17.10100 -1.81700 24.81900
C  16.74100 -1.37200 23.35900
C  15.60700 -0.27100 23.69300
C  15.52100 -0.18200 25.20200
C  17.95300 -0.77900 22.64200
C  14.20700 -0.65400 23.07800
C  13.65100 0.41100 22.08300
N  15.69500 0.45000 28.17100
C  14.80500 1.05400 27.29400
C  14.06100 2.08700 27.94700
C  14.49000 1.99800 29.31100
C  15.50900 1.05400 29.38300
C  13.09500 2.99900 27.38900
C  14.35600 2.60800 30.57400
O  13.55300 3.43000 30.99700
C  15.39900 1.75900 31.59100
C  16.19100 2.72300 32.31000
O  17.18700 3.22400 31.90400
O  15.66100 3.01400 33.58900
C  16.44400 3.99800 34.38400
H  19.99600 -3.50500 30.22300
H  18.36200 -3.34400 24.15400
H  14.20000 1.51500 25.30100
H  17.99600 0.43700 32.45700
H  18.75200 -2.45500 32.51900
H  20.90800 -1.49800 32.93500
H  20.32300 0.04500 32.46700
H  20.98700 -1.09600 31.21400
H  16.82900 -2.22700 33.52800
H  15.72200 -1.13700 32.77400
H  16.18500 -1.23200 35.24900
H  15.64900 0.18400 34.34700
H  20.65900 -6.56700 28.12000
H  20.97200 -5.24700 29.37200
H  21.75000 -5.32700 27.80500
H  20.41300 -7.29800 26.20300
H  21.60200 -6.35900 25.36000
H  20.51600 -7.39400 24.39200
H  16.45200 -2.20100 22.71400
H  15.90300 0.75300 23.46200
H  17.83700 0.19500 22.16500
H  18.30400 -1.51600 21.92000
H  18.78800 -0.71600 23.34000
H  13.42600 -0.70300 23.83700
H  14.36200 -1.61200 22.58100
H  14.39000 1.18500 21.87400
H  12.87100 0.94600 22.62400
H  13.29700 -0.20400 21.25600
H  13.14000 3.05900 26.30100
H  13.29000 4.01800 27.72500
H  12.10400 2.72900 27.75400
H  14.78600 1.21500 32.30900
H  15.89500 4.89900 34.10900
H  17.48000 4.20800 34.12000
H  16.23100 3.76700 35.42800
Mg 54.98500 23.76300 45.12500
C  52.48000 26.00800 44.08200
C  52.88700 21.16900 43.91100
C  57.50300 21.51400 45.38100
C  57.10600 26.47600 45.86100
N  52.89200 23.66900 44.00500
C  52.08600 24.68000 43.80300
C  50.72900 24.16800 43.21400
C  50.75500 22.67500 43.64800
C  52.22900 22.47000 43.83000
C  49.82100 22.27200 44.85300
C  50.42000 24.42200 41.70400
C  48.99600 24.36500 41.19000
H  48.97200 24.16700 39.63100
N  55.15400 21.66100 44.72200
C  54.17300 20.78500 44.30400
C  54.63400 19.41700 44.13000
C  55.99500 19.46000 44.57000
C  56.34200 20.87800 44.89200
C  53.79700 18.21400 43.71800
C  56.92500 18.25800 44.62700
O  56.47400 17.15300 44.24100
C  58.40100 18.34800 45.00400
N  57.00100 23.98600 45.54100
C  57.81900 22.85600 45.65900
C  59.25400 23.33600 46.04200
C  59.14700 24.98400 46.14200
C  57.68400 25.21100 45.83000
C  59.98300 22.53000 47.21300
C  60.11600 25.78400 45.21300
C  60.77100 27.02700 45.75900
N  54.84900 25.84200 45.00800
C  55.75800 26.84100 45.48400
C  55.05100 28.12000 45.49700
C  53.80300 27.84700 44.90500
C  53.70100 26.48500 44.68200
C  55.59000 29.38200 46.08700
C  52.54000 28.45600 44.51600
O  52.13100 29.61600 44.56100
C  51.61900 27.27100 43.91700
C  51.39900 27.57600 42.42400
O  52.30300 27.73000 41.58800
O  50.10100 27.86000 42.21800
C  49.72900 28.23100 40.85400
H  52.26600 20.35100 43.54000
H  58.43700 20.96200 45.51200
H  57.71000 27.32000 46.19800
H  49.98300 24.70700 43.79900
H  50.39600 21.99000 42.88100
H  50.41200 22.08400 45.74900
H  49.30800 21.34200 44.60900
H  49.03800 22.99800 45.07400
H  50.92200 23.62000 41.16200
H  50.92900 25.36500 41.50500
H  48.44100 25.28700 41.36500
H  48.49300 23.50700 41.63700
H  53.79700 17.99600 42.65000
H  52.77400 18.32800 44.07700
H  54.15000 17.30200 44.19900
H  58.79100 17.33300 45.08100
H  58.43700 18.76200 46.01100
H  59.00600 18.84900 44.24800
H  59.76700 23.11500 45.10600
H  59.25400 25.21500 47.20200
H  60.98900 22.30000 46.86300
H  59.45200 21.60900 47.45500
H  60.03400 23.19100 48.07800
H  59.50600 26.20100 44.41200
H  60.79800 25.07400 44.74600
H  61.79400 26.96600 45.38700
H  60.73500 27.05400 46.84800
H  60.32800 27.89400 45.26800
H  56.68000 29.37300 46.07200
H  55.22300 29.41900 47.11300
H  55.15300 30.24900 45.59300
H  50.58900 27.21300 44.26900
H  50.35800 27.77000 40.09300
H  49.76000 29.30900 40.69500
H  48.72500 27.86500 40.64000

