158

Mg 49.78200 46.10100 42.18000
C  46.58500 46.74600 41.08600
C  49.55600 42.84000 41.03500
C  53.20500 45.75000 42.27000
C  50.14400 49.71300 42.61100
N  48.25800 45.00000 41.21600
C  47.02200 45.47400 40.92500
C  46.34900 44.43700 40.06700
C  47.10400 43.16000 40.37700
C  48.39400 43.66100 40.92300
C  46.36600 42.06100 41.26600
C  46.44700 44.89500 38.58100
C  45.16300 44.61000 37.77500
H  45.26400 43.78800 36.50900
N  51.15500 44.47400 41.79300
C  50.85900 43.29400 41.32900
C  51.97800 42.44300 41.31400
C  53.03100 43.23400 41.68100
C  52.46300 44.55400 42.04300
C  51.96800 40.99700 40.77000
C  54.50300 42.72600 41.78700
O  54.71100 41.58800 41.35800
C  55.64700 43.59100 42.15800
N  51.44800 47.54200 42.45900
C  52.76800 47.08600 42.51700
C  53.70300 48.28100 42.63600
C  52.77800 49.55400 42.74500
C  51.34900 48.93100 42.54800
C  54.86300 48.19300 43.59300
C  53.10000 50.77300 41.74800
C  53.56600 52.08800 42.46200
N  48.66100 47.95000 41.92400
C  48.89400 49.24200 42.27100
C  47.62700 50.01300 42.16700
C  46.66400 49.04600 41.77700
C  47.36900 47.82500 41.55200
C  47.32400 51.46500 42.37600
C  45.20200 48.80300 41.43700
O  44.21900 49.49400 41.46100
C  45.22500 47.43300 40.82100
C  44.25000 46.56200 41.53800
O  44.45800 45.96600 42.60500
O  43.12500 46.36200 40.83400
C  42.14100 45.50900 41.54500
H  49.42900 41.79400 40.74700
H  54.28000 45.56000 42.23900
H  50.31300 50.76500 42.85000
H  45.30700 44.41700 40.38700
H  47.31100 42.60200 39.46400
H  45.93200 41.30900 40.60800
H  45.64000 42.47900 41.96400
H  47.19300 41.61500 41.82000
H  47.21900 44.23900 38.17700
H  46.77900 45.92300 38.43900
H  44.73700 45.56700 37.47300
H  44.48300 44.01400 38.38300
H  51.82800 40.81800 39.70400
H  51.17800 40.38800 41.20800
H  52.76900 40.39000 41.19100
H  55.82900 44.38700 41.43600
H  56.58800 43.04100 42.18400
H  55.32200 43.82500 43.17100
H  54.08800 48.28200 41.61600
H  52.78100 49.84800 43.79500
H  55.80800 47.93100 43.11700
H  54.64100 47.49400 44.40000
H  54.98800 49.16200 44.07700
H  52.35200 51.04300 41.00200
H  53.95100 50.39300 41.18200
H  54.64400 52.24900 42.48700
H  53.24800 52.15700 43.50300
H  52.99800 52.87200 41.96000
H  47.86300 51.73600 43.28300
H  46.25400 51.61300 42.51500
H  47.65300 52.10300 41.55500
H  44.91600 47.31700 39.78300
H  41.75000 45.99100 42.44100
H  42.57000 44.58700 41.93800
H  41.19800 45.43900 41.00300
Mg 35.99600 48.81000 24.27200
C  36.34400 47.09500 27.30700
C  34.75100 51.53500 25.93900
C  35.69500 50.40000 21.26600
C  37.27900 45.95400 22.58200
N  35.43900 49.18200 26.33700
C  35.69300 48.37400 27.46400
C  35.48900 49.17300 28.79000
C  34.69800 50.48100 28.29000
C  34.98100 50.40500 26.77300
C  33.25100 50.64400 28.71400
C  36.77700 49.43700 29.59000
C  36.74800 49.09100 31.13500
H  35.38400 49.00100 31.91600
N  35.43200 50.74000 23.66500
C  34.93300 51.71000 24.50300
C  34.51900 52.81400 23.70800
C  34.89100 52.55100 22.37700
C  35.36800 51.18100 22.35700
C  33.87700 54.02600 24.31600
C  34.72600 53.48300 21.17300
O  35.20700 53.13900 20.09800
C  34.01400 54.82400 21.25600
N  36.15500 48.12100 22.13100
C  36.07300 49.04400 21.21800
C  36.25400 48.30400 19.85800
C  37.07200 47.02500 20.22000
C  36.80300 47.00100 21.69800
C  34.89400 48.03200 19.20200
C  38.50100 47.08000 19.67500
C  39.74100 47.24600 20.69500
N  36.54700 46.87200 24.80300
C  37.10700 45.85600 24.00200
C  37.70100 44.87100 24.85400
C  37.41700 45.33000 26.18300
C  36.60400 46.49300 26.06200
C  38.44600 43.69400 24.34500
C  37.53300 45.02600 27.63900
O  38.09300 44.09100 28.24800
C  36.87000 46.18100 28.37300
C  35.82900 45.72100 29.38000
O  34.67600 45.50600 29.13900
O  36.45200 45.55100 30.55700
C  35.59400 44.82100 31.57000
H  34.41000 52.40200 26.50900
H  35.51100 50.81100 20.27100
H  37.70800 45.07000 22.10600
H  34.81200 48.60700 29.43000
H  35.13100 51.38000 28.72900
H  32.92800 49.92600 29.46800
H  32.58800 50.51000 27.85900
H  33.03600 51.63600 29.11100
H  37.13400 50.45600 29.44000
H  37.55500 48.72800 29.30600
H  37.32100 49.88200 31.62000
H  37.31800 48.20100 31.40100
H  34.46800 54.91300 24.54100
H  33.49500 53.82300 25.31700
H  33.02900 54.29000 23.68500
H  32.93800 54.68300 21.35500
H  34.16900 55.35800 20.31900
H  34.34100 55.52200 22.02700
H  36.77600 48.99200 19.19300
H  36.52500 46.18100 19.80000
H  34.01800 48.19300 19.83000
H  34.73700 47.04800 18.76000
H  34.81400 48.68500 18.33300
H  38.67300 47.83200 18.90600
H  38.69300 46.16800 19.10900
H  40.36900 46.35600 20.72600
H  39.37000 47.61500 21.65200
H  40.25900 48.14700 20.36700
H  38.94600 43.93500 23.40600
H  37.97700 42.71100 24.29800
H  39.17800 43.43300 25.10800
H  37.70700 46.61300 28.92200
H  35.33000 43.79000 31.33500
H  34.67800 45.36000 31.81300
H  36.15700 44.81200 32.50400

