158

Mg -3.20900 17.42300 27.09600
C  -3.76200 15.23300 29.86500
C  -3.68600 19.97200 29.27900
C  -3.11400 19.42300 24.44100
C  -3.41000 14.64200 24.99600
N  -3.65500 17.52100 29.35600
C  -3.71800 16.56600 30.26500
C  -3.79600 17.14000 31.74400
C  -4.10300 18.66100 31.43500
C  -3.81700 18.75400 29.90700
C  -5.48600 19.24600 31.98600
C  -2.54600 16.80700 32.60500
C  -2.30900 17.61600 33.93300
H  -1.87300 16.73900 35.10500
N  -3.28300 19.41600 26.93500
C  -3.52800 20.30200 27.91500
C  -3.48900 21.63600 27.35500
C  -3.23800 21.53900 25.95200
C  -3.22500 20.07000 25.72200
C  -3.70100 22.88500 28.32900
C  -3.00900 22.59100 24.89500
O  -3.02700 22.40000 23.69100
C  -2.67700 23.99900 25.40900
N  -3.20800 17.04700 25.10400
C  -3.09200 18.05700 24.17300
C  -3.01800 17.45500 22.73900
C  -2.86400 15.96500 22.99100
C  -3.21800 15.88500 24.41800
C  -4.16500 17.91200 21.71600
C  -1.50500 15.36400 22.62400
C  -0.24600 15.98400 23.41600
N  -3.49200 15.40800 27.41300
C  -3.57200 14.37000 26.39500
C  -3.80100 13.04500 26.97600
C  -3.81300 13.40700 28.33800
C  -3.67600 14.77800 28.57400
C  -3.93300 11.69300 26.27000
C  -3.89800 12.79600 29.66000
O  -3.96400 11.64700 29.93800
C  -3.92700 13.96100 30.71400
C  -2.91100 13.65000 31.71900
O  -1.71400 13.88800 31.61300
O  -3.51300 13.02300 32.74300
C  -2.73700 12.59200 33.88200
H  -3.55800 20.76800 30.01600
H  -3.14100 20.08800 23.57600
H  -3.57600 13.83300 24.28200
H  -4.69700 16.73000 32.20100
H  -3.25900 19.18500 31.88400
H  -5.35000 20.13200 32.60600
H  -6.09700 18.50900 32.50900
H  -6.16000 19.54100 31.18200
H  -1.71900 17.04100 31.93400
H  -2.56300 15.75800 32.90000
H  -3.19100 18.20200 34.19100
H  -1.55200 18.35000 33.66000
H  -4.32900 23.66200 27.89300
H  -2.73500 23.37700 28.44000
H  -4.14200 22.73000 29.31400
H  -2.04900 24.13200 26.28900
H  -3.58700 24.52900 25.69200
H  -2.15700 24.62700 24.68500
H  -2.08500 17.78600 22.28200
H  -3.73700 15.49100 22.54100
H  -5.12400 17.73900 22.20300
H  -3.99300 17.45200 20.74300
H  -4.20200 18.99400 21.59500
H  -1.40300 15.33200 21.54000
H  -1.47300 14.32900 22.96200
H  -0.17700 15.86000 24.49700
H  -0.24200 17.05900 23.24100
H  0.68600 15.57200 23.03000
H  -3.22200 10.97800 26.68500
H  -3.87400 11.63900 25.18300
H  -4.92200 11.47900 26.67600
H  -4.93200 13.94400 31.13400
H  -2.10100 11.71900 33.74100
H  -3.40100 12.16100 34.63100
H  -2.20900 13.39100 34.40200
Mg 49.52600 35.64600 27.25300
C  47.56700 34.20400 29.77500
C  50.14300 38.24400 29.32300
C  51.57800 36.84800 24.93300
C  48.45000 33.16700 25.01500
N  48.92100 36.19500 29.37500
C  48.23500 35.33100 30.25600
C  48.41900 35.80800 31.69000
C  48.96900 37.29600 31.48400
C  49.25500 37.29400 29.92400
C  48.04100 38.47000 31.88700
C  49.35900 34.79100 32.51300
C  49.22800 34.89500 34.03600
H  48.19500 35.84400 34.60000
N  50.65300 37.32500 27.14800
C  50.72500 38.37200 28.04100
C  51.70200 39.29800 27.65500
C  52.20600 38.87100 26.37900
C  51.45400 37.67500 26.06700
C  52.01300 40.51100 28.48700
C  53.24700 39.52200 25.50100
O  53.51500 39.09500 24.35200
C  54.00600 40.78700 25.86200
N  49.83200 35.13800 25.21900
C  50.84000 35.73100 24.48100
C  51.09600 34.97400 23.14500
C  50.13600 33.78100 23.26000
C  49.38600 34.08500 24.53000
C  50.90400 35.72800 21.80200
C  50.92300 32.38200 23.26600
C  50.82700 31.44700 22.02200
N  48.28400 34.08100 27.33100
C  47.97000 33.14500 26.32500
C  47.11700 32.10500 26.95200
C  46.94400 32.48000 28.29300
C  47.70100 33.70200 28.47800
C  46.63700 30.84000 26.33100
C  46.31100 32.07300 29.53100
O  45.55700 31.12200 29.76500
C  46.54700 33.25800 30.44300
C  46.77000 32.73000 31.81400
O  47.50900 31.80700 32.16600
O  45.73700 33.21100 32.66200
C  45.74900 32.59300 33.99600
H  50.25000 39.06400 30.03600
H  52.24600 37.24300 24.16400
H  48.18000 32.38100 24.30600
H  47.46400 35.70800 32.20700
H  49.89900 37.36800 32.04800
H  46.99300 38.18000 31.96800
H  48.03200 39.15000 31.03600
H  48.34700 38.84400 32.86400
H  50.36100 35.15800 32.29200
H  49.29200 33.74600 32.20900
H  50.18700 35.02800 34.53700
H  49.00800 33.84800 34.24700
H  52.36600 41.32300 27.85100
H  52.78500 40.27000 29.21700
H  51.14400 40.94400 28.98300
H  54.78800 40.91200 25.11300
H  54.49300 40.76300 26.83700
H  53.33400 41.63100 26.01900
H  52.16200 34.74400 23.17000
H  49.31000 33.81300 22.55000
H  51.16600 36.77500 21.95300
H  49.92500 35.59700 21.34100
H  51.71900 35.23800 21.26900
H  50.48900 31.80500 24.08300
H  51.96900 32.54200 23.52500
H  50.56200 30.45700 22.39300
H  51.79900 31.38700 21.53400
H  50.04700 31.66800 21.29300
H  47.42700 30.13400 26.58700
H  46.54300 31.12000 25.28200
H  45.63600 30.57100 26.66600
H  45.62800 33.84100 30.37800
H  45.53600 31.52400 34.01300
H  45.01700 33.12900 34.60000
H  46.69400 32.64500 34.53600

