158

Mg 25.92500 -1.37900 29.52200
C  27.96000 -1.47400 32.39800
C  23.20100 -0.99100 31.45000
C  24.00800 -1.32200 26.76200
C  28.78300 -2.21100 27.65000
N  25.67500 -1.08700 31.70400
C  26.63800 -1.22200 32.67700
C  26.00600 -0.97300 34.07200
C  24.48100 -0.98600 33.71800
C  24.46200 -0.97900 32.18000
C  23.68600 -2.22500 34.29700
C  26.41900 0.30100 34.79200
C  26.69700 0.03700 36.24900
H  26.75200 1.23600 37.29800
N  23.86100 -1.26100 29.14400
C  22.89800 -1.09600 30.11800
C  21.57700 -1.16600 29.49100
C  21.83400 -0.96500 28.11100
C  23.28600 -1.17700 27.95100
C  20.26200 -1.24500 30.35100
C  20.82600 -0.55000 26.98100
O  21.05500 -0.50700 25.77000
C  19.40800 -0.39800 27.39300
N  26.32300 -1.83500 27.50700
C  25.36700 -1.68700 26.50500
C  26.02000 -1.67500 25.12400
C  27.52200 -2.10400 25.40300
C  27.53600 -2.15900 26.93100
C  25.31100 -2.61300 24.06900
C  28.68800 -1.23000 24.79700
C  28.67500 0.32900 25.02300
N  27.99700 -1.77100 29.85500
C  28.99800 -2.10500 29.02500
C  30.31800 -2.03000 29.72600
C  29.91500 -1.74000 31.04600
C  28.52100 -1.67100 31.11700
C  31.61900 -2.39400 29.11800
C  30.41200 -1.55000 32.44600
O  31.55200 -1.45700 32.85200
C  29.15500 -1.42100 33.34200
C  29.34000 -2.45600 34.42000
O  28.69100 -3.46600 34.31200
O  30.20300 -2.10700 35.37900
C  30.36700 -2.95600 36.53300
H  22.33300 -0.94000 32.11100
H  23.49800 -1.06000 25.83200
H  29.69500 -2.51200 27.13100
H  26.16900 -1.86200 34.68000
H  24.05600 -0.15100 34.27500
H  22.73300 -1.89100 34.70800
H  24.16200 -2.77900 35.10500
H  23.39400 -2.86600 33.46500
H  25.62200 1.03900 34.69800
H  27.25900 0.70100 34.22400
H  27.61500 -0.49000 36.50800
H  25.87600 -0.60700 36.56500
H  19.51500 -1.71500 29.71100
H  20.00200 -0.22100 30.62100
H  20.31700 -1.83000 31.26900
H  19.28100 0.21400 28.28600
H  19.04300 -1.42100 27.48000
H  18.81400 0.06200 26.60300
H  25.82600 -0.65800 24.78400
H  27.56400 -3.07800 24.91500
H  26.05300 -3.35300 23.77200
H  25.14000 -1.94600 23.22400
H  24.32300 -2.94600 24.38900
H  28.56600 -1.39100 23.72600
H  29.67700 -1.61600 25.04400
H  28.11900 0.58300 25.92500
H  28.35600 0.78700 24.08600
H  29.73400 0.56900 25.11900
H  32.31100 -1.62600 29.46400
H  31.67700 -2.49100 28.03400
H  31.99600 -3.33700 29.51300
H  29.26300 -0.48900 33.89500
H  30.33300 -4.03600 36.38800
H  29.57500 -2.70100 37.23700
H  31.37900 -2.70200 36.84800
Mg 8.72700 48.40700 28.02000
C  7.17600 47.58000 30.97900
C  11.61200 48.84700 29.64400
C  10.17900 49.44600 25.17500
C  5.58900 48.60900 26.46800
N  9.25600 48.28500 30.10700
C  8.44000 47.96700 31.19600
C  9.21100 48.30900 32.50000
C  10.43100 49.13700 31.90700
C  10.46600 48.76000 30.42000
C  10.37900 50.67100 32.09800
C  9.51000 47.08100 33.44000
C  9.07500 47.27900 34.91400
H  9.50800 46.29000 35.99800
N  10.67400 48.70000 27.39600
C  11.74300 48.82500 28.23900
C  12.94500 48.79100 27.40200
C  12.56500 48.92000 26.06600
C  11.06100 48.97600 26.14400
C  14.27600 48.68700 28.08300
C  13.36800 49.02000 24.79200
O  12.80300 49.03500 23.74900
C  14.91300 48.97400 24.90900
N  7.99200 48.92000 26.13200
C  8.81200 49.50700 25.15700
C  8.05700 50.08900 24.00400
C  6.60900 49.58500 24.28200
C  6.68900 48.96000 25.72200
C  8.09200 51.66200 24.08600
C  6.13800 48.55300 23.19800
C  5.00200 49.07500 22.29300
N  6.74300 48.18100 28.56300
C  5.60100 48.15200 27.78600
C  4.53000 47.78600 28.64100
C  5.10900 47.48700 29.91100
C  6.45000 47.75200 29.79200
C  3.00200 47.66300 28.27400
C  4.78400 47.10300 31.28600
O  3.64800 46.83800 31.71400
C  6.15100 47.06000 31.97800
C  6.30600 45.74700 32.52600
O  6.93200 44.84100 31.94300
O  5.92100 45.75500 33.84000
C  6.43500 44.59800 34.63300
H  12.46300 49.06400 30.29200
H  10.64500 49.96300 24.33300
H  4.62600 48.59800 25.95200
H  8.56300 48.96200 33.08400
H  11.28300 48.81500 32.50600
H  9.56900 50.95400 32.77000
H  10.18600 51.24200 31.18900
H  11.32800 51.02400 32.50300
H  10.54700 46.76100 33.34200
H  8.88700 46.28300 33.03600
H  7.98600 47.25500 34.96400
H  9.27000 48.28500 35.28500
H  14.17500 48.41400 29.13400
H  14.75100 49.66700 28.11900
H  14.83000 47.85100 27.65800
H  15.23400 49.88000 25.42400
H  15.31100 48.83100 23.90500
H  15.33000 48.12800 25.45500
H  8.53700 49.82700 23.06200
H  5.91700 50.41600 24.41900
H  7.20900 52.18600 23.72100
H  8.87500 52.08200 23.45500
H  8.29800 51.88600 25.13300
H  6.00200 47.57100 23.65300
H  6.95300 48.33200 22.50800
H  5.07800 49.11000 21.20600
H  4.69900 50.07400 22.60800
H  4.17200 48.36900 22.30500
H  2.33700 47.64800 29.13800
H  2.89800 46.67900 27.81600
H  2.74900 48.39000 27.50200
H  6.02800 47.81100 32.75800
H  7.25300 44.85100 35.30700
H  6.64500 43.65600 34.12700
H  5.56100 44.40500 35.25600

