158

Mg 1.74200 -1.82200 44.28900
C  4.82900 -0.60700 43.48000
C  0.30800 0.67000 42.30500
C  -1.37200 -3.25700 44.55100
C  3.11500 -4.54900 45.82200
N  2.53400 -0.26600 42.81900
C  3.85800 0.10600 42.74900
C  3.97500 1.41800 42.02700
C  2.53000 1.78700 41.68300
C  1.70900 0.62800 42.31900
C  2.13700 3.21900 42.15100
C  4.96600 1.45400 40.82700
C  5.86500 2.72500 40.60600
H  6.39800 3.08700 39.21900
N  -0.24800 -1.36000 43.63900
C  -0.58800 -0.25300 42.87900
C  -2.09700 -0.24400 42.68600
C  -2.56000 -1.39800 43.29900
C  -1.39200 -2.10100 43.79400
C  -2.86400 0.79900 41.80000
C  -4.07500 -1.79200 43.34000
O  -4.92700 -1.01600 42.86800
C  -4.64300 -3.07900 43.98400
N  0.98700 -3.57300 45.00200
C  -0.31800 -3.93400 45.12500
C  -0.58000 -5.10400 46.10500
C  0.85100 -5.54000 46.47300
C  1.67200 -4.56000 45.63200
C  -1.49400 -4.78700 47.29200
C  1.21000 -6.97800 45.98100
C  2.06300 -7.76300 46.93300
N  3.60500 -2.42300 44.72100
C  4.06900 -3.57300 45.38900
C  5.48400 -3.49400 45.56700
C  5.87200 -2.32100 44.87800
C  4.67300 -1.80400 44.31400
C  6.40600 -4.43400 46.26600
C  6.97200 -1.47200 44.59300
O  8.14400 -1.57100 44.92400
C  6.32100 -0.34400 43.66200
C  6.48400 0.94800 44.38200
O  5.72300 1.26900 45.23900
O  7.48800 1.80100 43.82400
C  7.38200 3.15000 44.34600
H  -0.19300 1.42300 41.69300
H  -2.27800 -3.79900 44.82800
H  3.46500 -5.43700 46.35200
H  4.35400 2.16400 42.72600
H  2.45000 1.63000 40.60700
H  2.31300 3.96900 41.38000
H  2.73400 3.52700 43.00900
H  1.10300 3.38700 42.45300
H  4.45500 1.35700 39.87000
H  5.62300 0.59800 40.98100
H  6.71500 2.63600 41.28300
H  5.31200 3.63500 40.83800
H  -3.29900 0.33700 40.91300
H  -2.06800 1.50500 41.56600
H  -3.69000 1.31700 42.28800
H  -4.25900 -3.03900 45.00300
H  -4.33000 -3.96300 43.42900
H  -5.72900 -3.10600 44.08000
H  -1.12200 -5.88900 45.57800
H  1.01700 -5.32500 47.52800
H  -1.77800 -3.75900 47.06500
H  -1.12100 -4.90800 48.30900
H  -2.35800 -5.42400 47.10300
H  1.71600 -7.02800 45.01700
H  0.26700 -7.50500 45.83900
H  1.53000 -8.67600 47.19800
H  2.37800 -7.36000 47.89600
H  2.99300 -7.96200 46.40100
H  5.87900 -4.72400 47.17500
H  7.33700 -4.00600 46.63900
H  6.69200 -5.26400 45.62100
H  6.89800 -0.25600 42.74100
H  8.28000 3.64800 43.98100
H  7.42400 3.18700 45.43500
H  6.45600 3.59900 43.98700
Mg 26.67000 49.98500 26.95100
C  24.79600 51.15600 29.70100
C  29.12600 49.24700 29.19500
C  28.52200 49.31400 24.25100
C  24.16000 51.22000 24.90500
N  26.87200 50.18800 29.18900
C  26.02700 50.64600 30.10000
C  26.42600 50.23200 31.55600
C  27.92900 49.69500 31.34800
C  28.01400 49.79400 29.82100
C  29.04300 50.53400 32.05500
C  25.41900 49.21600 32.12000
C  24.45500 49.73500 33.23400
H  24.37600 49.15000 34.56900
N  28.62700 49.46900 26.74700
C  29.49700 49.18300 27.78600
C  30.75900 48.80400 27.15300
C  30.62900 48.82500 25.74800
C  29.18900 49.19500 25.53300
C  31.94200 48.42600 27.95300
C  31.65200 48.63100 24.66700
O  31.33300 48.76800 23.45900
C  33.08400 48.17700 25.06200
N  26.37300 50.25600 24.84200
C  27.26000 49.78300 23.95200
C  26.63700 49.77000 22.50400
C  25.25600 50.44200 22.69200
C  25.23400 50.64400 24.23600
C  27.50500 50.39500 21.32800
C  24.18000 49.43100 22.23600
C  23.57300 49.76900 20.80300
N  24.85300 50.91000 27.18700
C  23.98800 51.45800 26.22400
C  22.85200 52.12500 26.85200
C  23.12500 51.95800 28.19500
C  24.32100 51.22700 28.33800
C  21.74900 52.85900 26.10800
C  22.63000 52.28400 29.53300
O  21.58700 52.85300 29.86400
C  23.61400 51.65700 30.52300
C  23.93200 52.69900 31.59800
O  24.77100 53.57200 31.41900
O  23.05300 52.64200 32.65100
C  23.04200 53.82000 33.48100
H  29.82300 48.77300 29.88900
H  29.19100 49.20600 23.39400
H  23.44500 51.62200 24.18400
H  26.46500 51.14400 32.15100
H  27.99200 48.67300 31.72000
H  28.55100 51.04000 32.88500
H  29.47400 51.27800 31.38400
H  29.86000 49.91600 32.42700
H  25.84200 48.31100 32.55500
H  24.73100 48.92100 31.32800
H  23.48200 49.54200 32.78100
H  24.49200 50.82000 33.33200
H  32.67500 49.21400 27.77900
H  32.27900 47.44800 27.60900
H  31.73900 48.43600 29.02400
H  33.20200 47.51700 25.92100
H  33.47100 49.15800 25.34000
H  33.67400 47.83000 24.21400
H  26.51900 48.75400 22.13000
H  25.20300 51.37700 22.13500
H  28.31100 50.89600 21.86400
H  26.83900 51.05400 20.77100
H  27.75700 49.61200 20.61300
H  23.39700 49.41500 22.99400
H  24.40500 48.36600 22.18100
H  23.48500 48.89600 20.15600
H  24.12000 50.60800 20.37400
H  22.58600 50.19700 20.97600
H  22.12200 53.76400 25.62900
H  20.87200 53.02800 26.73300
H  21.48300 52.19800 25.28300
H  22.95000 50.86100 30.85900
H  22.17000 53.80900 34.13500
H  22.92000 54.75200 32.92900
H  23.91900 53.93200 34.11800

