158

Mg 7.63400 2.31000 26.80900
C  9.01800 0.68500 29.86900
C  5.22200 3.65900 28.80000
C  6.18400 3.30200 24.08300
C  9.41900 -0.26900 25.01400
N  7.13900 2.04500 29.03800
C  7.89400 1.46000 30.08400
C  7.21100 1.84900 31.43100
C  5.92300 2.59500 31.00300
C  6.10200 2.80400 29.52000
C  4.61200 1.87800 31.51900
C  8.21600 2.69500 32.25400
C  8.09100 2.56100 33.79300
H  9.34600 2.79400 34.70400
N  6.02100 3.52100 26.49800
C  5.14000 3.99800 27.42100
C  4.19000 4.83400 26.82500
C  4.42600 4.75800 25.39600
C  5.56400 3.83200 25.27100
C  3.18100 5.76300 27.53300
C  3.79000 5.48600 24.22200
O  3.99900 5.24200 23.07900
C  2.80500 6.52700 24.44300
N  7.72900 1.51500 24.84800
C  7.14000 2.23400 23.85800
C  7.65000 1.84900 22.46000
C  8.70600 0.75500 22.77900
C  8.60000 0.59200 24.29200
C  6.50100 1.44500 21.46900
C  10.12200 1.05100 22.31800
C  10.96600 -0.08000 21.60500
N  9.08000 0.66200 27.27200
C  9.65500 -0.21900 26.40200
C  10.34100 -1.20700 27.14400
C  10.31800 -0.85000 28.48900
C  9.38300 0.28200 28.55100
C  11.10400 -2.32500 26.42700
C  10.74800 -1.07700 29.83800
O  11.55900 -1.79100 30.38400
C  10.01500 -0.04900 30.74500
C  9.33900 -0.83100 31.88300
O  8.84500 -1.94700 31.86000
O  9.61100 -0.23100 33.08400
C  9.29800 -1.00400 34.30800
H  4.53200 4.08100 29.53300
H  5.76700 3.64700 23.13400
H  9.91400 -1.01900 24.39400
H  6.94300 0.95100 31.98800
H  5.91800 3.60100 31.42300
H  4.28500 2.49700 32.35500
H  4.82100 0.85000 31.81400
H  3.89300 1.75400 30.71000
H  8.13600 3.73800 31.94900
H  9.23700 2.36100 32.07100
H  7.62500 1.63800 34.14000
H  7.51000 3.42500 34.11600
H  3.38600 6.81500 27.33100
H  3.33500 5.59400 28.59900
H  2.14000 5.53400 27.30700
H  3.36200 7.36500 24.86200
H  2.11500 6.07900 25.15900
H  2.24900 6.85700 23.56600
H  8.19100 2.69500 22.03600
H  8.27500 -0.12700 22.30600
H  6.07300 2.33700 21.01200
H  5.68700 1.05600 22.08100
H  6.71900 0.72600 20.67900
H  10.58800 1.53200 23.17800
H  10.00900 1.86500 21.60200
H  10.40200 -1.00700 21.71500
H  11.90100 -0.28900 22.12500
H  10.95900 0.23600 20.56200
H  11.99700 -2.48900 27.03000
H  11.36300 -1.81400 25.49900
H  10.55400 -3.25100 26.26400
H  10.82000 0.57900 31.12600
H  8.51300 -1.75900 34.27000
H  8.88300 -0.26500 34.99400
H  10.19900 -1.39300 34.78400
Mg -0.16500 33.54300 26.97400
C  -1.99300 31.75000 29.51800
C  1.21000 35.38700 29.44600
C  1.31400 34.96000 24.60700
C  -2.05500 31.46300 24.61400
N  -0.30100 33.52600 29.28800
C  -1.03100 32.66700 30.05500
C  -0.92600 32.98200 31.57300
C  0.05300 34.22700 31.47500
C  0.31100 34.43500 29.96000
C  -0.35200 35.48900 32.22200
C  -0.35600 31.83800 32.43700
C  -1.26800 31.30800 33.58000
H  -0.65500 30.98600 34.97500
N  0.92800 35.08500 27.02700
C  1.49600 35.74700 28.07400
C  2.37100 36.83100 27.59400
C  2.37700 36.67500 26.20500
C  1.53900 35.49900 25.86800
C  3.07200 37.78900 28.45700
C  3.17100 37.47400 25.18500
O  3.09900 37.37000 24.01700
C  4.19400 38.45900 25.65900
N  -0.37500 33.30500 24.94000
C  0.50900 33.97700 24.17600
C  0.36700 33.67300 22.60100
C  -0.67100 32.47900 22.65500
C  -1.15300 32.42900 24.14000
C  0.00800 34.82200 21.68700
C  -0.17300 31.08700 22.31500
C  -1.00600 30.25500 21.38300
N  -1.58500 31.93600 27.00200
C  -2.26200 31.17700 25.95100
C  -3.17900 30.22600 26.54500
C  -3.07700 30.37200 27.94900
C  -2.19500 31.51200 28.12500
C  -4.12500 29.19400 25.86700
C  -3.65700 29.95800 29.23300
O  -4.51200 29.10000 29.48300
C  -2.91300 30.86900 30.31600
C  -3.83000 31.59900 31.18000
O  -4.12300 32.79900 30.95900
O  -4.33000 30.90300 32.29200
C  -5.34000 31.65200 33.07500
H  1.69400 35.86800 30.29800
H  1.78800 35.58100 23.84500
H  -2.52500 30.81400 23.87200
H  -1.86600 33.43200 31.89300
H  0.98900 33.84500 31.88200
H  0.57600 36.01400 32.45000
H  -0.94200 35.34100 33.12600
H  -0.94100 36.15400 31.59000
H  0.63300 32.02100 32.85600
H  -0.27400 30.98000 31.76900
H  -1.67400 30.32300 33.35000
H  -2.09200 31.99600 33.77400
H  2.64900 37.91600 29.45400
H  3.03800 38.82000 28.10300
H  4.12900 37.55300 28.58400
H  3.66800 39.32500 26.06100
H  4.80300 38.62600 24.77000
H  4.74000 38.09900 26.53100
H  1.33600 33.28100 22.29400
H  -1.55200 32.70400 22.05300
H  0.86800 34.83900 21.01700
H  -0.23700 35.70500 22.27600
H  -0.81800 34.74800 20.97900
H  -0.12300 30.46400 23.20800
H  0.83900 31.04800 21.91100
H  -0.24900 29.71900 20.81000
H  -1.73900 30.77400 20.76600
H  -1.48500 29.53200 22.04400
H  -3.41600 28.49900 25.41500
H  -4.78000 29.66800 25.13600
H  -4.54800 28.51900 26.61100
H  -2.27900 30.25100 30.95200
H  -5.89100 32.36600 32.46200
H  -4.96900 32.27900 33.88500
H  -6.00600 30.88600 33.47200

