158

Mg 9.93900 47.90800 26.37800
C  7.93700 48.09200 29.29200
C  12.46000 49.27100 28.19700
C  11.51600 47.95500 23.57900
C  6.80600 47.32000 24.62300
N  10.14400 48.60700 28.59400
C  9.22200 48.51200 29.60200
C  9.82300 48.96000 30.90300
C  11.11400 49.58700 30.43400
C  11.27700 49.19000 28.99200
C  11.17200 51.11000 30.72200
C  10.09600 47.75300 31.88900
C  9.59200 48.08200 33.33800
H  9.48300 46.78100 34.28700
N  11.71100 48.40800 25.92600
C  12.66700 48.79100 26.88200
C  14.01800 48.66700 26.23300
C  13.78400 48.49300 24.88800
C  12.29400 48.23200 24.72000
C  15.38700 48.92100 27.07100
C  14.76300 48.44100 23.76200
O  14.40600 48.27400 22.60900
C  16.24200 48.64000 23.99900
N  9.27300 47.62300 24.36100
C  10.12400 47.68600 23.39300
C  9.52500 47.35200 22.02000
C  8.07300 47.04300 22.38600
C  8.00700 47.26300 23.89000
C  9.77900 48.38700 20.91000
C  7.63000 45.55300 21.99700
C  7.66200 45.22600 20.47900
N  7.83700 47.61700 26.80700
C  6.76900 47.41500 26.01200
C  5.54900 47.27800 26.72500
C  5.92600 47.49800 28.06400
C  7.36300 47.70400 28.04400
C  4.13800 46.99200 26.15800
C  5.46400 47.73800 29.37200
O  4.27900 47.79700 29.78300
C  6.75200 48.02700 30.26300
C  6.84100 46.90400 31.25100
O  7.52700 45.90500 31.24200
O  5.70200 47.05700 32.07400
C  5.45900 46.00000 33.04800
H  13.37800 49.62500 28.67200
H  12.16300 47.53800 22.80400
H  5.86000 47.21700 24.08700
H  9.18100 49.71200 31.36400
H  11.96400 49.05400 30.86200
H  12.07900 51.22900 31.31600
H  10.38100 51.50000 31.36300
H  11.35300 51.68600 29.81400
H  11.17500 47.62900 31.98000
H  9.78800 46.74900 31.59600
H  8.55900 48.42800 33.29500
H  10.14900 48.89900 33.79700
H  15.16400 48.88600 28.13700
H  15.86500 49.88000 26.86800
H  16.10200 48.11400 26.90800
H  16.71600 48.80800 23.03200
H  16.80500 47.85900 24.51100
H  16.32800 49.53900 24.60900
H  9.90400 46.39500 21.66200
H  7.40900 47.64000 21.76100
H  9.83700 49.39800 21.31300
H  9.01200 48.48100 20.14100
H  10.74000 48.29000 20.40400
H  6.68600 45.31000 22.48500
H  8.36800 44.86800 22.41400
H  8.43500 44.49500 20.24400
H  7.87400 46.11400 19.88300
H  6.67600 44.90400 20.14500
H  3.72400 47.88100 25.68200
H  3.45900 46.52800 26.87200
H  4.26300 46.27900 25.34300
H  6.83400 48.93900 30.85300
H  5.70500 46.47500 33.99800
H  6.04200 45.11600 32.79000
H  4.39900 45.75100 32.99600
Mg -2.82700 35.45600 26.55300
C  -4.53600 33.37100 28.82700
C  -1.41900 37.12900 29.10000
C  -1.44400 37.42100 24.26700
C  -4.70900 33.75800 23.98900
N  -3.11400 35.36700 28.60200
C  -3.70500 34.30600 29.39500
C  -3.43100 34.49400 30.86300
C  -2.55900 35.81900 30.92700
C  -2.34800 36.13400 29.40400
C  -3.15400 37.07500 31.72800
C  -2.68200 33.29200 31.50600
C  -3.47600 32.61500 32.69000
H  -2.69900 32.64700 33.97000
N  -1.43600 36.89300 26.69000
C  -0.89800 37.44400 27.84600
C  0.12500 38.45400 27.46100
C  0.10000 38.55400 26.02200
C  -0.96500 37.54500 25.58400
C  1.00000 39.11100 28.46700
C  0.96100 39.41900 25.07800
O  0.93000 39.43200 23.82300
C  1.98000 40.25700 25.76100
N  -3.24400 35.73900 24.53000
C  -2.46900 36.57800 23.77600
C  -2.87400 36.49600 22.28600
C  -3.75600 35.22700 22.19400
C  -4.02200 34.93800 23.66200
C  -3.50000 37.78300 21.71100
C  -3.01300 34.04600 21.34000
C  -1.86400 33.35600 22.12600
N  -4.44800 34.00700 26.36400
C  -5.05500 33.36600 25.27500
C  -5.94900 32.32200 25.76300
C  -5.76300 32.21500 27.10800
C  -4.89000 33.28100 27.41400
C  -6.85600 31.41900 24.90400
C  -6.19400 31.58600 28.30700
O  -6.98300 30.69300 28.49600
C  -5.35300 32.28800 29.43700
C  -6.42900 32.87600 30.34600
O  -7.24300 33.69100 30.02900
O  -6.42200 32.29500 31.59400
C  -7.42200 32.83100 32.55900
H  -0.97900 37.66000 29.94700
H  -0.90100 38.04000 23.55000
H  -5.25700 33.28400 23.17200
H  -4.40400 34.62400 31.33500
H  -1.56700 35.69700 31.36200
H  -2.87900 36.85100 32.75900
H  -4.21600 37.22600 31.53500
H  -2.56400 37.94800 31.44600
H  -1.71100 33.68100 31.80900
H  -2.62800 32.55500 30.70400
H  -3.66300 31.55200 32.53500
H  -4.43600 33.02800 33.00200
H  0.88200 38.74100 29.48500
H  0.84500 40.18900 28.51400
H  2.02100 38.87500 28.16600
H  2.48000 40.88000 25.01900
H  2.78800 39.72300 26.26000
H  1.41200 40.87200 26.46000
H  -1.89600 36.38000 21.81900
H  -4.66500 35.44800 21.63400
H  -4.54900 37.63900 21.45200
H  -3.00500 38.08700 20.78800
H  -3.37000 38.53400 22.49000
H  -2.60100 34.30500 20.36500
H  -3.78100 33.29600 21.15300
H  -2.20400 32.41600 22.56200
H  -1.60100 34.10000 22.87800
H  -0.97900 33.27600 21.49600
H  -7.20900 30.53300 25.43200
H  -6.19900 31.16300 24.07300
H  -7.65600 31.95000 24.38800
H  -4.77400 31.55500 29.99900
H  -7.92400 31.99500 33.04600
H  -8.23000 33.41400 32.11700
H  -6.96100 33.55200 33.23500

