158

Mg 25.92600 0.08800 28.78200
C  27.59800 0.12200 31.97800
C  22.95800 0.58100 30.48000
C  24.38800 0.22900 25.74800
C  28.71800 -1.18000 27.20300
N  25.36800 0.40000 30.98400
C  26.19800 0.33800 32.15200
C  25.34900 0.65100 33.39900
C  23.92600 0.88700 32.87200
C  24.05600 0.58200 31.37100
C  22.76800 0.08000 33.68200
C  26.11600 1.77600 34.30800
C  25.20100 2.52500 35.32000
H  25.75300 2.70600 36.74600
N  23.92200 0.39100 28.20000
C  22.87000 0.47500 29.02300
C  21.67300 0.55900 28.18500
C  22.09300 0.58800 26.82900
C  23.51200 0.49500 26.87800
C  20.23700 0.59800 28.73800
C  21.23300 0.72800 25.55100
O  21.71200 0.73300 24.39400
C  19.70600 0.99700 25.69700
N  26.51600 -0.39300 26.77300
C  25.71300 -0.13400 25.66500
C  26.40700 -0.63000 24.37500
C  27.87200 -0.91100 24.84300
C  27.71100 -0.78500 26.34000
C  25.65700 -1.82500 23.74400
C  28.95200 -0.01100 24.30400
C  28.79800 1.50300 24.72300
N  27.68300 -0.53200 29.38200
C  28.70200 -1.12200 28.62900
C  29.84700 -1.34800 29.60400
C  29.43100 -0.84600 30.85200
C  28.12600 -0.40400 30.71300
C  31.13400 -1.90900 29.30600
C  29.90000 -0.51800 32.21400
O  30.95500 -0.81600 32.75900
C  28.69800 -0.05900 33.01800
C  28.39800 -1.18300 33.89200
O  27.96100 -2.24000 33.50700
O  28.59400 -0.73400 35.21500
C  28.37800 -1.84400 36.23500
H  21.98000 0.73200 30.94300
H  23.88200 0.22400 24.78000
H  29.68400 -1.39000 26.74100
H  25.34000 -0.23700 34.03200
H  23.86500 1.97200 32.95700
H  22.42500 -0.72700 33.03500
H  21.90900 0.72200 33.88100
H  23.13600 -0.47000 34.54800
H  26.49400 2.45700 33.54600
H  26.84400 1.17500 34.85200
H  24.29000 1.93200 35.40700
H  24.95200 3.49400 34.88700
H  19.74200 1.56200 28.61800
H  20.24400 0.32400 29.79200
H  19.69600 -0.19400 28.22000
H  19.26400 0.03500 25.95800
H  19.42500 1.27800 24.68200
H  19.46100 1.80200 26.39000
H  26.43500 0.18900 23.65600
H  28.27400 -1.90500 24.64200
H  24.67000 -2.01600 24.16600
H  26.23200 -2.74800 23.81300
H  25.42400 -1.59200 22.70400
H  28.91800 -0.12900 23.22100
H  29.93700 -0.28200 24.68300
H  29.40900 1.60100 25.62000
H  27.83700 1.85000 25.10100
H  29.30800 2.08200 23.95300
H  31.12100 -2.43100 28.34900
H  31.31800 -2.57800 30.14600
H  31.92000 -1.15400 29.31400
H  28.65900 0.85200 33.61600
H  28.77200 -2.78300 35.84700
H  27.33300 -1.90100 36.54200
H  28.94400 -1.70200 37.15500
Mg -11.59600 17.44400 42.63700
C  -8.15700 17.57900 42.77300
C  -11.92100 20.73400 42.35200
C  -14.91700 16.93800 42.18600
C  -11.26300 13.78700 42.34800
N  -10.17600 18.99500 42.47600
C  -8.81500 18.86200 42.53300
C  -8.20900 20.27000 42.65600
C  -9.49500 21.20200 42.82400
C  -10.60400 20.27600 42.52700
C  -9.76300 22.04100 44.15400
C  -7.25200 20.61000 41.45000
C  -5.66100 20.64700 41.53000
H  -4.80600 19.88800 40.51100
N  -13.20700 18.69500 42.32900
C  -13.14900 20.05500 42.26400
C  -14.45200 20.66300 42.22400
C  -15.36100 19.57700 42.16700
C  -14.55200 18.36000 42.11300
C  -14.66500 22.17000 42.12700
C  -16.88000 19.69500 42.09900
O  -17.46600 20.77400 42.25900
C  -17.67600 18.46700 41.96400
N  -12.80200 15.64200 42.15800
C  -14.16200 15.77700 42.07700
C  -14.76500 14.44800 42.01200
C  -13.64600 13.44300 41.70300
C  -12.46900 14.33000 42.09300
C  -15.42400 14.18300 43.42100
C  -13.59900 13.12600 40.19600
C  -14.05600 11.73100 39.88800
N  -10.11200 15.96400 42.73400
C  -10.11900 14.55600 42.68500
C  -8.76500 14.05300 42.81000
C  -7.98500 15.17800 42.96700
C  -8.80200 16.28500 42.80300
C  -8.33800 12.56600 42.80600
C  -6.61700 15.66800 43.06900
O  -5.61100 15.01100 43.11900
C  -6.67800 17.32300 42.94900
C  -6.27200 17.64500 44.42000
O  -7.14400 17.87600 45.25700
O  -4.90900 17.63700 44.61600
C  -4.54400 17.63700 46.04800
H  -11.95100 21.82600 42.34000
H  -15.96100 16.61900 42.22300
H  -11.30000 12.71400 42.14400
H  -7.60200 20.27300 43.56100
H  -9.37300 22.03800 42.13400
H  -9.79200 23.10900 43.94100
H  -8.98700 21.90000 44.90600
H  -10.72000 21.71900 44.56500
H  -7.56800 21.57500 41.05500
H  -7.47300 19.86700 40.68400
H  -5.38700 20.33800 42.53900
H  -5.32700 21.65900 41.30400
H  -14.81600 22.53700 41.11200
H  -13.83400 22.77300 42.49400
H  -15.49100 22.33100 42.82100
H  -18.70400 18.77500 41.77500
H  -17.72800 17.93400 42.91400
H  -17.39900 17.84700 41.11100
H  -15.54900 14.48600 41.25500
H  -13.64800 12.55500 42.33500
H  -16.50000 14.08100 43.28000
H  -15.32400 14.92000 44.21700
H  -15.17300 13.21500 43.85500
H  -12.55700 13.02900 39.89000
H  -14.13800 13.88300 39.62600
H  -14.74900 11.45400 40.68300
H  -13.24600 11.00400 39.83300
H  -14.64400 11.73600 38.96900
H  -8.51200 12.06700 43.75900
H  -7.26100 12.56200 42.63800
H  -8.83900 12.02800 42.00100
H  -5.93800 17.75500 42.27500
H  -3.51800 17.27400 46.10200
H  -5.21500 16.95000 46.56300
H  -4.68600 18.64200 46.44400

