158

Mg -13.22000 38.00600 43.38000
C  -11.17500 35.62800 41.87100
C  -11.50400 40.50000 41.73500
C  -15.83300 40.07500 43.98000
C  -14.87900 35.41300 45.01000
N  -11.51800 38.07100 41.97600
C  -10.83800 36.94100 41.57100
C  -9.61400 37.34200 40.67800
C  -9.50600 38.93800 40.95800
C  -10.92500 39.18600 41.53800
C  -8.29700 39.36200 41.94800
C  -9.83100 37.00700 39.17900
C  -8.81500 35.99500 38.60800
H  -7.97000 36.43500 37.37200
N  -13.60200 39.99600 42.88800
C  -12.77100 40.90200 42.25800
C  -13.43600 42.17300 42.06100
C  -14.77700 41.95900 42.50800
C  -14.81100 40.57800 43.17400
C  -12.86000 43.41800 41.51600
C  -15.93900 42.90800 42.39600
O  -15.77400 44.06800 42.03600
C  -17.35400 42.50200 42.56600
N  -15.18200 37.73800 44.24700
C  -15.98200 38.79200 44.51100
C  -17.15000 38.40400 45.41500
C  -16.77700 36.87700 45.80000
C  -15.50300 36.63100 45.01900
C  -17.56900 39.28700 46.64100
C  -17.88600 35.87200 45.46900
C  -18.04300 34.77700 46.52500
N  -13.21000 35.85900 43.42700
C  -13.82800 34.97100 44.19900
C  -13.23600 33.68100 44.08500
C  -12.28300 33.84700 43.08300
C  -12.25900 35.26100 42.72600
C  -13.54800 32.45000 44.99100
C  -11.25600 33.21700 42.35900
O  -10.96200 31.99600 42.17900
C  -10.44200 34.35600 41.55900
C  -9.00800 34.35500 42.09200
O  -8.02200 34.01300 41.41900
O  -8.92500 34.78800 43.41800
C  -7.61600 34.83600 44.04300
H  -10.75500 41.25800 41.49900
H  -16.57000 40.80100 44.33200
H  -15.26000 34.59400 45.62400
H  -8.71600 36.83900 41.03700
H  -9.43600 39.40900 39.97700
H  -7.59100 40.03300 41.45900
H  -7.73000 38.62800 42.51900
H  -8.87000 39.91200 42.69500
H  -9.76000 37.90100 38.55900
H  -10.80800 36.53000 39.11100
H  -9.42900 35.18400 38.21600
H  -8.12300 35.65800 39.38000
H  -13.38000 44.34300 41.76300
H  -12.91200 43.34700 40.42900
H  -11.79900 43.59200 41.69500
H  -17.50300 41.47800 42.22500
H  -17.97500 43.15600 41.95400
H  -17.62000 42.65000 43.61300
H  -17.99500 38.35500 44.72700
H  -16.63700 36.83900 46.88000
H  -16.95600 40.18800 46.67000
H  -17.59000 38.74200 47.58500
H  -18.58500 39.61800 46.42900
H  -17.54600 35.45600 44.52100
H  -18.86500 36.31000 45.27200
H  -18.95100 34.89900 47.11500
H  -17.24700 34.78600 47.26900
H  -17.88600 33.77900 46.11600
H  -14.61000 32.42900 45.23700
H  -13.03000 32.51600 45.94800
H  -13.25200 31.54700 44.45800
H  -10.47600 34.06800 40.50900
H  -7.42400 35.86100 44.35800
H  -6.69100 34.58600 43.52300
H  -7.59600 34.22000 44.94200
Mg -5.98300 25.01800 26.72600
C  -4.47000 26.39600 29.61800
C  -7.63600 22.79500 28.63300
C  -6.98000 23.62800 23.83800
C  -3.69600 26.97500 24.84700
N  -5.94100 24.57000 28.92000
C  -5.40700 25.34200 29.90100
C  -5.89700 24.79200 31.31200
C  -6.54400 23.36500 30.87200
C  -6.71800 23.57200 29.35800
C  -5.81800 22.03300 31.26700
C  -6.75000 25.84400 32.09700
C  -7.52000 25.51100 33.37100
H  -6.96900 24.67300 34.52600
N  -7.29900 23.58000 26.25800
C  -7.94700 22.79600 27.24000
C  -8.90000 21.93500 26.53300
C  -8.76900 22.12900 25.11400
C  -7.65000 23.17700 24.98300
C  -9.87100 21.11200 27.40600
C  -9.63500 21.58700 23.97300
O  -9.48700 21.88400 22.78700
C  -10.73200 20.59600 24.36200
N  -5.40500 25.28700 24.64700
C  -5.99100 24.58100 23.66000
C  -5.41000 24.89400 22.32400
C  -4.54300 26.19900 22.59700
C  -4.61800 26.25400 24.13100
C  -4.60600 23.60700 21.97000
C  -4.82400 27.56900 21.86300
C  -3.55400 28.17800 21.20800
N  -4.40600 26.35700 27.10000
C  -3.62700 27.09300 26.22900
C  -2.73700 27.97000 26.92300
C  -3.11600 27.77500 28.26000
C  -4.10600 26.76400 28.34000
C  -1.80500 29.02000 26.39200
C  -2.85700 28.19200 29.60300
O  -2.13000 29.06800 30.09700
C  -3.72900 27.26700 30.56900
C  -2.69200 26.50000 31.35700
O  -1.83500 25.83600 30.77200
O  -2.83900 26.60200 32.68800
C  -1.65500 25.96900 33.35800
H  -8.18100 21.98800 29.12800
H  -7.33000 23.15200 22.92000
H  -2.98100 27.59000 24.29700
H  -4.97600 24.45500 31.78800
H  -7.49600 23.18200 31.37100
H  -5.21700 21.67500 30.43100
H  -6.51800 21.21900 31.45800
H  -5.12300 22.12800 32.10100
H  -7.53300 26.14700 31.40200
H  -6.09300 26.65300 32.41700
H  -8.41800 25.01800 32.99800
H  -7.78800 26.49300 33.76000
H  -9.69200 20.04100 27.50900
H  -10.91400 21.29100 27.14700
H  -9.93300 21.51700 28.41600
H  -11.45600 21.13000 24.97800
H  -10.32000 19.80600 24.99000
H  -11.27700 20.14900 23.53100
H  -6.12900 25.06800 21.52400
H  -3.54900 25.84500 22.32300
H  -5.15500 23.17100 21.13500
H  -4.48300 22.90700 22.79600
H  -3.60400 23.87800 21.63600
H  -5.12300 28.37600 22.53200
H  -5.50900 27.36500 21.04000
H  -3.87900 28.43800 20.20000
H  -2.69300 27.51300 21.13600
H  -3.36900 29.09100 21.77300
H  -1.34000 28.63100 25.48600
H  -1.03400 29.25500 27.12600
H  -2.35600 29.94100 26.20000
H  -4.36100 27.68900 31.35100
H  -1.34300 26.73900 34.06300
H  -0.79800 25.76700 32.71500
H  -1.87200 24.98100 33.76500

