158

Mg 43.03400 4.10700 47.41900
C  40.89800 6.80400 47.31700
C  40.31200 2.07900 47.07900
C  45.17200 1.55600 46.95600
C  45.71700 6.38600 47.16200
N  40.82800 4.46000 46.92800
C  40.20300 5.63400 47.25900
C  38.64100 5.42600 47.38000
C  38.57000 3.87200 47.36500
C  39.99800 3.48000 47.05700
C  37.97800 3.32800 48.62700
C  37.79500 6.20300 46.25300
C  38.09600 5.75700 44.77600
H  38.50900 6.80000 43.79400
N  42.73600 2.10200 47.01100
C  41.57600 1.44100 46.85600
C  41.78400 0.06600 46.65100
C  43.21700 -0.14800 46.58700
C  43.80400 1.18200 46.82400
C  40.74300 -1.02100 46.58800
C  43.91600 -1.43700 46.39600
O  43.31600 -2.47700 46.32100
C  45.39100 -1.58000 46.34700
N  45.17200 3.97300 47.21000
C  45.77600 2.78500 47.03000
C  47.31800 2.96400 47.05200
C  47.40300 4.52900 46.79700
C  46.02300 5.05800 47.11100
C  47.97500 2.37600 48.37900
C  48.11600 4.90000 45.46200
C  49.44200 5.70500 45.59600
N  43.26400 6.19600 47.35800
C  44.42200 6.97700 47.30400
C  43.99100 8.39100 47.22800
C  42.61900 8.34100 47.30500
C  42.24600 7.00600 47.31100
C  45.01700 9.52000 47.27700
C  41.48700 9.27800 47.34000
O  41.39800 10.50000 47.29400
C  40.25600 8.23400 47.36900
C  39.42500 8.54500 48.58900
O  39.48500 7.78100 49.53200
O  38.49700 9.55000 48.31800
C  37.41800 9.63600 49.22400
H  39.50300 1.36500 47.24900
H  45.93800 0.78100 46.87400
H  46.55000 7.09200 47.11500
H  38.24800 5.87200 48.29400
H  38.00900 3.56100 46.48400
H  38.69600 2.66700 49.11100
H  37.12900 2.72800 48.30000
H  37.60100 4.09100 49.30800
H  38.12800 7.24000 46.21200
H  36.71000 6.19300 46.35700
H  37.23300 5.31000 44.28200
H  38.94100 5.06900 44.79600
H  40.98800 -1.72400 45.79200
H  39.73600 -0.60500 46.60500
H  40.76400 -1.65100 47.47700
H  45.80100 -0.76300 45.75300
H  45.66300 -2.51800 45.86300
H  45.83500 -1.64600 47.34000
H  47.55700 2.27100 46.24500
H  47.99400 4.93100 47.62000
H  48.64500 1.56500 48.09400
H  47.22900 1.91900 49.02900
H  48.35800 3.23500 48.93000
H  47.36600 5.50400 44.95200
H  48.42700 4.02200 44.89600
H  50.14800 5.09400 46.15800
H  49.15000 6.55500 46.21200
H  49.70400 5.96100 44.56900
H  45.73300 9.38400 48.08700
H  44.51200 10.44300 47.56300
H  45.52700 9.61300 46.31800
H  39.69800 8.41000 46.44900
H  36.89300 10.58700 49.13700
H  37.60800 9.53800 50.29300
H  36.63000 8.95600 48.90000
Mg 48.21900 44.34500 43.03000
C  44.76200 44.04600 42.92800
C  48.45300 40.85700 42.75200
C  51.68800 44.58200 42.59000
C  47.97200 47.77000 42.60900
N  46.75200 42.63300 42.70800
C  45.34100 42.71500 42.86400
C  44.73400 41.33600 42.89100
C  45.98600 40.46000 42.59500
C  47.12300 41.34000 42.72000
C  46.19400 39.26600 43.62400
C  43.56900 41.12500 41.84900
C  43.69400 41.81100 40.50600
H  43.73300 40.94300 39.24700
N  49.83300 42.91900 42.78800
C  49.64200 41.56600 42.61200
C  50.89800 40.94700 42.42700
C  51.91100 41.88600 42.38400
C  51.14500 43.20800 42.64100
C  51.01000 39.47600 42.51000
C  53.40900 41.77700 42.20800
O  53.89400 40.63800 42.16600
C  54.35300 42.92200 41.92100
N  49.63900 45.87400 42.71600
C  50.97200 45.73500 42.61200
C  51.69500 47.11600 42.59800
C  50.49700 48.11300 42.74000
C  49.29400 47.22900 42.64200
C  52.76900 47.24700 43.66400
C  50.57000 49.39200 41.83200
C  50.41300 50.77900 42.60300
N  46.65200 45.68600 42.81900
C  46.73100 47.02000 42.72700
C  45.35300 47.47700 42.68600
C  44.54000 46.40400 42.86300
C  45.36300 45.29200 42.83800
C  44.98400 48.90300 42.43800
C  43.18000 45.94200 42.97300
O  42.10300 46.50600 42.94200
C  43.32000 44.34900 43.01200
C  42.72600 43.92400 44.37300
O  41.74700 43.22500 44.54800
O  43.36700 44.60000 45.38700
C  42.83700 44.45000 46.78300
H  48.61000 39.78000 42.66200
H  52.78000 44.57700 42.61500
H  47.78100 48.81500 42.35700
H  44.40700 41.28100 43.92900
H  45.90600 40.07000 41.58000
H  45.25200 38.81700 43.93900
H  46.85900 39.64400 44.40100
H  46.71500 38.54300 42.99600
H  42.66300 41.48800 42.33400
H  43.40800 40.06400 41.65700
H  44.59100 42.43000 40.49900
H  42.76200 42.37000 40.42700
H  50.76200 39.28000 43.55300
H  51.99400 39.04500 42.32400
H  50.41700 38.81700 41.87500
H  54.11600 43.50100 41.02900
H  55.27400 42.38400 41.69500
H  54.59100 43.55400 42.77700
H  52.26400 47.34700 41.69700
H  50.30900 48.54000 43.72500
H  52.36500 47.72800 44.55500
H  53.48100 47.94200 43.21800
H  53.37800 46.38700 43.94100
H  49.76800 49.35300 41.09500
H  51.51600 49.53700 41.31000
H  49.86300 50.68000 43.53900
H  49.95100 51.56200 42.00200
H  51.41800 51.13500 42.82900
H  45.60900 49.32900 41.65300
H  45.12300 49.43900 43.37700
H  43.90400 48.91900 42.29400
H  42.65400 43.84100 42.31600
H  42.23200 43.55500 46.92700
H  42.20000 45.26100 47.13600
H  43.55600 44.43200 47.60200

