158

Mg 25.99100 -0.55500 28.74300
C  27.63000 -0.91900 31.79100
C  23.01400 -0.05800 30.61400
C  24.28400 -0.22400 25.98000
C  28.85300 -1.60800 27.14300
N  25.43900 -0.24700 31.04100
C  26.35600 -0.39700 32.02600
C  25.65300 -0.25800 33.37000
C  24.13900 -0.06600 33.02300
C  24.19700 -0.10600 31.47500
C  23.15000 -1.21700 33.54400
C  26.24500 0.84800 34.25600
C  26.74600 0.40100 35.69500
H  26.42300 1.37200 36.77500
N  23.89200 -0.21700 28.35800
C  22.87000 -0.03000 29.25300
C  21.63700 0.22500 28.48600
C  22.02600 0.40600 27.10500
C  23.43200 -0.05100 27.10000
C  20.21400 0.46500 29.08500
C  21.24300 0.89400 25.91500
O  21.73900 0.76900 24.82900
C  19.88000 1.57300 26.11600
N  26.54900 -0.87400 26.79200
C  25.64700 -0.70200 25.78500
C  26.32900 -0.83100 24.38600
C  27.68600 -1.55500 24.76900
C  27.73400 -1.33200 26.33900
C  25.40800 -1.53200 23.34100
C  28.92500 -1.01200 23.97800
C  28.80300 -0.61500 22.50800
N  27.84500 -1.14300 29.33500
C  28.92700 -1.44500 28.57700
C  30.08100 -1.67600 29.37600
C  29.62800 -1.44900 30.68300
C  28.25500 -1.18500 30.60800
C  31.43100 -2.13900 28.83800
C  30.03400 -1.49500 32.04000
O  31.07400 -1.71500 32.52400
C  28.76000 -1.17800 32.80100
C  28.40300 -2.31900 33.74800
O  27.56200 -3.17200 33.48100
O  29.11900 -2.29900 34.93700
C  28.68000 -3.29300 35.92300
H  22.17400 0.22200 31.25300
H  23.90200 -0.01100 24.97900
H  29.76300 -1.97300 26.66300
H  25.52400 -1.14000 33.99800
H  23.70500 0.89100 33.31200
H  23.53500 -2.16000 33.93200
H  22.26700 -1.44200 32.94600
H  22.81200 -0.74500 34.46600
H  25.44900 1.55000 34.50300
H  27.06600 1.26600 33.67300
H  27.80200 0.27800 35.45500
H  26.29100 -0.57500 35.86300
H  19.97900 -0.14300 29.95800
H  19.46900 0.15300 28.35300
H  19.94800 1.51200 29.22900
H  19.92700 2.29500 26.93100
H  19.15500 0.81700 26.42100
H  19.50200 2.12200 25.25400
H  26.57700 0.20800 24.17100
H  27.52300 -2.62700 24.65800
H  25.77100 -2.45900 22.89900
H  25.26000 -0.76700 22.57800
H  24.49400 -1.77000 23.88400
H  29.63800 -1.83400 24.03100
H  29.35500 -0.21200 24.58200
H  27.94100 -1.00500 21.96700
H  29.65000 -0.97500 21.92500
H  28.75900 0.46000 22.33400
H  31.51400 -1.84300 27.79300
H  31.68100 -3.17200 29.08300
H  32.13100 -1.51500 29.39400
H  29.02300 -0.31200 33.40800
H  27.72900 -2.92300 36.30500
H  29.34500 -3.26000 36.78700
H  28.73600 -4.36700 35.74900
Mg 29.84000 59.06300 39.85100
C  27.19200 57.42600 38.45200
C  31.92400 56.45700 38.95200
C  32.60100 61.06800 40.12200
C  27.82000 62.05700 39.94400
N  29.55000 57.14100 38.75900
C  28.38800 56.62800 38.34600
C  28.48700 55.17900 37.85100
C  29.96300 54.86800 38.41600
C  30.55200 56.22500 38.67300
C  29.90300 54.03900 39.71200
C  28.30800 55.18200 36.27300
C  27.23000 54.31100 35.72000
H  26.32500 54.96200 34.66600
N  31.96200 58.71000 39.74200
C  32.63300 57.62600 39.34400
C  34.02900 57.73800 39.57800
C  34.31100 59.03200 40.00900
C  32.91100 59.65400 39.99500
C  35.01700 56.66400 39.21000
C  35.73000 59.60200 40.32800
O  36.70900 58.88100 40.13500
C  35.91500 60.94800 40.88700
N  30.06000 61.22600 40.14000
C  31.37600 61.71300 40.16900
C  31.29100 63.25900 40.21900
C  29.78300 63.55600 40.38200
C  29.16500 62.21100 40.05800
C  32.09200 63.89600 41.41900
C  29.18500 64.79000 39.57600
C  28.95800 66.07300 40.37600
N  27.85100 59.55600 39.54800
C  27.11400 60.80000 39.67700
C  25.71300 60.49400 39.35300
C  25.70400 59.16900 38.94400
C  27.06200 58.68500 38.97900
C  24.59900 61.58700 39.21900
C  24.81700 58.13000 38.37700
O  23.57300 58.10900 38.18300
C  25.71200 56.89600 38.14000
C  25.43500 55.72200 39.10700
O  25.91700 55.59500 40.25300
O  24.62300 54.82900 38.46500
C  24.36600 53.62600 39.32400
H  32.45900 55.50900 38.86600
H  33.47600 61.72100 40.14300
H  27.22200 62.95800 40.09200
H  27.68400 54.60500 38.31500
H  30.53700 54.27100 37.70600
H  29.19700 54.48900 40.41000
H  30.90500 54.09500 40.13800
H  29.66500 52.97900 39.62400
H  29.27100 55.02800 35.78700
H  28.06400 56.19300 35.94700
H  26.59700 53.94100 36.52700
H  27.75700 53.51100 35.19900
H  35.74800 56.64500 40.01900
H  35.45600 56.67600 38.21300
H  34.47600 55.71800 39.22700
H  36.93800 61.05000 41.25000
H  35.26600 61.21200 41.72200
H  35.76700 61.62000 40.04100
H  31.59800 63.65200 39.25000
H  29.53700 63.74900 41.42600
H  31.55200 64.53800 42.11500
H  33.00000 64.35300 41.02300
H  32.45500 63.06600 42.02500
H  28.30000 64.48600 39.01700
H  29.88200 65.10100 38.79800
H  29.60300 66.86700 39.99800
H  29.26600 65.98500 41.41800
H  27.88000 66.20700 40.46200
H  25.07400 62.56400 39.12900
H  24.00800 61.52500 40.13300
H  23.91900 61.47200 38.37500
H  25.46400 56.58000 37.12700
H  23.82600 52.89100 38.72700
H  23.75800 53.98600 40.15400
H  25.26600 53.17700 39.74300

