158

Mg 16.98300 -1.14700 27.69100
C  15.98300 0.63000 30.39700
C  19.09700 -3.21700 29.92700
C  18.62500 -2.49900 25.14600
C  15.35500 1.09700 25.70900
N  17.42100 -1.41500 29.96700
C  16.80600 -0.46500 30.81700
C  17.24900 -0.76700 32.24100
C  18.44800 -1.69000 32.07700
C  18.34200 -2.19600 30.57800
C  19.83800 -1.02900 32.28000
C  16.08700 -1.21900 33.21300
C  16.06100 -0.65900 34.67900
H  17.33900 -0.21900 35.42400
N  18.54600 -2.62000 27.52500
C  19.18700 -3.38000 28.50600
C  19.93500 -4.38900 27.92400
C  19.70600 -4.36300 26.48600
C  18.98700 -3.11000 26.32500
C  20.66100 -5.46600 28.70700
C  20.08500 -5.27000 25.42900
O  19.87200 -5.02800 24.21600
C  20.71600 -6.63000 25.70600
N  16.88400 -0.90600 25.69100
C  17.63200 -1.55100 24.79800
C  17.60200 -0.95500 23.43000
C  16.44600 0.14400 23.56200
C  16.12800 0.12700 25.11400
C  18.95700 -0.43500 22.85300
C  15.20300 -0.13400 22.71700
C  15.11700 0.70700 21.37600
N  15.72000 0.49500 27.92200
C  15.30400 1.38200 27.03200
C  14.71000 2.50300 27.72800
C  14.92500 2.23300 29.04700
C  15.56600 0.97900 29.11500
C  14.07800 3.57600 27.09400
C  14.61100 2.66200 30.36400
O  13.90500 3.61100 30.67800
C  15.37300 1.67000 31.33300
C  16.35500 2.50800 32.02200
O  17.50500 2.68100 31.65200
O  15.86700 2.85500 33.28600
C  16.61700 3.87600 34.00200
H  19.83800 -3.73100 30.54300
H  19.01500 -2.82700 24.18000
H  15.03900 1.93200 25.08100
H  17.61600 0.19100 32.60900
H  18.42200 -2.60100 32.67500
H  20.51800 -1.69700 32.80900
H  19.79500 -0.15100 32.92400
H  20.23300 -0.70200 31.31800
H  16.06200 -2.30800 33.19100
H  15.22100 -0.77600 32.72100
H  15.67300 -1.51300 35.23500
H  15.38700 0.19600 34.73200
H  21.68900 -5.33100 28.37000
H  20.46100 -6.52600 28.54800
H  20.83600 -5.35300 29.77700
H  21.53200 -6.30500 26.35100
H  21.05900 -7.07300 24.77100
H  19.96600 -7.22100 26.23100
H  17.33200 -1.77000 22.75900
H  16.81600 1.15000 23.36300
H  19.64800 -0.41000 23.69600
H  18.88800 0.59200 22.49300
H  19.41300 -1.01000 22.04600
H  14.29800 0.01400 23.30500
H  15.16000 -1.13500 22.28700
H  16.06700 1.17500 21.11700
H  14.40900 1.53500 21.40600
H  14.89800 -0.00900 20.58400
H  13.66500 4.29200 27.80500
H  13.23700 3.08500 26.60400
H  14.69200 4.02600 26.31400
H  14.68600 1.30600 32.09800
H  16.02400 4.51100 34.66100
H  17.17300 4.62100 33.43200
H  17.40300 3.31500 34.50800
Mg 9.36900 48.29900 25.50000
C  6.99400 48.54700 28.15200
C  11.69000 49.63800 27.66800
C  11.58300 47.86000 23.08100
C  6.70000 47.51600 23.46100
N  9.29300 49.01600 27.61200
C  8.29100 48.86300 28.53000
C  8.76700 49.30500 29.95400
C  10.07000 50.08600 29.62100
C  10.40400 49.51100 28.21000
C  9.95800 51.63700 29.52200
C  8.93300 48.11700 30.92800
C  8.48400 48.32200 32.33400
H  8.29700 47.04100 33.16900
N  11.40900 48.55200 25.38400
C  12.15300 49.11100 26.40000
C  13.55900 49.11200 26.00100
C  13.55300 48.70700 24.56700
C  12.14800 48.33500 24.30100
C  14.61900 49.73500 26.83600
C  14.65000 48.68900 23.57400
O  14.33900 48.28500 22.48200
C  15.94100 49.33200 23.78700
N  9.12600 47.84500 23.50300
C  10.22900 47.67300 22.71300
C  9.70600 47.12600 21.35300
C  8.23800 46.97000 21.48700
C  7.98000 47.39800 22.93100
C  10.21400 47.95500 20.11100
C  7.73600 45.52500 21.25200
C  8.46200 44.34400 21.95200
N  7.19500 48.08500 25.70000
C  6.29000 47.84200 24.73200
C  4.95600 47.79900 25.34300
C  5.19000 48.12400 26.70700
C  6.55200 48.18500 26.87500
C  3.68900 47.50300 24.55300
C  4.51200 48.27700 27.96500
O  3.34600 48.21200 28.29000
C  5.68000 48.62200 29.06300
C  5.63800 47.53500 30.06800
O  6.28200 46.48600 30.03400
O  4.81000 47.86200 31.12200
C  4.57100 46.80600 32.18000
H  12.46000 50.00700 28.34800
H  12.18500 47.73500 22.17900
H  5.88800 47.14300 22.83400
H  8.17700 50.10400 30.40300
H  10.85700 49.81100 30.32400
H  10.53800 52.10500 30.31800
H  8.98900 52.13200 29.57600
H  10.35700 51.81100 28.52300
H  9.97800 47.87700 31.12700
H  8.55000 47.19900 30.48300
H  7.57700 48.91600 32.44500
H  9.33000 48.74600 32.87500
H  14.88100 50.71900 26.44600
H  15.48800 49.08100 26.75700
H  14.35600 49.78800 27.89200
H  16.38400 49.20800 24.77500
H  15.67400 50.38100 23.66000
H  16.58100 49.13200 22.92700
H  10.18500 46.14700 21.33800
H  7.67300 47.61200 20.81100
H  11.03900 48.58800 20.43900
H  9.39800 48.60200 19.79000
H  10.50000 47.26400 19.31800
H  7.85800 45.37100 20.18000
H  6.70100 45.39000 21.56700
H  9.20500 44.66800 22.68100
H  8.87500 43.77400 21.12000
H  7.73200 43.73700 22.48700
H  3.85700 47.24300 23.50800
H  2.97800 48.32900 24.51800
H  3.16600 46.74200 25.13200
H  5.62600 49.62600 29.48300
H  4.81900 45.82800 31.76800
H  3.58400 46.86700 32.64000
H  5.28200 47.11100 32.94700

