158

Mg -1.71600 17.89700 27.38600
C  -2.53600 15.81000 29.99700
C  -2.61100 20.61900 29.37600
C  -1.19400 19.94100 24.77200
C  -1.32000 15.16000 25.28600
N  -2.37700 18.16900 29.50400
C  -2.74100 17.20400 30.35400
C  -3.10500 17.79100 31.72000
C  -3.44200 19.29700 31.29100
C  -2.80500 19.38700 29.98000
C  -4.90200 19.72500 31.25400
C  -1.95300 17.69700 32.71500
C  -2.19800 17.14000 34.12200
H  -1.01500 16.98400 35.05100
N  -1.62700 19.93300 27.20800
C  -1.97600 20.93300 28.14600
C  -1.78200 22.25000 27.56400
C  -1.40100 22.09700 26.19400
C  -1.36300 20.62400 26.02500
C  -2.19900 23.47900 28.33100
C  -1.23300 23.16600 25.03500
O  -0.81800 22.79600 23.94600
C  -1.29600 24.55300 25.45300
N  -1.40700 17.61300 25.25900
C  -1.16700 18.58000 24.39900
C  -0.97400 18.09900 23.01400
C  -0.80700 16.57700 23.22500
C  -1.21000 16.38600 24.69900
C  -2.08700 18.47800 21.97600
C  0.66600 16.00400 22.89800
C  1.85400 16.67600 23.65900
N  -1.94400 15.90100 27.53300
C  -1.72500 14.89300 26.64900
C  -1.80100 13.62900 27.34400
C  -2.09300 13.89600 28.66700
C  -2.16900 15.37100 28.72400
C  -1.85100 12.28800 26.73900
C  -2.37500 13.30000 29.92900
O  -2.34900 12.13900 30.31000
C  -2.67300 14.53400 30.82800
C  -1.65100 14.34600 31.90100
O  -0.49600 14.70000 31.78800
O  -2.16900 13.69700 32.95500
C  -1.22600 13.04600 33.88400
H  -2.88200 21.41200 30.07700
H  -0.88900 20.58000 23.94000
H  -1.11900 14.27800 24.67300
H  -3.97000 17.30300 32.16900
H  -3.00400 19.99000 32.01000
H  -5.51500 18.86200 31.51100
H  -5.17500 20.11400 30.27200
H  -5.11900 20.42400 32.06200
H  -1.66000 18.71100 32.98700
H  -1.13700 17.14100 32.25400
H  -2.50900 16.12100 33.89200
H  -2.97300 17.74400 34.59300
H  -1.35500 24.16700 28.38000
H  -2.50700 23.29600 29.36000
H  -3.06300 23.88400 27.80300
H  -2.30300 24.85100 25.74600
H  -0.98000 25.19000 24.62700
H  -0.51600 24.69800 26.20000
H  -0.02100 18.55200 22.74300
H  -1.44500 16.01500 22.54300
H  -2.80800 19.14600 22.44800
H  -2.57800 17.73000 21.35400
H  -1.52200 19.10600 21.28700
H  0.90500 16.32000 21.88300
H  0.69700 14.91500 22.88500
H  1.54100 17.20000 24.56200
H  2.56100 17.29100 23.10300
H  2.45000 15.81700 23.96900
H  -2.73800 11.76500 27.09500
H  -0.92500 11.76800 26.98500
H  -2.02500 12.45900 25.67700
H  -3.65100 14.49900 31.30900
H  -1.27900 11.97400 33.69200
H  -1.56200 13.17200 34.91300
H  -0.17700 13.31300 33.75600
Mg 8.72600 3.89400 27.55200
C  9.84100 2.31100 30.48300
C  6.66900 5.92600 29.49800
C  7.57600 5.30800 24.70800
C  10.55400 1.57200 25.68700
N  8.44900 4.13700 29.75300
C  8.98000 3.36300 30.80400
C  8.40600 3.84600 32.18800
C  7.35900 4.93600 31.74900
C  7.44500 4.96900 30.19400
C  5.89300 4.75000 32.25700
C  9.47900 4.41200 33.12200
C  9.49100 3.70500 34.55200
H  10.85300 3.90200 35.40000
N  7.35400 5.49100 27.20400
C  6.53700 6.15700 28.08300
C  5.71400 7.17100 27.46600
C  6.02100 7.01800 26.05500
C  7.06900 5.91400 25.90200
C  4.80600 8.08100 28.21200
C  5.51400 7.92100 24.87800
O  5.87000 7.75300 23.68000
C  4.53600 8.93100 25.16700
N  8.85800 3.42700 25.50000
C  8.46500 4.31000 24.53300
C  8.99100 3.82200 23.12700
C  9.81400 2.53300 23.49800
C  9.78300 2.55000 25.01700
C  7.94400 3.51400 22.01300
C  11.19600 2.33800 22.83900
C  11.32900 0.89500 22.08000
N  9.84100 2.18700 27.89300
C  10.52400 1.34400 27.08700
C  11.22300 0.32700 27.83300
C  11.04400 0.69900 29.11900
C  10.17200 1.84600 29.15300
C  12.10500 -0.76600 27.33700
C  11.46500 0.41900 30.46600
O  12.30400 -0.44300 30.90100
C  10.67900 1.43100 31.38800
C  9.77600 0.71900 32.32200
O  8.65500 0.32400 31.99000
O  10.32700 0.53400 33.60500
C  9.41800 -0.20200 34.45100
H  5.96900 6.52000 30.09000
H  7.18600 5.81000 23.82000
H  11.07500 0.75500 25.18200
H  7.84800 3.02100 32.63100
H  7.62000 5.97700 31.93900
H  5.35900 4.12100 31.54300
H  5.51000 5.76400 32.37000
H  5.96800 4.24900 33.22200
H  9.21100 5.45200 33.30700
H  10.43600 4.34700 32.60500
H  9.15300 2.67200 34.47100
H  8.73400 4.18500 35.17300
H  5.07300 9.13300 28.10900
H  4.77800 7.90400 29.28700
H  3.79600 7.90900 27.83900
H  4.14700 9.20700 24.18700
H  4.99300 9.79900 25.64200
H  3.71700 8.42800 25.68300
H  9.64900 4.53800 22.63500
H  9.30400 1.62500 23.17700
H  6.90400 3.71700 22.26900
H  7.96400 2.48100 21.66500
H  8.29300 4.17200 21.21800
H  12.05700 2.47300 23.49300
H  11.38800 3.15100 22.13800
H  11.71900 0.99700 21.06700
H  10.45700 0.24700 22.16300
H  12.17600 0.39700 22.55200
H  13.15900 -0.49000 27.32100
H  11.93600 -1.06000 26.30100
H  11.95600 -1.66100 27.94000
H  11.50200 1.87000 31.95100
H  8.37800 0.10400 34.33800
H  9.58000 -0.12500 35.52600
H  9.35000 -1.18300 33.98100

