158

Mg 55.15800 23.79600 45.09600
C  52.36900 25.75400 43.95800
C  53.46300 21.04300 43.78600
C  57.91100 22.11000 45.23700
C  56.86800 26.78500 45.91700
N  53.16400 23.49500 43.82100
C  52.18800 24.45400 43.56800
C  50.96000 23.81700 42.95300
C  51.16700 22.32700 43.36500
C  52.70300 22.22100 43.66700
C  50.33700 21.80300 44.61000
C  50.95600 24.13900 41.37800
C  49.67100 24.11600 40.56600
H  49.80600 23.95100 39.00800
N  55.67900 21.79900 44.67800
C  54.81600 20.78900 44.20100
C  55.57300 19.47700 44.19100
C  56.90700 19.80200 44.49400
C  56.86900 21.24000 44.80600
C  54.92900 18.21200 43.74900
C  58.06600 18.85200 44.51800
O  57.96200 17.62500 44.32200
C  59.58000 19.24500 44.54100
N  57.08500 24.34300 45.58300
C  58.02500 23.43800 45.54700
C  59.41700 24.11900 45.86700
C  59.07200 25.58900 46.23300
C  57.61500 25.60200 45.88600
C  60.39000 23.36900 46.83700
C  59.92700 26.59300 45.34900
C  60.32300 27.87900 46.17100
N  54.68300 25.79600 45.15100
C  55.45500 26.87500 45.53000
C  54.58900 27.99800 45.67300
C  53.38000 27.60000 45.02400
C  53.50100 26.26600 44.65900
C  54.86400 29.25300 46.34800
C  52.04500 28.10500 44.68100
O  51.53800 29.22900 44.91300
C  51.35900 26.91200 43.81100
C  51.18400 27.43500 42.48200
O  52.07400 27.55800 41.56500
O  49.88200 27.89800 42.35400
C  49.29400 28.08700 41.00600
H  52.81800 20.21100 43.49500
H  58.85600 21.58500 45.39400
H  57.38600 27.68300 46.26000
H  50.04600 24.25700 43.35300
H  50.87200 21.66900 42.54700
H  49.87700 22.58500 45.21500
H  50.98800 21.22900 45.26800
H  49.60300 21.07500 44.26200
H  51.63300 23.35100 41.04900
H  51.42500 25.11500 41.25700
H  49.03900 24.98300 40.75700
H  49.16600 23.26400 41.02100
H  55.35900 17.99500 42.77200
H  53.83900 18.24500 43.76800
H  55.20800 17.32800 44.32200
H  59.59700 19.75700 43.57900
H  60.25300 18.40000 44.39400
H  59.96900 19.88400 45.33300
H  59.80800 24.10200 44.85000
H  59.20100 25.80300 47.29300
H  59.86100 22.54100 47.30900
H  60.75200 24.03200 47.62300
H  61.23900 22.96400 46.28600
H  59.37800 26.90300 44.46000
H  60.81700 26.06700 45.00300
H  60.40000 28.75200 45.52200
H  61.36600 27.72900 46.44800
H  59.69500 28.09300 47.03500
H  54.00700 29.84600 46.66900
H  55.58900 29.83300 45.77700
H  55.38300 29.02800 47.27900
H  50.37900 26.80400 44.27500
H  49.83500 27.63300 40.17600
H  49.24000 29.16700 40.87000
H  48.30000 27.65700 40.87600
Mg 35.24900 48.90300 26.40000
C  35.57000 46.69900 29.05700
C  34.25900 51.31200 28.88900
C  34.37200 51.00500 24.05300
C  35.89000 46.37000 24.14500
N  34.89200 48.90600 28.67700
C  35.23700 47.94500 29.55400
C  35.03600 48.32500 30.99600
C  34.36600 49.76900 30.86500
C  34.59700 50.06500 29.37100
C  32.87900 49.89900 31.19500
C  36.43100 48.29800 31.74600
C  36.49500 47.96100 33.22700
H  35.22100 48.08200 34.07000
N  34.52600 50.90700 26.42200
C  34.18400 51.69600 27.47100
C  33.66000 52.98800 27.05900
C  33.86000 52.99800 25.66300
C  34.30500 51.64400 25.27800
C  33.04500 54.10300 27.91600
C  33.69300 54.10300 24.52700
O  33.81100 53.97100 23.31300
C  33.44700 55.48300 25.04100
N  35.08700 48.73900 24.39000
C  34.73300 49.73000 23.53700
C  34.57600 49.23300 22.14200
C  35.38000 47.85400 22.16800
C  35.59200 47.63200 23.65500
C  33.11900 49.16800 21.56900
C  36.65100 47.73200 21.35100
C  37.89200 48.46800 21.84600
N  35.72800 46.90100 26.47000
C  35.98500 45.97000 25.50400
C  36.15800 44.63900 26.13300
C  36.04000 44.88200 27.50800
C  35.67700 46.25700 27.65500
C  36.54400 43.41100 25.35400
C  36.14900 44.27500 28.77900
O  36.43200 43.10400 29.09900
C  35.83800 45.41900 29.83500
C  34.67100 44.87500 30.58500
O  33.55400 44.65300 30.06600
O  35.04900 44.51500 31.84600
C  33.95500 44.00600 32.64100
H  33.81900 52.02300 29.59100
H  33.90800 51.59400 23.26000
H  35.83800 45.58300 23.39000
H  34.41800 47.57200 31.48400
H  34.98600 50.47800 31.41400
H  32.38300 48.95500 31.42200
H  32.33300 50.36300 30.37400
H  32.78400 50.58900 32.03400
H  36.95600 49.25400 31.74100
H  37.09900 47.62900 31.20300
H  37.33500 48.42500 33.74500
H  36.76000 46.90400 33.18100
H  32.35000 54.76600 27.40100
H  33.84600 54.55000 28.50500
H  32.58500 53.63300 28.78500
H  33.49700 56.22800 24.24700
H  34.22600 55.74900 25.75500
H  32.44900 55.56600 25.47200
H  35.10200 49.93200 21.49100
H  34.66600 47.11300 21.80800
H  32.38500 49.39600 22.34200
H  32.91300 48.16700 21.19000
H  32.86300 49.79800 20.71700
H  36.30200 47.91400 20.33400
H  36.83000 46.65700 21.34500
H  38.81000 47.90500 22.01400
H  37.69300 49.11900 22.69800
H  38.20800 49.13400 21.04200
H  36.33000 42.49400 25.90400
H  37.60800 43.51200 25.13600
H  36.05100 43.25700 24.39500
H  36.71500 45.33000 30.47600
H  33.53800 43.17900 32.06600
H  33.22300 44.77100 32.89900
H  34.36700 43.55700 33.54600

