158

Mg -9.86600 40.29600 42.59200
C  -9.16000 36.89800 41.78600
C  -7.02400 41.18200 40.93600
C  -10.90800 43.39800 42.96000
C  -13.08900 39.11800 43.76500
N  -8.33700 39.14900 41.40500
C  -8.17800 37.78100 41.29100
C  -6.93100 37.46300 40.43600
C  -6.22700 38.84900 40.39800
C  -7.25200 39.81100 40.93300
C  -4.89500 38.89500 41.22900
C  -7.33600 36.82400 38.96800
C  -6.38500 35.76200 38.38300
H  -5.53700 36.08300 37.13300
N  -9.11700 42.05600 41.98400
C  -7.91200 42.25500 41.39700
C  -7.57400 43.64900 41.44900
C  -8.71000 44.30100 41.90300
C  -9.62800 43.18100 42.30500
C  -6.38600 44.17000 40.68700
C  -8.94000 45.84500 41.89800
O  -8.10500 46.59300 41.44400
C  -10.21900 46.50400 42.45500
N  -11.70100 41.11000 43.36000
C  -11.82600 42.48300 43.42800
C  -13.18600 42.83000 44.04400
C  -13.84100 41.48200 44.24000
C  -12.86700 40.52200 43.74300
C  -12.95600 43.65200 45.32100
C  -15.29900 41.53900 43.61800
C  -16.29600 42.14900 44.61600
N  -10.95600 38.42000 42.69600
C  -12.17900 38.14400 43.25600
C  -12.38200 36.69000 43.27400
C  -11.23500 36.13900 42.69000
C  -10.39600 37.26200 42.33000
C  -13.46600 35.90100 43.94200
C  -10.55000 34.92200 42.38300
O  -10.79200 33.74100 42.58900
C  -9.20600 35.35800 41.68700
C  -8.04200 34.64000 42.30600
O  -7.86000 34.39400 43.55100
O  -7.25200 34.08900 41.33900
C  -6.09100 33.34100 41.71600
H  -6.06000 41.55200 40.58100
H  -11.22000 44.42900 43.14000
H  -14.06300 38.79600 44.14000
H  -6.27400 36.77400 40.96700
H  -6.05100 39.08000 39.34700
H  -4.89000 39.80400 41.83000
H  -4.07200 38.90300 40.51400
H  -4.88300 38.11400 41.98800
H  -7.34600 37.58600 38.18800
H  -8.32600 36.37500 39.04000
H  -6.98000 34.87500 38.16800
H  -5.65200 35.51000 39.14900
H  -6.48300 45.18400 40.29800
H  -6.11500 43.63300 39.77800
H  -5.54600 44.10400 41.37700
H  -10.34100 46.26100 43.51000
H  -11.07500 46.11000 41.90700
H  -10.19300 47.58900 42.35900
H  -13.70700 43.43900 43.30400
H  -14.07300 41.50700 45.30500
H  -12.02500 44.19900 45.17400
H  -12.80400 43.01200 46.19100
H  -13.76600 44.32500 45.60100
H  -15.64100 40.53900 43.35000
H  -15.33300 42.14100 42.71000
H  -15.79800 42.49800 45.52000
H  -16.96800 41.35200 44.93400
H  -16.88000 42.99300 44.24700
H  -14.38200 36.08200 43.38000
H  -13.58400 36.36400 44.92100
H  -13.36200 34.81900 44.02400
H  -9.26000 35.23100 40.60600
H  -5.88700 33.36700 42.78700
H  -5.20600 33.72000 41.20400
H  -6.20600 32.31300 41.37300
Mg 0.00600 44.18700 26.43900
C  2.13900 43.91100 29.12500
C  -2.53700 42.72000 28.44000
C  -1.93900 44.00000 23.76800
C  2.63400 45.19700 24.47800
N  -0.17700 43.55200 28.60100
C  0.81600 43.59400 29.49900
C  0.32700 43.27000 30.98700
C  -1.10100 42.68200 30.69500
C  -1.33100 42.99600 29.14900
C  -1.32800 41.18500 30.99500
C  0.30300 44.61900 31.72100
C  1.05700 44.70400 33.03600
H  0.73500 43.49600 34.05500
N  -1.91800 43.47700 26.14300
C  -2.80000 42.88200 27.09800
C  -4.06000 42.60900 26.46200
C  -3.93200 43.10600 25.10900
C  -2.58900 43.56900 24.92000
C  -5.24700 42.13800 27.24100
C  -4.86400 42.88500 23.91400
O  -4.68300 43.40400 22.79900
C  -6.14300 42.07500 24.17100
N  0.30400 44.55200 24.38500
C  -0.67000 44.43900 23.49300
C  -0.19600 44.88600 22.10500
C  1.21400 45.43600 22.35000
C  1.42700 45.04100 23.81700
C  -0.35800 43.83100 20.98100
C  1.55600 46.89500 22.00700
C  1.45500 47.93900 23.08200
N  1.95600 44.42200 26.66900
C  2.93400 44.73000 25.74100
C  4.25900 44.77400 26.39800
C  3.94700 44.48600 27.75700
C  2.59600 44.23300 27.84400
C  5.61900 44.89500 25.72100
C  4.51400 44.27900 29.07100
O  5.68500 44.32500 29.35800
C  3.30900 43.83900 30.03500
C  3.59400 42.58700 30.79400
O  3.30600 41.44800 30.45600
O  4.08300 42.95400 31.98900
C  4.08900 41.85000 32.92500
H  -3.33300 42.23700 29.00900
H  -2.52300 43.83900 22.85900
H  3.55400 45.51300 23.98100
H  0.90700 42.50500 31.50400
H  -1.89200 43.23200 31.20400
H  -0.48900 40.74600 31.53600
H  -1.52800 40.56100 30.12400
H  -2.21700 41.12100 31.62300
H  -0.72500 44.93300 31.90300
H  0.74300 45.32400 31.01500
H  0.88000 45.66400 33.52000
H  2.13400 44.82400 32.91500
H  -5.27100 42.44000 28.28800
H  -5.34600 41.05300 27.23600
H  -6.12900 42.62700 26.82500
H  -6.47800 41.72000 23.19700
H  -6.82600 42.79600 24.62000
H  -6.02100 41.25300 24.87600
H  -0.83900 45.72500 21.83900
H  1.96300 44.87800 21.78800
H  0.55000 43.87600 20.38000
H  -1.14900 44.19800 20.32700
H  -0.63200 42.84700 21.36200
H  0.86600 47.36700 21.30800
H  2.52100 46.82800 21.50500
H  2.47400 48.27100 23.28200
H  0.98400 47.64400 24.02000
H  0.94000 48.83000 22.72500
H  5.76900 45.97200 25.64500
H  5.58300 44.47600 24.71500
H  6.39300 44.39500 26.30400
H  3.22900 44.68400 30.71800
H  3.14100 41.31400 32.94600
H  4.45000 42.18300 33.89800
H  4.89100 41.15000 32.68900

