158

Mg 1.77300 8.12400 25.29700
C  2.44700 9.93400 28.10800
C  1.66900 5.32300 27.05800
C  1.58800 6.48800 22.38600
C  1.75800 11.20300 23.37600
N  2.21900 7.66200 27.35400
C  2.25000 8.54500 28.38900
C  2.15000 7.90500 29.80200
C  2.08100 6.40800 29.34300
C  1.98000 6.43800 27.81600
C  3.22300 5.51100 29.83500
C  0.83200 8.36000 30.63100
C  0.93400 8.42500 32.21400
H  2.02400 7.59000 32.86800
N  1.63400 6.17800 24.77300
C  1.52800 5.17300 25.66900
C  1.26300 3.91700 24.92800
C  1.30800 4.22400 23.58600
C  1.58600 5.70000 23.54900
C  0.90400 2.60800 25.66300
C  1.00700 3.39600 22.41100
O  0.85700 3.80200 21.22200
C  0.94600 1.87200 22.55800
N  1.71300 8.75800 23.16100
C  1.65300 7.83500 22.18800
C  1.52400 8.49100 20.78600
C  1.36600 9.97900 21.15200
C  1.65900 10.00600 22.65400
C  2.74400 8.19000 19.86100
C  -0.05200 10.60500 20.81900
C  0.02300 11.50500 19.58400
N  1.97900 10.18900 25.59100
C  2.03400 11.31500 24.72400
C  2.22100 12.51600 25.57800
C  2.43100 11.99400 26.86100
C  2.32400 10.59300 26.85400
C  2.18500 13.94200 25.06900
C  2.73000 12.36600 28.27700
O  3.01800 13.44800 28.76000
C  2.72400 11.00700 29.10600
C  3.92500 10.91100 29.94500
O  4.99900 10.42500 29.54800
O  3.67500 11.32900 31.27000
C  4.86400 11.47500 32.15600
H  1.61900 4.40400 27.64600
H  1.64400 5.91800 21.45600
H  1.84300 12.15300 22.84400
H  3.04500 8.03100 30.41200
H  1.15900 5.96500 29.71900
H  2.98300 4.54500 30.28000
H  3.75300 6.02500 30.63600
H  3.93700 5.44000 29.01400
H  -0.00000 7.67900 30.45300
H  0.50300 9.29500 30.17800
H  -0.02500 8.07400 32.59400
H  1.15500 9.46700 32.44500
H  -0.14400 2.44300 25.41000
H  0.76300 2.63700 26.74400
H  1.54000 1.80700 25.28800
H  1.77400 1.37400 23.06400
H  0.91400 1.34200 21.60700
H  0.05400 1.53200 23.08400
H  0.64800 8.11400 20.25800
H  2.17900 10.55500 20.71100
H  2.58000 7.35400 19.18100
H  3.64700 8.03300 20.45100
H  2.88900 9.02000 19.16900
H  -0.29000 11.20500 21.69700
H  -0.87000 9.92700 20.57600
H  0.89700 11.42800 18.93700
H  0.02800 12.49500 20.03900
H  -0.88800 11.48000 18.98600
H  1.49700 13.97600 24.22500
H  3.16900 14.22200 24.69200
H  1.80400 14.64600 25.81000
H  1.78400 11.10900 29.64900
H  4.69200 12.32600 32.81400
H  5.81800 11.58000 31.63900
H  4.92900 10.55000 32.73000
Mg 47.90500 14.34200 28.05700
C  45.89200 14.38400 30.78400
C  50.14900 16.42900 29.71300
C  49.75800 14.47700 25.26600
C  45.38100 12.89400 26.16100
N  47.91800 15.42800 29.94200
C  47.00800 15.21300 30.97200
C  47.43600 15.93900 32.25000
C  48.63400 16.77700 31.73200
C  48.94300 16.19900 30.33100
C  48.40400 18.35500 31.69500
C  47.69900 14.80000 33.29000
C  47.04400 15.04800 34.70900
H  47.91300 14.85100 35.99000
N  49.80200 15.21100 27.62900
C  50.59800 15.94200 28.40000
C  51.81000 16.20700 27.74100
C  51.79000 15.58100 26.53600
C  50.40600 15.06700 26.40500
C  52.96600 17.10400 28.32900
C  52.87300 15.39700 25.47300
O  52.69100 14.80500 24.42400
C  54.21200 15.87500 25.72000
N  47.60400 13.75500 26.06200
C  48.51200 13.92300 25.06900
C  48.20700 13.28400 23.72300
C  46.75400 12.70300 24.05200
C  46.55500 13.13600 25.50900
C  48.12800 14.22100 22.54300
C  46.73900 11.11100 23.80300
C  47.85600 10.13700 24.33900
N  45.98200 13.73500 28.32000
C  45.07200 13.20000 27.50000
C  43.88000 12.79800 28.27400
C  44.15000 13.29100 29.54600
C  45.42700 13.84400 29.49100
C  42.84100 11.92700 27.63100
C  43.70200 13.31100 30.90300
O  42.68900 12.85700 31.42500
C  44.77900 13.98800 31.81600
C  44.03800 15.15300 32.47200
O  43.72800 16.22500 31.92400
O  43.76400 14.85800 33.78300
C  43.31700 15.92700 34.60700
H  50.80900 17.06500 30.30600
H  50.26900 14.49900 24.30100
H  44.54200 12.43000 25.63800
H  46.60000 16.57100 32.55100
H  49.46900 16.48100 32.36600
H  47.48600 18.63200 32.21100
H  48.42400 18.73100 30.67200
H  49.22700 18.89400 32.16500
H  48.77400 14.66900 33.40900
H  47.24300 13.85500 32.99500
H  46.21500 14.34100 34.69500
H  46.62800 16.05500 34.70100
H  53.88900 16.52500 28.34000
H  52.53800 17.45200 29.26900
H  53.09300 17.92400 27.62200
H  54.12000 16.93700 25.95000
H  54.85600 15.86000 24.84100
H  54.76000 15.29000 26.45900
H  48.92700 12.51200 23.45300
H  45.90000 13.14700 23.54200
H  47.41200 15.01700 22.74600
H  47.75300 13.66600 21.68300
H  49.05700 14.69500 22.22600
H  46.73400 11.03600 22.71500
H  45.76200 10.70700 24.06800
H  48.29700 9.58000 23.51300
H  47.45200 9.39800 25.03100
H  48.56500 10.79900 24.83600
H  43.20100 10.94000 27.33900
H  42.32100 12.42000 26.81000
H  42.12700 11.63400 28.40000
H  45.15100 13.25300 32.53000
H  43.27600 15.50400 35.61000
H  42.36100 16.18600 34.15000
H  44.00300 16.77300 34.64700

