158

Mg 10.11500 47.79300 25.92500
C  8.29300 48.11300 29.07600
C  12.89000 49.07300 27.64600
C  11.71800 47.66300 23.08700
C  7.03500 47.05000 24.45600
N  10.51200 48.54300 28.10800
C  9.65700 48.45900 29.21800
C  10.46600 48.83400 30.47900
C  11.79900 49.49600 29.91700
C  11.75300 48.88700 28.50700
C  11.83600 51.04400 29.90400
C  10.69800 47.62700 31.50700
C  10.38100 48.00900 32.96400
H  10.26200 46.89600 34.06200
N  12.08800 48.34500 25.36700
C  13.07400 48.89600 26.19800
C  14.27500 49.03200 25.40000
C  13.92500 48.60900 24.07200
C  12.51100 48.23100 24.11600
C  15.57000 49.53700 25.98400
C  14.72900 48.51300 22.83400
O  14.25900 48.26900 21.74000
C  16.18700 48.74000 22.88300
N  9.47800 47.47100 24.08400
C  10.33500 47.34700 23.08400
C  9.66800 46.94100 21.78000
C  8.22100 46.55700 22.22500
C  8.22400 47.05300 23.61500
C  9.62100 48.03200 20.58800
C  7.93500 45.00700 22.19300
C  8.88100 44.13300 23.13500
N  8.04200 47.65100 26.53100
C  6.89200 47.41000 25.82800
C  5.68900 47.41800 26.64500
C  6.21200 47.56900 27.96100
C  7.63000 47.69900 27.84500
C  4.30900 47.37200 26.16600
C  5.91100 47.64900 29.35500
O  4.82900 47.65600 29.89400
C  7.20900 47.88300 30.18500
C  7.30100 46.68200 31.00900
O  7.76500 45.61200 30.62300
O  6.87900 46.88700 32.33800
C  6.85500 45.71400 33.13000
H  13.78400 49.22300 28.25500
H  12.09500 47.48400 22.07800
H  6.10500 46.73500 23.97700
H  9.87200 49.62300 30.94000
H  12.71700 49.25200 30.45200
H  11.97900 51.35600 28.86900
H  12.60900 51.36900 30.60000
H  10.86800 51.36400 30.29000
H  11.72100 47.26700 31.39500
H  9.97900 46.84700 31.25800
H  9.56700 48.73300 32.99900
H  11.22800 48.57100 33.35700
H  15.45300 49.79500 27.03700
H  15.96400 50.34700 25.37000
H  16.33500 48.76100 25.95400
H  16.50900 49.77100 22.74000
H  16.48900 48.11800 22.04100
H  16.71200 48.31900 23.74000
H  10.23400 46.08500 21.41200
H  7.43200 47.03200 21.64200
H  10.57600 48.03700 20.06300
H  9.39200 49.01200 21.00700
H  8.77700 47.75400 19.95600
H  8.04000 44.69800 21.15400
H  6.87100 44.93400 22.41800
H  8.29100 43.61500 23.89100
H  9.76900 44.71300 23.38400
H  9.20500 43.34500 22.45500
H  3.65600 47.32200 27.03700
H  4.19400 46.49200 25.53300
H  4.02100 48.33000 25.73200
H  6.96700 48.78900 30.74200
H  7.59800 45.90100 33.90600
H  7.10700 44.73600 32.72100
H  5.88700 45.70300 33.63100
Mg -1.70500 34.09900 27.89300
C  -3.52300 32.18900 30.19800
C  -0.16100 35.52800 30.52100
C  -0.18400 36.07100 25.68800
C  -3.66600 32.58400 25.35100
N  -1.90300 33.82000 30.07200
C  -2.60800 32.98800 30.81400
C  -2.31600 33.15700 32.34300
C  -1.43000 34.45600 32.41100
C  -1.13300 34.61200 30.89200
C  -1.97000 35.77000 33.12400
C  -1.65900 31.89900 33.01600
C  -2.30900 31.44000 34.38300
H  -1.48800 31.43600 35.66200
N  -0.21300 35.43500 28.07100
C  0.20600 35.96200 29.24200
C  1.13700 37.08800 28.98300
C  1.26800 37.13400 27.50700
C  0.30500 36.18100 26.99200
C  1.80000 37.88500 30.06500
C  2.25600 37.97000 26.65600
O  2.25000 37.96300 25.41400
C  3.30100 38.80300 27.28300
N  -2.11300 34.42900 25.78700
C  -1.22000 35.20000 25.10900
C  -1.54500 35.14100 23.59400
C  -2.34200 33.86100 23.45500
C  -2.80400 33.62600 24.92900
C  -2.21200 36.37200 22.94300
C  -1.64800 32.64000 22.87700
C  -1.57300 32.61500 21.39600
N  -3.30300 32.71200 27.77900
C  -3.89800 32.11300 26.69200
C  -4.75400 31.13000 27.04700
C  -4.72500 31.00700 28.49300
C  -3.79000 32.06300 28.85000
C  -5.48700 30.24400 26.07500
C  -5.26500 30.40500 29.66600
O  -6.15200 29.55800 29.79900
C  -4.55300 31.17900 30.80200
C  -5.65100 31.85700 31.63300
O  -6.68600 32.37300 31.11700
O  -5.51000 31.60800 33.01900
C  -6.90400 31.73800 33.58400
H  0.32100 36.05400 31.34700
H  0.42600 36.57200 24.93300
H  -4.16700 31.97000 24.60000
H  -3.26400 33.42300 32.81000
H  -0.51500 34.15500 32.92300
H  -2.67800 35.49100 33.90500
H  -2.39500 36.45700 32.39100
H  -1.25300 36.38200 33.67100
H  -0.61100 32.05100 33.27300
H  -1.59700 31.12400 32.25200
H  -2.69900 30.42500 34.30400
H  -3.25000 31.98800 34.43100
H  1.49800 37.70400 31.09700
H  1.57700 38.91200 29.77600
H  2.86900 37.70300 29.95700
H  4.03500 38.12700 27.72100
H  2.92000 39.49400 28.03500
H  3.78400 39.47300 26.57100
H  -0.64400 34.98500 23.00100
H  -3.23200 34.05200 22.85500
H  -1.69500 36.97000 22.19300
H  -2.38500 37.02400 23.79800
H  -3.17900 36.12000 22.50700
H  -2.27500 31.82500 23.23800
H  -0.62400 32.42300 23.18000
H  -0.55700 32.71800 21.01600
H  -2.29700 33.33900 21.02300
H  -1.99200 31.65600 21.09000
H  -6.25500 30.61700 25.39700
H  -5.99200 29.56200 26.75800
H  -4.72000 29.77100 25.46200
H  -4.06400 30.45300 31.45200
H  -7.03300 31.77300 34.66600
H  -7.47000 30.87800 33.22900
H  -7.42800 32.62000 33.21600

