158

Mg 9.03200 48.64100 26.16100
C  7.06300 48.72500 29.11200
C  11.58300 49.65500 28.15800
C  10.93900 48.74300 23.42600
C  6.17300 48.32200 24.27000
N  9.21500 49.24300 28.38200
C  8.35100 49.13800 29.45600
C  8.98900 49.39500 30.82100
C  10.41500 49.93300 30.34800
C  10.35500 49.66700 28.83200
C  10.76900 51.41000 30.74500
C  9.12700 48.15800 31.75800
C  8.40100 48.30300 33.07800
H  8.45100 47.02500 34.01600
N  11.07400 48.98500 25.90200
C  12.00400 49.38700 26.80000
C  13.33400 49.39100 26.18200
C  13.10800 49.02700 24.81800
C  11.64100 48.92100 24.66600
C  14.61200 49.63700 26.98100
C  14.13900 48.68700 23.67400
O  13.89100 48.19700 22.55800
C  15.58200 48.96500 23.92100
N  8.60100 48.76700 24.16900
C  9.57300 48.60600 23.17500
C  8.99800 48.22200 21.74200
C  7.46600 48.14300 22.07800
C  7.41500 48.37000 23.57700
C  9.39600 49.09300 20.52900
C  6.78800 46.78500 21.74600
C  7.01900 46.31600 20.37200
N  7.00500 48.61500 26.49000
C  5.96200 48.43100 25.64900
C  4.73900 48.49700 26.38000
C  5.10100 48.47300 27.73100
C  6.54000 48.55800 27.75800
C  3.41600 48.47900 25.79000
C  4.64100 48.43400 29.07000
O  3.45200 48.45900 29.46300
C  5.92100 48.37600 30.05100
C  5.93100 46.96500 30.58100
O  6.21500 45.95400 29.91500
O  5.39000 46.90000 31.80700
C  5.50100 45.62300 32.54100
H  12.45200 49.89600 28.77500
H  11.50900 48.55900 22.51300
H  5.28200 48.43300 23.64800
H  8.45900 50.20200 31.32600
H  11.24400 49.32600 30.71100
H  11.73200 51.42900 31.25400
H  9.95500 51.81200 31.34800
H  10.76100 51.98700 29.82000
H  10.18900 47.99300 31.94100
H  8.68600 47.31200 31.23100
H  7.32300 48.45600 33.01900
H  8.78100 49.10900 33.70500
H  14.35500 49.48500 28.03000
H  14.99700 50.60800 26.67100
H  15.34700 48.86200 26.76600
H  15.67500 49.84600 24.55600
H  16.12500 49.11300 22.98700
H  15.88800 48.02300 24.37400
H  9.45200 47.25300 21.53400
H  6.82700 48.86800 21.57500
H  9.53700 48.31900 19.77400
H  10.33400 49.61200 20.73000
H  8.57200 49.79000 20.37700
H  5.72100 46.86900 21.95200
H  7.22900 46.03100 22.39600
H  6.22800 45.78800 19.83900
H  7.82200 45.58000 20.32700
H  7.24400 47.20400 19.78200
H  3.00000 47.52200 25.47800
H  3.28900 49.24900 25.02900
H  2.79500 48.73500 26.64800
H  5.71300 48.94200 30.96000
H  5.56400 45.90900 33.59100
H  6.35200 45.00000 32.26800
H  4.55800 45.08700 32.43100
Mg -10.82700 16.90900 42.27500
C  -7.24600 16.73600 42.31300
C  -10.52000 20.24600 42.26200
C  -14.07300 17.00900 41.53900
C  -10.88100 13.42500 42.22700
N  -9.06600 18.29200 42.26000
C  -7.71600 18.05000 42.29200
C  -6.95500 19.39400 42.32200
C  -8.03500 20.34200 42.75800
C  -9.32300 19.60000 42.38400
C  -7.98700 20.81400 44.19100
C  -6.31800 19.67500 40.95900
C  -4.76000 19.60600 40.88100
H  -4.24100 18.70600 39.84300
N  -12.03500 18.42400 41.87700
C  -11.75500 19.70500 41.87100
C  -12.87000 20.52100 41.58900
C  -13.96900 19.62300 41.34600
C  -13.36800 18.26900 41.51800
C  -12.82800 22.06700 41.51500
C  -15.31000 20.00500 40.71500
O  -15.58200 21.19400 40.77500
C  -16.26700 19.02500 40.17700
N  -12.19200 15.38900 41.95300
C  -13.53500 15.69700 41.70000
C  -14.41600 14.45900 41.80100
C  -13.36600 13.30700 41.89500
C  -12.06100 14.09700 42.05900
C  -15.36500 14.50200 43.05800
C  -13.47000 12.26900 40.76200
C  -13.69500 10.84900 41.22800
N  -9.43000 15.36200 42.21700
C  -9.62100 13.98100 42.34000
C  -8.29600 13.30600 42.35800
C  -7.37700 14.37100 42.37200
C  -8.09300 15.59100 42.31400
C  -8.05700 11.89900 42.59400
C  -5.92900 14.65400 42.52100
O  -5.01100 13.86000 42.61900
C  -5.78900 16.20900 42.36000
C  -5.06600 16.68400 43.61200
O  -5.49200 16.61300 44.72600
O  -3.80700 17.07900 43.34300
C  -2.90600 17.44500 44.45900
H  -10.54100 21.32400 42.43500
H  -15.15500 17.05000 41.39700
H  -10.94000 12.34300 42.36000
H  -6.14600 19.39200 43.05200
H  -8.07200 21.21300 42.10300
H  -6.95800 20.92100 44.53500
H  -8.56400 20.12300 44.80600
H  -8.42100 21.80400 44.33200
H  -6.74200 20.60600 40.58200
H  -6.66700 19.00500 40.17300
H  -4.43500 19.24300 41.85600
H  -4.41000 20.63700 40.83400
H  -12.14700 22.48600 42.25600
H  -13.77500 22.42400 41.92000
H  -12.51000 22.48700 40.56100
H  -17.14600 19.50700 39.75000
H  -16.58000 18.47500 41.06500
H  -15.75400 18.35900 39.48400
H  -14.98500 14.37000 40.87600
H  -13.46000 12.81600 42.86300
H  -14.96600 13.87600 43.85500
H  -16.28700 14.01100 42.74700
H  -15.49900 15.52900 43.40000
H  -12.52800 12.16700 40.22300
H  -14.23200 12.61600 40.06400
H  -14.70200 10.69700 40.83900
H  -13.59800 10.71200 42.30500
H  -12.96900 10.24300 40.68600
H  -7.43800 11.80900 43.48600
H  -7.47200 11.42500 41.80600
H  -8.93500 11.29100 42.81400
H  -5.24900 16.32500 41.42000
H  -2.31600 16.56700 44.72200
H  -3.44500 17.78700 45.34300
H  -2.23000 18.26600 44.22100

