158

Mg 25.75900 -6.81200 47.90300
C  27.72100 -4.20300 46.81900
C  23.63100 -6.11700 45.20100
C  24.04200 -9.53200 48.62800
C  28.39100 -7.77000 49.94200
N  25.77400 -5.40900 46.05300
C  26.67400 -4.38600 45.91800
C  26.34500 -3.49700 44.72800
C  25.00600 -4.12700 44.24700
C  24.72400 -5.26300 45.19100
C  23.80100 -3.23100 44.16400
C  27.39100 -3.50900 43.61700
C  27.80200 -2.04200 43.25000
H  27.96700 -1.74400 41.76500
N  24.01000 -7.65400 47.09900
C  23.25900 -7.18600 46.05700
C  22.09600 -8.06500 46.00400
C  22.14300 -9.08400 46.96800
C  23.36300 -8.75800 47.63500
C  21.02300 -7.81000 44.95500
C  21.00600 -10.15300 47.22000
O  19.92700 -10.18900 46.60000
C  21.20000 -11.00100 48.43200
N  26.22600 -8.48300 48.93500
C  25.28700 -9.41000 49.29700
C  25.81300 -10.37700 50.39800
C  27.18000 -9.80400 50.79800
C  27.29300 -8.61500 49.80700
C  24.76500 -10.42600 51.53300
C  28.35200 -10.86100 50.71700
C  29.39500 -10.65700 51.78100
N  27.63400 -6.14200 48.44800
C  28.58000 -6.64400 49.23000
C  29.66400 -5.76500 49.26600
C  29.29000 -4.73200 48.45100
C  28.09000 -5.05500 47.89200
C  30.98600 -6.01800 49.99100
C  29.76700 -3.49700 47.94500
O  30.75600 -2.89400 48.30300
C  28.70900 -3.13100 46.86100
C  28.11900 -1.86400 47.25100
O  27.40300 -1.63500 48.22400
O  28.28300 -0.98700 46.23500
C  27.52900 0.32900 46.38200
H  22.96400 -5.84000 44.38200
H  23.61600 -10.53100 48.73600
H  29.23100 -8.08300 50.56500
H  26.25800 -2.46500 45.06900
H  25.19200 -4.58100 43.27400
H  23.50100 -2.82800 43.19700
H  24.01300 -2.39900 44.83500
H  22.92700 -3.66000 44.65400
H  26.89400 -4.07400 42.82700
H  28.19500 -4.18200 43.91400
H  28.66000 -1.74400 43.85200
H  27.01500 -1.34900 43.54400
H  20.04500 -8.06700 45.36000
H  21.20500 -8.48800 44.12100
H  21.06600 -6.83500 44.47000
H  21.90900 -11.82700 48.38700
H  20.22400 -11.46800 48.56100
H  21.38600 -10.38500 49.31100
H  25.98100 -11.40500 50.07500
H  27.03400 -9.41200 51.80400
H  25.18700 -10.83500 52.45000
H  24.05300 -11.15000 51.13600
H  24.24900 -9.47500 51.66800
H  28.92800 -10.83600 49.79200
H  28.05800 -11.90800 50.64900
H  29.19700 -11.35700 52.59300
H  29.42100 -9.71500 52.32800
H  30.42100 -10.80200 51.44100
H  31.48100 -5.04800 49.94200
H  31.43000 -6.83700 49.42600
H  30.67100 -6.18700 51.02100
H  29.31400 -3.03800 45.95900
H  26.46800 0.17200 46.18800
H  28.02700 0.96300 45.64800
H  27.62500 0.92800 47.28800
Mg 16.54700 52.55600 26.80700
C  18.39100 50.71400 29.27200
C  14.34700 53.44100 29.19800
C  14.47900 53.43800 24.37100
C  18.83100 51.24200 24.38000
N  16.27300 51.81400 29.00800
C  17.24500 51.31100 29.79300
C  17.04400 51.64800 31.34300
C  15.60000 52.29200 31.22000
C  15.39500 52.56900 29.72700
C  14.51300 51.36300 31.84300
C  18.15400 52.49700 31.89800
C  18.82000 52.11500 33.22700
H  18.27200 52.64800 34.60700
N  14.70100 53.37900 26.74100
C  13.98300 53.76100 27.83100
C  12.77500 54.39100 27.35900
C  12.79000 54.44600 25.95100
C  14.04700 53.73900 25.61700
C  11.70500 54.90700 28.30300
C  11.80400 54.94300 24.93900
O  11.85600 54.65200 23.72000
C  10.62200 55.63400 25.41100
N  16.58600 52.23200 24.69700
C  15.66900 52.79700 23.88600
C  16.12000 52.89500 22.43700
C  17.55400 52.25300 22.50200
C  17.70200 51.84800 23.91400
C  15.10800 52.26600 21.40500
C  18.73400 53.19800 22.02100
C  19.17800 54.33400 23.00300
N  18.23900 51.17100 26.75600
C  19.03700 50.82400 25.72300
C  20.21900 50.16000 26.26400
C  20.01200 50.07500 27.66400
C  18.76700 50.65200 27.88600
C  21.41300 49.63600 25.44100
C  20.53900 49.63800 28.93600
O  21.63100 49.08500 29.12500
C  19.46800 50.13300 30.00100
C  18.90400 48.95500 30.76600
O  18.02000 48.20400 30.30800
O  19.47800 48.86300 31.93800
C  18.77400 48.02900 32.93000
H  13.76800 53.77900 30.06000
H  14.00400 54.02300 23.58100
H  19.71800 51.13700 23.75000
H  16.92000 50.75700 31.95800
H  15.60100 53.19500 31.83100
H  14.17400 51.90500 32.72600
H  14.77400 50.38200 32.24200
H  13.72700 51.23500 31.09900
H  17.79600 53.51100 32.07300
H  18.90500 52.60100 31.11400
H  19.87700 52.34800 33.09900
H  18.81100 51.03200 33.35400
H  11.53300 55.98100 28.23000
H  11.83500 54.60700 29.34300
H  10.71000 54.55900 28.02500
H  10.11000 54.88800 26.02000
H  10.01000 55.95300 24.56800
H  11.08800 56.42600 25.99600
H  16.38400 53.92300 22.18900
H  17.54100 51.28100 22.00800
H  15.11300 51.18200 21.51500
H  15.37500 52.68600 20.43500
H  14.18200 52.65500 21.82900
H  18.32000 53.70400 21.14900
H  19.61500 52.59000 21.81500
H  18.40700 55.10400 22.98500
H  20.08900 54.81200 22.64400
H  19.26100 53.90000 23.99900
H  22.16700 49.22900 26.11400
H  21.89000 50.40100 24.82900
H  21.12400 48.83100 24.76500
H  20.01000 50.74100 30.72500
H  18.66800 48.48700 33.91400
H  19.29700 47.09300 33.12400
H  17.71600 47.78600 32.83000

