158

Mg 49.20500 47.96400 42.61500
C  45.89100 47.58900 41.32200
C  49.79400 44.82800 41.43400
C  52.26100 48.48100 43.54600
C  48.23200 51.19000 43.58700
N  48.02200 46.53600 41.25400
C  46.70000 46.56900 40.94500
C  46.31000 45.32800 40.11900
C  47.54500 44.38200 40.37800
C  48.48900 45.31300 41.06200
C  47.11800 43.20800 41.33600
C  46.07600 45.77900 38.67300
C  44.77600 45.36700 37.89400
H  44.93000 44.51900 36.62800
N  50.80100 46.84400 42.46000
C  50.85300 45.57300 41.95400
C  52.22600 45.13200 41.93700
C  52.99800 46.14300 42.57900
C  52.03000 47.25300 42.89200
C  52.63800 43.78500 41.31800
C  54.47800 46.08000 42.79000
O  55.14800 45.12300 42.45500
C  55.21600 47.17000 43.49800
N  50.16500 49.66600 43.34300
C  51.46800 49.61100 43.62500
C  51.92900 50.93700 44.32900
C  50.61100 51.78100 44.36700
C  49.62900 50.87800 43.72800
C  52.58300 50.85400 45.74900
C  50.73700 53.17800 43.67600
C  50.80500 54.27300 44.78500
N  47.45700 49.13100 42.55700
C  47.24200 50.38100 43.02700
C  45.85300 50.77500 42.78200
C  45.24100 49.65800 42.23500
C  46.30900 48.76400 42.01300
C  45.29400 52.12200 43.05400
C  43.99500 49.16000 41.60600
O  42.88200 49.60100 41.44600
C  44.41500 47.72700 41.02700
C  43.54700 46.73900 41.64500
O  43.71400 46.41100 42.80200
O  42.61100 46.30400 40.72500
C  41.65100 45.38600 41.28600
H  50.07300 43.79300 41.22600
H  53.22700 48.58700 44.04400
H  47.86300 52.13700 43.98700
H  45.40200 44.97100 40.60600
H  47.84500 44.07400 39.37600
H  46.16500 43.32700 41.85000
H  47.85800 43.21400 42.13700
H  47.22000 42.20900 40.91100
H  46.84300 45.41100 37.99200
H  46.17400 46.86500 38.66600
H  44.28900 46.21400 37.41000
H  44.03400 44.86800 38.51800
H  52.63400 43.83900 40.23000
H  51.95900 42.99400 41.63700
H  53.60400 43.45700 41.70200
H  55.06100 48.10400 42.95900
H  56.30200 47.07500 43.50900
H  54.78900 47.15400 44.50100
H  52.72700 51.27800 43.67000
H  50.34800 51.99300 45.40300
H  52.50900 49.82600 46.10200
H  52.24100 51.55600 46.51000
H  53.59000 51.19500 45.50800
H  49.82000 53.28700 43.09500
H  51.60500 53.11200 43.02000
H  50.26900 55.14500 44.41000
H  51.84100 54.50300 45.03400
H  50.35900 54.13700 45.77000
H  45.16800 52.78400 42.19700
H  45.85200 52.66800 43.81500
H  44.34600 52.09700 43.59100
H  44.23600 47.79000 39.95400
H  41.90800 44.32700 41.29600
H  40.68600 45.30900 40.78600
H  41.37500 45.56200 42.32500
Mg 43.28400 42.24800 27.24900
C  42.02800 44.23500 29.64800
C  44.07800 39.84400 29.72300
C  45.26500 40.61400 24.93300
C  42.84700 44.82900 24.87900
N  43.00400 41.99200 29.49800
C  42.36400 42.97500 30.20000
C  42.27300 42.52200 31.74900
C  42.89000 41.04900 31.73900
C  43.42200 40.94400 30.27200
C  44.03500 40.85800 32.77300
C  40.90800 42.61200 32.44500
C  40.58300 43.66700 33.46300
H  39.91400 43.21900 34.76300
N  44.41000 40.42800 27.27500
C  44.60700 39.55100 28.40100
C  45.58200 38.48700 28.03900
C  46.00500 38.78700 26.68500
C  45.28400 39.98300 26.22100
C  46.11200 37.44400 28.98000
C  47.00100 38.07600 25.82900
O  47.37200 38.41700 24.71600
C  47.66600 36.88400 26.34300
N  43.94400 42.72200 25.13800
C  44.67900 41.79200 24.43800
C  45.02500 42.39200 23.06400
C  44.18300 43.73400 23.00300
C  43.56700 43.74800 24.42900
C  46.57600 42.59100 22.91000
C  43.11000 43.70400 21.94100
C  41.64800 43.22200 22.29300
N  42.38700 44.04100 27.20200
C  42.25300 44.95600 26.17900
C  41.53900 46.09400 26.69600
C  41.38000 45.93000 28.12600
C  41.98900 44.65500 28.31700
C  41.03700 47.32200 25.93600
C  40.91400 46.44200 29.39500
O  40.35200 47.48800 29.63200
C  41.42400 45.36600 30.38600
C  42.38300 46.06300 31.28400
O  43.54000 46.24900 31.07400
O  41.77100 46.61300 32.42700
C  42.70800 47.25700 33.31100
H  44.41000 39.09600 30.44600
H  45.65400 39.96800 24.14300
H  42.76800 45.67800 24.19800
H  42.98500 43.12900 32.30700
H  42.17900 40.25100 31.95500
H  43.72800 40.03800 33.42200
H  44.35700 41.71500 33.36600
H  44.82200 40.30300 32.26400
H  40.76900 41.67700 32.98800
H  40.26600 42.54400 31.56700
H  40.05300 44.59200 33.23400
H  41.55500 44.02900 33.80000
H  45.72500 36.49300 28.61400
H  45.84000 37.55000 30.03000
H  47.20200 37.42000 28.97000
H  46.85400 36.23300 26.66900
H  48.37000 37.00500 27.16600
H  48.17600 36.50500 25.45800
H  44.72300 41.73700 22.24700
H  44.79000 44.63300 22.89800
H  47.12900 42.47400 23.84200
H  46.68500 43.63300 22.61000
H  47.00400 41.85400 22.23100
H  43.44600 43.09800 21.09900
H  43.01800 44.68800 21.48000
H  41.13800 44.03900 22.80200
H  41.56600 42.34200 22.93100
H  41.12000 42.89800 21.39600
H  40.63100 47.07400 24.95600
H  41.76900 48.11500 25.78900
H  40.06700 47.56200 26.37300
H  40.51500 44.89700 30.76200
H  43.01200 48.19000 32.83700
H  43.63400 46.73100 33.54400
H  42.17000 47.55900 34.21000

