158

Mg 41.57200 8.15800 30.21400
C  43.26200 9.54500 32.83400
C  39.34200 6.74300 32.61400
C  39.89600 6.76000 27.68800
C  43.99800 9.10800 28.05500
N  41.41500 8.10300 32.39700
C  42.11100 8.87000 33.24400
C  41.70600 8.79600 34.66800
C  40.45000 7.89700 34.56100
C  40.41800 7.46100 33.13800
C  40.37800 6.72500 35.55700
C  41.37100 10.14500 35.44100
C  42.09100 10.32800 36.72500
H  41.36100 10.93700 37.85900
N  39.93500 6.97600 30.16800
C  39.08400 6.60400 31.19700
C  37.93300 5.95400 30.63000
C  38.01700 6.03200 29.19700
C  39.37200 6.57400 28.96100
C  36.89300 5.30200 31.44200
C  36.99100 5.57700 28.14600
O  37.24500 5.66800 26.94700
C  35.57300 5.30800 28.53800
N  41.93000 7.86800 28.18600
C  41.01500 7.41200 27.29100
C  41.45600 7.46100 25.86500
C  42.81100 8.26500 25.99800
C  42.91900 8.49100 27.46000
C  41.69900 6.00000 25.28600
C  42.85900 9.55500 25.11200
C  42.13400 10.80200 25.57800
N  43.42300 9.04900 30.35700
C  44.27700 9.42200 29.39200
C  45.36100 10.23300 30.00300
C  44.98500 10.31500 31.38500
C  43.79200 9.58800 31.53500
C  46.65400 10.75300 29.34100
C  45.36300 10.82700 32.64900
O  46.39300 11.36800 32.98700
C  44.22200 10.40800 33.67700
C  44.94000 9.53000 34.65000
O  45.36000 8.41100 34.49200
O  45.18200 10.22200 35.84700
C  45.68200 9.38200 36.94000
H  38.44100 6.61100 33.21600
H  39.40300 6.25800 26.85300
H  44.66700 9.65100 27.38400
H  42.42700 8.19700 35.22400
H  39.61000 8.49500 34.91500
H  41.11300 6.86800 36.34900
H  40.59800 5.74400 35.13700
H  39.44300 6.74900 36.11700
H  40.29000 10.28600 35.42100
H  41.77900 10.95200 34.83300
H  42.95900 10.98400 36.66200
H  42.53200 9.40100 37.09000
H  37.27100 5.14400 32.45200
H  36.64800 4.30200 31.08300
H  36.04400 5.98500 31.44600
H  35.51900 4.60200 29.36700
H  35.04200 4.96000 27.65200
H  35.11700 6.25700 28.82200
H  40.68100 7.93300 25.26100
H  43.68000 7.61900 25.86800
H  42.74000 5.86500 24.99100
H  41.03600 5.83900 24.43700
H  41.44200 5.26400 26.04800
H  42.44200 9.39500 24.11700
H  43.91300 9.79200 24.96500
H  42.71200 11.72700 25.59600
H  41.48400 10.57100 26.42200
H  41.47200 10.91400 24.72000
H  46.51400 10.70900 28.26100
H  47.54700 10.24500 29.70300
H  46.87500 11.77100 29.66100
H  43.79100 11.35200 34.01200
H  45.42300 9.89600 37.86600
H  46.73900 9.16300 36.78800
H  45.05100 8.49400 36.96900
Mg 30.03600 57.37600 40.23000
C  27.37800 55.19400 39.21300
C  32.30600 55.07900 39.29300
C  32.36100 59.73800 40.36900
C  27.49700 59.83900 40.57900
N  29.80800 55.50100 39.02500
C  28.70000 54.76500 38.88300
C  28.96200 53.32900 38.42700
C  30.52800 53.29700 38.59200
C  30.93000 54.75200 39.07200
C  31.21000 52.10300 39.32700
C  28.31800 52.99100 37.01700
C  28.78000 53.84200 35.75300
H  27.66300 54.40900 34.92700
N  32.10900 57.41500 40.04400
C  32.86200 56.33300 39.64200
C  34.26300 56.69000 39.64100
C  34.38100 58.11400 40.03400
C  32.91400 58.52100 40.15800
C  35.28500 55.63600 39.27700
C  35.61400 58.91300 40.24600
O  36.71300 58.36200 40.06800
C  35.53900 60.28000 40.83300
N  29.94300 59.44800 40.51700
C  31.03800 60.16500 40.61000
C  30.74600 61.72700 40.79600
C  29.19800 61.65600 40.98000
C  28.84100 60.22800 40.75300
C  31.63300 62.39500 41.91500
C  28.53400 62.58400 39.81400
C  27.29800 63.39100 40.24100
N  27.78800 57.46600 40.14000
C  26.97200 58.53600 40.32700
C  25.58100 58.10600 40.20000
C  25.69300 56.76600 39.76400
C  27.03300 56.45500 39.69900
C  24.31900 58.97300 40.54400
C  24.90500 55.63400 39.38000
O  23.66800 55.55200 39.33100
C  26.00300 54.58400 38.93500
C  25.60400 53.33800 39.68700
O  26.24800 52.80700 40.60700
O  24.50000 52.78700 39.13000
C  23.92600 51.70100 39.99300
H  32.84700 54.16200 39.05000
H  33.08800 60.54900 40.45200
H  26.79700 60.67700 40.59800
H  28.47700 52.65200 39.13000
H  30.99600 53.43900 37.61800
H  31.67400 52.49800 40.23000
H  31.94000 51.60700 38.68700
H  30.49700 51.34700 39.65700
H  27.23400 52.94300 37.11800
H  28.64100 51.95600 36.90100
H  29.24300 53.11100 35.09100
H  29.41900 54.66700 36.06900
H  35.37800 54.84300 40.01800
H  36.18800 56.07600 38.85300
H  34.86300 55.11500 38.41700
H  35.13600 60.97700 40.09900
H  36.54600 60.48100 41.19800
H  34.83700 60.30400 41.66600
H  31.04200 62.16300 39.84200
H  28.91700 61.98200 41.98200
H  32.24200 61.63400 42.40500
H  30.87100 62.75700 42.60500
H  32.30900 63.09400 41.42300
H  28.37200 61.90900 38.97400
H  29.21900 63.35300 39.45600
H  26.47600 63.16200 39.56200
H  27.53400 64.44300 40.08400
H  27.05900 63.35400 41.30300
H  24.19300 59.73500 39.77400
H  24.51800 59.64200 41.38100
H  23.45800 58.31200 40.64400
H  25.73200 54.35200 37.90500
H  23.97900 52.00300 41.03900
H  24.33900 50.70100 39.85700
H  22.86200 51.65300 39.75800

