158

Mg 8.07700 3.50900 27.44000
C  9.36700 2.27900 30.42000
C  5.99400 5.43900 29.35900
C  6.42600 4.35200 24.69100
C  9.55400 0.86800 25.79500
N  7.58800 3.68300 29.66400
C  8.35400 3.23900 30.68300
C  7.91000 3.84400 32.00700
C  6.80500 4.82200 31.62700
C  6.71100 4.55500 30.10100
C  5.41300 4.70400 32.40500
C  9.21400 4.49600 32.71600
C  9.44900 4.14000 34.21400
H  10.16000 5.21400 35.06600
N  6.51300 4.85200 27.03400
C  5.83900 5.56800 27.98600
C  4.85900 6.41800 27.35800
C  5.11600 6.25900 25.90000
C  6.06600 5.17900 25.82000
C  3.90500 7.36100 28.05100
C  4.50700 6.97400 24.68100
O  4.76400 6.66500 23.54300
C  3.52300 8.13700 24.84300
N  8.06300 2.78600 25.56100
C  7.20200 3.22300 24.61000
C  7.49800 2.60800 23.22200
C  8.45200 1.46600 23.54100
C  8.69400 1.71900 25.02800
C  6.27000 2.27800 22.40500
C  9.63900 1.59200 22.60800
C  10.74900 2.70200 22.95200
N  9.34700 1.91100 27.93800
C  9.83000 0.91600 27.17100
C  10.54500 0.01800 27.94800
C  10.49300 0.55800 29.24700
C  9.70300 1.68300 29.17400
C  11.43800 -1.14100 27.48800
C  10.96100 0.48000 30.61100
O  11.80000 -0.23400 31.07700
C  10.18600 1.55300 31.43700
C  9.38800 0.82600 32.43200
O  8.31800 0.31400 32.24100
O  10.10600 0.85000 33.61800
C  9.43700 0.26600 34.73500
H  5.47300 6.18400 29.96400
H  5.99800 4.56100 23.70800
H  10.06500 0.00700 25.36000
H  7.58100 3.03200 32.65500
H  7.15200 5.84500 31.77400
H  5.19200 5.49300 33.12300
H  5.45200 3.70000 32.82900
H  4.63800 4.75400 31.64000
H  9.14900 5.58400 32.66900
H  10.15100 4.29700 32.19600
H  10.15000 3.30600 34.18500
H  8.52500 3.85700 34.71700
H  2.96600 7.29900 27.50100
H  4.23200 8.39800 27.97100
H  3.68300 7.10900 29.08800
H  3.08200 8.42900 23.88900
H  4.10400 9.00000 25.16500
H  2.74400 7.92200 25.57400
H  7.94800 3.37900 22.59700
H  8.00500 0.47200 23.54800
H  5.36800 2.47800 22.98300
H  6.23000 1.22500 22.12600
H  6.43300 2.86700 21.50300
H  9.25000 1.81800 21.61500
H  10.12700 0.62200 22.70500
H  10.55900 3.19200 23.90700
H  10.77000 3.47400 22.18300
H  11.74900 2.27700 23.03300
H  12.40500 -0.72000 27.21400
H  11.03500 -1.64800 26.61100
H  11.45500 -1.77100 28.37700
H  10.82400 2.25600 31.97300
H  9.01200 -0.69200 34.43800
H  8.65400 0.87100 35.19500
H  10.27300 0.10400 35.41500
Mg 34.39000 2.91900 29.85500
C  32.33300 4.15800 32.39900
C  36.84500 2.70500 32.12600
C  36.56100 2.36400 27.31000
C  31.81300 3.03300 27.66100
N  34.50300 3.36200 32.05300
C  33.55900 3.79000 32.92000
C  34.04900 3.93300 34.39900
C  35.56800 3.77400 34.15000
C  35.62600 3.21700 32.70900
C  36.32900 5.14000 34.25300
C  33.48300 2.75000 35.35300
C  33.08200 3.22000 36.75500
H  33.98500 4.24300 37.44800
N  36.39200 2.48000 29.73600
C  37.22300 2.41200 30.80700
C  38.49600 2.04900 30.36600
C  38.50500 1.87400 28.93200
C  37.12000 2.25200 28.63500
C  39.73700 1.81000 31.22200
C  39.60400 1.41600 27.98600
O  39.41400 1.44200 26.77500
C  40.92800 0.95300 28.45000
N  34.26000 2.84700 27.70900
C  35.27700 2.61900 26.83600
C  34.69600 2.31500 25.44700
C  33.09800 2.25700 25.65700
C  33.03800 2.74400 27.09300
C  35.15000 3.10700 24.22200
C  32.41000 0.88300 25.48800
C  31.31200 0.75800 24.40000
N  32.52100 3.63100 29.92300
C  31.53100 3.52700 28.89900
C  30.33600 3.98900 29.45900
C  30.58600 4.27900 30.75000
C  31.93500 4.02900 31.06300
C  28.99400 4.22300 28.79900
C  29.96600 4.73000 32.06700
O  28.83100 4.99000 32.38200
C  31.08400 4.70600 33.18600
C  31.41500 6.07400 33.63200
O  32.23700 6.77100 33.09600
O  30.84800 6.30300 34.88000
C  31.59800 7.26300 35.73900
H  37.60200 2.58200 32.90300
H  37.30200 2.23800 26.51800
H  30.96200 2.96500 26.98000
H  33.83700 4.93100 34.78400
H  36.03700 3.10600 34.87200
H  36.62300 5.31600 35.28800
H  35.83100 6.02000 33.84700
H  37.21000 4.99900 33.62700
H  34.21600 1.94400 35.32400
H  32.58300 2.50000 34.78900
H  33.07200 2.31900 37.36800
H  32.10500 3.70300 36.72300
H  40.28400 0.91200 30.93200
H  39.62200 1.90200 32.30200
H  40.31600 2.73200 31.17600
H  41.57400 0.80100 27.58500
H  40.80700 0.04400 29.04000
H  41.41000 1.77700 28.97600
H  34.96200 1.27900 25.24000
H  32.71100 3.09200 25.07300
H  35.88300 2.49900 23.69100
H  35.63500 4.02500 24.55300
H  34.22700 3.20000 23.64900
H  31.98300 0.49100 26.41000
H  33.10900 0.10800 25.17400
H  30.34100 0.64100 24.88100
H  31.49500 -0.09400 23.74500
H  31.32500 1.64900 23.77200
H  28.56600 5.19800 29.02900
H  28.28200 3.47300 29.14400
H  29.05400 4.23300 27.71100
H  30.77100 4.06800 34.01200
H  31.29700 8.25700 35.40800
H  32.64400 7.14400 35.45400
H  31.34100 7.17800 36.79500

