158

Mg -12.02800 37.66800 42.48300
C  -9.49600 35.21700 41.66600
C  -10.06000 39.97400 40.97400
C  -14.52400 39.87200 42.59700
C  -14.11700 35.01000 43.30900
N  -10.16900 37.49500 41.23600
C  -9.26000 36.44500 41.05600
C  -8.21000 36.80600 40.11300
C  -8.25600 38.35100 40.01400
C  -9.57100 38.64100 40.85400
C  -6.99100 39.12000 40.56000
C  -8.38200 35.97100 38.74500
C  -7.21200 35.02700 38.45000
H  -6.12500 35.54900 37.55400
N  -12.21900 39.69000 42.05100
C  -11.29700 40.43300 41.48800
C  -11.79500 41.83900 41.35300
C  -13.05800 41.83200 41.97000
C  -13.33600 40.44600 42.25200
C  -10.90200 43.07600 40.92500
C  -13.96100 43.00300 42.24500
O  -13.54200 44.14200 41.94900
C  -15.07600 42.89400 43.21300
N  -14.00800 37.52900 42.97300
C  -14.83500 38.59400 42.99700
C  -16.26500 38.11600 43.36600
C  -16.13700 36.62200 43.73300
C  -14.67300 36.34400 43.30200
C  -16.97400 38.92300 44.51400
C  -17.17300 35.70900 43.09000
C  -17.86800 34.63200 43.92600
N  -11.82400 35.54100 42.52400
C  -12.75500 34.62800 43.06200
C  -12.01300 33.41500 43.30500
C  -10.74900 33.58400 42.75900
C  -10.70800 34.89900 42.32600
C  -12.60100 32.20300 43.91000
C  -9.43400 32.95900 42.58600
O  -8.93200 31.87500 42.87700
C  -8.57800 34.02000 41.79600
C  -7.28300 34.33800 42.49300
O  -7.24500 34.78800 43.64500
O  -6.22000 33.90200 41.75300
C  -4.91900 34.03800 42.43100
H  -9.34800 40.74000 40.66100
H  -15.38800 40.53700 42.66400
H  -14.71200 34.14700 43.61500
H  -7.27800 36.44700 40.54800
H  -8.35000 38.46100 38.93400
H  -6.62000 39.71400 39.72500
H  -6.23000 38.37100 40.77900
H  -7.26200 39.71800 41.42900
H  -8.33800 36.66600 37.90600
H  -9.31700 35.44500 38.55000
H  -7.64500 34.12500 38.01700
H  -6.84000 34.75400 39.43800
H  -11.13200 43.46100 39.93100
H  -9.82700 42.94000 41.04600
H  -11.05700 43.84500 41.68200
H  -15.97300 42.72500 42.61800
H  -15.13200 43.81200 43.79800
H  -14.87100 42.09500 43.92600
H  -16.93700 38.24700 42.51700
H  -16.15800 36.44300 44.80800
H  -16.27600 39.64000 44.94700
H  -17.61300 38.31500 45.15500
H  -17.73500 39.59300 44.11300
H  -16.59300 35.18300 42.33100
H  -18.07000 36.23500 42.76300
H  -18.89900 34.87700 44.18000
H  -17.37400 34.58000 44.89700
H  -17.95000 33.67700 43.40600
H  -13.38500 32.34800 44.65300
H  -11.74100 31.69000 44.34000
H  -13.10500 31.67900 43.09800
H  -8.49200 33.58900 40.79800
H  -5.04100 33.78500 43.48400
H  -4.59500 35.07600 42.36500
H  -4.22700 33.34000 41.95700
Mg 0.62900 42.44300 25.39600
C  2.26800 42.80900 28.61200
C  -2.23400 41.54000 26.98400
C  -0.58400 41.79700 22.34500
C  3.82100 42.86800 24.03600
N  0.12600 42.34000 27.48900
C  0.81700 42.62600 28.66700
C  -0.05700 42.52000 29.92000
C  -1.43500 42.00700 29.36800
C  -1.16200 41.99600 27.84700
C  -1.83500 40.59300 29.95800
C  0.01400 43.93600 30.68500
C  0.51100 43.82100 32.16700
H  0.41100 42.40100 32.90200
N  -1.22500 41.76100 24.69000
C  -2.24800 41.36800 25.51500
C  -3.33900 40.95900 24.66800
C  -2.88900 41.02000 23.31200
C  -1.48300 41.57000 23.37700
C  -4.69400 40.62100 25.35100
C  -3.59900 40.66000 21.95200
O  -3.07700 40.67100 20.80400
C  -4.98500 40.13500 22.16000
N  1.47800 42.38500 23.49100
C  0.73400 42.20500 22.37600
C  1.58300 42.21400 21.11000
C  2.95100 42.69800 21.65400
C  2.74000 42.67800 23.17200
C  1.68800 40.77200 20.45200
C  3.32900 44.11000 21.04700
C  3.37300 45.41000 21.86800
N  2.64300 42.77800 26.11300
C  3.81900 42.84400 25.42000
C  4.91500 42.97500 26.31500
C  4.32400 43.05000 27.58600
C  2.97800 42.80800 27.44200
C  6.34000 43.18100 25.91800
C  4.58100 43.27900 28.94100
O  5.61900 43.57400 29.51300
C  3.24500 43.02800 29.72600
C  3.41800 41.84200 30.62000
O  3.13600 40.68100 30.44200
O  3.99800 42.40700 31.70700
C  4.49000 41.43800 32.78200
H  -3.14500 41.34500 27.55300
H  -0.98800 41.63800 21.34300
H  4.77700 42.88400 23.50700
H  0.39200 41.76600 30.56600
H  -2.28900 42.65300 29.57300
H  -1.62700 40.48700 31.02300
H  -1.37900 39.74800 29.44200
H  -2.91900 40.52700 29.87100
H  -0.97800 44.38600 30.71900
H  0.75300 44.61200 30.25500
H  -0.13100 44.45500 32.77900
H  1.51000 44.25500 32.12200
H  -4.56600 40.62800 26.43300
H  -5.03200 39.59800 25.18600
H  -5.53400 41.24300 25.04000
H  -5.67000 40.72300 22.77100
H  -5.07700 39.23300 22.76500
H  -5.49000 39.90400 21.22100
H  1.10400 42.91900 20.43100
H  3.74800 41.95800 21.57900
H  1.43500 40.03800 21.21700
H  2.69700 40.70100 20.04600
H  0.87700 40.67500 19.73000
H  2.84800 44.25700 20.07900
H  4.38800 43.97200 20.83000
H  4.07600 45.35100 22.69900
H  2.37700 45.61300 22.26200
H  3.69000 46.24800 21.24700
H  6.50000 44.19200 25.54500
H  6.72500 42.47400 25.18300
H  6.96500 43.09100 26.80600
H  3.24000 43.96300 30.28500
H  5.53700 41.63200 33.01400
H  4.39700 40.35600 32.69200
H  3.97700 41.76200 33.68800

