158

Mg 34.98100 3.33800 29.48900
C  32.82200 4.22600 32.17200
C  37.59400 3.51000 31.67400
C  37.02700 2.68400 26.87400
C  32.35300 3.46500 27.35000
N  35.17400 3.73700 31.74400
C  34.16600 4.03500 32.60900
C  34.75100 4.12000 34.01400
C  36.26800 4.18900 33.75800
C  36.39800 3.69600 32.35800
C  36.93300 5.53700 34.00100
C  34.25500 2.86600 34.82200
C  33.94400 3.23100 36.29600
H  34.66400 4.33100 36.89000
N  37.02000 3.09700 29.29800
C  37.97500 3.29500 30.26400
C  39.27800 2.95500 29.85400
C  39.13800 2.66100 28.49200
C  37.68700 2.81700 28.11500
C  40.45600 2.95600 30.79800
C  40.16800 2.22300 27.42700
O  39.94100 2.18000 26.23100
C  41.48700 1.75700 27.94600
N  34.75900 3.13400 27.35700
C  35.71500 2.82100 26.51500
C  35.16200 2.62900 25.10000
C  33.62200 2.92600 25.20400
C  33.55800 3.22100 26.76700
C  36.02600 3.44400 24.09100
C  32.63200 1.79100 24.85900
C  31.51200 2.18300 23.87100
N  33.05800 3.70800 29.67500
C  32.04900 3.82800 28.68000
C  30.76300 4.10500 29.25700
C  31.11100 4.25800 30.61600
C  32.48900 4.01100 30.84600
C  29.51900 4.23700 28.53300
C  30.46600 4.53400 31.90200
O  29.28900 4.69400 32.12800
C  31.58600 4.50600 32.98800
C  31.69000 5.84900 33.62000
O  32.43500 6.72700 33.21700
O  30.88900 5.88800 34.75000
C  31.33800 6.87500 35.75800
H  38.42100 3.54600 32.38700
H  37.77600 2.48200 26.10500
H  31.48100 3.51000 26.69500
H  34.50800 5.08000 34.47000
H  36.82000 3.49400 34.39000
H  37.16300 6.10400 33.09900
H  37.88200 5.36000 34.50600
H  36.40900 6.15200 34.73300
H  34.98900 2.06600 34.91300
H  33.35400 2.52400 34.31200
H  33.97100 2.35600 36.94600
H  32.91200 3.56900 36.20000
H  40.35600 3.90000 31.33400
H  41.40100 2.89500 30.25800
H  40.32000 2.16800 31.53800
H  41.90200 1.11300 27.17100
H  41.35000 1.26800 28.91100
H  42.17300 2.60000 28.03200
H  35.21600 1.57100 24.84200
H  33.37600 3.77100 24.56100
H  36.46800 4.30300 24.59500
H  35.42100 3.76200 23.24200
H  36.83700 2.78700 23.77600
H  32.08000 1.38100 25.70500
H  33.19500 1.03800 24.30700
H  31.42700 3.26900 23.82700
H  30.53400 1.74800 24.07800
H  31.77900 1.78000 22.89400
H  28.77900 4.72000 29.17100
H  29.13500 3.26300 28.22800
H  29.67000 4.81000 27.61800
H  31.51000 3.71000 33.73000
H  30.57700 7.64600 35.87500
H  32.22200 7.44900 35.47900
H  31.56600 6.27900 36.64200
Mg 26.91200 50.66900 26.21300
C  24.86300 51.96400 28.76700
C  29.14800 49.69400 28.57900
C  29.00700 49.89000 23.84200
C  24.68800 52.11800 23.91800
N  26.89600 50.73700 28.44200
C  25.96900 51.29200 29.29900
C  26.34700 51.01800 30.75700
C  27.72700 50.18900 30.66700
C  27.89400 50.14400 29.09200
C  28.88000 50.87700 31.39100
C  25.16800 50.50000 31.68600
C  25.61900 49.90200 33.03100
H  25.64900 50.73800 34.41700
N  28.89900 49.98900 26.24200
C  29.59800 49.61300 27.27300
C  30.87500 49.15600 26.87500
C  30.90100 49.17900 25.47500
C  29.60800 49.71800 25.09400
C  31.82300 48.64500 27.89300
C  31.91600 48.64200 24.42000
O  31.65500 48.73500 23.25500
C  33.29500 48.25400 24.81600
N  26.97700 51.18200 24.18200
C  27.80800 50.45400 23.38700
C  27.43400 50.41300 21.89600
C  26.00800 51.05300 21.96000
C  25.85200 51.49000 23.44600
C  28.45400 51.21300 21.09700
C  24.93800 50.06100 21.50200
C  23.81500 50.60300 20.58900
N  25.12500 51.82500 26.25500
C  24.36200 52.39500 25.23300
C  23.25700 53.13500 25.78500
C  23.43800 53.01400 27.21100
C  24.56200 52.15700 27.42300
C  22.16200 53.79300 24.99800
C  22.93400 53.40800 28.51900
O  22.03000 54.15800 28.83900
C  23.84200 52.75900 29.55900
C  24.25700 53.91700 30.42400
O  25.23900 54.61600 30.14600
O  23.50900 54.01800 31.55000
C  23.88600 54.90600 32.64000
H  29.62300 49.12300 29.37900
H  29.52300 49.41300 23.00700
H  23.87100 52.43300 23.26500
H  26.60100 52.00700 31.13900
H  27.60200 49.20800 31.12600
H  29.50000 51.49000 30.73600
H  29.50400 50.19300 31.96600
H  28.41100 51.51700 32.13800
H  24.52600 49.80400 31.14600
H  24.70600 51.45500 31.93500
H  26.62200 49.49100 32.92300
H  25.04600 48.99400 33.22300
H  31.48000 49.09900 28.82200
H  32.84100 48.93700 27.63300
H  31.85900 47.56400 28.02700
H  33.79000 48.97500 25.46600
H  33.84800 48.26000 23.87700
H  33.13600 47.24500 25.19800
H  27.40500 49.38700 21.52800
H  26.04700 51.95600 21.35200
H  28.94300 52.05000 21.59400
H  27.95200 51.61600 20.21700
H  29.27300 50.51500 20.92200
H  24.55500 49.53100 22.37400
H  25.40800 49.18500 21.05600
H  23.47600 49.79300 19.94200
H  24.18600 51.42500 19.97800
H  22.88200 50.83900 21.10000
H  21.28000 53.61300 25.61200
H  21.98700 53.26000 24.06300
H  22.46400 54.83300 24.87900
H  23.17800 52.03600 30.03400
H  24.56900 55.71300 32.37800
H  24.48400 54.29300 33.31500
H  23.10400 55.34300 33.26200

