158

Mg 25.67500 1.32800 29.62500
C  27.65700 0.95900 32.53000
C  22.91100 1.41900 31.70100
C  23.81900 1.38400 26.85000
C  28.60800 0.91000 27.67500
N  25.33000 0.99600 31.90300
C  26.29200 1.03100 32.87700
C  25.64100 1.28400 34.31800
C  24.05400 1.20800 33.91700
C  24.08800 1.23900 32.41300
C  23.31900 -0.07000 34.37600
C  26.08900 2.60400 35.05300
C  26.38800 2.35500 36.52400
H  25.68200 3.22900 37.57200
N  23.66700 1.32100 29.31000
C  22.68500 1.45900 30.25500
C  21.46700 1.73800 29.59500
C  21.73300 1.85800 28.19600
C  23.12800 1.47600 28.08600
C  20.23000 1.97400 30.38400
C  20.80200 2.12200 27.06800
O  21.01900 1.75900 25.88300
C  19.43300 2.77000 27.44200
N  26.17500 1.11300 27.62000
C  25.18900 1.23900 26.61600
C  25.78600 1.10400 25.23700
C  27.37200 1.06000 25.48300
C  27.43000 0.98300 27.00800
C  25.35900 -0.17900 24.43800
C  27.97400 2.36700 24.82400
C  28.63600 2.23600 23.42400
N  27.67600 1.02600 29.92400
C  28.77400 0.89200 29.03900
C  29.95200 0.53200 29.79700
C  29.57800 0.59100 31.15800
C  28.18400 0.97000 31.20600
C  31.14400 -0.03400 29.11900
C  30.09100 0.35300 32.52400
O  31.21600 0.04400 32.90600
C  28.81200 0.70500 33.47000
C  28.65600 -0.39300 34.45600
O  28.26500 -1.53300 34.23000
O  28.90500 0.05800 35.75100
C  28.72100 -0.88000 36.90500
H  22.08600 1.66900 32.37100
H  23.24700 1.45500 25.92200
H  29.52100 0.87800 27.07600
H  26.02800 0.42800 34.87100
H  23.48000 2.02900 34.34600
H  22.41200 0.30200 34.85200
H  23.89800 -0.59800 35.13300
H  23.00900 -0.75600 33.58700
H  25.25100 3.29800 35.00200
H  26.90600 3.08200 34.51400
H  27.47400 2.26500 36.54400
H  25.96700 1.37400 36.74400
H  19.40000 1.36000 30.03200
H  19.97700 3.03400 30.35300
H  20.28200 1.75900 31.45100
H  18.59200 2.08100 27.51900
H  19.21900 3.49500 26.65700
H  19.49000 3.40900 28.32300
H  25.36300 1.96800 24.72600
H  27.97200 0.25300 25.06200
H  26.26000 -0.73600 24.18000
H  24.81900 0.24500 23.59200
H  24.75900 -0.75700 25.14100
H  28.76000 2.79800 25.44500
H  27.15200 3.08200 24.86400
H  28.15600 1.34400 23.02000
H  29.72300 2.15700 23.41000
H  28.42200 3.05400 22.73600
H  31.43400 -0.92000 29.68400
H  32.04200 0.58100 29.05600
H  30.91900 -0.44200 28.13400
H  29.06800 1.57600 34.07400
H  28.10600 -0.42900 37.68400
H  29.68200 -1.08700 37.37500
H  28.28800 -1.82500 36.57700
Mg 9.53500 48.08100 25.93500
C  7.75200 48.33100 28.93300
C  12.37500 49.17800 27.58900
C  11.31000 47.80100 23.08800
C  6.62300 47.51800 24.17900
N  9.98800 48.69300 27.86500
C  9.15400 48.58500 28.99200
C  9.88300 48.87800 30.29500
C  11.20100 49.63600 29.78600
C  11.19100 49.14100 28.30600
C  11.27100 51.19700 30.00600
C  10.12800 47.65100 31.21500
C  9.66000 47.83600 32.65400
H  10.11500 46.70500 33.60300
N  11.64200 48.38000 25.43600
C  12.62200 48.83500 26.27200
C  13.88500 48.76300 25.61800
C  13.64900 48.21800 24.35000
C  12.16100 48.07100 24.22500
C  15.16500 49.04800 26.31700
C  14.59500 47.86800 23.24300
O  14.22900 47.50800 22.15000
C  16.08300 47.99500 23.42000
N  9.07000 47.73500 23.96100
C  9.93100 47.74400 22.90900
C  9.29800 47.26700 21.62200
C  7.84700 47.65600 21.90000
C  7.81300 47.59000 23.42500
C  9.91000 47.79700 20.28100
C  6.83400 46.71600 21.08600
C  5.80500 47.37000 20.19700
N  7.51500 48.05300 26.38900
C  6.49700 47.71800 25.57000
C  5.26600 47.68900 26.37800
C  5.65900 47.83700 27.73900
C  7.06900 48.08200 27.67900
C  3.83300 47.56000 26.01900
C  5.21600 47.89700 29.11800
O  4.10500 47.82100 29.63800
C  6.56900 48.11100 29.90700
C  6.73800 46.83200 30.67000
O  7.31300 45.83600 30.25500
O  6.21900 46.87600 31.90700
C  6.43700 45.72300 32.88500
H  13.22100 49.54300 28.17500
H  11.88700 47.54400 22.19700
H  5.67000 47.15400 23.79100
H  9.22400 49.53100 30.86600
H  11.98300 49.13300 30.35400
H  12.13800 51.50300 30.59200
H  10.34500 51.58500 30.42900
H  11.48700 51.86300 29.17100
H  11.17300 47.34300 31.18100
H  9.46000 46.87900 30.83300
H  8.57800 47.90000 32.76500
H  10.09600 48.77600 32.99300
H  15.15700 48.97000 27.40400
H  15.57800 49.99800 25.97700
H  15.96000 48.33900 26.08400
H  16.31800 47.18000 24.10500
H  16.54000 48.89700 23.82700
H  16.53100 47.84000 22.43900
H  9.33700 46.17900 21.67200
H  7.62900 48.67100 21.56900
H  10.74200 48.44800 20.55000
H  9.29300 48.45200 19.66400
H  10.35500 46.99300 19.69500
H  6.28000 46.06200 21.75900
H  7.30000 46.00600 20.40300
H  6.04500 47.14000 19.15900
H  5.88100 48.43700 20.40500
H  4.83500 46.96000 20.47700
H  3.67000 46.61600 25.49800
H  3.49700 48.42800 25.45200
H  3.16600 47.60500 26.88000
H  6.42000 49.01000 30.50600
H  5.49700 45.23800 33.14700
H  6.80400 46.14100 33.82300
H  7.20400 45.04200 32.51600

