158

Mg 1.12400 7.65000 25.10500
C  1.84100 9.32000 28.06300
C  0.85700 4.73300 26.82900
C  0.70400 6.17400 22.17100
C  2.09900 10.57900 23.40300
N  1.34200 7.14100 27.21100
C  1.55000 7.99300 28.26400
C  1.45700 7.23600 29.61600
C  1.51700 5.72300 29.13400
C  1.16500 5.88000 27.63700
C  2.83500 5.00500 29.42300
C  0.28200 7.66800 30.43600
C  0.58500 8.03700 31.87700
H  1.80500 7.24500 32.48200
N  0.73100 5.73700 24.55100
C  0.64500 4.66600 25.38800
C  0.39600 3.44700 24.66800
C  0.43400 3.83000 23.21800
C  0.64800 5.31100 23.27200
C  0.22400 2.12700 25.32300
C  0.34000 2.98100 21.97700
O  0.49200 3.47300 20.87700
C  0.08700 1.51600 22.20300
N  1.26500 8.30800 23.08100
C  1.05400 7.49600 22.02600
C  1.03500 8.30400 20.74300
C  1.63100 9.63000 21.14800
C  1.64900 9.50600 22.64500
C  1.79500 7.56500 19.62500
C  0.85000 10.90300 20.57400
C  -0.46200 11.38800 21.25000
N  1.79300 9.67800 25.58900
C  2.16400 10.72400 24.77700
C  2.52100 11.86900 25.63400
C  2.33700 11.36900 26.91200
C  1.99100 10.04000 26.82900
C  2.96500 13.24600 25.10600
C  2.54500 11.75500 28.27000
O  3.06200 12.79000 28.75700
C  2.06500 10.46200 29.06500
C  3.13200 10.25100 30.08000
O  3.98300 9.37600 29.96300
O  3.03900 11.14400 31.12800
C  4.02900 11.10800 32.19000
H  0.88000 3.73900 27.28100
H  0.25600 5.73500 21.27800
H  2.34200 11.42500 22.75700
H  2.39900 7.52600 30.08000
H  0.71300 5.15000 29.59700
H  3.38500 5.65700 30.10200
H  3.42800 4.97600 28.50900
H  2.64500 4.01400 29.83500
H  -0.52400 6.93500 30.40700
H  -0.17300 8.54300 29.97200
H  -0.34800 7.85300 32.40900
H  0.64500 9.11800 32.00400
H  1.16600 1.57800 25.33400
H  -0.51600 1.53100 24.78700
H  -0.17900 2.29000 26.32200
H  -0.94000 1.25200 22.45200
H  0.85000 1.14000 22.88400
H  0.37900 1.00800 21.28400
H  -0.01200 8.42700 20.46700
H  2.64900 9.73000 20.77000
H  2.36600 6.77400 20.11100
H  2.42800 8.27700 19.09600
H  1.16100 6.95500 18.98200
H  0.65800 10.74800 19.51200
H  1.42400 11.82300 20.68200
H  -0.75800 10.69500 22.03800
H  -1.31000 11.46100 20.56800
H  -0.31600 12.34600 21.74900
H  3.60800 13.81700 25.77500
H  2.18700 13.82600 24.61000
H  3.58100 12.87000 24.28900
H  1.11700 10.81600 29.47000
H  3.63000 10.44000 32.95400
H  4.22400 12.07900 32.64500
H  4.95500 10.70700 31.77900
Mg 40.40500 9.19600 29.56000
C  42.36400 10.56200 32.21300
C  38.26100 7.93000 32.00100
C  38.64400 7.70200 27.19000
C  42.81700 10.17400 27.43700
N  40.31200 9.28300 31.84300
C  41.16300 10.02900 32.64400
C  40.66300 10.02000 34.14200
C  39.49300 8.99500 34.06200
C  39.31000 8.72900 32.52700
C  39.56800 7.65900 34.88100
C  40.36100 11.43300 34.66500
C  39.32700 11.59900 35.75400
H  39.57200 12.32200 37.12500
N  38.63800 7.99700 29.56700
C  37.90900 7.60500 30.66800
C  36.71100 6.91400 30.21500
C  36.84800 6.79200 28.80900
C  38.08600 7.49100 28.44100
C  35.54500 6.46500 31.12700
C  35.92600 6.07400 27.87100
O  36.16700 6.14300 26.67200
C  34.72400 5.25400 28.39900
N  40.53800 9.13000 27.58700
C  39.76700 8.37300 26.74000
C  40.20000 8.51600 25.24000
C  41.60000 9.22000 25.38600
C  41.67800 9.51100 26.89100
C  40.25700 7.26500 24.36000
C  41.83600 10.45200 24.48000
C  41.03500 11.73800 24.90900
N  42.23200 10.09500 29.70200
C  43.11200 10.46100 28.75000
C  44.27500 11.18000 29.31200
C  44.05900 11.23400 30.67800
C  42.83400 10.49700 30.88500
C  45.40900 11.79400 28.55100
C  44.49700 11.67300 32.01700
O  45.48400 12.28800 32.39600
C  43.40200 11.23400 33.09600
C  43.87200 10.32100 34.16500
O  43.89900 9.11300 34.05700
O  44.21300 10.98100 35.28600
C  44.35600 10.08400 36.41700
H  37.60600 7.52500 32.77600
H  38.20600 7.26900 26.28800
H  43.59400 10.45500 26.72300
H  41.46900 9.62600 34.76200
H  38.52600 9.41600 34.33800
H  38.65900 7.54100 35.47000
H  40.41600 7.64200 35.56600
H  39.77200 6.73500 34.34100
H  40.03000 12.10400 33.87300
H  41.26400 11.75100 35.18500
H  39.14800 10.65400 36.26700
H  38.37700 11.80000 35.26000
H  34.75100 7.18400 30.92500
H  35.85100 6.64000 32.15900
H  35.15400 5.46400 30.94600
H  35.11100 4.42000 28.98600
H  34.36100 4.75700 27.50000
H  34.19900 5.95400 29.04900
H  39.48200 9.22300 24.82400
H  42.52600 8.66100 25.25100
H  39.83700 7.48900 23.37900
H  39.65700 6.50400 24.86000
H  41.23400 6.86700 24.08500
H  41.41600 10.18000 23.51200
H  42.91400 10.58900 24.38900
H  40.39200 11.42900 25.73300
H  40.42000 12.20700 24.14100
H  41.77600 12.46700 25.23500
H  45.08300 12.14200 27.57200
H  46.21000 11.05700 28.48900
H  45.85100 12.64600 29.06800
H  42.98300 12.08800 33.62700
H  45.16800 9.38400 36.22500
H  43.39700 9.64000 36.68700
H  44.64400 10.64800 37.30400

