158

Mg 16.98000 51.80000 25.98000
C  19.17000 49.95700 28.21100
C  14.93400 52.27500 28.70000
C  14.86200 53.09400 23.94400
C  18.84900 50.36300 23.44400
N  17.11100 51.27700 28.17800
C  18.08400 50.58800 28.89100
C  17.88000 50.70800 30.38100
C  16.37400 51.02600 30.34400
C  16.09900 51.49900 28.96500
C  15.40500 49.91100 30.85400
C  18.82000 51.81000 31.03800
C  19.19300 51.53900 32.44000
H  18.14400 50.93700 33.31000
N  15.19300 52.71900 26.30600
C  14.48000 52.88300 27.49700
C  13.40000 53.81700 27.32400
C  13.34100 54.09500 25.85200
C  14.44300 53.29100 25.26600
C  12.57200 54.40600 28.48000
C  12.41500 54.98800 25.08500
O  12.64600 55.26900 23.92300
C  11.25400 55.69900 25.76200
N  16.74400 51.44400 23.86200
C  15.82300 52.29100 23.26400
C  16.24800 52.62300 21.82600
C  17.69500 52.02100 21.73800
C  17.84400 51.23200 23.11300
C  15.27400 51.93300 20.80700
C  18.87400 53.09500 21.59600
C  19.83900 52.92300 20.41500
N  18.65800 50.45800 25.80700
C  19.21200 49.89200 24.71200
C  20.28700 48.98400 25.07200
C  20.30700 49.05600 26.47000
C  19.30300 49.92200 26.84400
C  21.20200 48.14000 24.09900
C  21.03400 48.59100 27.63700
O  22.08200 47.92500 27.72200
C  20.32400 49.18200 28.84000
C  19.85700 48.16400 29.77900
O  19.17200 47.17000 29.53700
O  20.52300 48.40000 30.96100
C  20.32200 47.35800 32.03200
H  14.27200 52.44500 29.55200
H  14.38400 53.73900 23.20400
H  19.59200 50.10900 22.68400
H  18.05100 49.67300 30.68000
H  16.16100 51.93900 30.90000
H  14.84400 49.51500 30.00700
H  14.70600 50.39800 31.53400
H  15.96100 49.08200 31.29100
H  18.25700 52.74100 30.97500
H  19.75700 51.84200 30.48200
H  19.49400 52.51000 32.83400
H  20.03400 50.85300 32.34200
H  12.65500 53.82600 29.39900
H  11.52000 54.57300 28.25200
H  13.12100 55.33100 28.65800
H  10.75800 56.28500 24.98800
H  11.79400 56.28200 26.50800
H  10.59100 54.96400 26.21700
H  16.27200 53.70700 21.72300
H  17.73000 51.39700 20.84500
H  14.25500 52.03200 21.17900
H  15.54300 50.89400 20.61500
H  15.20700 52.45600 19.85300
H  19.28500 52.92100 22.59000
H  18.48400 54.11200 21.54200
H  19.53100 52.05200 19.83600
H  20.88300 52.83000 20.71100
H  19.80400 53.83400 19.81700
H  21.77300 47.31300 24.52200
H  22.01800 48.78500 23.77600
H  20.53100 47.79000 23.31500
H  20.97400 49.82600 29.43300
H  20.64700 46.40900 31.60800
H  19.30000 47.16200 32.35600
H  21.00600 47.68400 32.81600
Mg -1.95500 34.31100 27.74300
C  -3.83400 32.42800 29.91800
C  -0.47200 35.91900 30.48400
C  -0.51400 36.44900 25.57200
C  -3.77100 32.88300 25.05200
N  -2.20000 34.23100 29.94800
C  -3.03900 33.33200 30.62600
C  -2.65500 33.23300 32.09600
C  -1.73900 34.45700 32.25700
C  -1.39900 34.88400 30.82800
C  -2.22600 35.67200 33.12400
C  -2.06400 31.86100 32.52200
C  -2.54700 31.27300 33.89000
H  -1.88200 31.84300 35.21900
N  -0.54600 35.83600 27.94900
C  -0.06500 36.38200 29.13000
C  0.90100 37.37300 28.76500
C  0.88000 37.51900 27.34000
C  -0.10500 36.56700 26.88300
C  1.72500 38.19800 29.76700
C  1.80400 38.44300 26.44700
O  1.79300 38.47300 25.20800
C  2.92200 39.18800 27.07400
N  -2.15800 34.57500 25.53800
C  -1.35800 35.52200 24.96900
C  -1.60500 35.53800 23.50800
C  -2.58000 34.31100 23.30700
C  -2.81600 33.82800 24.69300
C  -2.20100 36.81600 22.83400
C  -2.09800 33.20800 22.25900
C  -3.11900 32.85700 21.16200
N  -3.43600 32.96300 27.43800
C  -4.00300 32.42400 26.32200
C  -5.06100 31.45800 26.73400
C  -4.90500 31.39900 28.06400
C  -3.98000 32.33100 28.50300
C  -5.89200 30.60300 25.82200
C  -5.43700 30.64200 29.22800
O  -6.23300 29.69500 29.19100
C  -4.77200 31.35100 30.51200
C  -5.96700 31.82500 31.27800
O  -6.86200 32.40100 30.74800
O  -5.94500 31.47300 32.56500
C  -6.94300 31.93500 33.53600
H  0.00400 36.39600 31.34400
H  -0.08800 37.23400 24.94400
H  -4.38800 32.49700 24.23800
H  -3.56800 33.39600 32.66900
H  -0.70600 34.35300 32.58800
H  -1.76600 35.55400 34.10500
H  -3.31200 35.65200 33.21500
H  -1.92700 36.63000 32.69900
H  -0.99400 32.06600 32.54100
H  -2.23700 31.05100 31.81300
H  -2.56700 30.19200 33.74700
H  -3.58800 31.54800 34.05800
H  1.46100 38.13600 30.82300
H  1.64500 39.23900 29.45400
H  2.78900 37.98400 29.66200
H  2.51500 39.98400 27.69800
H  3.42300 39.79100 26.31700
H  3.53300 38.49500 27.65100
H  -0.62900 35.32600 23.07000
H  -3.57000 34.60300 22.95800
H  -2.69600 37.50600 23.51700
H  -3.03900 36.45400 22.23800
H  -1.48200 37.21400 22.11700
H  -1.79000 32.30200 22.78100
H  -1.24500 33.57500 21.68900
H  -3.18100 31.78000 21.00300
H  -2.79700 33.48300 20.33000
H  -4.09300 33.28400 21.40200
H  -5.14700 30.04300 25.25700
H  -6.45100 31.25200 25.14800
H  -6.51900 29.96100 26.44100
H  -4.22900 30.63500 31.12800
H  -6.54000 32.61900 34.28300
H  -7.16200 31.01800 34.08300
H  -7.83600 32.26300 33.00400

