158

Mg 45.48800 4.17700 46.72500
C  43.24800 6.85900 46.84500
C  42.75700 2.04200 46.58200
C  47.65000 1.70600 46.01600
C  48.15000 6.56500 46.60600
N  43.28600 4.49100 46.75700
C  42.59700 5.62900 46.73600
C  41.05400 5.40000 46.72100
C  40.98800 3.83900 46.63500
C  42.45800 3.38300 46.75700
C  40.02700 3.10600 47.56400
C  40.21600 6.17000 45.58500
C  40.82100 6.42100 44.21400
H  39.99600 5.94000 43.02000
N  45.21900 2.12800 46.36800
C  44.00700 1.45000 46.38500
C  44.29200 0.05400 46.12500
C  45.73100 -0.02600 45.92200
C  46.30500 1.28800 46.10100
C  43.18700 -1.03700 46.23300
C  46.51500 -1.27400 45.51000
O  45.92600 -2.35600 45.45900
C  47.92000 -1.26100 45.10900
N  47.63600 4.14600 46.43300
C  48.31600 2.96600 46.24900
C  49.84300 3.21400 46.12900
C  49.95900 4.75700 46.22200
C  48.57800 5.19400 46.59600
C  50.65100 2.42700 47.22400
C  50.63500 5.41100 44.96300
C  49.65200 5.77700 43.82200
N  45.71800 6.30200 46.79500
C  46.81800 7.09900 46.71800
C  46.49100 8.50600 46.84800
C  45.05300 8.44800 46.98100
C  44.66300 7.09400 46.97300
C  47.38600 9.69700 46.76500
C  43.86500 9.25500 47.14200
O  43.72800 10.43800 47.31500
C  42.63300 8.25200 47.04200
C  41.84300 8.17400 48.30900
O  42.22300 7.54000 49.30600
O  40.61700 8.64900 48.03600
C  39.51500 8.55500 49.04100
H  41.83600 1.45700 46.62700
H  48.34800 0.86900 46.07200
H  49.06000 7.16700 46.65800
H  40.67600 5.70200 47.69800
H  40.75700 3.42900 45.65100
H  39.45000 3.87100 48.08400
H  40.42900 2.46700 48.35000
H  39.22800 2.67800 46.95800
H  40.13100 7.12000 46.11300
H  39.23900 5.69400 45.50400
H  41.72400 5.81700 44.12500
H  41.12900 7.44700 44.01300
H  42.90400 -1.48600 47.18500
H  43.42900 -1.96400 45.71300
H  42.26100 -0.73000 45.74700
H  48.18500 -2.07500 44.43400
H  48.43800 -1.27700 46.06700
H  48.12900 -0.35600 44.53900
H  50.05900 2.89700 45.10800
H  50.49900 5.01600 47.13300
H  51.24100 3.17900 47.74600
H  51.40100 1.84300 46.69000
H  49.99400 1.82300 47.85000
H  51.31900 4.63600 44.61800
H  51.07900 6.35500 45.28100
H  48.61400 5.74100 44.15100
H  49.85500 5.03600 43.04900
H  49.90600 6.80900 43.57900
H  46.70000 10.54200 46.83100
H  47.89600 9.64600 45.80200
H  48.16400 9.74000 47.52700
H  42.03700 8.50200 46.16500
H  38.94400 9.47200 49.18800
H  39.85900 8.24000 50.02600
H  38.83700 7.80300 48.63700
Mg -12.48000 16.70000 41.85900
C  -9.39400 14.97400 41.35400
C  -10.97100 19.49400 40.43200
C  -15.45400 18.10700 41.66300
C  -13.95600 13.71900 42.87500
N  -10.49200 17.09800 40.80500
C  -9.36600 16.21300 40.78300
C  -8.20600 16.93400 40.17900
C  -8.68000 18.45500 40.03300
C  -10.16100 18.39500 40.46400
C  -7.80500 19.54200 40.61900
C  -7.80700 16.30800 38.78500
C  -6.37800 15.78500 38.67600
H  -5.70400 16.34200 37.37200
N  -13.15500 18.58400 41.25700
C  -12.35700 19.59400 40.69900
C  -13.17700 20.76200 40.46500
C  -14.51500 20.37400 40.79700
C  -14.44300 18.97000 41.28000
C  -12.76400 22.12800 39.97500
C  -15.70500 21.30300 40.72100
O  -15.50700 22.47600 40.41100
C  -17.14800 20.86100 41.00100
N  -14.46100 15.94500 42.01800
C  -15.49200 16.73800 41.95800
C  -16.83300 16.03900 42.20400
C  -16.27100 14.75900 42.90300
C  -14.79500 14.78000 42.62600
C  -17.94400 16.73400 43.05800
C  -16.94100 13.47600 42.35400
C  -17.57800 12.56100 43.40000
N  -11.87400 14.64900 42.04800
C  -12.54200 13.60300 42.62100
C  -11.67400 12.46300 42.74800
C  -10.41600 12.95200 42.25600
C  -10.54400 14.31000 41.91400
C  -12.15200 11.12200 43.23600
C  -8.96200 12.59900 41.89400
O  -8.45100 11.48200 41.85800
C  -8.26700 13.89900 41.34200
C  -7.15700 14.19200 42.33800
O  -7.27900 14.14300 43.55300
O  -6.00200 14.64400 41.70000
C  -4.99000 15.13600 42.62600
H  -10.58500 20.33700 39.85600
H  -16.45000 18.55300 41.68500
H  -14.47100 12.81500 43.20700
H  -7.38600 16.90100 40.89600
H  -8.62500 18.77800 38.99300
H  -8.26500 19.88800 41.54500
H  -7.85000 20.36900 39.91000
H  -6.81000 19.16000 40.84500
H  -7.99700 17.00600 37.96900
H  -8.44000 15.43200 38.64400
H  -6.51900 14.70400 38.64100
H  -5.75600 16.21300 39.46100
H  -12.85100 22.22700 38.89300
H  -11.68000 22.19800 40.06800
H  -13.02500 22.99000 40.58800
H  -17.13900 20.43100 42.00300
H  -17.28100 20.06100 40.27300
H  -17.95700 21.57700 40.85700
H  -17.29000 15.90700 41.22300
H  -16.39600 14.76400 43.98600
H  -17.99800 16.29700 44.05500
H  -18.86500 16.39600 42.58400
H  -17.83400 17.81800 43.03500
H  -16.29400 12.91700 41.67700
H  -17.81800 13.76500 41.77500
H  -17.51700 11.53600 43.03300
H  -18.62600 12.82000 43.55200
H  -17.09500 12.54400 44.37700
H  -11.33500 10.41400 43.37400
H  -12.92600 10.69900 42.59600
H  -12.57700 11.33800 44.21600
H  -7.80300 13.62600 40.39500
H  -4.58400 14.28600 43.17600
H  -5.42100 15.83100 43.34600
H  -4.40300 15.83600 42.03200

