158

Mg 1.66000 -1.28800 45.05200
C  4.81300 0.22400 44.65900
C  0.19600 1.46600 43.51300
C  -1.27400 -3.03200 45.06800
C  3.33900 -4.28800 45.82600
N  2.44800 0.57600 44.14700
C  3.72200 1.00200 44.10500
C  3.75500 2.48200 43.69800
C  2.26400 2.91400 43.44800
C  1.57800 1.58300 43.77400
C  1.69300 4.08300 44.39900
C  4.65200 2.86400 42.47200
C  4.46700 1.98000 41.23100
H  5.73200 1.34100 40.64100
N  -0.22400 -0.90400 44.33300
C  -0.62400 0.27800 43.76200
C  -2.08500 0.21300 43.52700
C  -2.59700 -0.99700 44.03500
C  -1.37800 -1.74100 44.58000
C  -2.89600 1.33100 42.82700
C  -4.05700 -1.37500 44.04300
O  -4.79600 -0.78200 43.27100
C  -4.53700 -2.46500 44.87600
N  1.05400 -3.27900 45.44600
C  -0.19500 -3.80400 45.49800
C  -0.21500 -5.29000 45.65000
C  1.27900 -5.71200 45.68700
C  1.95300 -4.37700 45.61200
C  -1.14000 -5.89200 46.77100
C  1.86600 -6.78800 44.72600
C  1.81500 -8.31600 45.17400
N  3.62000 -1.88600 45.41800
C  4.14900 -3.11700 45.77900
C  5.59600 -3.00400 45.92800
C  5.95300 -1.72600 45.47200
C  4.72700 -1.09400 45.16600
C  6.48700 -4.12000 46.45600
C  6.98200 -0.81900 45.18700
O  8.18000 -0.93700 45.24900
C  6.30800 0.54300 44.71700
C  6.58600 1.61000 45.70200
O  6.59700 1.43300 46.91100
O  6.92400 2.73500 45.02900
C  7.52800 3.75300 45.89200
H  -0.33500 2.33200 43.11200
H  -2.24900 -3.51700 44.99100
H  3.91500 -5.21500 45.87700
H  4.05700 3.12800 44.52200
H  2.01900 3.11700 42.40600
H  2.44000 4.57100 45.02500
H  0.96400 3.61000 45.05800
H  1.09100 4.74400 43.77500
H  5.70900 3.01300 42.68800
H  4.24300 3.83900 42.20800
H  3.95200 2.68100 40.57500
H  3.83400 1.12600 41.47200
H  -3.71200 1.53000 43.52300
H  -3.12200 1.06300 41.79500
H  -2.38000 2.28300 42.94900
H  -4.58000 -3.40400 44.32400
H  -5.57000 -2.25400 45.15300
H  -3.93000 -2.55800 45.77600
H  -0.58600 -5.65800 44.69400
H  1.51500 -6.10900 46.67500
H  -2.00400 -6.34100 46.28000
H  -1.37100 -5.16500 47.54900
H  -0.62000 -6.69100 47.29900
H  2.90300 -6.51500 44.52900
H  1.32200 -6.84400 43.78400
H  1.38000 -8.70000 44.25200
H  1.09200 -8.40000 45.98500
H  2.81300 -8.69600 45.39200
H  6.03600 -4.43000 47.39900
H  7.48800 -3.70500 46.57300
H  6.50500 -4.98300 45.79100
H  6.75800 0.94200 43.80800
H  7.91200 4.56400 45.27200
H  8.32500 3.42400 46.55900
H  6.74000 4.11300 46.55200
Mg 48.10700 25.33200 29.54400
C  49.52000 27.42200 31.89600
C  46.85300 23.54400 32.00700
C  47.42900 23.04000 27.23200
C  49.79700 27.34800 27.05100
N  48.23300 25.46800 31.68800
C  48.86700 26.36700 32.49400
C  48.53300 26.27600 33.90800
C  47.72600 24.94000 33.91400
C  47.51300 24.69400 32.46500
C  48.42800 23.68400 34.53700
C  47.64000 27.46700 34.50100
C  48.23700 28.30100 35.62100
H  47.33200 28.43200 36.85900
N  47.19100 23.52500 29.57600
C  46.77700 22.96100 30.71400
C  46.07500 21.74400 30.32000
C  46.32000 21.55000 28.88500
C  47.01700 22.73500 28.50900
C  45.31100 20.88000 31.31500
C  45.78500 20.44300 28.01900
O  45.95000 20.38100 26.78700
C  44.94900 19.40800 28.58300
N  48.66400 25.14800 27.48100
C  48.16200 24.13700 26.73100
C  48.36100 24.30300 25.25200
C  48.86400 25.79000 25.17600
C  49.14600 26.14300 26.68200
C  49.27300 23.29900 24.57400
C  47.93500 26.87300 24.71100
C  48.41100 27.88100 23.54500
N  49.41100 27.02800 29.45400
C  49.97300 27.74700 28.38100
C  50.62700 28.89200 28.93500
C  50.42700 28.87100 30.26900
C  49.77500 27.65900 30.57300
C  51.18700 29.96300 28.12700
C  50.69500 29.54200 31.55200
O  51.21600 30.60600 31.89200
C  50.14600 28.56400 32.63500
C  51.24100 28.23100 33.54100
O  52.02900 27.33100 33.42000
O  51.32500 29.22500 34.51700
C  52.01400 28.93100 35.71700
H  46.42600 22.98000 32.83900
H  47.01500 22.39000 26.45800
H  50.16600 28.04500 26.29500
H  49.45300 26.20600 34.48800
H  46.77200 25.07500 34.42500
H  48.94100 23.99400 35.44700
H  48.99200 23.19500 33.74200
H  47.74400 22.88500 34.82200
H  46.73500 27.07600 34.96500
H  47.32800 28.18200 33.73900
H  48.41400 29.28400 35.18600
H  49.17500 27.95700 36.05600
H  44.25400 20.78600 31.06800
H  45.34200 21.31400 32.31500
H  45.75000 19.88300 31.28300
H  45.55700 18.67600 29.11500
H  44.43300 18.97000 27.72900
H  44.09400 19.86000 29.08600
H  47.42700 24.29400 24.69100
H  49.77800 25.76300 24.58300
H  49.71100 22.66800 25.34600
H  50.06900 23.66900 23.92700
H  48.63100 22.78300 23.86000
H  47.44900 27.40900 25.52600
H  46.99700 26.45100 24.34900
H  48.40700 28.94000 23.80200
H  47.77800 27.69600 22.67700
H  49.43700 27.70600 23.22000
H  50.46300 30.70500 27.79000
H  51.61800 29.41700 27.28800
H  52.01400 30.42900 28.66200
H  49.39100 29.12600 33.18500
H  51.34500 28.31000 36.31200
H  52.14100 29.80500 36.35500
H  53.01200 28.49300 35.67100

