158

Mg 43.09900 3.70700 47.76100
C  41.50900 6.73700 47.04700
C  40.18000 2.08400 47.03200
C  44.81900 0.79000 47.72200
C  46.24100 5.40100 47.47700
N  41.03000 4.37800 47.16000
C  40.59000 5.74300 47.07100
C  39.08900 5.67400 46.53800
C  38.71600 4.25000 46.79500
C  40.02800 3.49000 47.02500
C  37.66100 4.18400 47.99500
C  39.01400 6.17100 45.04100
C  37.53200 6.45900 44.62700
H  37.24700 6.11200 43.15000
N  42.58300 1.72700 47.51000
C  41.30300 1.26200 47.23300
C  41.39800 -0.18300 47.07700
C  42.70200 -0.55100 47.45100
C  43.45400 0.72200 47.52800
C  40.11500 -0.93700 46.78100
C  43.15100 -1.98000 47.66200
O  42.35100 -2.89800 47.40900
C  44.53600 -2.41400 48.05200
N  45.26400 3.25100 47.35700
C  45.63700 1.94400 47.65400
C  47.16800 1.77200 47.71400
C  47.63000 3.25100 47.82300
C  46.34200 4.01500 47.52200
C  47.59300 0.93300 48.94500
C  48.70200 3.58700 46.70000
C  49.68500 4.64400 47.08800
N  43.76500 5.69000 47.44100
C  45.06400 6.15000 47.34200
C  44.90600 7.59700 47.33100
C  43.55500 7.89600 47.20600
C  42.90500 6.69400 47.23100
C  46.06300 8.53500 47.43000
C  42.64000 8.97500 47.12200
O  42.87200 10.17700 47.04200
C  41.22800 8.24800 46.94100
C  40.32000 8.77600 47.97200
O  40.13800 8.35900 49.06400
O  39.63200 9.89700 47.39800
C  38.66400 10.47900 48.24300
H  39.21700 1.60700 46.83900
H  45.40100 -0.13100 47.78700
H  47.10800 6.02600 47.70000
H  38.47900 6.34400 47.14500
H  38.32500 3.74200 45.91400
H  36.62200 4.12100 47.67200
H  37.72800 5.07700 48.61700
H  37.85900 3.34300 48.66100
H  39.44800 5.47200 44.32700
H  39.55800 7.11500 45.00400
H  37.42700 7.53600 44.76000
H  36.87000 5.91400 45.30000
H  40.07500 -1.07900 45.70100
H  39.19400 -0.44100 47.09000
H  40.16800 -1.90100 47.28600
H  45.09600 -2.31700 47.12300
H  44.44600 -3.47100 48.30200
H  45.00300 -1.88400 48.88200
H  47.57200 1.29800 46.81900
H  47.85700 3.51100 48.85700
H  48.19300 1.61700 49.54400
H  48.23900 0.09800 48.67400
H  46.67200 0.63900 49.45000
H  48.26800 3.81900 45.72700
H  49.12700 2.59200 46.57000
H  50.71800 4.31700 46.97500
H  49.30300 4.97300 48.05500
H  49.71400 5.46500 46.37200
H  45.74200 9.55700 47.63100
H  46.58400 8.63400 46.47800
H  46.70000 8.18200 48.24100
H  40.94000 8.48300 45.91600
H  37.74500 9.89300 48.21200
H  38.31300 11.34200 47.67700
H  38.92800 10.88200 49.22100
Mg -1.13700 34.84100 26.36400
C  -2.90000 33.04900 28.59300
C  -0.26200 37.05900 28.71000
C  -0.23600 37.12200 23.86700
C  -3.07500 33.17700 23.79700
N  -1.86000 35.16200 28.43000
C  -2.30800 34.18900 29.22200
C  -2.14200 34.44900 30.74800
C  -1.53300 35.91500 30.69800
C  -1.21900 36.08300 29.16400
C  -2.63400 36.89300 31.11000
C  -1.22900 33.40200 31.46500
C  -1.72700 32.70600 32.71500
H  -0.80500 32.57500 33.88300
N  -0.06100 36.58300 26.32700
C  0.22500 37.29300 27.42500
C  1.14600 38.38100 27.07800
C  1.13800 38.40900 25.65400
C  0.33400 37.33200 25.21000
C  1.85300 39.34600 28.03800
C  1.82100 39.51200 24.71500
O  1.78000 39.47600 23.53300
C  2.34100 40.74100 25.32100
N  -1.80900 35.26800 24.15700
C  -1.24200 36.25900 23.39400
C  -1.79800 36.28600 21.94900
C  -2.44400 34.81400 21.88800
C  -2.49000 34.34700 23.34100
C  -2.74000 37.52100 21.81000
C  -1.75600 33.70300 20.98100
C  -0.57700 32.90600 21.52600
N  -2.52000 33.26200 26.16600
C  -3.19200 32.68400 25.13200
C  -3.99000 31.56400 25.56600
C  -3.82900 31.61500 27.03700
C  -2.98100 32.69200 27.26100
C  -4.76600 30.48900 24.74000
C  -4.24500 31.08500 28.28200
O  -5.06300 30.16400 28.57800
C  -3.50400 31.92400 29.38200
C  -4.50800 32.31800 30.40700
O  -5.47300 33.03800 30.16200
O  -4.31800 31.70900 31.63700
C  -5.38900 31.95500 32.67800
H  0.19300 37.70100 29.46800
H  0.27000 37.68700 23.08100
H  -3.56700 32.46900 23.12800
H  -3.10200 34.47300 31.26300
H  -0.64000 36.02800 31.31300
H  -3.24100 36.64000 31.98000
H  -3.26000 36.96700 30.22100
H  -2.18400 37.87300 31.26600
H  -0.31500 33.97500 31.62300
H  -0.88200 32.64800 30.75700
H  -1.93900 31.64900 32.55700
H  -2.63100 33.20800 33.05900
H  2.90800 39.37700 27.76700
H  1.77300 39.06000 29.08700
H  1.48300 40.36900 28.09400
H  1.43500 41.08600 25.81800
H  2.85700 41.40200 24.62500
H  3.04300 40.50100 26.11900
H  -0.95700 36.24300 21.25600
H  -3.46900 34.96100 21.54900
H  -2.91100 38.00300 22.77300
H  -3.72500 37.20100 21.47200
H  -2.27300 38.23400 21.13000
H  -1.35000 34.21700 20.11100
H  -2.50400 33.09300 20.47400
H  0.25700 32.83600 20.82700
H  -0.95500 31.89600 21.68300
H  -0.24100 33.29400 22.48800
H  -5.42700 31.01500 24.05100
H  -5.21000 29.76300 25.42100
H  -4.04200 29.94800 24.13000
H  -2.70200 31.39500 29.89500
H  -5.41900 33.00400 32.97100
H  -5.17200 31.45700 33.62300
H  -6.32500 31.65700 32.20600

