158

Mg 47.19400 24.79100 28.38300
C  48.03900 27.31200 30.68800
C  46.86400 22.52700 30.91100
C  46.75700 22.58500 25.94900
C  48.08500 27.17400 25.82900
N  47.45000 24.87300 30.58400
C  47.67500 26.06400 31.29000
C  47.52200 25.77000 32.83100
C  47.41100 24.15700 32.81300
C  47.15600 23.81900 31.33700
C  48.67700 23.32200 33.39200
C  46.30700 26.57800 33.27200
C  45.92500 26.36900 34.78500
H  46.04800 27.59000 35.77200
N  46.74000 22.84800 28.48800
C  46.68700 22.05000 29.60600
C  46.22400 20.73100 29.23200
C  46.20200 20.72000 27.78900
C  46.54200 22.11800 27.34300
C  45.86300 19.69400 30.22400
C  46.07200 19.52400 26.84200
O  46.08900 19.65100 25.65500
C  45.95800 18.16400 27.36800
N  47.46300 24.84500 26.15400
C  47.15600 23.80300 25.39300
C  47.21100 23.97800 23.88600
C  47.51300 25.44100 23.88500
C  47.67600 25.90200 25.37300
C  48.39600 23.09600 23.31200
C  46.44600 26.37300 23.21500
C  46.40600 26.26200 21.69600
N  48.00600 26.81100 28.21900
C  48.32200 27.58400 27.15300
C  48.83500 28.90400 27.56900
C  48.70500 28.81500 28.98100
C  48.17300 27.54000 29.29700
C  49.41600 30.03200 26.74900
C  48.95100 29.50600 30.19700
O  49.53200 30.54300 30.42000
C  48.35000 28.64300 31.33900
C  49.37200 28.61300 32.51300
O  50.44400 28.03800 32.42400
O  48.87100 29.22200 33.64000
C  49.75900 29.24700 34.88900
H  46.69900 21.87000 31.76700
H  46.38700 21.90400 25.18000
H  48.28400 27.88600 25.02500
H  48.45600 26.18600 33.21100
H  46.60800 23.83300 33.47500
H  49.05400 22.66900 32.60500
H  48.34500 22.64900 34.18300
H  49.43800 24.01000 33.76000
H  45.49900 26.26700 32.61000
H  46.55000 27.63500 33.16500
H  46.56100 25.56800 35.16000
H  44.88600 26.04400 34.84800
H  45.04800 19.07000 29.85700
H  45.46700 20.21000 31.09900
H  46.70600 19.03100 30.42100
H  46.80600 17.91100 28.00400
H  45.95900 17.49300 26.50900
H  44.99000 18.13100 27.86900
H  46.28200 23.93100 23.31700
H  48.46000 25.58500 23.36600
H  48.72200 22.36100 24.04900
H  49.23500 23.66900 22.91900
H  47.97100 22.63500 22.42000
H  46.59900 27.42500 23.45600
H  45.51200 25.98500 23.62200
H  47.16500 25.61900 21.25200
H  46.58500 27.23600 21.24000
H  45.39000 25.98000 21.42000
H  48.86600 30.96200 26.89300
H  49.58600 29.81500 25.69400
H  50.41100 30.21600 27.15300
H  47.49300 29.21400 31.69700
H  50.78200 29.01200 34.59400
H  49.44500 28.57200 35.68500
H  49.72700 30.23100 35.35700
Mg 16.05100 52.23300 26.17400
C  18.06400 51.02100 29.06100
C  13.77200 53.23600 28.63500
C  14.49200 53.63600 23.71100
C  18.75300 51.32700 24.14100
N  15.84900 51.97700 28.47900
C  16.84100 51.59000 29.47900
C  16.37400 51.82200 30.89400
C  14.90400 52.30600 30.72500
C  14.81700 52.54600 29.21200
C  13.82000 51.41600 31.35000
C  17.26800 52.87300 31.66000
C  17.37000 52.86200 33.16300
H  16.44000 51.90700 33.92300
N  14.18500 53.13200 26.14800
C  13.43300 53.50400 27.24100
C  12.28300 54.26900 26.66700
C  12.49100 54.43800 25.27200
C  13.76100 53.75700 24.99700
C  11.07000 54.70100 27.46600
C  11.71400 55.19400 24.22400
O  12.02500 55.27900 23.07400
C  10.34200 55.84800 24.58800
N  16.51300 52.36700 24.29100
C  15.72100 53.04800 23.37600
C  16.39500 53.31700 22.00700
C  17.81700 52.71600 22.22100
C  17.73400 52.13800 23.66700
C  15.72000 52.62200 20.77700
C  18.99000 53.77200 22.11200
C  20.32700 53.44900 21.43800
N  17.89700 51.17100 26.42500
C  18.86800 50.89900 25.49100
C  19.92800 50.18800 26.12700
C  19.70600 50.28400 27.52800
C  18.43400 50.84100 27.66000
C  21.15500 49.70900 25.33900
C  20.26600 49.88000 28.82000
O  21.23400 49.22900 29.13400
C  19.26500 50.54800 29.88200
C  19.14300 49.52400 30.98200
O  18.57000 48.44900 30.92400
O  19.65100 50.14400 32.07700
C  19.54900 49.25800 33.25500
H  13.04200 53.74700 29.26700
H  14.06200 54.16200 22.85600
H  19.56700 51.16100 23.43300
H  16.46000 50.81600 31.30400
H  14.69800 53.29800 31.12600
H  13.51700 50.66200 30.62300
H  13.01000 52.02100 31.75800
H  14.23700 50.89400 32.21200
H  17.14900 53.90900 31.34300
H  18.28800 52.68000 31.32600
H  17.10600 53.89100 33.41000
H  18.37300 52.59100 33.49100
H  11.11900 55.78600 27.55400
H  11.10700 54.32500 28.48800
H  10.13200 54.36500 27.02300
H  9.90500 56.12300 23.62800
H  10.48100 56.71900 25.22800
H  9.64000 55.05700 24.85000
H  16.35600 54.40000 21.88400
H  17.85900 51.88300 21.51900
H  16.44200 52.02400 20.22100
H  15.37400 53.32200 20.01700
H  14.93400 51.99900 21.20300
H  19.21300 54.16100 23.10500
H  18.57000 54.62300 21.57700
H  20.38400 52.37500 21.26400
H  21.11800 53.67700 22.15300
H  20.42900 53.99400 20.50000
H  21.90100 49.79400 26.12900
H  21.29400 50.31600 24.44500
H  20.99400 48.67300 25.04200
H  19.78200 51.45100 30.20800
H  20.32300 48.49400 33.17500
H  18.62400 48.68700 33.33800
H  19.63400 49.78800 34.20400

