158

Mg 26.80100 51.13600 26.56200
C  24.82800 52.02900 29.21400
C  29.33200 50.22400 28.83100
C  28.65200 49.97500 23.90500
C  24.33900 52.12000 24.32500
N  27.09100 51.29400 28.81100
C  26.02300 51.52700 29.68100
C  26.43600 51.17400 31.10700
C  27.94800 50.85300 30.97600
C  28.20400 50.79700 29.43600
C  28.83100 51.91100 31.64900
C  25.56400 50.05400 31.73100
C  24.84800 50.26300 33.11700
H  25.61900 50.90100 34.29500
N  28.75900 50.27300 26.38000
C  29.55900 49.91900 27.40400
C  30.73300 49.22400 26.86700
C  30.60200 49.12800 25.46100
C  29.24200 49.82900 25.14300
C  31.81500 48.50100 27.67200
C  31.50200 48.48000 24.43300
O  31.10000 48.37700 23.25600
C  32.85800 47.81400 24.63500
N  26.59300 51.22100 24.39800
C  27.44700 50.60100 23.53300
C  26.94500 50.74500 22.07600
C  25.52800 51.38500 22.24000
C  25.44600 51.59500 23.75700
C  27.87400 51.51100 21.12100
C  24.43300 50.38100 21.66000
C  23.32600 51.06500 20.90600
N  25.12300 52.11100 26.61300
C  24.13200 52.41300 25.71800
C  22.97300 52.96600 26.29600
C  23.17400 52.80100 27.66200
C  24.47000 52.23900 27.81100
C  21.81600 53.59000 25.58700
C  22.61200 52.96700 28.94400
O  21.56500 53.48700 29.21700
C  23.58100 52.43700 30.02500
C  23.90800 53.56000 30.97900
O  24.64200 54.44600 30.75100
O  23.13400 53.32700 32.07200
C  23.34100 54.24400 33.23500
H  30.12700 49.94400 29.52500
H  29.20300 49.56900 23.05400
H  23.56000 52.39500 23.61000
H  26.32300 52.07100 31.71600
H  28.11500 49.82700 31.30300
H  28.56300 52.88700 31.24300
H  29.84400 51.60300 31.38900
H  28.81700 51.88600 32.73900
H  26.02500 49.07500 31.86000
H  24.75700 49.97000 31.00200
H  24.35900 49.35600 33.47200
H  24.07200 50.96600 32.81100
H  32.70100 49.11600 27.82700
H  32.07900 47.58200 27.14800
H  31.39500 48.31200 28.66000
H  33.32500 47.66100 23.66200
H  32.73300 46.84500 25.11800
H  33.36600 48.47900 25.33400
H  26.84400 49.71000 21.75000
H  25.38700 52.39000 21.84200
H  27.44500 52.41900 20.69700
H  28.38300 50.84400 20.42600
H  28.62300 51.87800 21.82200
H  24.00800 49.76600 22.45300
H  24.85700 49.70500 20.91700
H  23.12200 50.53500 19.97600
H  23.59400 52.06200 20.55700
H  22.39400 50.96200 21.46100
H  22.14100 54.55500 25.19900
H  21.07800 53.64800 26.38800
H  21.51300 52.84900 24.84600
H  23.01000 51.66300 30.53800
H  23.67200 55.23900 32.93700
H  24.03300 53.77600 33.93500
H  22.40900 54.44800 33.76300
Mg -10.67000 39.64200 41.76900
C  -9.44000 36.54600 40.37000
C  -8.14600 41.28500 40.17600
C  -12.39200 42.35200 42.31900
C  -13.62600 37.64100 42.57100
N  -9.07100 38.96900 40.32700
C  -8.65500 37.69800 40.00900
C  -7.30200 37.72000 39.30900
C  -6.96300 39.25900 39.18000
C  -8.09600 39.93900 39.91400
C  -5.50600 39.62700 39.63400
C  -7.37000 36.99600 37.84800
C  -6.52600 35.71700 37.77200
H  -5.46300 35.64400 36.65700
N  -10.31500 41.58200 41.37500
C  -9.25400 42.09300 40.67500
C  -9.33000 43.57100 40.63800
C  -10.64100 43.89600 41.15300
C  -11.18300 42.59400 41.72300
C  -8.27900 44.57400 40.09300
C  -11.36100 45.24400 41.07100
O  -10.84500 46.12600 40.35000
C  -12.58000 45.59800 41.84100
N  -12.71900 39.92200 42.41000
C  -13.12500 41.17300 42.67600
C  -14.59500 41.17100 43.15200
C  -14.94200 39.67200 43.30500
C  -13.68400 39.03400 42.67300
C  -14.89100 42.06400 44.39900
C  -16.27900 39.19300 42.56200
C  -17.36100 38.46800 43.34500
N  -11.33100 37.49200 41.70700
C  -12.52100 36.88400 42.08900
C  -12.46000 35.44000 41.80900
C  -11.25200 35.29700 41.21400
C  -10.65800 36.59000 41.10100
C  -13.45200 34.40000 42.15200
C  -10.35700 34.30300 40.68700
O  -10.48900 33.09400 40.51700
C  -9.10500 35.06100 40.29500
C  -8.01500 34.65000 41.25900
O  -7.80800 35.19000 42.33100
O  -7.33100 33.55600 40.77000
C  -6.36700 32.84400 41.65600
H  -7.28900 41.88300 39.86000
H  -13.02500 43.22600 42.48300
H  -14.41200 36.94400 42.86900
H  -6.58700 37.25200 39.98500
H  -6.97600 39.52700 38.12400
H  -5.09600 38.66100 39.92700
H  -5.46400 40.38200 40.42000
H  -4.92600 39.91400 38.75800
H  -7.05400 37.65800 37.04200
H  -8.44100 36.81100 37.77400
H  -7.09500 34.81700 37.53500
H  -6.07900 35.52400 38.74700
H  -7.40500 44.01000 39.76600
H  -7.98900 45.38200 40.76500
H  -8.75600 45.00500 39.21300
H  -13.47700 45.31500 41.29100
H  -12.62500 46.68000 41.97200
H  -12.54100 45.07300 42.79500
H  -15.20500 41.61300 42.36300
H  -14.89600 39.38500 44.35500
H  -15.52300 42.89700 44.09300
H  -13.98200 42.35900 44.92500
H  -15.50400 41.50500 45.10700
H  -15.95400 38.50500 41.78100
H  -16.74600 40.04800 42.07400
H  -18.34600 38.92700 43.43000
H  -17.10700 38.19200 44.36800
H  -17.63700 37.57500 42.78500
H  -13.34800 34.04500 43.17800
H  -13.34400 33.48600 41.56900
H  -14.42200 34.84500 41.92800
H  -8.83200 34.63500 39.33000
H  -5.78200 33.61100 42.16400
H  -5.66100 32.24300 41.08300
H  -6.88000 32.22900 42.39400

