158

Mg -1.68100 17.43500 27.02700
C  -2.17900 15.23900 29.72700
C  -2.30300 19.98300 29.23100
C  -2.05100 19.47600 24.28900
C  -1.94100 14.69700 24.92700
N  -2.37900 17.57100 29.23300
C  -2.27800 16.58900 30.15600
C  -2.38200 17.05900 31.59500
C  -2.42600 18.61100 31.39100
C  -2.51900 18.74900 29.87300
C  -3.59400 19.40500 32.04200
C  -1.25400 16.52000 32.55400
C  -1.14700 17.35100 33.82400
H  -0.94900 16.62700 35.25200
N  -1.90300 19.41700 26.83100
C  -2.17400 20.26000 27.86200
C  -2.04900 21.66500 27.34600
C  -1.77300 21.54300 25.92900
C  -1.97800 20.12100 25.62200
C  -2.02200 22.90600 28.21600
C  -1.48800 22.58100 24.86100
O  -1.42900 22.32400 23.67300
C  -1.17700 23.90300 25.37100
N  -2.03900 17.18200 24.90100
C  -2.10700 18.13400 23.94700
C  -2.27900 17.58900 22.56400
C  -1.97200 16.08000 22.75600
C  -1.96800 15.91900 24.30700
C  -3.54600 17.82600 21.76800
C  -0.60100 15.63800 22.14200
C  0.66400 16.07300 22.96600
N  -1.80800 15.33900 27.19600
C  -1.93500 14.39600 26.25500
C  -2.14000 13.07700 26.92500
C  -2.22000 13.32600 28.25800
C  -2.09600 14.77300 28.38600
C  -2.43600 11.87400 26.23900
C  -2.34000 12.71100 29.54900
O  -2.35600 11.54100 29.93600
C  -2.22000 13.90300 30.58600
C  -0.93900 13.63500 31.31800
O  0.20200 13.94800 30.92000
O  -1.14900 12.92600 32.51900
C  0.05500 12.60200 33.33500
H  -2.32100 20.79800 29.95800
H  -1.93400 20.15700 23.44300
H  -2.01800 13.83400 24.26200
H  -3.31600 16.80500 32.09700
H  -1.54500 19.09700 31.81100
H  -4.09000 18.84400 32.83400
H  -4.29300 19.78500 31.29800
H  -3.23100 20.27600 32.58700
H  -0.30400 16.27900 32.07700
H  -1.57100 15.54800 32.93300
H  -1.96100 18.05300 34.00400
H  -0.17900 17.84300 33.73300
H  -2.68300 23.63100 27.74300
H  -1.00700 23.27600 28.36200
H  -2.52600 22.71700 29.16400
H  -0.47800 23.84400 26.20600
H  -2.16500 24.30600 25.59100
H  -0.75200 24.43700 24.52100
H  -1.44900 17.95100 21.95800
H  -2.68500 15.32300 22.42900
H  -4.10000 16.89600 21.89400
H  -3.29700 18.04200 20.72900
H  -4.15300 18.65000 22.14200
H  -0.58800 16.07300 21.14300
H  -0.59400 14.54800 22.12200
H  0.45400 16.55000 23.92300
H  1.09200 16.79900 22.27400
H  1.31100 15.20600 23.09500
H  -1.63000 11.47500 25.62300
H  -3.25500 11.95300 25.52400
H  -2.64800 11.18600 27.05700
H  -3.07500 13.78100 31.25100
H  -0.36900 11.94000 34.09000
H  0.47200 13.43700 33.89900
H  0.79200 12.19700 32.64200
Mg 8.30400 3.20900 27.39500
C  9.47200 1.71700 30.32100
C  6.44400 5.35500 29.27000
C  6.85600 4.42200 24.59500
C  9.75700 0.74400 25.48100
N  7.91800 3.36800 29.63700
C  8.62100 2.80800 30.61200
C  8.48800 3.62900 31.96900
C  7.40500 4.72500 31.57100
C  7.28700 4.45900 30.05700
C  6.07800 4.73100 32.45800
C  9.76400 4.27800 32.46500
C  9.55300 4.85100 33.89600
H  10.48800 4.49700 35.09900
N  6.87200 4.74300 27.01200
C  6.25400 5.54800 27.87500
C  5.41900 6.53200 27.23100
C  5.47700 6.22000 25.82500
C  6.47500 5.08700 25.77400
C  4.57600 7.58900 27.94700
C  4.90700 6.84500 24.57600
O  5.21300 6.52700 23.41900
C  4.04800 8.12200 24.78000
N  8.36700 2.70800 25.30200
C  7.69400 3.36600 24.31700
C  8.20700 2.87100 22.94100
C  9.01600 1.60800 23.30300
C  9.08600 1.73400 24.79500
C  7.04200 2.56000 21.88200
C  10.33400 1.66500 22.41100
C  10.17100 1.19000 20.94600
N  9.36300 1.53200 27.75400
C  9.87800 0.55800 26.88200
C  10.66400 -0.37600 27.62200
C  10.61300 0.12700 28.97700
C  9.71300 1.18000 28.98500
C  11.49900 -1.56600 27.14700
C  11.13200 0.01900 30.31800
O  12.07400 -0.67100 30.73800
C  10.48100 1.05100 31.22700
C  9.92100 0.52100 32.51200
O  8.78200 0.18600 32.66100
O  10.79900 0.72100 33.58400
C  10.32400 0.48300 34.93800
H  6.05300 6.16600 29.88800
H  6.66200 4.98700 23.68200
H  10.21900 0.04200 24.78400
H  8.07000 3.10700 32.83000
H  7.97500 5.64600 31.69400
H  5.20000 4.73000 31.81100
H  6.32200 5.68700 32.91900
H  6.07500 4.00500 33.27100
H  10.09300 5.06900 31.79200
H  10.50900 3.48400 32.52800
H  8.52300 4.68400 34.20900
H  9.68500 5.92800 33.79400
H  4.98500 8.53300 27.58800
H  4.73700 7.76300 29.01100
H  3.51100 7.67300 27.73200
H  4.56500 8.94500 25.27300
H  3.21200 7.79700 25.40000
H  3.72100 8.58300 23.84700
H  8.89600 3.56700 22.46400
H  8.50600 0.67100 23.08100
H  6.93900 1.51200 21.60300
H  7.01300 3.09500 20.93200
H  6.13900 2.80200 22.44200
H  11.16600 1.12800 22.86700
H  10.71700 2.68300 22.35400
H  9.29200 1.69400 20.54400
H  10.02600 0.11100 20.99300
H  11.14100 1.35400 20.47600
H  11.60200 -1.61800 26.06300
H  11.11500 -2.52100 27.50500
H  12.50500 -1.38900 27.52600
H  11.34000 1.69100 31.43100
H  9.56100 1.25200 35.05800
H  11.15200 0.83400 35.55500
H  10.07400 -0.50900 35.31300

