158

Mg 41.51300 8.15800 29.43700
C  43.16200 9.78500 31.95900
C  39.15700 6.91800 31.75000
C  40.21100 6.17900 27.10500
C  44.25000 8.89800 27.35900
N  41.17100 8.36200 31.50400
C  42.03100 9.05500 32.39100
C  41.58300 8.89000 33.92000
C  40.37200 8.00700 33.82500
C  40.21100 7.69700 32.27100
C  40.10400 6.74600 34.68900
C  41.15800 10.31500 34.54000
C  40.25600 10.36800 35.77500
H  40.79500 11.02000 37.04800
N  39.75700 6.99900 29.37300
C  38.86200 6.69800 30.38200
C  37.70400 6.00500 29.77800
C  38.03200 5.83500 28.44100
C  39.39800 6.30500 28.26500
C  36.55700 5.54100 30.65900
C  37.16700 5.32600 27.28500
O  37.55000 5.15500 26.11800
C  35.68800 5.23800 27.59700
N  42.23800 7.45300 27.55700
C  41.48900 6.75000 26.74800
C  42.06600 6.64400 25.29200
C  43.24800 7.59100 25.36500
C  43.27900 8.01900 26.84700
C  42.30300 5.13500 24.91500
C  43.02000 8.89900 24.46700
C  41.97900 9.96600 24.96600
N  43.32600 9.17500 29.55400
C  44.30700 9.41600 28.65800
C  45.33200 10.28100 29.25100
C  44.90900 10.54200 30.55600
C  43.69100 9.82800 30.70700
C  46.54300 10.77400 28.49200
C  45.24800 11.18100 31.77400
O  46.17200 11.93000 32.14200
C  44.03900 10.68300 32.72400
C  44.65100 10.04600 33.89300
O  45.37800 9.07100 33.73200
O  44.32900 10.52900 35.11600
C  44.54100 9.70400 36.35200
H  38.46300 6.59300 32.52800
H  39.85500 5.39400 26.43500
H  45.06700 9.25300 26.72800
H  42.33900 8.36800 34.50700
H  39.46400 8.60900 33.86400
H  39.78300 5.88200 34.10700
H  39.30600 6.92100 35.41000
H  40.98900 6.53800 35.29000
H  40.52500 10.80100 33.79800
H  42.06300 10.90200 34.69500
H  40.13500 9.30100 35.95900
H  39.26100 10.74900 35.54600
H  35.67900 6.18200 30.73700
H  36.80200 5.39100 31.71100
H  36.21500 4.62300 30.18100
H  35.12100 5.01200 26.69400
H  35.40600 6.22300 27.96900
H  35.56900 4.35500 28.22500
H  41.30900 7.09900 24.65300
H  44.21600 7.10600 25.24000
H  43.04200 5.12200 24.11500
H  41.35200 4.67100 24.65300
H  42.69900 4.60700 25.78300
H  42.71700 8.57000 23.47200
H  43.98200 9.36300 24.25100
H  41.65600 10.58700 24.13100
H  42.53900 10.52300 25.71700
H  41.10200 9.54200 25.45500
H  47.30900 10.77400 29.26700
H  46.31800 11.79100 28.17100
H  46.78800 10.17200 27.61700
H  43.57600 11.56500 33.16600
H  44.84300 8.70300 36.04100
H  43.59100 9.66700 36.88500
H  45.27100 10.14600 37.03000
Mg 29.64300 58.40600 41.79700
C  26.91400 56.60500 40.57400
C  31.67700 56.22700 40.00800
C  32.30600 60.47700 42.15400
C  27.51300 61.08300 42.62400
N  29.30000 56.60500 40.44400
C  28.09000 56.04100 40.11700
C  28.15900 54.87400 39.15200
C  29.71900 54.56100 39.31800
C  30.29000 55.87000 39.91900
C  30.09400 53.30100 40.18200
C  27.71400 55.25500 37.72400
C  26.56300 54.44400 37.12800
H  26.68600 53.75500 35.83100
N  31.72100 58.31300 41.33200
C  32.31700 57.31100 40.60000
C  33.73400 57.44700 40.73500
C  34.02600 58.72100 41.30800
C  32.67300 59.26100 41.63000
C  34.75200 56.42000 40.30600
C  35.37200 59.33200 41.66000
O  36.34900 58.64200 41.49900
C  35.62300 60.68300 42.21300
N  29.85800 60.42100 42.43800
C  31.10000 61.08000 42.52600
C  30.95900 62.56400 43.07900
C  29.40200 62.70300 43.26900
C  28.90200 61.34100 42.71900
C  31.80500 63.10500 44.31400
C  28.67800 63.90900 42.53000
C  27.86600 64.87200 43.40500
N  27.59100 58.82900 41.70100
C  26.88200 59.91400 42.03900
C  25.49200 59.65100 41.86700
C  25.41400 58.36300 41.26900
C  26.77000 57.93200 41.20600
C  24.36600 60.58200 42.24800
C  24.49500 57.35000 40.72200
O  23.27900 57.29300 40.72100
C  25.49800 56.12600 40.18000
C  25.05700 54.91600 40.94700
O  25.36600 54.71300 42.11200
O  24.18000 54.20100 40.22500
C  23.91700 52.83600 40.84800
H  32.19800 55.47000 39.41800
H  33.11700 61.20400 42.22500
H  26.81600 61.90700 42.78900
H  27.59100 54.02900 39.54400
H  30.13800 54.43700 38.32000
H  30.13700 52.41600 39.54700
H  29.25600 53.12700 40.85600
H  30.92600 53.50700 40.85500
H  28.45500 55.14400 36.93200
H  27.46000 56.31400 37.68500
H  25.66700 55.04400 36.97500
H  26.29300 53.59400 37.75400
H  35.57200 56.74800 39.66600
H  34.19000 55.54100 39.99000
H  35.27700 56.12100 41.21300
H  35.19600 61.43700 41.55200
H  36.68400 60.93300 42.21600
H  35.06300 60.74000 43.14700
H  31.18700 63.19700 42.22200
H  29.17200 62.84400 44.32500
H  32.28600 64.05000 44.06300
H  32.49200 62.34300 44.68100
H  31.20000 63.42000 45.16500
H  28.17100 63.44900 41.68200
H  29.46300 64.45100 42.00300
H  28.36600 65.10900 44.34400
H  26.91800 64.35900 43.56700
H  27.64700 65.76800 42.82400
H  24.12600 61.40300 41.57200
H  24.48800 61.00800 43.24400
H  23.48500 59.94200 42.26500
H  25.43500 55.92000 39.11200
H  23.13000 52.45300 40.19700
H  23.39400 52.88200 41.80400
H  24.79100 52.18600 40.86900

