158

Mg 53.91600 23.98500 44.82900
C  50.93200 25.79100 44.00800
C  52.28100 21.16800 43.96700
C  56.81500 22.31000 45.24300
C  55.58100 27.00400 45.44000
N  51.92600 23.60800 43.97100
C  50.85200 24.42800 43.72700
C  49.69300 23.66300 43.24400
C  49.97300 22.15500 43.72200
C  51.49200 22.34700 43.91300
C  49.15600 21.69700 45.00100
C  49.55500 23.91800 41.69100
C  48.20900 23.94600 41.04200
H  48.03800 23.23600 39.68600
N  54.44800 22.08000 44.54300
C  53.64800 21.01300 44.27400
C  54.32100 19.79700 44.35900
C  55.58900 20.11600 44.82500
C  55.66300 21.56700 44.82300
C  53.68400 18.46800 43.94900
C  56.65600 19.05900 45.24500
O  56.37800 17.85500 45.19100
C  57.93900 19.42000 45.86400
N  55.99200 24.57700 45.08800
C  57.00600 23.69500 45.30700
C  58.24000 24.46400 45.69100
C  57.80900 25.96200 45.85600
C  56.34300 25.83800 45.38800
C  59.03300 23.76000 46.91700
C  58.78500 27.03700 45.14700
C  59.24900 28.22400 46.04300
N  53.41600 25.97900 44.69300
C  54.20700 27.08400 45.14600
C  53.24200 28.24100 45.17500
C  51.98900 27.75800 44.80100
C  52.13600 26.35600 44.46400
C  53.71700 29.62800 45.62500
C  50.56800 28.13100 44.66200
O  50.05200 29.22600 44.82900
C  49.87900 26.93300 43.96900
C  49.43900 27.36500 42.69800
O  50.11300 27.58600 41.70000
O  48.03500 27.34600 42.63400
C  47.51000 27.90500 41.39500
H  51.70000 20.27300 43.73800
H  57.72000 21.72400 45.41000
H  55.99000 27.92400 45.86400
H  48.79900 23.95800 43.79300
H  49.69400 21.47100 42.92000
H  49.74400 21.90400 45.89500
H  48.78800 20.67400 44.92200
H  48.31900 22.35500 45.23600
H  50.23300 23.21100 41.21400
H  49.89600 24.93100 41.47900
H  47.80800 24.95000 40.90100
H  47.55600 23.42200 41.74000
H  54.50000 17.79300 43.69300
H  52.98200 18.59000 43.12400
H  53.19200 18.12800 44.86100
H  58.66100 19.92900 45.22700
H  58.36900 18.49100 46.23900
H  57.59500 20.05900 46.67700
H  58.85100 24.39300 44.79100
H  57.73700 26.12000 46.93200
H  58.51800 22.93000 47.40200
H  59.32800 24.50000 47.66000
H  59.91200 23.39200 46.38700
H  58.43600 27.45700 44.20300
H  59.68300 26.50800 44.82800
H  58.89100 29.16200 45.61900
H  60.33400 28.28900 46.12300
H  58.83700 28.16900 47.05000
H  54.79500 29.68900 45.77200
H  53.18900 29.84400 46.55400
H  53.30500 30.38300 44.95600
H  48.96200 26.72000 44.51900
H  48.11200 27.68700 40.51300
H  47.42800 28.98400 41.52700
H  46.55100 27.40100 41.27900
Mg 47.30300 45.41400 42.45500
C  43.94600 44.68000 42.27400
C  47.93000 42.05600 42.12500
C  50.45000 46.24000 41.63600
C  46.50900 48.92000 42.51400
N  46.05600 43.56300 42.11500
C  44.71500 43.45600 42.22300
C  44.19200 42.05200 42.33800
C  45.54000 41.31200 42.71900
C  46.59000 42.37500 42.37800
C  45.58200 40.77400 44.20500
C  43.50600 41.49500 41.08200
C  43.75000 42.18500 39.73600
H  43.28000 41.40600 38.51600
N  48.97200 44.33700 41.88200
C  49.01000 42.95500 41.79600
C  50.31300 42.54300 41.28200
C  51.15300 43.69800 41.21200
C  50.20700 44.82400 41.59900
C  50.77500 41.11300 41.16300
C  52.60400 43.71900 40.76300
O  53.22400 42.68900 40.51100
C  53.39500 44.98700 40.85000
N  48.31900 47.27400 42.12800
C  49.61900 47.35700 41.88200
C  50.13000 48.84000 41.95200
C  48.88800 49.55500 42.52200
C  47.83100 48.52800 42.30400
C  51.47100 49.13000 42.66500
C  48.56900 50.97400 41.84300
C  48.38700 52.19700 42.83700
N  45.64600 46.55000 42.31400
C  45.51600 47.94600 42.33800
C  44.00700 48.21000 42.41800
C  43.46000 46.96700 42.38500
C  44.43300 46.03300 42.28000
C  43.26100 49.54400 42.39500
C  42.13000 46.28400 42.45100
O  41.06000 46.80400 42.55000
C  42.45700 44.80300 42.40900
C  41.85900 44.03700 43.61500
O  41.09900 43.04500 43.60300
O  42.28200 44.70000 44.72200
C  41.87700 44.04900 45.96700
H  48.32400 41.03900 42.17000
H  51.39400 46.56900 41.19700
H  46.14900 49.94300 42.64200
H  43.50200 41.97200 43.17800
H  45.71900 40.56500 41.94600
H  46.42300 41.25500 44.70500
H  45.67200 39.68900 44.25800
H  44.61200 41.00700 44.64300
H  42.42400 41.45800 41.21000
H  43.72000 40.44000 40.91100
H  44.82200 42.24400 39.54900
H  43.34300 43.19600 39.75300
H  49.98000 40.49500 40.74500
H  51.25900 40.65500 42.02600
H  51.57800 41.16200 40.42700
H  53.06700 45.63600 40.03800
H  54.44300 44.80100 40.61300
H  53.31400 45.43300 41.84100
H  50.15700 49.16000 40.91000
H  49.02100 49.83200 43.56800
H  51.35000 49.82400 43.49800
H  52.20600 49.64500 42.04700
H  51.90000 48.18800 43.00500
H  47.67800 50.88900 41.22100
H  49.26300 51.22400 41.04100
H  49.08800 53.02000 42.69400
H  48.38100 51.88300 43.88100
H  47.40100 52.60400 42.61200
H  43.51200 50.09100 43.30500
H  42.20000 49.38300 42.58900
H  43.46900 50.07500 41.46600
H  41.86600 44.47500 41.55400
H  42.23800 43.02400 46.05000
H  40.79100 44.10900 46.03500
H  42.39000 44.51100 46.81100

