158

Mg 36.07000 2.52400 30.72800
C  33.43400 3.95300 32.60600
C  38.08500 2.86200 33.50000
C  38.69900 1.81700 28.85900
C  34.06600 2.81600 27.85300
N  35.79200 3.37500 32.83200
C  34.59900 3.73700 33.38400
C  34.74200 3.80300 34.92300
C  36.32900 3.94200 35.09400
C  36.79700 3.31100 33.76500
C  36.79900 5.45600 35.20200
C  34.25800 2.49600 35.46300
C  33.55400 2.74100 36.87000
H  33.96600 3.81800 37.84200
N  38.09800 2.43300 31.07500
C  38.66700 2.52700 32.29500
C  40.07900 2.28600 32.13400
C  40.35800 1.90400 30.77200
C  39.04000 2.01800 30.18400
C  40.97400 2.45100 33.34200
C  41.53600 1.42100 30.07600
O  41.63400 1.21900 28.89000
C  42.82700 1.14300 30.83700
N  36.33600 2.48200 28.66200
C  37.54500 1.96300 28.20900
C  37.50700 1.64700 26.70500
C  35.90900 1.70200 26.37500
C  35.37500 2.33700 27.68900
C  38.31600 2.64000 25.88400
C  35.18600 0.43600 25.85700
C  34.59000 0.54000 24.54500
N  34.08500 3.19200 30.24800
C  33.44300 3.26300 29.01000
C  31.97200 3.65300 29.28900
C  31.97700 3.95200 30.66100
C  33.21000 3.61100 31.21800
C  30.81000 3.83900 28.30500
C  31.23300 4.41600 31.77000
O  30.05000 4.79100 31.87100
C  32.14100 4.35600 33.07200
C  32.14500 5.63100 33.72900
O  32.80100 6.65700 33.43400
O  31.36100 5.48800 34.89200
C  31.31600 6.69400 35.70700
H  38.72700 2.96600 34.37700
H  39.47900 1.35700 28.25000
H  33.43000 2.65700 26.98000
H  34.27200 4.70000 35.32700
H  36.74500 3.37200 35.92400
H  37.24600 5.50800 36.19500
H  36.01000 6.20600 35.24500
H  37.63500 5.68400 34.54100
H  35.05000 1.74900 35.52400
H  33.51900 2.14900 34.74100
H  33.83400 1.85800 37.44400
H  32.47300 2.66700 36.75000
H  41.94800 2.33900 32.86600
H  40.76700 1.70400 34.10900
H  40.74200 3.39300 33.83800
H  42.78500 0.46200 31.68700
H  43.35900 2.03400 31.16800
H  43.49300 0.54000 30.22000
H  38.01600 0.69500 26.55300
H  35.67000 2.51000 25.68300
H  37.65900 3.47500 25.64000
H  38.79500 2.18800 25.01500
H  39.08000 3.12400 26.49200
H  34.35900 0.20700 26.52900
H  35.92000 -0.36500 25.94200
H  35.16600 -0.20400 23.99500
H  34.74200 1.54900 24.16100
H  33.53400 0.27400 24.51500
H  30.82400 3.10900 27.49600
H  30.74700 4.80200 27.79800
H  29.85100 3.72400 28.80900
H  31.77600 3.61600 33.78500
H  32.30800 7.03200 36.00700
H  30.65600 6.54500 36.56200
H  30.85100 7.50300 35.14400
Mg 35.07900 48.29300 25.81500
C  35.10600 46.38800 28.88900
C  33.82400 50.97000 27.67100
C  34.61900 50.02900 22.94900
C  35.54000 45.37200 24.18400
N  34.57800 48.58300 28.01100
C  34.87000 47.79000 29.06500
C  34.82700 48.53900 30.42700
C  33.99400 49.78900 29.96700
C  34.17300 49.85000 28.46700
C  32.50200 49.82200 30.49700
C  36.24000 48.56100 31.18100
C  36.36300 48.09500 32.64500
H  36.34100 49.19400 33.68800
N  34.49400 50.25500 25.37000
C  34.09800 51.18900 26.24300
C  33.81100 52.45400 25.55400
C  34.14000 52.16700 24.20500
C  34.44300 50.71900 24.13500
C  33.34400 53.73700 26.25800
C  34.14900 53.12800 23.00900
O  34.70300 52.84900 21.93500
C  33.63000 54.49400 23.09500
N  35.17800 47.78300 23.80800
C  34.91900 48.67800 22.75900
C  34.89700 47.93300 21.41400
C  35.46700 46.50000 21.85500
C  35.32800 46.52200 23.37300
C  33.57400 47.93200 20.68900
C  36.86600 46.14700 21.40100
C  37.05700 44.89300 20.49900
N  35.25000 46.21800 26.33400
C  35.51400 45.13000 25.55400
C  35.74800 43.91100 26.40600
C  35.61500 44.44400 27.73600
C  35.22800 45.76300 27.63300
C  36.10700 42.53400 25.97800
C  35.66700 44.11200 29.09800
O  36.10100 43.07500 29.57800
C  35.51500 45.38500 29.92100
C  34.45800 45.03200 30.96200
O  33.39400 44.45000 30.72700
O  34.97500 45.22700 32.20500
C  34.18500 44.87400 33.40900
H  33.35600 51.80000 28.20500
H  34.31200 50.52500 22.02500
H  35.72800 44.43200 23.66100
H  34.16600 47.94100 31.05400
H  34.36400 50.73000 30.37400
H  32.45000 50.51900 31.33400
H  32.29100 48.83700 30.91400
H  31.76300 50.05200 29.72900
H  36.51200 49.61600 31.22100
H  36.98400 47.94700 30.67300
H  37.22400 47.42700 32.64000
H  35.52300 47.46400 32.93900
H  34.03000 54.48700 25.86300
H  33.44700 53.85200 27.33700
H  32.31300 53.94500 25.97400
H  32.70400 54.45400 23.66900
H  33.54700 54.73700 22.03500
H  34.47400 54.99700 23.56700
H  35.65800 48.46200 20.84000
H  34.69900 45.77600 21.58600
H  32.80100 48.33400 21.34500
H  33.16900 46.97700 20.35400
H  33.60000 48.52600 19.77600
H  37.47400 45.83500 22.25000
H  37.42800 46.96100 20.94400
H  37.78300 44.20600 20.93500
H  37.41600 45.23400 19.52900
H  36.04400 44.50100 20.41200
H  35.21600 41.91400 26.08400
H  36.94800 42.13200 26.54300
H  36.47100 42.61600 24.95400
H  36.54300 45.50800 30.26300
H  33.20900 45.35000 33.50300
H  34.68200 45.22800 34.31200
H  34.05000 43.79200 33.37400

