158

Mg 40.63600 10.04700 30.18900
C  42.76100 11.23400 32.74800
C  38.64700 8.70300 32.54900
C  38.89000 8.67000 27.71900
C  43.07900 11.04600 27.85300
N  40.78800 10.03200 32.48400
C  41.64800 10.54500 33.34700
C  41.23500 10.18900 34.79600
C  40.01800 9.14700 34.58900
C  39.73500 9.31300 33.12000
C  40.26400 7.65500 34.80100
C  40.91100 11.45000 35.64100
C  40.26600 11.23600 37.10100
H  40.79100 12.11100 38.20300
N  38.90000 8.98200 30.15400
C  38.22200 8.49400 31.22700
C  37.12500 7.62500 30.75900
C  37.16300 7.64100 29.30400
C  38.38000 8.44400 29.00400
C  36.34400 6.85300 31.70400
C  36.16200 7.02200 28.37300
O  36.40900 6.79600 27.17500
C  34.88900 6.50100 28.87700
N  40.91800 9.82600 28.16400
C  40.00900 9.29600 27.34800
C  40.35500 9.47700 25.92400
C  41.67600 10.21500 25.92400
C  41.90100 10.39400 27.40100
C  40.24000 8.14500 25.08000
C  41.55300 11.53800 25.19700
C  41.02200 12.80800 25.93800
N  42.49200 11.08300 30.20600
C  43.39700 11.36600 29.17500
C  44.59200 11.98500 29.83200
C  44.32200 12.07100 31.22300
C  43.11200 11.38100 31.38400
C  45.79300 12.40200 29.17700
C  44.87200 12.47800 32.48500
O  45.94600 12.98400 32.78600
C  43.80100 12.04500 33.54100
C  44.50900 11.29600 34.57300
O  44.92000 10.16100 34.49900
O  44.44100 12.02600 35.76700
C  44.65500 11.25500 37.02800
H  37.95400 8.21900 33.24000
H  38.23600 8.37900 26.89400
H  43.88000 11.31700 27.16300
H  42.15000 9.74900 35.19100
H  39.13600 9.47200 35.14100
H  41.30900 7.68500 35.10900
H  40.17000 7.06700 33.88700
H  39.50100 7.18500 35.42100
H  40.30200 12.20700 35.14800
H  41.90400 11.85200 35.84000
H  40.40300 10.17300 37.30100
H  39.17900 11.30100 37.05100
H  36.56000 5.80000 31.52300
H  35.27800 7.06900 31.63600
H  36.43800 7.09900 32.76200
H  35.12900 5.59700 29.43700
H  34.24800 6.29100 28.02100
H  34.43200 7.18400 29.59300
H  39.60500 10.15000 25.50900
H  42.44300 9.59500 25.46100
H  41.18100 7.96800 24.55800
H  39.59700 8.48800 24.26900
H  39.89800 7.22900 25.56100
H  40.84200 11.36700 24.38900
H  42.45900 11.80700 24.65400
H  41.91400 13.42600 26.04000
H  40.53800 12.45200 26.84700
H  40.22600 13.28300 25.36400
H  46.46700 12.71400 29.97500
H  45.53400 13.17700 28.45600
H  46.34900 11.62700 28.64900
H  43.34200 12.95000 33.94000
H  44.36000 10.20600 37.06900
H  44.19400 11.69900 37.91000
H  45.72900 11.30400 37.21200
Mg -11.75200 38.54800 41.97900
C  -10.09000 35.72000 40.74800
C  -9.37000 40.55400 40.67500
C  -13.75100 41.07600 42.60900
C  -14.27800 36.35100 43.29300
N  -9.99800 38.17600 40.72000
C  -9.43500 36.95500 40.42500
C  -8.13400 37.19900 39.59700
C  -7.83500 38.69900 39.88000
C  -9.12500 39.18700 40.47400
C  -6.52400 39.10300 40.71200
C  -8.27200 36.70600 38.08800
C  -7.37600 35.60600 37.56000
H  -6.18600 36.04700 36.65400
N  -11.59300 40.58800 41.64000
C  -10.53800 41.17900 41.10100
C  -10.87900 42.61200 40.90300
C  -12.18100 42.74400 41.29800
C  -12.60500 41.40000 41.78500
C  -9.99400 43.65300 40.32300
C  -12.89800 44.05500 41.23900
O  -12.35900 45.12000 40.94600
C  -14.39900 44.01900 41.61500
N  -13.77500 38.70600 42.84900
C  -14.38700 39.90600 42.92900
C  -15.69500 39.80700 43.78600
C  -15.89400 38.26000 43.92800
C  -14.56900 37.71400 43.33600
C  -15.59500 40.56500 45.09800
C  -17.16000 37.64900 43.28100
C  -17.81400 36.53100 44.24100
N  -12.11600 36.45900 42.05200
C  -13.17800 35.69200 42.65700
C  -12.88500 34.30700 42.55300
C  -11.71800 34.24000 41.82700
C  -11.28900 35.56800 41.49900
C  -13.64200 33.06900 43.03400
C  -10.74200 33.36200 41.21500
O  -10.66400 32.16200 41.36000
C  -9.64800 34.30200 40.43500
C  -8.32500 33.99000 40.95900
O  -7.42700 33.45400 40.29400
O  -8.12600 34.46000 42.20400
C  -6.75300 34.39800 42.71800
H  -8.57500 41.21600 40.32500
H  -14.47500 41.84600 42.88300
H  -15.06400 35.82200 43.83500
H  -7.32100 36.62700 40.04400
H  -7.67200 39.16400 38.90800
H  -5.74400 38.39600 40.42900
H  -6.70100 39.05100 41.78600
H  -6.17600 40.08900 40.40500
H  -8.23400 37.60400 37.47200
H  -9.28700 36.33000 37.95800
H  -7.93700 34.77300 37.13600
H  -6.87900 35.22500 38.45200
H  -9.80900 44.42600 41.06900
H  -10.32700 44.22800 39.45800
H  -9.01500 43.27100 40.03400
H  -14.87600 43.28100 40.97000
H  -14.89900 44.93400 41.29700
H  -14.63200 43.79600 42.65600
H  -16.51600 40.21500 43.19600
H  -15.82900 37.89300 44.95200
H  -14.65200 41.09600 45.22500
H  -15.64600 40.02200 46.04200
H  -16.35800 41.34300 45.12700
H  -17.04500 37.19400 42.29800
H  -17.96300 38.38600 43.28100
H  -17.64100 35.55200 43.79400
H  -18.89100 36.64300 44.36400
H  -17.29100 36.46600 45.19500
H  -14.63600 33.12900 42.59000
H  -13.77100 33.10600 44.11600
H  -13.12100 32.12800 42.85800
H  -9.63900 34.02600 39.38100
H  -6.15200 33.56500 42.35200
H  -6.74100 34.24400 43.79700
H  -6.21900 35.30700 42.44000

