158

Mg 6.52700 52.76900 41.09800
C  5.80700 49.34300 40.78900
C  9.77500 51.94700 40.20200
C  7.15200 55.94000 40.54200
C  3.17200 53.38500 41.70700
N  7.60400 50.84700 40.57300
C  7.16100 49.57700 40.44000
C  8.17500 48.57500 40.02700
C  9.46400 49.42300 40.25200
C  8.89500 50.86600 40.23600
C  10.28500 49.13200 41.56900
C  8.02200 48.09100 38.52100
C  7.03000 48.88200 37.65900
H  6.44200 48.23200 36.41300
N  8.34900 53.83500 40.63400
C  9.50800 53.36900 40.32300
C  10.45400 54.40900 40.12300
C  9.74600 55.63700 40.20300
C  8.37400 55.17700 40.48400
C  12.01500 54.15900 39.98400
C  10.31700 57.00700 39.95900
O  11.52800 57.09800 39.69800
C  9.45900 58.16100 39.98300
N  5.27300 54.38600 41.03400
C  5.80500 55.61300 40.86700
C  4.72400 56.66600 40.99100
C  3.39100 55.83000 41.39100
C  3.98700 54.42900 41.38600
C  5.11700 57.84000 42.00200
C  2.09100 56.10200 40.60600
C  2.11100 55.71800 39.10700
N  4.67700 51.62700 41.12700
C  3.45800 52.03400 41.57200
C  2.70700 50.80600 41.82600
C  3.59100 49.71000 41.52100
C  4.77500 50.29200 41.10800
C  1.22300 50.82100 42.20600
C  3.72600 48.27700 41.55700
O  2.93600 47.40300 41.98700
C  5.16400 48.00400 41.11100
C  5.04700 47.14900 39.87100
O  4.39300 47.30900 38.87500
O  5.73300 45.99400 40.09300
C  5.81100 45.10100 38.97100
H  10.77000 51.61400 39.89600
H  7.23800 57.01400 40.36100
H  2.16600 53.68200 42.00900
H  8.16500 47.69500 40.66900
H  10.22400 49.43700 39.47100
H  11.33600 49.08000 41.28700
H  9.82500 48.25000 42.01400
H  10.07100 49.94400 42.26400
H  7.57200 47.10400 38.62600
H  8.93200 47.92200 37.94500
H  7.56400 49.74500 37.26000
H  6.25300 49.48100 38.13200
H  12.41500 54.24100 38.97300
H  12.23100 53.16100 40.36500
H  12.58700 54.90700 40.53300
H  10.00700 59.02600 39.60900
H  8.99600 58.42400 40.93500
H  8.61700 57.92200 39.33400
H  4.60500 57.12700 40.01000
H  3.12600 55.95400 42.44100
H  4.37100 57.99700 42.78100
H  5.12300 58.73300 41.37800
H  6.10900 57.73700 42.44200
H  1.81200 57.15500 40.56300
H  1.34200 55.48300 41.10000
H  1.16400 55.22300 38.89400
H  2.97600 55.19900 38.69300
H  2.16700 56.68500 38.60700
H  1.21200 50.51700 43.25300
H  0.59600 50.19500 41.57000
H  0.87000 51.84900 42.12600
H  5.81600 47.54700 41.85600
H  5.43900 45.40500 37.99300
H  5.40400 44.12300 39.22700
H  6.89900 45.07700 38.89900
Mg -4.91600 25.24900 25.30500
C  -3.62400 26.46300 28.29300
C  -6.99100 23.16700 27.27000
C  -5.91100 23.70400 22.49800
C  -2.61700 27.20400 23.58400
N  -5.34800 24.97100 27.52600
C  -4.63500 25.57800 28.56500
C  -5.17000 25.10000 29.94200
C  -5.99800 23.86400 29.48600
C  -6.15200 24.00100 27.97500
C  -5.47200 22.42500 29.82600
C  -5.97600 26.21000 30.68000
C  -5.61900 26.50500 32.16800
H  -4.78900 25.36500 32.97600
N  -6.38600 23.72700 24.87100
C  -7.19300 23.04600 25.83900
C  -8.15600 22.23900 25.15500
C  -7.80600 22.39200 23.73200
C  -6.64300 23.28400 23.65800
C  -9.14400 21.29800 25.83500
C  -8.49800 21.64700 22.53700
O  -8.07000 21.81100 21.41300
C  -9.63000 20.63100 22.69000
N  -4.40500 25.48100 23.37000
C  -4.88800 24.67900 22.33400
C  -4.27000 25.12300 21.02500
C  -3.45700 26.39100 21.38500
C  -3.47100 26.29500 22.90700
C  -3.47100 24.09700 20.21400
C  -4.05100 27.70300 20.91200
C  -3.62700 28.09400 19.51400
N  -3.41600 26.57900 25.83100
C  -2.55600 27.38700 24.99700
C  -1.82000 28.31900 25.76000
C  -2.17200 27.92500 27.09300
C  -3.14300 26.88500 27.06800
C  -0.86100 29.35600 25.33100
C  -1.87200 28.14300 28.50300
O  -1.09100 28.89100 29.05600
C  -2.84300 27.26200 29.36400
C  -2.00300 26.41500 30.23500
O  -1.29400 25.50900 29.80600
O  -1.92100 26.84500 31.51400
C  -0.87100 26.26500 32.25500
H  -7.60500 22.44700 27.81500
H  -6.26400 23.32100 21.53800
H  -1.88300 27.79300 23.03100
H  -4.41600 24.72500 30.63400
H  -7.00200 23.92000 29.90600
H  -5.62800 21.80200 28.94600
H  -5.94300 21.87100 30.63800
H  -4.40200 22.47900 30.02700
H  -7.03000 25.93700 30.72900
H  -5.84900 27.16400 30.16700
H  -6.57400 26.56300 32.69000
H  -5.11100 27.46900 32.21200
H  -8.90500 20.26500 25.58100
H  -10.13200 21.54800 25.44900
H  -9.28500 21.40500 26.91100
H  -9.18000 19.72700 23.10100
H  -10.03800 20.45300 21.69400
H  -10.46100 21.02500 23.27500
H  -5.07700 25.41700 20.35400
H  -2.38800 26.30600 21.18900
H  -4.09300 24.04900 19.32000
H  -3.50600 23.08000 20.60400
H  -2.42200 24.34300 20.05100
H  -3.79600 28.49700 21.61300
H  -5.13900 27.76400 20.92500
H  -4.26600 27.77900 18.68900
H  -2.71200 27.64900 19.12500
H  -3.62100 29.17900 19.40700
H  -0.62900 29.26200 24.27000
H  -0.00400 29.19200 25.98400
H  -1.26300 30.35000 25.52700
H  -3.45500 27.88400 30.01800
H  0.03500 26.41400 31.66700
H  -1.05500 25.20100 32.40300
H  -0.77100 26.78400 33.20800

