158

Mg -0.26900 7.74200 26.86800
C  0.49300 9.71500 29.75100
C  -0.60300 5.11400 29.06900
C  -0.49300 5.72400 24.25800
C  0.66100 10.46700 24.89800
N  0.03800 7.44700 29.17200
C  0.13200 8.42500 30.10100
C  -0.27000 7.90100 31.49000
C  -0.33200 6.37700 31.29500
C  -0.33700 6.31800 29.76100
C  0.97500 5.57800 31.72000
C  -1.54800 8.54500 32.07000
C  -1.65300 8.40000 33.66600
H  -0.50500 8.01800 34.56500
N  -0.62200 5.72600 26.68100
C  -0.75400 4.78000 27.69900
C  -1.05600 3.50200 27.15900
C  -1.12800 3.70100 25.75400
C  -0.73400 5.06600 25.46900
C  -1.37800 2.25700 28.02000
C  -1.43400 2.71600 24.67900
O  -1.33900 3.04500 23.47700
C  -1.89300 1.32900 25.07200
N  -0.21200 8.19500 24.92200
C  -0.26000 7.13400 23.99900
C  0.05000 7.61800 22.60400
C  0.18000 9.17400 22.72400
C  0.21900 9.33500 24.28900
C  1.29500 6.95400 21.89000
C  -0.84600 10.06800 22.10700
C  -2.35200 9.87100 22.50400
N  0.41600 9.75400 27.22300
C  0.78900 10.70000 26.33800
C  1.31300 11.83200 27.09700
C  1.22200 11.49900 28.44500
C  0.66500 10.20900 28.45100
C  1.63300 13.17300 26.50600
C  1.41500 11.94000 29.77900
O  1.91800 13.02100 30.21500
C  0.85600 10.83500 30.70700
C  1.94700 10.62600 31.70700
O  2.99500 10.03400 31.48700
O  1.63200 11.21000 32.88500
C  2.78200 11.29400 33.87300
H  -0.48900 4.23700 29.70900
H  -0.51800 5.17100 23.31700
H  0.95200 11.30000 24.25400
H  0.50900 8.26900 32.15800
H  -1.16900 5.82000 31.71700
H  1.62800 6.17900 32.35400
H  1.66400 5.27800 30.93000
H  0.67600 4.62700 32.16100
H  -2.30300 7.83100 31.74100
H  -1.67300 9.53600 31.63400
H  -2.43200 7.68500 33.93300
H  -2.11700 9.33700 33.97300
H  -1.31200 2.52700 29.07400
H  -0.65100 1.46100 27.85900
H  -2.33700 1.74000 27.96800
H  -2.88300 1.35600 25.52600
H  -0.97700 0.98700 25.55500
H  -1.95000 0.83900 24.10000
H  -0.76600 7.36900 21.92600
H  1.17100 9.54000 22.45700
H  2.18300 7.58500 21.83800
H  0.94900 6.58500 20.92400
H  1.64200 6.06800 22.42300
H  -0.85700 9.95700 21.02300
H  -0.61600 11.09100 22.40400
H  -2.90500 9.98500 21.57200
H  -2.68700 10.64100 23.19900
H  -2.45400 8.87800 22.94100
H  1.73600 13.19800 25.42100
H  2.51800 13.59800 26.98100
H  0.88800 13.83600 26.94400
H  0.00900 11.24900 31.25300
H  2.36000 11.80100 34.74100
H  3.55000 11.88900 33.37900
H  3.25400 10.33600 34.09100
Mg -11.78900 16.90600 41.14600
C  -8.63800 15.17800 40.97500
C  -10.17300 19.59800 39.80500
C  -14.78900 18.19600 40.53500
C  -13.31900 13.78000 42.01100
N  -9.60600 17.34200 40.55400
C  -8.52000 16.53800 40.63900
C  -7.23500 17.23400 40.06800
C  -7.73200 18.68000 39.88100
C  -9.29400 18.56600 40.14900
C  -7.11600 19.71300 40.97000
C  -6.68400 16.60600 38.67400
C  -5.13100 16.79800 38.58100
H  -4.63500 17.15800 37.18300
N  -12.40500 18.72000 40.36300
C  -11.57500 19.69100 39.83200
C  -12.40500 20.78800 39.35000
C  -13.76000 20.44000 39.57000
C  -13.71500 19.07600 40.16100
C  -11.75100 22.08600 38.85400
C  -15.02600 21.28600 39.18800
O  -14.87700 22.36500 38.68900
C  -16.31700 20.86200 39.42300
N  -13.77700 16.07600 41.21600
C  -14.80500 16.91900 41.12600
C  -16.12100 16.13400 41.47300
C  -15.64300 14.82600 42.21300
C  -14.16000 14.85100 41.77900
C  -17.18700 16.89500 42.32600
C  -16.39000 13.47800 41.78300
C  -16.16000 13.03700 40.40500
N  -11.14100 14.90100 41.43600
C  -11.85800 13.74300 41.73000
C  -10.98000 12.59200 41.81900
C  -9.71200 13.14100 41.49700
C  -9.85500 14.52700 41.33900
C  -11.37200 11.13500 42.04100
C  -8.30500 12.78600 41.38600
O  -7.68900 11.76600 41.55800
C  -7.58300 14.03200 40.96300
C  -6.44900 14.21000 41.85000
O  -6.63800 14.53800 43.00500
O  -5.25400 13.90300 41.28000
C  -4.14800 14.08100 42.18900
H  -9.61100 20.47300 39.47200
H  -15.74600 18.70300 40.39900
H  -13.78300 12.86800 42.39400
H  -6.44600 17.20400 40.81900
H  -7.53900 19.10900 38.89700
H  -6.40700 19.11200 41.53900
H  -7.83000 20.16100 41.66100
H  -6.66700 20.53400 40.41100
H  -7.07700 17.08200 37.77600
H  -7.08500 15.59300 38.62500
H  -4.76700 15.80500 38.84500
H  -4.93500 17.48100 39.40800
H  -11.75800 22.14500 37.76500
H  -10.71000 22.23900 39.13900
H  -12.33400 22.87200 39.33300
H  -16.60000 19.92300 38.94600
H  -16.96900 21.62000 38.99000
H  -16.62600 20.78800 40.46600
H  -16.52000 15.83800 40.50300
H  -15.69900 14.89100 43.30000
H  -17.05300 17.97700 42.33200
H  -17.27700 16.49400 43.33600
H  -18.16100 16.73900 41.86300
H  -17.42700 13.70800 42.02800
H  -16.01700 12.75000 42.50400
H  -15.66000 12.06900 40.38700
H  -15.56000 13.74600 39.83500
H  -17.10100 12.87900 39.87700
H  -10.86500 10.85100 42.96200
H  -11.02400 10.55900 41.18300
H  -12.41600 10.86000 42.19200
H  -7.08100 13.87200 40.00800
H  -4.18000 14.96900 42.82100
H  -3.23200 14.24300 41.62300
H  -4.02200 13.22000 42.84500

