158

Mg 49.15100 34.46800 27.09700
C  47.14700 33.44800 29.60900
C  49.99200 37.34200 28.99800
C  51.03000 35.59600 24.50400
C  48.06800 31.87400 25.00100
N  48.64400 35.29400 29.05000
C  47.90300 34.59100 30.01100
C  48.06500 35.22500 31.37200
C  48.51000 36.61600 30.97400
C  49.13700 36.46300 29.59400
C  47.25600 37.66800 30.98400
C  49.06000 34.42100 32.20800
C  48.61500 33.90300 33.57700
H  47.40200 34.65700 34.15700
N  50.44000 36.18200 26.82800
C  50.60900 37.22100 27.70500
C  51.54600 38.18500 27.14400
C  51.80600 37.76100 25.81100
C  51.04600 36.44700 25.65500
C  51.89900 39.46200 27.92900
C  52.63300 38.48700 24.77500
O  52.97500 37.96100 23.71300
C  53.37400 39.84700 25.03200
N  49.39400 33.94200 25.04100
C  50.35000 34.39900 24.29000
C  50.56300 33.70800 22.97700
C  49.83000 32.34600 23.26800
C  49.04200 32.73500 24.46900
C  50.05800 34.44700 21.71100
C  50.67000 31.08000 23.39300
C  50.51500 30.06000 22.26200
N  47.74300 32.96700 27.15000
C  47.50500 31.90100 26.30000
C  46.62400 30.99700 27.00400
C  46.32400 31.63100 28.20000
C  47.08200 32.81600 28.34000
C  46.12500 29.60900 26.55000
C  45.62600 31.53000 29.43700
O  44.93500 30.63100 29.77200
C  46.13600 32.63100 30.41200
C  46.82500 31.79000 31.49400
O  47.95300 31.36100 31.55900
O  45.90300 31.61400 32.49200
C  46.29200 30.84100 33.76500
H  50.20100 38.23400 29.59100
H  51.65900 35.88500 23.65900
H  47.79100 31.02000 24.38000
H  47.04600 35.18900 31.75800
H  49.18000 37.15000 31.64700
H  47.58300 38.57500 31.49100
H  46.45500 37.27700 31.61200
H  46.82300 37.97600 30.03300
H  49.94200 35.04400 32.35300
H  49.29700 33.55500 31.59100
H  49.45600 33.89900 34.27000
H  48.45800 32.82700 33.50000
H  51.47600 39.52300 28.93200
H  51.75700 40.38700 27.36900
H  52.97800 39.39800 28.06200
H  53.98500 40.13900 24.17800
H  53.98600 39.66500 25.91600
H  52.56900 40.53800 25.28100
H  51.64900 33.77000 22.92200
H  49.13300 32.27700 22.43300
H  49.34500 33.91400 21.08200
H  50.87400 34.65800 21.02100
H  49.65800 35.39000 22.08600
H  50.39700 30.61200 24.33900
H  51.73500 31.27400 23.26800
H  49.82200 30.31200 21.45900
H  50.11300 29.14200 22.68900
H  51.46800 29.81600 21.79300
H  46.95000 28.90000 26.49400
H  45.77200 29.80900 25.53900
H  45.36900 29.14100 27.18000
H  45.19000 33.10700 30.66800
H  45.68700 29.93600 33.83700
H  46.09100 31.38000 34.69100
H  47.33300 30.54800 33.89700
Mg 6.06200 54.43700 41.10900
C  5.22700 51.11500 40.77700
C  9.10400 53.88800 39.47200
C  6.45800 57.79600 40.46700
C  2.77800 55.14400 42.00800
N  6.96700 52.73500 40.01200
C  6.48600 51.44400 40.13600
C  7.58300 50.40200 39.57200
C  8.80500 51.34100 39.54400
C  8.29800 52.75100 39.62600
C  9.87200 51.21300 40.63200
C  7.26400 49.82500 38.09000
C  6.57400 50.80500 37.07000
H  7.14100 50.89600 35.67100
N  7.73400 55.68300 40.24300
C  8.85100 55.25300 39.63600
C  9.66800 56.34200 39.27700
C  8.98300 57.58400 39.62800
C  7.67500 57.08400 40.15200
C  11.13200 56.11000 38.81200
C  9.44600 59.00700 39.54400
O  10.55200 59.32800 39.01200
C  8.64800 60.16000 40.06700
N  4.79600 56.20900 41.13600
C  5.17700 57.46100 40.88400
C  4.04400 58.44800 40.93500
C  2.86600 57.60300 41.40000
C  3.48700 56.24800 41.52300
C  4.31500 59.79900 41.57800
C  1.61800 57.60900 40.49200
C  0.34200 58.09900 41.16500
N  4.42700 53.38700 41.62100
C  3.15400 53.77300 42.00600
C  2.34600 52.57100 42.30400
C  3.17600 51.52800 41.83300
C  4.37600 52.04300 41.38700
C  0.92300 52.45100 42.83400
C  3.15900 50.10700 41.64000
O  2.31700 49.22200 41.88000
C  4.64100 49.76600 41.16800
C  4.53800 48.88600 40.02100
O  4.03000 49.16400 38.94100
O  5.09400 47.66500 40.34000
C  4.93500 46.68100 39.26600
H  10.14600 53.69900 39.20500
H  6.46800 58.86300 40.23200
H  1.80100 55.42300 42.40700
H  7.75600 49.53700 40.21300
H  9.32100 51.22700 38.59100
H  9.76500 50.31400 41.23900
H  9.76900 52.04200 41.33200
H  10.86300 51.28300 40.18200
H  6.62700 48.94000 38.08800
H  8.17200 49.49800 37.58400
H  6.62800 51.78900 37.53800
H  5.53400 50.58400 36.83200
H  11.78900 56.97800 38.86900
H  11.20600 55.77000 37.77900
H  11.57800 55.34400 39.44600
H  7.84400 60.50800 39.41800
H  9.34200 60.96900 40.29300
H  8.31400 59.78200 41.03300
H  3.92900 58.51000 39.85300
H  2.51100 57.81400 42.40900
H  3.72700 60.50700 40.99400
H  5.33500 60.18000 41.62700
H  4.03700 59.79100 42.63200
H  1.49600 56.61500 40.06000
H  1.78200 58.31700 39.67900
H  -0.50000 57.51400 40.79500
H  0.24600 59.15700 40.92200
H  0.31100 57.96700 42.24700
H  0.99400 51.91600 43.78100
H  0.35000 51.90200 42.08700
H  0.36700 53.38600 42.90000
H  5.23500 49.21400 41.89600
H  5.53600 45.78800 39.43600
H  5.09400 47.07700 38.26300
H  3.89000 46.37800 39.19200

