158

Mg 46.48900 4.47400 48.27300
C  44.16100 6.71700 47.44100
C  44.26500 1.94000 47.29400
C  48.90700 2.06200 48.49700
C  48.99400 6.86200 48.25400
N  44.49000 4.36800 47.25400
C  43.63600 5.45800 47.17000
C  42.26200 5.08000 46.62700
C  42.23100 3.49000 46.77100
C  43.76700 3.20900 47.07900
C  41.20400 2.96800 47.80600
C  41.83200 5.66800 45.18600
C  40.77700 6.83500 45.09200
H  39.89000 6.64100 43.91600
N  46.53800 2.34700 48.10300
C  45.51300 1.51200 47.68700
C  45.90700 0.14600 47.69100
C  47.24900 0.09000 48.01700
C  47.64800 1.57900 48.19300
C  44.90000 -1.00200 47.35000
C  48.08200 -1.18900 48.24500
O  47.54200 -2.28700 48.25800
C  49.56300 -1.20800 48.45500
N  48.70600 4.51100 48.33100
C  49.43900 3.37900 48.59700
C  50.95700 3.70700 48.76300
C  50.82500 5.26200 48.92000
C  49.38900 5.56000 48.45200
C  51.70000 2.94100 49.88500
C  51.87400 5.96800 47.96600
C  53.32300 5.43400 47.77800
N  46.59000 6.40100 48.01700
C  47.65700 7.28500 48.00600
C  47.13300 8.62200 47.85600
C  45.77600 8.48800 47.69800
C  45.50600 7.06600 47.70000
C  48.07500 9.82800 47.83100
C  44.54800 9.11500 47.52000
O  44.34400 10.30400 47.45300
C  43.41800 8.00500 47.43400
C  42.50100 8.07800 48.69600
O  42.57500 7.34700 49.61200
O  41.48100 9.00700 48.46000
C  40.33800 8.53300 49.19600
H  43.49900 1.24200 46.95000
H  49.60500 1.22900 48.60500
H  49.72300 7.63300 48.51200
H  41.63000 5.50800 47.40600
H  42.05900 3.09200 45.77100
H  40.52100 2.35500 47.21900
H  40.65800 3.86500 48.09900
H  41.71900 2.55800 48.67500
H  41.52500 4.85500 44.52700
H  42.80400 6.00100 44.82300
H  41.42800 7.69400 44.93100
H  40.25600 6.89300 46.04800
H  44.82100 -1.69500 48.18700
H  45.36900 -1.57100 46.54700
H  43.93100 -0.84300 46.87700
H  49.78900 -0.70900 49.39700
H  50.04500 -0.81000 47.56200
H  49.99200 -2.19600 48.62400
H  51.33600 3.60500 47.74600
H  51.02900 5.60600 49.93400
H  52.24500 2.12400 49.41100
H  51.04700 2.62800 50.70000
H  52.49600 3.53700 50.33100
H  51.89600 7.02600 48.22700
H  51.49400 5.99200 46.94500
H  53.99700 6.28000 47.91500
H  53.41800 4.92400 46.81900
H  53.62200 4.79100 48.60700
H  48.29900 10.03800 48.87700
H  47.59700 10.73600 47.46300
H  48.86600 9.49000 47.16200
H  42.78600 8.22200 46.57200
H  39.77400 7.78700 48.63700
H  39.59400 9.32900 49.19300
H  40.44000 8.25800 50.24600
Mg 46.92800 23.78700 28.08200
C  47.89900 26.35600 30.62700
C  46.22300 21.78700 30.55600
C  46.18500 21.59500 25.73800
C  48.09400 25.99700 25.74300
N  46.98700 24.09100 30.41500
C  47.38600 25.15100 31.21100
C  46.97200 24.81900 32.66000
C  46.52200 23.31600 32.58900
C  46.53700 23.04200 31.12100
C  47.34400 22.32600 33.39500
C  46.04300 25.87000 33.35600
C  45.53000 25.48100 34.78500
H  45.35500 26.57700 35.86200
N  46.36100 21.95400 28.11300
C  46.09500 21.21700 29.22700
C  45.71100 19.87500 28.90800
C  45.53400 19.86400 27.50300
C  46.00900 21.22100 27.05900
C  45.46300 18.79600 29.99000
C  45.08500 18.78000 26.52100
O  44.93300 18.93700 25.27100
C  44.76000 17.42400 27.10800
N  47.17200 23.83300 26.04700
C  46.72900 22.84700 25.30100
C  47.03500 23.08400 23.80200
C  47.39000 24.60000 23.87400
C  47.53300 24.85800 25.31200
C  48.07600 22.11500 23.09500
C  46.22900 25.40100 23.12800
C  46.13300 25.18200 21.62900
N  47.79200 25.74000 28.10500
C  48.28900 26.47200 27.11100
C  48.87000 27.66500 27.56900
C  48.58700 27.70600 28.91900
C  48.06000 26.45200 29.24400
C  49.59600 28.66700 26.72400
C  48.75200 28.50100 30.07100
O  49.19800 29.63100 30.16200
C  48.20600 27.67300 31.28100
C  49.32800 27.60300 32.27900
O  50.33300 26.88400 32.12800
O  49.02100 28.30300 33.42800
C  49.82300 28.03400 34.69200
H  45.86800 21.08100 31.30900
H  45.87600 20.91600 24.94000
H  48.57000 26.69600 25.05200
H  47.95900 24.77000 33.11900
H  45.51800 23.20700 32.99900
H  46.78300 21.48600 33.80400
H  47.88000 22.78000 34.22900
H  48.01700 21.84000 32.68800
H  45.17700 25.96800 32.70100
H  46.64800 26.77300 33.44100
H  46.11800 24.67300 35.21900
H  44.49300 25.16700 34.66800
H  44.40000 18.57300 30.07900
H  45.70900 19.23900 30.95500
H  46.10900 17.93800 29.80200
H  45.69700 17.14900 27.59300
H  44.52900 16.73600 26.29500
H  43.97300 17.55900 27.85100
H  46.04200 22.98400 23.36400
H  48.39900 24.64000 23.46500
H  47.62300 21.95000 22.11800
H  48.08600 21.18100 23.65600
H  49.03800 22.58000 22.87900
H  46.37700 26.46400 23.31800
H  45.29400 25.06400 23.57600
H  46.89500 24.48700 21.27500
H  46.40100 26.13400 21.16900
H  45.17500 24.82300 21.25500
H  50.33600 28.12900 26.13200
H  50.15900 29.27100 27.43500
H  48.90400 29.22600 26.09400
H  47.32700 28.17700 31.68400
H  50.19100 28.98500 35.07800
H  50.59200 27.28400 34.50800
H  49.07500 27.62400 35.37100

