158

Mg 35.85500 1.38700 29.55400
C  33.78500 2.22100 32.17100
C  38.54800 1.54700 31.63700
C  37.70200 0.93300 26.87700
C  33.01400 2.11300 27.32500
N  36.04100 1.69700 31.64100
C  35.09600 1.90800 32.59900
C  35.68600 2.14100 33.98600
C  37.21300 2.09000 33.73100
C  37.28800 1.82100 32.24900
C  37.99700 3.33900 34.27600
C  35.19100 1.01900 34.97200
C  34.83100 1.49100 36.43800
H  35.60800 2.66000 36.94700
N  37.84900 1.11900 29.25300
C  38.80900 1.25800 30.26400
C  40.09300 0.96900 29.71000
C  39.84800 0.67700 28.33200
C  38.38800 0.85200 28.12100
C  41.44800 1.09500 30.47300
C  40.86800 0.45900 27.20400
O  40.55500 0.29700 26.03100
C  42.31400 0.43500 27.54700
N  35.47100 1.58000 27.43500
C  36.43000 1.26700 26.55100
C  35.92500 1.24300 25.09900
C  34.43500 1.54100 25.29400
C  34.24700 1.77400 26.73100
C  36.54200 2.18600 24.05100
C  33.48500 0.35800 24.82500
C  33.23500 -0.79100 25.87100
N  33.86300 2.11800 29.61200
C  32.82400 2.30900 28.70400
C  31.62800 2.66800 29.43600
C  31.98500 2.61500 30.77300
C  33.35100 2.29800 30.80600
C  30.45700 3.01400 28.81500
C  31.54500 2.94100 32.10400
O  30.48700 3.45900 32.44700
C  32.66800 2.66000 33.10600
C  32.97700 3.85200 33.81800
O  33.44000 4.88100 33.32500
O  32.62400 3.67000 35.12000
C  32.34800 4.81000 35.93600
H  39.38100 1.58300 32.34200
H  38.25400 0.66400 25.97400
H  32.12800 2.38500 26.74700
H  35.34800 3.15600 34.19500
H  37.60200 1.23400 34.28300
H  38.63100 3.14900 35.14200
H  37.34300 4.15400 34.58400
H  38.60600 3.86900 33.54400
H  36.05000 0.37000 35.14400
H  34.41300 0.49600 34.41600
H  34.94500 0.70000 37.17900
H  33.74900 1.62400 36.42400
H  41.27400 1.27600 31.53400
H  42.05100 1.95000 30.16500
H  42.01000 0.16100 30.45600
H  42.40300 -0.33500 28.31300
H  42.60100 1.33300 28.09300
H  42.81600 0.19900 26.60800
H  36.15600 0.19600 24.90700
H  34.19000 2.46500 24.76900
H  37.21900 2.94800 24.43600
H  35.86700 2.72300 23.38500
H  37.13800 1.61600 23.33900
H  34.10000 -0.20700 24.12400
H  32.53800 0.70600 24.41200
H  33.45000 -0.62700 26.92600
H  33.99400 -1.55000 25.67800
H  32.26500 -1.26900 25.73500
H  30.65600 3.82300 28.11200
H  29.74700 3.43700 29.52600
H  30.17700 2.06500 28.35800
H  32.42900 1.83300 33.77400
H  32.97400 4.68400 36.81900
H  31.29700 4.81500 36.22600
H  32.57600 5.78900 35.51300
Mg 25.37400 50.36500 26.73400
C  23.19800 51.49700 29.23100
C  27.66000 49.65400 29.23400
C  27.61600 49.88900 24.27000
C  23.30400 52.00900 24.44300
N  25.36000 50.47600 28.97300
C  24.33100 50.93200 29.80200
C  24.68100 50.73100 31.28800
C  26.15700 50.43300 31.21900
C  26.47200 50.24000 29.72900
C  27.12700 51.48500 31.89900
C  23.74600 49.64200 31.95200
C  23.06500 50.03200 33.24900
H  23.83800 50.95900 34.18700
N  27.31700 49.87800 26.78900
C  28.07600 49.48300 27.90100
C  29.26600 48.81900 27.44700
C  29.30000 48.87700 26.01700
C  28.04700 49.57000 25.61300
C  30.30200 48.14800 28.29700
C  30.30400 48.31700 25.05100
O  30.11900 48.44400 23.80800
C  31.55900 47.64500 25.56900
N  25.54800 50.99400 24.58400
C  26.56800 50.55500 23.78200
C  26.25800 50.94400 22.33300
C  24.83300 51.56800 22.43500
C  24.50300 51.48300 23.89700
C  27.25400 51.99900 21.68700
C  23.78300 50.96400 21.43900
C  23.26800 49.53400 21.70500
N  23.54600 51.33100 26.73700
C  22.80500 51.89700 25.73000
C  21.53900 52.41500 26.22400
C  21.70200 52.28800 27.60300
C  22.95400 51.64200 27.88700
C  20.44900 53.02400 25.36100
C  21.06800 52.58700 28.87100
O  19.94800 53.00800 29.11600
C  22.06800 52.10800 30.00200
C  22.40800 53.25400 30.84100
O  23.42900 53.94100 30.76500
O  21.35000 53.35700 31.74500
C  21.38000 54.49200 32.62900
H  28.39400 49.42200 30.00800
H  28.31100 49.58300 23.48600
H  22.76000 52.58500 23.69100
H  24.59300 51.70200 31.77500
H  26.26500 49.42800 31.62700
H  27.28200 51.10700 32.90900
H  26.65900 52.46600 31.98700
H  28.04600 51.54400 31.31600
H  24.15400 48.63400 32.01700
H  22.96000 49.52300 31.20600
H  22.79800 49.05000 33.64200
H  22.09000 50.42100 32.95700
H  29.99800 48.25300 29.33900
H  31.22200 48.73000 28.25600
H  30.33600 47.06600 28.16900
H  32.22000 47.27200 24.78700
H  31.25200 46.76200 26.12900
H  32.06300 48.38900 26.18600
H  26.38700 50.02700 21.75700
H  24.81900 52.64600 22.27800
H  26.86200 53.00700 21.82400
H  27.42500 51.73500 20.64300
H  28.23300 51.94900 22.16300
H  24.26400 51.12300 20.47400
H  22.90900 51.61100 21.51900
H  23.26000 48.88300 20.83100
H  22.30700 49.55500 22.21800
H  23.94800 49.07700 22.42500
H  20.68100 52.81800 24.31600
H  20.27000 54.08200 25.54900
H  19.52700 52.47900 25.56300
H  21.61300 51.34900 30.63900
H  21.63200 55.26100 31.89800
H  22.03700 54.34800 33.48700
H  20.39000 54.75100 33.00300

