158

Mg 41.00500 8.56600 29.92000
C  42.92900 9.75500 32.53300
C  38.76000 7.36000 31.85500
C  39.40400 7.41200 26.99400
C  43.65600 9.74900 27.66900
N  41.00000 8.36000 32.02000
C  41.75700 9.04400 32.96800
C  41.07300 8.98600 34.30000
C  39.78100 8.11200 34.05900
C  39.82000 7.89100 32.57200
C  39.70300 6.77700 34.82300
C  40.66900 10.44900 34.75900
C  40.32400 10.62900 36.23200
H  41.12000 11.57800 37.07300
N  39.31600 7.47200 29.52500
C  38.49000 7.06800 30.55600
C  37.43000 6.27600 29.95700
C  37.64700 6.27500 28.49900
C  38.83900 7.03600 28.29500
C  36.40300 5.58200 30.80300
C  36.86200 5.54600 27.42300
O  36.93400 5.75200 26.18500
C  35.86000 4.50900 27.82300
N  41.49500 8.58100 27.71300
C  40.62700 8.13600 26.73000
C  41.03100 8.31900 25.31700
C  42.35700 9.08900 25.53900
C  42.50800 9.22900 27.09900
C  41.27800 6.99800 24.49700
C  42.44300 10.47800 24.81500
C  41.65500 11.65900 25.47700
N  43.03600 9.38200 30.04900
C  43.92300 9.90600 29.08700
C  45.03000 10.51500 29.81100
C  44.61900 10.49900 31.13600
C  43.43000 9.75100 31.27600
C  46.24000 11.02200 29.11500
C  44.96000 10.99500 32.48000
O  45.93800 11.57400 32.84200
C  43.78700 10.56900 33.45400
C  44.42400 9.69000 34.56200
O  45.16400 8.71800 34.43300
O  44.14600 10.24400 35.75400
C  44.37400 9.38800 36.88800
H  37.97400 6.94800 32.49100
H  38.91400 7.17900 26.04600
H  44.35800 10.21500 26.97500
H  41.71600 8.47700 35.01800
H  38.87700 8.67800 34.28300
H  38.92700 6.86000 35.58400
H  40.57200 6.57100 35.44800
H  39.70000 5.90600 34.16800
H  39.77700 10.78100 34.22800
H  41.52400 11.11200 34.62400
H  40.35500 9.66300 36.73600
H  39.30600 11.01600 36.28700
H  35.37800 5.78900 30.49500
H  36.53800 5.87300 31.84500
H  36.66000 4.52300 30.83000
H  34.97700 5.02900 28.19600
H  36.30000 3.92500 28.63100
H  35.62500 3.90800 26.94500
H  40.22100 8.82700 24.79400
H  43.18400 8.46900 25.19200
H  41.52100 6.18100 25.17600
H  41.99200 7.25000 23.71200
H  40.36500 6.78300 23.94200
H  42.09800 10.25700 23.80500
H  43.48900 10.77200 24.73000
H  42.28400 12.46000 25.86500
H  41.06800 11.30600 26.32500
H  41.04900 12.20100 24.75100
H  46.46900 10.46400 28.20700
H  47.00600 10.77800 29.85200
H  46.26300 12.05900 28.78100
H  43.34900 11.53500 33.70500
H  44.19300 8.32800 36.71100
H  43.76800 9.71000 37.73500
H  45.43300 9.53900 37.09700
Mg 9.13200 48.16800 26.26200
C  6.81200 48.35200 28.79200
C  11.63500 48.74400 28.42800
C  11.25400 47.79400 23.64700
C  6.58400 47.83400 23.90600
N  9.21000 48.38700 28.33800
C  8.17900 48.40400 29.24900
C  8.63800 48.68200 30.72100
C  10.13300 49.06000 30.45500
C  10.34300 48.65300 29.01600
C  10.58800 50.52800 30.70200
C  8.35100 47.48600 31.67800
C  9.22800 47.53900 33.00600
H  8.49700 47.33800 34.38000
N  11.17700 48.39100 25.99100
C  12.03700 48.62300 27.04500
C  13.36500 48.55400 26.55600
C  13.30900 48.26900 25.21700
C  11.87900 48.19200 24.86300
C  14.52900 48.77100 27.51800
C  14.40500 48.19400 24.20000
O  14.12800 47.98500 23.00400
C  15.87600 48.27600 24.59400
N  8.95800 48.28400 23.98100
C  9.95700 47.95600 23.23200
C  9.63700 47.53300 21.85100
C  8.05800 47.42900 21.91000
C  7.78300 47.86400 23.32400
C  10.15500 48.49500 20.74500
C  7.43100 46.12000 21.49000
C  6.26600 46.12100 20.42400
N  7.13000 48.22300 26.27900
C  6.24100 48.08900 25.25000
C  4.86900 48.22200 25.86800
C  5.09600 48.24800 27.26500
C  6.45300 48.30100 27.43800
C  3.44100 48.12500 25.20000
C  4.37200 48.33000 28.48100
O  3.20900 48.17500 28.74400
C  5.51400 48.40300 29.58400
C  5.22900 47.25700 30.50300
O  5.48700 46.10700 30.23100
O  4.71600 47.66600 31.68900
C  4.64500 46.65000 32.74400
H  12.32800 48.89600 29.25900
H  11.96300 47.32000 22.96500
H  5.76700 47.66000 23.20200
H  8.05200 49.48700 31.16500
H  10.83500 48.39500 30.95800
H  11.55400 50.41900 31.19500
H  9.96200 51.03000 31.43900
H  10.72000 51.07400 29.76700
H  8.35200 46.50600 31.20000
H  7.30500 47.58900 31.96500
H  9.68800 48.52700 33.00500
H  9.97300 46.76200 32.83400
H  14.22600 48.71900 28.56400
H  14.80200 49.75900 27.14700
H  15.37100 48.09300 27.37400
H  16.02500 47.49500 25.34100
H  16.19000 49.29500 24.81700
H  16.38700 47.84600 23.73300
H  9.99200 46.51200 21.71600
H  7.59900 48.26300 21.37900
H  10.50600 49.43300 21.17400
H  9.37300 48.68000 20.00800
H  10.92600 48.04200 20.12200
H  6.98700 45.69800 22.39100
H  8.20100 45.50000 21.03100
H  6.18600 47.14300 20.05500
H  5.31400 45.76700 20.82000
H  6.57800 45.42500 19.64600
H  2.80900 48.88000 25.66700
H  2.99100 47.15600 25.41600
H  3.60100 48.16800 24.12300
H  5.40900 49.31400 30.17300
H  3.76800 46.99000 33.29500
H  5.63400 46.46400 33.16000
H  4.38900 45.68500 32.30500

