158

Mg 44.17900 4.10500 47.63200
C  42.15900 6.93400 47.04400
C  41.37100 2.12300 47.39200
C  46.25800 1.54300 47.94200
C  47.02300 6.37300 47.53000
N  41.99400 4.52700 47.13000
C  41.44500 5.72400 46.98200
C  39.97200 5.55500 46.56700
C  39.63900 4.09300 47.01400
C  41.08200 3.47900 47.17500
C  38.83600 3.94300 48.25500
C  39.77000 5.79500 45.07600
C  38.85500 6.97100 44.65800
H  39.27700 7.72100 43.46000
N  43.88900 2.05800 47.73600
C  42.62600 1.45200 47.57200
C  42.78600 0.05700 47.69200
C  44.18400 -0.18600 47.95800
C  44.85100 1.14900 47.90600
C  41.75700 -0.94500 47.46600
C  44.74800 -1.60800 48.08800
O  44.10500 -2.65700 48.02000
C  46.21200 -1.75200 48.25000
N  46.31700 3.98200 47.59500
C  46.86600 2.78800 47.83500
C  48.40500 2.90300 47.70000
C  48.65700 4.44900 47.55400
C  47.23400 5.00400 47.47800
C  49.31400 2.19100 48.79700
C  49.59600 4.88500 46.38700
C  50.73000 5.89300 46.69700
N  44.60800 6.30100 47.40800
C  45.77300 7.04200 47.50200
C  45.39400 8.48500 47.43000
C  44.00600 8.50700 47.23300
C  43.57100 7.12000 47.17200
C  46.27100 9.76000 47.69900
C  42.79600 9.39200 47.08900
O  42.64000 10.56900 47.05000
C  41.59300 8.36800 46.86000
C  40.40700 8.56800 47.84900
O  40.31900 8.01500 48.90700
O  39.54800 9.51800 47.32600
C  38.35600 9.80900 48.11600
H  40.49200 1.47700 47.36000
H  46.94600 0.70200 48.05400
H  47.92700 6.96800 47.67500
H  39.42700 6.28900 47.16000
H  39.19800 3.53900 46.18500
H  38.49700 4.96600 48.42100
H  39.37500 3.57700 49.12900
H  37.97000 3.28300 48.18900
H  39.44900 4.88100 44.57500
H  40.74800 6.11200 44.71400
H  38.80000 7.69100 45.47500
H  37.86300 6.67500 44.31600
H  40.86800 -0.55800 46.96800
H  41.45800 -1.44200 48.38800
H  42.15800 -1.62600 46.71500
H  46.85000 -1.68400 47.37000
H  46.61100 -2.58900 48.82400
H  46.49800 -0.96700 48.95000
H  48.71600 2.36500 46.80500
H  48.95600 4.82600 48.53100
H  48.53700 1.86200 49.48700
H  50.07200 2.81100 49.27600
H  49.84200 1.28000 48.51400
H  48.94100 5.37300 45.66600
H  50.01900 3.99400 45.92300
H  50.55300 6.89700 46.31100
H  51.70900 5.44800 46.51600
H  50.81100 6.00300 47.77800
H  45.81900 10.63800 47.23800
H  47.23300 9.57200 47.22000
H  46.43300 9.79200 48.77600
H  41.25800 8.35100 45.82300
H  38.31600 9.17200 48.99900
H  37.55900 9.73800 47.37600
H  38.39400 10.84300 48.45900
Mg -10.72000 39.81500 43.83800
C  -9.61700 36.81100 42.40200
C  -8.10400 41.46700 42.05500
C  -12.23200 42.76600 44.54500
C  -13.57200 38.10000 44.80500
N  -9.05600 39.21200 42.43600
C  -8.84600 37.92200 41.99100
C  -7.62600 37.86800 40.98000
C  -7.07900 39.32100 41.18700
C  -8.11200 40.07700 41.95200
C  -5.65200 39.57300 41.65200
C  -7.94500 37.41700 39.52100
C  -7.19400 36.16400 39.08400
H  -6.01700 36.38200 37.97600
N  -10.19900 41.86300 43.44100
C  -9.13700 42.31200 42.59800
C  -9.21000 43.68700 42.57900
C  -10.38700 44.13100 43.34300
C  -11.00800 42.87800 43.85100
C  -8.26000 44.60100 41.78700
C  -10.68800 45.53600 43.60800
O  -10.04700 46.37900 43.04000
C  -11.70200 45.94500 44.69200
N  -12.61800 40.34300 44.64400
C  -13.01100 41.62100 44.75100
C  -14.55700 41.71900 45.13500
C  -14.92400 40.26500 45.36800
C  -13.65900 39.48800 44.93000
C  -14.80900 42.71800 46.34800
C  -16.16200 39.84500 44.57200
C  -17.05300 38.92900 45.33500
N  -11.46300 37.80900 43.72900
C  -12.61600 37.29000 44.17100
C  -12.65500 35.87200 44.07600
C  -11.48800 35.61400 43.39600
C  -10.80000 36.85100 43.17400
C  -13.56600 34.82800 44.57600
C  -10.67600 34.62000 42.72100
O  -10.79800 33.37100 42.65500
C  -9.39500 35.33900 41.99600
C  -8.24000 34.80400 42.75500
O  -7.75800 35.32700 43.72300
O  -7.74300 33.77900 42.06200
C  -6.53400 33.11900 42.57100
H  -7.35900 42.09600 41.56300
H  -12.87600 43.64800 44.52900
H  -14.52700 37.66900 45.11300
H  -6.96200 37.12900 41.42700
H  -6.89600 39.78900 40.22000
H  -4.99800 38.70300 41.70900
H  -5.68000 39.93200 42.68100
H  -5.15100 40.31100 41.02600
H  -7.57600 38.20800 38.86700
H  -9.01100 37.25500 39.36400
H  -7.99500 35.54000 38.68600
H  -6.81200 35.62200 39.94900
H  -8.83500 44.85300 40.89600
H  -7.45800 43.99300 41.37000
H  -7.98800 45.53300 42.28300
H  -12.71100 45.78100 44.31600
H  -11.50500 46.97600 44.98700
H  -11.62200 45.24600 45.52500
H  -15.00900 42.10700 44.22200
H  -15.01200 40.10300 46.44300
H  -15.26300 42.23000 47.21100
H  -15.44600 43.55900 46.07700
H  -13.81900 43.04300 46.66900
H  -15.94900 39.34100 43.62900
H  -16.73600 40.76900 44.50800
H  -17.07500 37.93700 44.88400
H  -18.06300 39.33000 45.25100
H  -16.78300 38.96300 46.39100
H  -13.95900 35.22900 45.51000
H  -13.06100 33.91900 44.90200
H  -14.29600 34.66100 43.78400
H  -9.27300 35.11200 40.93600
H  -5.66600 33.77100 42.66500
H  -6.39800 32.43900 41.72900
H  -6.69700 32.66600 43.54900

