158

Mg 0.85500 7.78900 26.19900
C  1.17700 9.25400 29.35800
C  0.47300 4.79100 27.64400
C  1.13700 6.39700 23.13500
C  1.64900 10.87300 24.82500
N  0.93600 7.06900 28.25000
C  0.77400 7.84200 29.39900
C  0.52800 7.00000 30.66300
C  0.48400 5.54500 30.06900
C  0.57500 5.85400 28.57000
C  1.57600 4.61000 30.67000
C  -0.81400 7.47700 31.40400
C  -0.77700 7.81000 32.91400
H  0.24500 7.23700 33.79100
N  0.72700 5.84400 25.50400
C  0.53500 4.76700 26.26100
C  0.54000 3.59800 25.42800
C  0.73500 4.00800 24.11300
C  0.86400 5.45700 24.19500
C  0.28000 2.15900 25.99500
C  0.77100 3.03800 22.81500
O  0.94300 3.52400 21.71200
C  0.61600 1.57700 22.79400
N  1.12600 8.58900 24.20800
C  1.29800 7.80700 23.14600
C  1.66600 8.62100 21.87400
C  1.80700 10.08500 22.45400
C  1.57200 9.81600 23.90900
C  2.98200 8.12100 21.14100
C  0.84100 11.13500 21.90400
C  -0.71000 11.02300 22.13500
N  1.32300 9.69600 26.89700
C  1.55100 10.82800 26.22800
C  1.66000 11.93300 27.10800
C  1.53200 11.39000 28.38000
C  1.34200 10.05200 28.19800
C  2.09300 13.31100 26.74100
C  1.74000 11.59300 29.78200
O  2.08500 12.55900 30.38700
C  1.17700 10.30300 30.49700
C  2.10500 10.08200 31.66500
O  3.29600 9.68600 31.71200
O  1.53300 10.71500 32.71900
C  2.30500 11.10300 33.92800
H  0.41000 3.88400 28.24900
H  1.27000 5.99100 22.13000
H  1.90900 11.88500 24.50800
H  1.44700 7.25400 31.19200
H  -0.48400 5.13500 30.35500
H  2.48600 4.36500 30.12200
H  1.03800 3.75700 31.08400
H  1.87700 4.93900 31.66500
H  -1.57100 6.69100 31.41300
H  -1.18500 8.32300 30.82600
H  -1.77000 7.52600 33.26400
H  -0.56000 8.87800 32.92500
H  0.94900 1.56000 25.37800
H  -0.77000 1.93200 25.81300
H  0.62300 2.15800 27.03000
H  1.39100 0.97400 23.26800
H  0.58900 1.37300 21.72400
H  -0.35400 1.37500 23.24800
H  0.83500 8.56700 21.17100
H  2.78200 10.56700 22.37900
H  3.61100 7.71700 21.93400
H  3.57000 8.90800 20.66800
H  2.73800 7.42300 20.34100
H  0.99700 11.26900 20.83300
H  1.17400 12.11200 22.25400
H  -0.88500 10.08800 22.66700
H  -1.18400 10.96500 21.15500
H  -1.15400 11.87800 22.64400
H  2.80100 13.59200 27.52100
H  1.11200 13.75000 26.56100
H  2.67300 13.48400 25.83500
H  0.12200 10.43900 30.73300
H  2.22200 12.13600 34.26500
H  3.37700 10.91200 33.89400
H  1.86000 10.47500 34.70000
Mg 48.45000 34.50500 26.43300
C  46.52200 32.99200 29.00300
C  48.85400 37.16000 28.31800
C  50.17900 35.51700 23.82500
C  47.73200 31.42300 24.53300
N  47.90600 34.96900 28.49200
C  47.20200 34.20800 29.36300
C  47.28100 34.77800 30.79100
C  47.64000 36.24900 30.42300
C  48.20700 36.15800 29.04200
C  46.49800 37.39000 30.39600
C  48.46300 33.95300 31.50600
C  48.64800 34.27900 33.04300
H  47.67500 35.39100 33.64100
N  49.32200 36.10700 26.05500
C  49.38400 37.14200 26.91900
C  50.10200 38.16400 26.37900
C  50.57800 37.74500 25.11900
C  50.03700 36.39200 24.93100
C  50.23600 39.47300 27.07600
C  51.52600 38.43400 24.19200
O  51.67400 37.99100 23.05100
C  52.22400 39.70300 24.69200
N  48.66100 33.71400 24.30000
C  49.50900 34.30500 23.53200
C  49.79000 33.50600 22.28300
C  49.16700 32.11800 22.56200
C  48.46000 32.41300 23.85400
C  49.33300 34.27300 21.07900
C  50.16200 30.95900 22.59000
C  50.32400 30.33000 21.16200
N  47.26000 32.67800 26.60600
C  47.03100 31.59100 25.73600
C  46.13500 30.64400 26.38400
C  45.86900 31.18400 27.66000
C  46.56400 32.40700 27.74800
C  45.65500 29.25000 25.86500
C  45.11900 31.00100 28.90800
O  44.26800 30.19200 29.22400
C  45.53200 32.21900 29.80500
C  45.82100 31.74000 31.21900
O  46.60800 30.80000 31.55300
O  45.00300 32.36100 32.11400
C  44.96700 31.79200 33.48300
H  48.90200 38.11200 28.85000
H  50.77000 35.89300 22.98700
H  47.55100 30.52300 23.94300
H  46.33200 34.76400 31.32800
H  48.33100 36.56000 31.20700
H  46.89200 38.27000 30.90600
H  45.51900 37.14600 30.80900
H  46.25200 37.61900 29.35900
H  49.35300 34.21800 30.93500
H  48.21100 32.89400 31.45500
H  49.70300 34.51200 33.19000
H  48.37800 33.35800 33.56000
H  51.27900 39.77400 27.17200
H  49.70000 39.67800 28.00300
H  49.70000 40.27500 26.56700
H  51.64100 40.62000 24.77600
H  52.95800 39.75200 23.88700
H  52.78300 39.50400 25.60600
H  50.84800 33.27700 22.15300
H  48.38500 31.91800 21.83000
H  49.26100 35.35400 21.19500
H  48.33200 33.98500 20.75600
H  50.01200 34.14500 20.23600
H  49.67200 30.24700 23.25400
H  51.07500 31.31100 23.07200
H  49.98300 30.82800 20.25400
H  49.74600 29.40500 21.14000
H  51.38300 30.22400 20.92800
H  45.73000 29.03900 24.79800
H  44.60000 29.10700 26.10100
H  46.18200 28.42200 26.33900
H  44.60100 32.77300 29.92400
H  45.79000 31.14200 33.77800
H  43.94500 31.45400 33.65500
H  44.99500 32.70600 34.07600

