158

Mg 24.58300 -6.76500 48.44000
C  26.89100 -4.61900 47.07400
C  22.10600 -5.35200 46.16200
C  22.68200 -9.43900 48.89800
C  27.24300 -8.19800 50.38100
N  24.55900 -5.24500 46.77100
C  25.63400 -4.49500 46.39000
C  25.27100 -3.45200 45.33600
C  23.69700 -3.46300 45.42000
C  23.39400 -4.72500 46.21700
C  23.07500 -2.15800 45.92200
C  25.90100 -3.80700 43.93100
C  26.23200 -2.62100 42.98100
H  25.47900 -2.57000 41.64700
N  22.54900 -7.21300 47.77900
C  21.74000 -6.52900 46.88700
C  20.47000 -7.32800 46.78600
C  20.61100 -8.52500 47.56800
C  22.01300 -8.46700 48.09400
C  19.29100 -6.88200 45.91700
C  19.44300 -9.62400 47.75600
O  18.33100 -9.29100 47.33300
C  19.64300 -10.95400 48.48900
N  25.02300 -8.63700 49.39400
C  23.95300 -9.45500 49.49600
C  24.27400 -10.58300 50.58900
C  25.67500 -10.20100 51.13700
C  26.00300 -8.93700 50.27600
C  23.13400 -10.76400 51.69000
C  26.82600 -11.28800 50.83100
C  27.92800 -11.30700 51.86300
N  26.63300 -6.42700 48.76600
C  27.56400 -7.04600 49.54800
C  28.82500 -6.26100 49.50200
C  28.59600 -5.27100 48.54700
C  27.23800 -5.42000 48.16900
C  30.00600 -6.55600 50.33400
C  29.22800 -4.23000 47.79300
O  30.39000 -3.80300 47.65700
C  28.13200 -3.70300 46.89300
C  27.91900 -2.34700 47.40200
O  27.27600 -2.09200 48.38100
O  28.35900 -1.36800 46.48600
C  27.94700 0.00900 46.67900
H  21.32700 -4.82800 45.60500
H  22.10000 -10.33200 49.13800
H  28.05100 -8.69800 50.91800
H  25.59600 -2.44600 45.60200
H  23.23400 -3.67700 44.45600
H  23.28500 -1.96900 46.97500
H  21.99200 -2.07100 45.83400
H  23.53100 -1.45700 45.22200
H  25.25900 -4.51900 43.41200
H  26.74300 -4.47800 44.09900
H  27.30500 -2.73100 42.81900
H  26.19600 -1.65400 43.48300
H  19.48800 -5.89500 45.49900
H  18.39400 -6.73900 46.52000
H  19.09100 -7.66300 45.18300
H  20.51200 -11.42500 48.02900
H  18.79400 -11.63000 48.39000
H  19.87100 -10.80300 49.54400
H  24.44400 -11.45300 49.95500
H  25.55500 -9.83000 52.15500
H  23.68100 -11.25000 52.49800
H  22.35700 -11.40500 51.27500
H  22.63100 -9.84800 51.99900
H  27.38200 -11.09300 49.91400
H  26.35400 -12.26700 50.73900
H  27.93600 -12.31400 52.27800
H  27.82900 -10.48200 52.56900
H  28.86700 -11.13500 51.33800
H  30.44200 -7.53000 50.11300
H  29.76300 -6.51600 51.39500
H  30.76500 -5.79100 50.16500
H  28.46500 -3.65800 45.85600
H  27.38300 0.25000 47.57900
H  27.19400 0.22600 45.92100
H  28.73000 0.75700 46.55600
Mg 16.97600 -1.71700 28.20100
C  16.31900 0.50100 30.82100
C  18.72200 -3.72000 30.24600
C  17.95900 -3.45500 25.40700
C  15.20300 0.51000 26.02300
N  17.54900 -1.44000 30.30600
C  17.15000 -0.54100 31.21700
C  17.71400 -0.89600 32.59700
C  18.74200 -2.01400 32.37000
C  18.33100 -2.45300 30.93800
C  20.24600 -1.57900 32.37400
C  16.50100 -1.44800 33.47300
C  16.22800 -0.75300 34.88200
H  17.41800 0.05400 35.51000
N  18.06000 -3.43900 27.87200
C  18.73100 -4.10400 28.89800
C  19.35000 -5.29500 28.27000
C  19.07500 -5.24100 26.83600
C  18.25900 -4.07700 26.60400
C  20.13000 -6.33700 29.08500
C  19.62200 -6.20500 25.70900
O  19.51500 -5.97100 24.51500
C  20.47900 -7.39000 26.00300
N  16.74800 -1.40300 26.07600
C  17.26700 -2.29200 25.17000
C  17.16200 -1.82100 23.71100
C  16.09000 -0.63900 23.90500
C  15.92100 -0.53100 25.47000
C  18.60900 -1.35200 23.10900
C  14.71300 -0.89000 23.15900
C  14.34000 0.06400 22.09800
N  15.99600 0.12400 28.34700
C  15.20100 0.83500 27.43100
C  14.61800 2.01800 28.07600
C  14.95200 1.84900 29.38300
C  15.85500 0.76000 29.50000
C  13.73300 3.12700 27.48000
C  14.78400 2.44000 30.67100
O  14.15000 3.45700 31.08800
C  15.67500 1.62000 31.71600
C  16.69900 2.48300 32.30600
O  17.83200 2.63700 31.82800
O  16.17100 3.23400 33.34200
C  16.97900 4.30800 33.92500
H  19.40500 -4.32300 30.84800
H  18.22300 -4.00800 24.50300
H  14.69600 1.19700 25.34200
H  18.25100 -0.04200 33.01200
H  18.60100 -2.82200 33.08800
H  20.30600 -0.49100 32.39200
H  20.84400 -1.99200 31.56100
H  20.57400 -1.85600 33.37500
H  16.58000 -2.53500 33.51100
H  15.64300 -1.17200 32.86000
H  15.83600 -1.45200 35.62100
H  15.33300 -0.18000 34.64200
H  20.35400 -6.00500 30.09900
H  21.07000 -6.54500 28.57400
H  19.68900 -7.31700 29.26700
H  20.09600 -8.04000 26.79000
H  21.39300 -6.93500 26.38500
H  20.70000 -8.06700 25.17700
H  16.73000 -2.55600 23.03100
H  16.47200 0.34300 23.62600
H  18.78300 -1.89800 22.18100
H  19.41200 -1.58200 23.80900
H  18.77800 -0.29700 22.89200
H  13.92400 -0.94500 23.90900
H  14.62600 -1.86900 22.68700
H  15.23100 0.28200 21.51000
H  13.87000 0.99200 22.42300
H  13.64100 -0.44600 21.43500
H  14.14400 4.12800 27.61800
H  12.77300 3.07200 27.99200
H  13.49500 2.86100 26.45000
H  14.94000 1.26700 32.43900
H  17.81900 4.66700 33.33000
H  17.29100 3.83400 34.85600
H  16.31600 5.16000 34.06900

