158

Mg 1.44800 8.00200 26.48500
C  1.93700 10.22200 29.10900
C  2.18800 5.35700 28.65600
C  1.53200 6.08100 23.77900
C  1.28900 10.78500 24.36300
N  1.98700 7.77600 28.63100
C  2.02800 8.89000 29.52000
C  2.01500 8.39800 30.98000
C  2.29900 6.83600 30.75700
C  2.08500 6.63600 29.27600
C  3.62500 6.27600 31.20200
C  0.71800 8.76100 31.71900
C  0.57200 7.99500 33.09300
H  1.81600 7.61000 33.87200
N  1.82100 6.00900 26.30300
C  2.19200 5.08600 27.26200
C  2.29700 3.80900 26.63300
C  2.11700 3.98700 25.22200
C  1.82100 5.43900 25.04500
C  2.51600 2.49500 27.38500
C  2.34900 3.00400 24.10900
O  2.26600 3.32200 22.91400
C  2.68700 1.59700 24.41900
N  1.27400 8.35400 24.32000
C  1.28500 7.37900 23.45800
C  1.16900 7.91600 21.94900
C  1.15600 9.45000 22.17800
C  1.25500 9.53400 23.72200
C  2.33200 7.29600 21.02900
C  -0.10700 10.11900 21.62300
C  0.11700 11.13300 20.47600
N  1.53200 10.13500 26.61000
C  1.41300 11.08900 25.67700
C  1.57000 12.41400 26.25300
C  1.78200 12.12700 27.66600
C  1.76100 10.73200 27.82800
C  1.52200 13.79900 25.56300
C  1.93200 12.74400 28.93300
O  2.03300 13.92300 29.21900
C  1.91600 11.49300 29.92000
C  3.10300 11.66800 30.71100
O  4.28000 11.61400 30.22200
O  2.81400 11.61000 32.08400
C  3.90400 11.83400 33.07000
H  2.32100 4.52300 29.34900
H  1.60000 5.50000 22.85700
H  1.16500 11.67000 23.73500
H  2.81600 8.90100 31.52200
H  1.49500 6.32100 31.28300
H  4.23800 5.89700 30.38400
H  3.51000 5.45800 31.91200
H  4.17300 7.14300 31.57200
H  -0.09700 8.47300 31.05500
H  0.87000 9.83300 31.84800
H  0.01700 7.08400 32.87300
H  -0.05800 8.56700 33.77500
H  2.66200 2.61800 28.45800
H  3.37000 1.94900 26.98400
H  1.67100 1.80700 27.40500
H  2.59000 0.90200 23.58500
H  2.09800 1.18600 25.23900
H  3.75200 1.62100 24.64900
H  0.24600 7.52800 21.51800
H  2.02000 9.87000 21.66200
H  2.97900 8.15600 20.85900
H  2.09300 6.79200 20.09300
H  2.94200 6.61000 21.61800
H  -0.66400 10.70100 22.35700
H  -0.77900 9.31900 21.31300
H  -0.14800 10.55400 19.59200
H  1.15700 11.45700 20.46500
H  -0.50900 12.01100 20.63400
H  0.70300 13.93000 24.85700
H  2.49500 13.88600 25.07800
H  1.55700 14.76000 26.07600
H  1.01400 11.52200 30.53100
H  4.90700 11.99400 32.67400
H  3.98300 10.96300 33.72100
H  3.65300 12.67300 33.71900
Mg 34.89900 49.81300 25.48600
C  34.76600 47.89900 28.33500
C  33.27200 52.34300 27.27000
C  34.04700 51.30200 22.62900
C  35.67700 46.90900 23.66500
N  34.05300 50.07400 27.61200
C  34.19700 49.16500 28.57100
C  33.90800 49.84400 30.00800
C  33.13400 51.16800 29.57700
C  33.57300 51.20800 28.12700
C  31.61700 51.28300 29.77900
C  35.22000 50.12300 30.83800
C  35.14900 49.54800 32.29500
H  33.77600 49.45400 32.92400
N  34.03300 51.69900 25.00900
C  33.42500 52.55600 25.85100
C  32.96700 53.75200 25.10200
C  33.24100 53.42500 23.73700
C  33.79000 52.15800 23.71100
C  32.29500 54.91200 25.71700
C  32.94100 54.27600 22.41500
O  33.20600 53.85300 21.24900
C  32.38300 55.68800 22.64200
N  34.91200 49.20000 23.43300
C  34.48100 49.97200 22.48900
C  34.67500 49.29400 21.03600
C  35.45100 48.03800 21.45100
C  35.38800 48.08700 22.94300
C  33.39800 48.98200 20.18500
C  36.97200 48.00400 20.87900
C  38.11600 48.82800 21.61800
N  35.17900 47.76400 25.90100
C  35.45300 46.70200 25.08500
C  35.82100 45.60300 25.91700
C  35.57500 46.01900 27.21700
C  35.07000 47.32700 27.13500
C  36.34800 44.32500 25.40800
C  35.53200 45.57400 28.64300
O  35.82800 44.54000 29.21700
C  34.93100 46.80100 29.44100
C  33.77600 46.26600 30.18900
O  32.59600 46.12200 29.71900
O  34.12500 45.84900 31.44300
C  33.02000 45.44000 32.33300
H  32.79700 53.12800 27.86200
H  33.88300 51.67900 21.61700
H  35.97300 46.02000 23.10400
H  33.29000 49.12900 30.55000
H  33.61900 52.05200 29.99100
H  31.18400 51.49800 28.80200
H  31.55100 52.06200 30.53700
H  31.11900 50.38400 30.14200
H  35.37000 51.20300 30.84300
H  36.04700 49.77900 30.21700
H  35.63800 50.24200 32.97900
H  35.65100 48.58200 32.22900
H  31.21800 54.98500 25.57100
H  32.77100 55.81200 25.32800
H  32.40800 55.08600 26.78700
H  32.15700 56.20200 21.70800
H  33.15400 56.35300 23.03000
H  31.49900 55.65500 23.27800
H  35.30700 49.92200 20.40800
H  35.06300 47.10200 21.04800
H  33.54800 49.50900 19.24200
H  32.50500 49.43000 20.62200
H  33.18800 47.93900 19.94900
H  37.06200 48.27600 19.82700
H  37.27600 46.95800 20.85500
H  38.56800 48.31700 22.46800
H  37.62200 49.68600 22.07400
H  38.79500 49.32300 20.92300
H  37.31000 44.43700 24.90900
H  35.66700 43.79300 24.74400
H  36.68200 43.67000 26.21400
H  35.70700 47.11300 30.14000
H  32.19700 46.15200 32.38900
H  33.42400 45.23500 33.32400
H  32.54800 44.55500 31.90500

