158

Mg 42.99000 41.41800 25.42200
C  42.24000 43.84000 27.83900
C  43.76200 39.27900 27.88500
C  43.54600 39.31500 23.00100
C  41.95300 43.92100 22.94000
N  43.19200 41.62000 27.63900
C  42.72300 42.61500 28.42100
C  42.81900 42.23000 29.94100
C  43.36300 40.75400 29.88400
C  43.46300 40.50200 28.38700
C  44.74000 40.56200 30.70500
C  41.49600 42.41500 30.76400
C  41.42300 41.71100 32.14200
H  41.45800 42.66100 33.33000
N  43.64500 39.59100 25.43800
C  43.84900 38.80400 26.53700
C  44.10000 37.48800 26.09700
C  44.20300 37.48900 24.71000
C  43.79900 38.85200 24.29200
C  44.22300 36.28100 27.12100
C  44.51700 36.33100 23.76700
O  44.76500 36.41400 22.55300
C  44.43300 34.91200 24.22600
N  42.65300 41.60000 23.31400
C  43.01200 40.51500 22.53700
C  42.77700 40.76000 20.97000
C  42.11200 42.14400 21.03500
C  42.19900 42.58200 22.49300
C  44.14700 40.76300 20.17500
C  40.68200 42.12100 20.46900
C  39.66600 41.37900 21.29200
N  42.44200 43.46800 25.34800
C  42.10000 44.30400 24.28200
C  41.90100 45.62500 24.83800
C  41.76800 45.41400 26.20500
C  42.13300 44.14000 26.47300
C  41.61400 46.84800 24.02200
C  41.45600 46.17600 27.37300
O  41.07000 47.31300 27.50300
C  41.64600 45.09300 28.57200
C  42.71700 45.64000 29.41100
O  43.89500 45.81800 29.17600
O  42.11200 46.12700 30.62500
C  43.06600 46.84900 31.48200
H  43.79800 38.50200 28.65100
H  43.79700 38.55400 22.25900
H  41.67500 44.67000 22.19500
H  43.44400 42.93200 30.49300
H  42.67900 39.97800 30.22800
H  44.75300 39.90300 31.57400
H  45.13200 41.55900 30.90500
H  45.45500 40.07600 30.04200
H  40.69900 42.25000 30.03800
H  41.34300 43.48800 30.87600
H  42.27900 41.06400 32.33200
H  40.51300 41.11300 32.19900
H  43.50400 35.49900 26.87900
H  43.86200 36.51200 28.12300
H  45.26700 35.96800 27.10600
H  43.54300 34.76600 24.83700
H  45.27000 34.55600 24.82600
H  44.47400 34.23000 23.37600
H  42.04000 40.05400 20.58600
H  42.67500 42.88900 20.47300
H  44.98400 40.35600 20.74300
H  44.42100 41.79100 19.93900
H  44.07200 40.12800 19.29300
H  40.72400 41.62200 19.50000
H  40.38100 43.16200 20.36000
H  39.17400 40.56700 20.75600
H  38.95100 42.13200 21.62200
H  40.03300 40.85200 22.17300
H  42.53000 47.22100 23.56600
H  41.30200 47.71300 24.60700
H  40.77100 46.56000 23.39300
H  40.68900 44.92600 29.06600
H  43.54800 47.71300 31.02400
H  43.88700 46.23100 31.84600
H  42.51000 47.21800 32.34400
Mg 36.83500 49.54100 23.98800
C  36.92900 47.98500 27.24700
C  35.30100 52.23000 25.45100
C  35.75100 50.51500 20.95100
C  37.89100 46.52500 22.71300
N  36.17400 49.99600 26.12300
C  36.53500 49.33400 27.24500
C  36.21100 50.11900 28.49700
C  35.44300 51.42100 27.91000
C  35.65200 51.24100 26.40500
C  33.89700 51.65500 28.30800
C  37.39500 50.38800 29.32500
C  37.21400 49.97800 30.83300
H  35.79400 49.72800 31.43200
N  35.89500 51.25500 23.28100
C  35.31600 52.19200 24.03200
C  34.85100 53.27600 23.15100
C  34.93900 52.79900 21.85400
C  35.52200 51.44600 22.00900
C  34.15100 54.60600 23.64700
C  34.54400 53.34800 20.49100
O  34.75900 52.76100 19.46000
C  33.82700 54.64500 20.36700
N  36.65700 48.54900 22.21300
C  36.40800 49.27800 21.01600
C  36.68800 48.44800 19.79000
C  37.63500 47.38500 20.32900
C  37.38100 47.46500 21.82500
C  35.35900 47.78600 19.11700
C  39.15500 47.61400 20.06900
C  40.00600 46.31400 20.14100
N  37.29000 47.55600 24.81200
C  37.79900 46.51400 24.11600
C  38.06900 45.43000 25.03100
C  37.81200 45.97300 26.33000
C  37.27900 47.27200 26.09500
C  38.69800 44.03200 24.74600
C  37.74400 45.71900 27.73500
O  38.14300 44.72000 28.35100
C  37.07000 47.00400 28.42100
C  35.73100 46.53200 28.90900
O  34.61500 46.57600 28.40500
O  35.96100 45.84200 30.07500
C  34.83000 45.03600 30.54400
H  34.83000 53.10600 25.90100
H  35.53600 50.59200 19.88400
H  38.46600 45.61800 22.51500
H  35.51200 49.44700 28.99400
H  35.93400 52.33200 28.25200
H  33.58600 51.03500 29.14900
H  33.19000 51.55400 27.48500
H  33.84000 52.63700 28.77700
H  37.65000 51.44100 29.20400
H  38.20100 49.78000 28.91500
H  37.70700 50.71000 31.47200
H  37.84700 49.12200 31.06500
H  33.07200 54.53100 23.51500
H  34.37600 55.54800 23.14700
H  34.27000 54.70900 24.72500
H  33.24000 54.67800 19.44900
H  34.46100 55.52900 20.42900
H  33.14700 54.69900 21.21700
H  37.23000 49.11500 19.12000
H  37.32500 46.42400 19.91800
H  34.63400 47.42600 19.84700
H  35.66200 46.90200 18.55600
H  34.82200 48.47500 18.46500
H  39.34500 48.34400 20.85600
H  39.26400 48.09100 19.09500
H  39.38000 45.44100 20.32400
H  40.66300 46.45500 20.99900
H  40.63700 46.13800 19.27000
H  37.86000 43.43600 24.38200
H  39.21400 43.58800 25.59700
H  39.44600 44.19400 23.97000
H  37.58700 47.37000 29.30900
H  34.37400 44.50500 29.70800
H  34.16600 45.72400 31.06600
H  35.36300 44.27600 31.11600

