158

Mg 50.35500 35.53800 27.21300
C  47.94200 34.29600 29.51600
C  50.69300 38.34400 29.17700
C  52.17800 36.78200 24.78300
C  49.09900 33.24900 24.95400
N  49.46600 36.21400 29.09800
C  48.68500 35.38200 29.95800
C  48.69200 36.00700 31.36600
C  49.12400 37.48400 31.05000
C  49.84300 37.33600 29.71100
C  47.94300 38.52000 31.11600
C  49.70000 35.27500 32.30000
C  49.26900 35.23100 33.81100
H  48.24500 36.27600 34.34500
N  51.46900 37.24100 27.07600
C  51.53100 38.31700 28.00000
C  52.42000 39.38100 27.47500
C  52.86600 38.93400 26.20000
C  52.18000 37.60600 25.99400
C  52.79000 40.56400 28.32800
C  53.85400 39.54100 25.29600
O  54.11200 39.07600 24.22700
C  54.55700 40.81100 25.69400
N  50.73600 34.98100 25.22100
C  51.61600 35.62800 24.39400
C  51.73200 34.99400 23.06300
C  50.94500 33.69200 23.27500
C  50.15700 33.93600 24.58000
C  51.22400 35.96800 21.95100
C  51.87700 32.46000 23.32500
C  51.32200 31.20300 22.50700
N  48.81600 34.06500 27.15200
C  48.41700 33.23900 26.19200
C  47.34400 32.39000 26.61300
C  47.15800 32.75100 27.92700
C  48.01900 33.80200 28.17600
C  46.73000 31.28100 25.90500
C  46.38100 32.53200 29.14900
O  45.52100 31.71900 29.42100
C  46.85300 33.57800 30.21100
C  47.31400 32.72000 31.39000
O  48.39900 32.12500 31.43100
O  46.38000 32.67400 32.46600
C  46.72800 31.89600 33.59400
H  50.71300 39.22800 29.81700
H  52.66800 37.30600 23.96000
H  48.59200 32.50200 24.34000
H  47.68000 36.01900 31.76900
H  49.73600 37.77200 31.90400
H  47.96400 39.04700 30.16200
H  48.06500 39.26500 31.90100
H  46.99500 37.98300 31.14100
H  50.64100 35.82400 32.28000
H  49.94200 34.31200 31.85200
H  50.13100 35.34500 34.46800
H  48.94300 34.19900 33.94700
H  53.86800 40.55800 28.49000
H  52.27400 40.58000 29.28800
H  52.37000 41.42700 27.81300
H  53.82400 41.59700 25.87100
H  55.15200 41.25000 24.89300
H  55.27000 40.66700 26.50600
H  52.78000 34.84400 22.80600
H  50.25500 33.49900 22.45400
H  50.39100 35.35500 21.60800
H  51.97900 36.18100 21.19400
H  50.88800 36.89100 22.42500
H  51.86300 32.03400 24.32800
H  52.90700 32.66600 23.03400
H  52.21900 30.69000 22.16100
H  50.75700 31.40900 21.59800
H  50.72800 30.60200 23.19600
H  47.53900 30.70000 25.46300
H  46.01700 31.71100 25.20200
H  46.14500 30.59700 26.52000
H  46.01200 34.22900 30.45100
H  47.80100 31.80700 33.76200
H  46.21000 30.94500 33.46900
H  46.23500 32.40300 34.42400
Mg 1.17900 42.34800 24.82300
C  1.80300 42.45700 28.27500
C  -1.79200 40.69500 25.66000
C  0.79900 41.70400 21.60500
C  4.37900 43.66900 24.27900
N  0.15400 41.67300 26.73500
C  0.53300 41.93100 28.03000
C  -0.63900 41.59900 29.02400
C  -1.58100 40.70900 28.10400
C  -1.03900 41.11900 26.75500
C  -1.54800 39.22800 28.39300
C  -1.39100 42.87300 29.58700
C  -1.22500 43.21200 31.07100
H  -1.49200 42.09600 32.06600
N  -0.40600 41.57700 23.80400
C  -1.53500 40.92800 24.31300
C  -2.35000 40.47600 23.16700
C  -1.75200 41.01200 21.96900
C  -0.36400 41.45500 22.39800
C  -3.62700 39.78400 23.45700
C  -2.15400 40.86100 20.56500
O  -1.35000 41.02100 19.67200
C  -3.55300 40.48100 20.18900
N  2.41900 42.48100 23.22600
C  2.05300 42.24100 21.97400
C  3.18500 42.48200 21.02400
C  4.05900 43.54800 21.72000
C  3.56600 43.25800 23.19000
C  3.93500 41.21800 20.62900
C  3.74700 44.98900 21.15100
C  2.81800 45.92700 21.89800
N  2.76700 42.93400 25.97000
C  4.00300 43.44800 25.62000
C  4.74100 43.81900 26.85600
C  3.87300 43.46700 27.85000
C  2.71800 42.86300 27.32000
C  6.02100 44.43900 27.02000
C  3.77300 43.47400 29.29600
O  4.52300 44.03800 30.16200
C  2.52500 42.74800 29.62400
C  2.83100 41.60000 30.53700
O  3.72200 40.74100 30.29800
O  2.01800 41.60200 31.57700
C  2.10900 40.38800 32.47900
H  -2.69300 40.11600 25.87100
H  0.75500 41.56500 20.52300
H  5.29000 44.21900 24.03500
H  -0.17800 41.02100 29.82500
H  -2.59600 41.06400 28.28000
H  -0.74800 39.09900 29.12100
H  -1.18200 38.72200 27.50000
H  -2.55600 38.98300 28.72800
H  -2.47100 42.76100 29.49900
H  -1.00200 43.65800 28.93800
H  -1.87900 44.02000 31.39800
H  -0.23200 43.63000 31.22900
H  -4.25700 39.84300 22.57000
H  -4.25200 40.29600 24.18900
H  -3.40100 38.73800 23.66500
H  -3.90300 39.51100 20.54200
H  -3.50700 40.31400 19.11300
H  -4.13400 41.31800 20.57800
H  2.69200 42.95100 20.17300
H  5.10800 43.26700 21.62300
H  3.87900 41.15700 19.54200
H  3.43100 40.34200 21.03700
H  4.98300 41.31400 20.91200
H  3.39600 44.85800 20.12700
H  4.72800 45.45700 21.23200
H  2.21600 45.48400 22.69100
H  2.11400 46.56600 21.36400
H  3.41400 46.66900 22.42900
H  6.69600 43.76400 27.54600
H  6.03500 45.36200 27.60000
H  6.44500 44.79300 26.08000
H  1.93600 43.48300 30.17300
H  2.92500 39.70700 32.23600
H  1.22400 39.75700 32.55400
H  2.34500 40.70100 33.49600

