158

Mg 9.32600 3.45900 28.25800
C  11.00900 2.14200 31.12700
C  7.59700 5.61800 30.42900
C  7.70000 4.71000 25.66300
C  10.66000 0.87400 26.40500
N  9.33800 3.84900 30.54000
C  10.11800 3.19400 31.49800
C  9.84000 3.71500 32.90200
C  8.49200 4.59100 32.62000
C  8.38400 4.61500 31.11800
C  7.21700 4.13000 33.39300
C  11.02800 4.54600 33.41100
C  11.62900 4.07300 34.76100
H  10.64100 4.01200 35.97500
N  7.96900 5.00300 28.06600
C  7.42200 5.82800 29.02900
C  6.77400 6.96700 28.37500
C  6.76700 6.63300 26.99500
C  7.48300 5.41200 26.82200
C  6.05300 8.08400 29.19400
C  6.21500 7.48100 25.74100
O  6.36200 7.20100 24.52100
C  5.51600 8.81600 25.98500
N  9.09400 2.79700 26.27500
C  8.50500 3.55500 25.36200
C  8.52600 2.80900 23.96700
C  9.56000 1.70700 24.19900
C  9.71200 1.72800 25.68400
C  7.10600 2.35700 23.45500
C  10.89900 1.83600 23.26700
C  10.80200 1.20800 21.94900
N  10.55500 1.90000 28.63300
C  11.01700 0.91900 27.79500
C  11.83700 -0.03600 28.51900
C  11.92700 0.52800 29.78600
C  11.09300 1.64700 29.87500
C  12.51900 -1.21900 27.97400
C  12.58700 0.33500 31.10000
O  13.38300 -0.52500 31.48300
C  11.89000 1.31500 32.07800
C  11.13200 0.41700 33.03600
O  10.39900 -0.50200 32.74700
O  11.47800 0.77300 34.31700
C  10.65600 0.09000 35.36800
H  7.03100 6.36200 30.99300
H  7.15900 4.99100 24.75700
H  11.02900 -0.02100 25.90100
H  9.56100 2.86300 33.52200
H  8.86700 5.55700 32.95700
H  7.55900 3.52800 34.23500
H  6.60100 3.44200 32.81500
H  6.59500 4.99100 33.63800
H  10.88000 5.61900 33.29000
H  11.81500 4.31300 32.69400
H  12.36800 4.84600 34.97100
H  12.29300 3.21100 34.72100
H  5.02700 8.03700 28.83000
H  6.48900 9.03100 28.87500
H  6.19000 8.07200 30.27600
H  6.31000 9.44900 26.38200
H  4.77800 8.67200 26.77400
H  5.01200 9.25100 25.12200
H  8.98500 3.49400 23.25500
H  9.15500 0.70000 24.10000
H  6.82600 2.83600 22.51700
H  6.41900 2.70100 24.22800
H  7.02400 1.28000 23.30700
H  11.66600 1.37400 23.88900
H  11.15700 2.87900 23.08200
H  11.26800 0.22400 21.89000
H  11.19900 1.83200 21.14900
H  9.73100 1.08700 21.78800
H  13.29700 -0.80000 27.33500
H  11.83600 -1.82400 27.37800
H  12.91600 -1.85200 28.76800
H  12.68000 1.75600 32.68600
H  11.31400 -0.71300 35.69900
H  9.71900 -0.33700 35.01300
H  10.41600 0.79900 36.16100
Mg 40.91200 41.56600 26.93500
C  40.19000 43.89700 29.44400
C  41.96000 39.28100 29.48200
C  42.09800 39.61500 24.57700
C  40.20300 43.92800 24.51700
N  40.95500 41.59100 29.12800
C  40.64300 42.67900 29.95300
C  40.70500 42.23600 31.39500
C  41.57700 40.92300 31.44500
C  41.43200 40.52300 29.91100
C  43.07900 41.14400 31.84200
C  39.25500 42.17400 31.98000
C  39.09800 43.09500 33.22300
H  38.05100 42.71600 34.35400
N  41.82300 39.66900 27.02800
C  42.10000 38.87600 28.12200
C  42.66500 37.62700 27.64900
C  42.67200 37.65500 26.23100
C  42.18000 39.02300 25.84700
C  43.06500 36.43800 28.57000
C  43.05400 36.65600 25.27400
O  42.99000 36.83000 24.04900
C  43.66100 35.25900 25.69800
N  40.86500 41.61300 24.89300
C  41.54200 40.79400 24.11100
C  41.74500 41.14300 22.69400
C  40.81700 42.43200 22.59400
C  40.63300 42.72400 24.05500
C  43.16000 41.23600 22.08400
C  39.52000 42.13200 21.78300
C  38.33400 41.19600 22.14900
N  40.35000 43.49400 26.87800
C  40.05200 44.34200 25.84200
C  39.59900 45.59800 26.33900
C  39.71100 45.46200 27.74300
C  40.13700 44.14500 28.04400
C  39.11700 46.82500 25.60700
C  39.52100 46.16700 28.95600
O  39.27200 47.33800 29.19700
C  39.78300 45.13300 30.14200
C  40.91600 45.67100 30.92300
O  42.14600 45.57500 30.74900
O  40.44100 46.48400 31.85600
C  41.46900 46.94200 32.78400
H  42.36800 38.76500 30.35400
H  42.59400 39.05800 23.78000
H  39.95100 44.62400 23.71400
H  41.33600 42.95500 31.91800
H  41.08900 40.21700 32.11700
H  43.26600 42.12900 32.26900
H  43.64300 41.12500 30.91000
H  43.48700 40.41800 32.54500
H  39.02600 41.14700 32.26500
H  38.52900 42.39900 31.19900
H  38.75800 44.07100 32.87700
H  39.96800 43.20400 33.87100
H  44.13800 36.46900 28.38100
H  42.51600 35.54900 28.26100
H  42.89600 36.67800 29.62000
H  43.92000 34.75700 24.76600
H  42.94000 34.69500 26.29100
H  44.56400 35.46100 26.27400
H  41.21500 40.35800 22.15500
H  41.29700 43.23900 22.03900
H  43.21300 40.96300 21.03000
H  43.80300 40.54800 22.63200
H  43.47500 42.27700 22.15500
H  39.88800 41.95600 20.77200
H  39.01800 43.08100 21.59900
H  38.62500 40.64100 23.04200
H  38.32400 40.43400 21.37000
H  37.41800 41.78000 22.23600
H  38.66700 46.55900 24.65000
H  39.93900 47.48700 25.33200
H  38.47100 47.50500 26.16200
H  38.86100 44.94800 30.69300
H  42.17100 46.15000 33.04400
H  41.03500 47.32900 33.70600
H  42.02700 47.73200 32.28200

