158

Mg 53.90300 23.13600 44.64000
C  51.57100 25.69700 44.01600
C  51.77200 20.79300 43.69100
C  56.49800 20.94900 44.26400
C  56.35000 25.62400 45.43100
N  51.97900 23.26800 43.84800
C  51.13100 24.40300 43.61700
C  49.77400 23.94600 43.12800
C  49.77700 22.41000 43.49000
C  51.23700 22.12500 43.67400
C  48.99900 22.06100 44.80000
C  49.48900 24.24100 41.64200
C  48.03300 24.14300 41.27100
H  47.76900 23.51300 39.90600
N  54.05200 21.05100 44.09000
C  53.03000 20.24900 43.75700
C  53.52600 18.90200 43.59300
C  54.92300 18.89600 43.90400
C  55.25500 20.31600 44.07500
C  52.57700 17.78700 43.21100
C  55.81500 17.70300 43.89600
O  55.31100 16.57100 43.84000
C  57.27300 17.74400 44.01100
N  56.10200 23.29800 44.68700
C  56.91200 22.25600 44.49200
C  58.44800 22.60900 44.80000
C  58.34100 24.08200 45.30700
C  56.82500 24.36800 45.19900
C  59.19100 21.54600 45.77700
C  59.25000 25.04000 44.51600
C  60.20900 25.85500 45.48200
N  53.91700 25.24300 44.93300
C  55.00100 26.11800 45.28300
C  54.44600 27.41900 45.40500
C  53.10600 27.30100 44.92700
C  52.84200 25.97400 44.57700
C  55.12000 28.53300 45.98900
C  51.85600 27.99100 44.76100
O  51.55200 29.10000 45.20600
C  50.77400 26.99800 44.07600
C  50.47100 27.59900 42.73200
O  51.28900 28.17000 42.00400
O  49.14100 27.41600 42.46100
C  48.57400 27.94900 41.23700
H  51.06200 19.96800 43.77900
H  57.34600 20.27200 44.14100
H  57.04800 26.41100 45.72600
H  49.01800 24.49700 43.68600
H  49.41800 21.76000 42.69200
H  48.19900 22.74300 45.08600
H  49.75600 22.25700 45.56000
H  48.58800 21.05600 44.89100
H  50.01200 23.52300 41.01100
H  49.83900 25.24600 41.41000
H  47.56300 25.12600 41.31500
H  47.49500 23.55000 42.01100
H  52.19700 17.84000 42.19100
H  51.74500 17.62800 43.89800
H  53.01600 16.79600 43.10000
H  57.48700 18.22500 44.96600
H  57.65100 18.22000 43.10700
H  57.67500 16.73000 44.01200
H  58.87900 22.66700 43.80100
H  58.45500 24.02100 46.39000
H  59.87000 20.96500 45.15200
H  58.48500 20.86700 46.25500
H  59.67400 22.05900 46.60800
H  58.66200 25.75300 43.93700
H  59.93900 24.40900 43.95600
H  61.23200 25.47900 45.46800
H  59.70000 25.99200 46.43600
H  60.32200 26.86100 45.07800
H  56.05300 28.65700 45.44000
H  55.37300 28.39500 47.04100
H  54.54200 29.44000 45.81300
H  49.90800 26.89000 44.72900
H  49.02600 27.56100 40.32400
H  48.64800 29.03400 41.16400
H  47.51300 27.69500 41.23800
Mg 46.66500 24.36900 28.33200
C  47.56300 26.75700 30.90300
C  46.08800 22.19100 30.87200
C  46.48900 22.10400 26.13800
C  47.82400 26.72700 26.02000
N  46.58900 24.57700 30.67600
C  46.99300 25.60300 31.47800
C  46.78100 25.23800 32.94500
C  46.38900 23.78400 32.94100
C  46.35000 23.48500 31.39800
C  47.32000 22.89200 33.70900
C  45.86700 26.17900 33.76600
C  46.52500 26.77900 35.09600
H  45.54300 27.19300 36.12800
N  46.17300 22.44100 28.40300
C  45.99300 21.73800 29.53900
C  45.48700 20.41100 29.17200
C  45.69300 20.30800 27.76600
C  46.09100 21.63100 27.35700
C  44.98600 19.34100 30.14000
C  45.37100 19.19600 26.81900
O  45.20400 19.32500 25.59900
C  45.03500 17.81500 27.47200
N  47.14300 24.38100 26.31500
C  46.75800 23.31200 25.58900
C  47.01200 23.54800 24.11300
C  47.14000 25.09700 24.07800
C  47.42400 25.48300 25.60600
C  48.30900 22.94000 23.50100
C  45.97000 25.92800 23.52600
C  44.76700 26.23100 24.40300
N  47.50000 26.35400 28.36500
C  47.91300 27.15400 27.37000
C  48.56300 28.32400 27.82700
C  48.39900 28.25500 29.21500
C  47.78600 26.99000 29.50400
C  49.17900 29.42500 26.97100
C  48.61300 28.91700 30.43900
O  49.06200 30.02700 30.62600
C  48.16300 27.97400 31.62100
C  49.29900 27.46400 32.46300
O  49.83700 26.37700 32.48000
O  49.72000 28.45000 33.33500
C  50.52600 28.08300 34.48200
H  45.87100 21.47700 31.66900
H  46.52100 21.31700 25.38100
H  48.01900 27.54000 25.31700
H  47.73600 25.26700 33.46900
H  45.34200 23.81300 33.24300
H  46.70600 22.06800 34.07200
H  47.75100 23.39800 34.57200
H  48.11900 22.48000 33.09200
H  45.00100 25.57500 34.03600
H  45.47700 27.01800 33.19000
H  47.14300 27.62600 34.79800
H  47.23400 26.03600 35.46100
H  44.00900 19.00300 29.79500
H  44.64900 19.81500 31.06200
H  45.72400 18.55300 30.28800
H  45.91000 17.31000 27.88100
H  44.82900 17.10500 26.67100
H  44.14300 17.69700 28.08800
H  46.11000 23.33700 23.53900
H  47.92200 25.40100 23.38200
H  49.10100 23.61900 23.18700
H  48.04400 22.28100 22.67400
H  48.72200 22.26400 24.25000
H  45.65600 25.36900 22.64400
H  46.43400 26.86500 23.21800
H  44.83900 25.72200 25.36500
H  43.82000 25.81700 24.05700
H  44.79000 27.31800 24.47600
H  49.59600 28.96800 26.07300
H  49.95700 29.96100 27.51300
H  48.45400 30.14500 26.59100
H  47.42200 28.44500 32.26600
H  50.47400 28.88900 35.21500
H  51.51500 27.76400 34.15500
H  50.16700 27.18600 34.98600

