158

Mg -2.28800 17.39500 24.90800
C  -2.60800 15.07800 27.64900
C  -3.22400 19.82900 27.08600
C  -1.87700 19.38800 22.49400
C  -2.14900 14.53600 22.77700
N  -2.69100 17.44700 27.19300
C  -2.76200 16.43600 28.04800
C  -3.32200 16.93200 29.39700
C  -4.04200 18.35200 29.01200
C  -3.31400 18.57300 27.63300
C  -5.57200 18.32500 28.77800
C  -2.31900 16.99400 30.55600
C  -2.62100 16.17600 31.92100
H  -1.44900 15.88800 32.82800
N  -2.32700 19.31500 24.85300
C  -2.77100 20.21800 25.77000
C  -2.56800 21.59700 25.32000
C  -2.15200 21.45300 24.00500
C  -2.06700 20.04900 23.73000
C  -2.85500 22.78500 26.19900
C  -1.90400 22.53000 22.90800
O  -1.74800 22.17800 21.72200
C  -1.88400 23.95000 23.44400
N  -2.13500 16.97600 22.83500
C  -1.89300 18.08500 22.04400
C  -1.85700 17.68400 20.58100
C  -1.99600 16.11600 20.66400
C  -2.06400 15.84600 22.17100
C  -2.82200 18.30200 19.61500
C  -0.71300 15.42800 20.03500
C  0.49400 15.26800 20.95100
N  -2.29600 15.26600 25.12100
C  -2.21400 14.27400 24.14600
C  -2.25800 12.91600 24.83400
C  -2.35800 13.19600 26.18500
C  -2.33000 14.61300 26.32600
C  -2.25000 11.70800 24.16300
C  -2.49700 12.56600 27.44800
O  -2.53800 11.38300 27.66000
C  -2.67100 13.75300 28.47500
C  -1.65500 13.69200 29.49300
O  -0.50100 14.17600 29.48400
O  -2.22700 12.92400 30.47900
C  -1.35900 12.45700 31.56800
H  -3.67600 20.58200 27.73600
H  -1.82500 20.05300 21.62900
H  -1.98800 13.72500 22.06400
H  -4.07700 16.22800 29.74700
H  -3.87700 19.18100 29.70000
H  -6.08600 19.12000 29.31900
H  -5.97400 17.46000 29.30600
H  -5.84000 18.11700 27.74200
H  -1.99800 17.96100 30.94200
H  -1.43400 16.51900 30.13300
H  -3.11200 15.25900 31.59500
H  -3.34700 16.81700 32.42200
H  -2.12300 23.58500 26.08100
H  -2.93400 22.55000 27.26000
H  -3.82400 23.23700 25.99000
H  -1.52000 24.66200 22.70200
H  -1.14200 24.06200 24.23400
H  -2.86400 24.21300 23.84200
H  -0.87300 17.99300 20.22700
H  -2.97100 15.75400 20.33900
H  -3.38700 19.10600 20.08700
H  -3.52200 17.55200 19.24600
H  -2.34900 18.67700 18.70700
H  -0.45700 16.05300 19.17900
H  -1.13000 14.47000 19.72400
H  0.34500 15.80500 21.88800
H  1.32300 15.70000 20.39100
H  0.57200 14.20200 21.16200
H  -2.33400 11.94800 23.10300
H  -3.13400 11.17200 24.50900
H  -1.32400 11.18600 24.40100
H  -3.61800 13.62400 28.99900
H  -1.36900 11.36900 31.50200
H  -1.79400 12.87000 32.47800
H  -0.30900 12.73100 31.46300
Mg 47.73500 44.79900 43.34000
C  44.39300 43.84400 42.69800
C  48.51000 41.43100 42.91700
C  51.05500 45.65200 43.44800
C  46.91600 48.19100 43.11700
N  46.54800 42.89800 42.93900
C  45.21000 42.71800 42.69300
C  44.73400 41.25600 42.48800
C  46.12600 40.58600 42.72500
C  47.13800 41.74800 42.98700
C  46.09300 39.47900 43.83400
C  44.12400 41.00500 41.02200
C  44.76500 41.79800 39.84900
H  44.55400 41.28300 38.46000
N  49.53300 43.63500 43.29600
C  49.64800 42.30500 43.06800
C  51.01800 41.91500 43.00600
C  51.77500 43.09400 43.14000
C  50.82900 44.24600 43.36300
C  51.50100 40.45300 42.77700
C  53.32300 43.25600 43.24400
O  53.91600 42.18100 43.21700
C  54.13300 44.56700 43.37100
N  48.84100 46.59900 43.34300
C  50.17300 46.74100 43.44100
C  50.63800 48.16600 43.23300
C  49.27300 48.98000 43.49700
C  48.31900 47.88300 43.21900
C  51.82500 48.49600 44.16800
C  49.09600 50.19400 42.49000
C  48.47000 51.48400 43.07100
N  46.02300 45.84000 42.94000
C  45.86200 47.24800 43.00700
C  44.43200 47.54100 42.87400
C  43.81800 46.25400 42.73200
C  44.82800 45.24500 42.79000
C  43.74000 48.88600 42.89500
C  42.55000 45.52900 42.63800
O  41.37700 45.90500 42.58000
C  42.88600 43.95300 42.65200
C  42.18800 43.30500 43.81400
O  41.22000 42.54800 43.71800
O  42.58000 43.91500 45.01600
C  41.69900 43.62200 46.14400
H  48.76100 40.37100 42.83100
H  52.12000 45.88700 43.50200
H  46.68200 49.23200 43.34900
H  43.97300 41.02000 43.23100
H  46.46300 40.12900 41.79500
H  46.93200 39.63500 44.51100
H  46.32700 38.52400 43.36200
H  45.17700 39.26700 44.38700
H  43.06700 41.15500 41.24100
H  44.27500 39.98300 40.67300
H  45.82800 41.90700 40.06100
H  44.33300 42.79800 39.89900
H  51.52300 39.87000 43.69800
H  52.51300 40.34100 42.38800
H  50.82800 39.99700 42.05100
H  53.93900 45.22900 42.52700
H  55.19000 44.31900 43.46700
H  53.78300 44.90300 44.34600
H  51.04000 48.33000 42.23300
H  49.08000 49.40000 44.48400
H  51.57700 49.51200 44.47500
H  52.86800 48.42700 43.85800
H  51.75700 47.96100 45.11600
H  48.52600 49.92200 41.60200
H  50.12100 50.38600 42.17400
H  48.19300 51.31500 44.11200
H  47.61100 51.81500 42.48700
H  49.17500 52.31400 43.10200
H  44.27200 49.39000 43.70100
H  42.68100 48.81400 43.14400
H  43.85600 49.48100 41.98900
H  42.47400 43.43300 41.78700
H  41.99900 44.23500 46.99300
H  41.77100 42.56500 46.40000
H  40.63900 43.79900 45.96300

