158

Mg -2.05500 17.13500 26.10800
C  -2.17700 14.97800 28.90300
C  -2.92100 19.78200 28.24600
C  -2.67800 19.11700 23.48200
C  -2.07000 14.31400 24.10300
N  -2.45200 17.32800 28.35200
C  -2.32300 16.35800 29.32900
C  -2.60500 16.93400 30.73800
C  -3.11000 18.36800 30.40200
C  -2.82900 18.54400 28.87900
C  -4.64200 18.59300 30.69800
C  -1.53900 16.88500 31.89200
C  -1.72100 15.85600 33.04200
H  -2.14700 16.44900 34.42700
N  -2.38600 19.15700 25.92300
C  -2.64800 20.11200 26.87800
C  -2.64000 21.41900 26.29500
C  -2.49900 21.22500 24.90400
C  -2.52300 19.75300 24.69300
C  -2.79000 22.76300 27.07700
C  -2.30700 22.16400 23.85500
O  -2.33400 21.92700 22.64100
C  -1.90400 23.63600 24.20600
N  -2.45500 16.72700 24.08000
C  -2.72100 17.72900 23.21000
C  -2.90700 17.24600 21.74100
C  -2.48300 15.71500 21.93500
C  -2.31600 15.52700 23.47600
C  -4.36700 17.30300 21.21500
C  -1.32200 15.17500 21.07800
C  0.07200 15.61500 21.54900
N  -1.97600 15.11000 26.37600
C  -1.85300 14.05200 25.46700
C  -1.61800 12.75700 26.13500
C  -1.84300 13.13100 27.44100
C  -2.04400 14.49100 27.57100
C  -1.60600 11.31600 25.70300
C  -2.00400 12.53000 28.66800
O  -2.04900 11.32400 29.00400
C  -2.30700 13.72100 29.68500
C  -1.28100 13.50600 30.74400
O  -0.16000 13.89100 30.77500
O  -1.83200 12.59000 31.66600
C  -0.97100 12.18800 32.79000
H  -2.99300 20.53500 29.03400
H  -2.85600 19.65200 22.54700
H  -1.86400 13.48100 23.42800
H  -3.46800 16.35600 31.07000
H  -2.60400 19.16200 30.95100
H  -4.73300 19.57400 31.16500
H  -5.08000 17.79300 31.29400
H  -5.24100 18.73600 29.79800
H  -1.48700 17.89500 32.29900
H  -0.52600 16.62500 31.58700
H  -0.77000 15.35200 33.21400
H  -2.41000 15.03000 32.87000
H  -3.00900 22.57900 28.12800
H  -3.65900 23.32000 26.72800
H  -1.97800 23.49100 27.06700
H  -2.78800 24.12100 24.62000
H  -1.75500 24.20500 23.28900
H  -1.02000 23.63400 24.84400
H  -2.32700 17.77500 20.98400
H  -3.31500 15.07900 21.63300
H  -4.29900 17.61800 20.17400
H  -4.97600 18.09800 21.64500
H  -4.94400 16.38400 21.32300
H  -1.43300 15.43100 20.02400
H  -1.48100 14.10300 21.18900
H  0.57100 14.69200 21.84500
H  0.01600 16.25700 22.42800
H  0.64100 16.15300 20.79100
H  -1.15700 11.14800 24.72400
H  -2.64900 11.01100 25.60900
H  -0.99300 10.88000 26.49100
H  -3.35300 13.77700 29.98700
H  -0.88200 12.99600 33.51700
H  0.01500 11.94200 32.39700
H  -1.39000 11.27800 33.22000
Mg 53.27300 23.96200 44.83300
C  50.60100 26.19100 44.09100
C  51.21700 21.39100 43.67200
C  55.98700 22.05700 44.56500
C  55.23400 26.80600 45.24100
N  51.30800 23.81500 43.81200
C  50.33900 24.87100 43.66300
C  49.12300 24.31100 42.90800
C  49.17500 22.84400 43.32900
C  50.69800 22.67300 43.57100
C  48.32700 22.52900 44.58900
C  49.32500 24.54200 41.37400
C  48.01600 24.68300 40.61500
H  48.02700 25.01300 39.12600
N  53.56400 21.97600 44.36600
C  52.60600 21.02400 43.97700
C  53.17500 19.79300 44.14500
C  54.59400 19.91400 44.31500
C  54.76800 21.35000 44.39700
C  52.38400 18.53700 44.21500
C  55.69700 18.79100 44.39300
O  55.41200 17.64100 44.38800
C  57.08900 18.99500 44.65000
N  55.35900 24.40100 44.67900
C  56.26200 23.43600 44.76400
C  57.70600 23.84700 44.94100
C  57.49500 25.45500 45.10500
C  55.90500 25.57000 44.99400
C  58.58000 23.15300 45.97600
C  58.25400 26.42800 44.12100
C  58.27200 26.14400 42.61800
N  52.98100 26.04400 44.95900
C  53.84100 27.00600 45.29700
C  53.13500 28.28200 45.42000
C  51.86400 28.02200 45.02000
C  51.83400 26.68300 44.62100
C  53.69000 29.61800 45.88100
C  50.61800 28.61900 44.72900
O  50.11900 29.68700 44.97200
C  49.74200 27.38000 44.12500
C  49.14400 27.81700 42.83200
O  49.77000 27.67000 41.76300
O  47.80400 28.17800 42.90500
C  47.15500 28.29300 41.60300
H  50.51800 20.57500 43.47300
H  56.86200 21.40500 44.61700
H  55.94000 27.61200 45.45500
H  48.21900 24.82400 43.23400
H  48.93300 22.22200 42.46700
H  48.98400 22.00600 45.28300
H  47.70000 21.71900 44.21700
H  47.84700 23.35200 45.11900
H  49.96700 23.80800 40.88700
H  49.88900 25.47400 41.34400
H  47.42300 25.49000 41.04600
H  47.39600 23.83000 40.89200
H  52.42500 18.13300 43.20400
H  51.38200 18.84900 44.51000
H  52.83700 17.92500 44.99400
H  57.61400 18.08300 44.93500
H  57.10000 19.64400 45.52600
H  57.27100 19.35400 43.63800
H  58.21100 23.69000 43.98800
H  57.86200 25.73900 46.09100
H  59.34600 22.63600 45.39900
H  58.04300 22.30100 46.39300
H  58.90200 23.77000 46.81500
H  59.27200 26.52800 44.49700
H  57.74000 27.38200 44.23900
H  58.07300 27.05200 42.04900
H  57.51200 25.42100 42.31800
H  59.18300 25.58800 42.39700
H  54.24100 29.36000 46.78500
H  52.88900 30.27700 46.21600
H  54.22600 30.05200 45.03600
H  48.89200 27.25900 44.79700
H  47.66100 27.70700 40.83600
H  47.31000 29.33000 41.30600
H  46.07000 28.21300 41.53100

