158

Mg 15.83500 52.56100 25.59000
C  18.05200 51.65400 28.19400
C  13.32600 53.07600 28.04200
C  13.84600 53.56200 23.16300
C  18.33700 51.62700 23.30700
N  15.72600 52.46700 27.81900
C  16.83200 52.24800 28.66600
C  16.46500 52.49200 30.17100
C  14.92300 52.53900 30.09000
C  14.61600 52.78500 28.57600
C  14.20900 51.26400 30.60300
C  17.10100 53.75300 30.84600
C  17.28500 53.66900 32.34800
H  16.54600 52.55400 33.11700
N  13.91000 53.20600 25.58400
C  13.04400 53.33600 26.63900
C  11.68300 53.67600 26.11000
C  11.79000 53.66400 24.72100
C  13.20400 53.48800 24.40500
C  10.50400 53.84900 26.97800
C  10.75300 53.84700 23.64600
O  11.07100 53.81400 22.48400
C  9.41200 54.00800 24.05400
N  16.14500 52.69300 23.56800
C  15.11300 53.21700 22.74200
C  15.60600 53.42900 21.30900
C  17.14500 52.93500 21.45100
C  17.24600 52.36600 22.84100
C  14.85600 52.63200 20.21200
C  18.16700 54.09800 21.27100
C  19.21000 53.76400 20.20300
N  17.75500 51.72700 25.72400
C  18.63700 51.30600 24.67100
C  19.88800 50.79600 25.23500
C  19.60100 50.84200 26.64000
C  18.34600 51.48600 26.85800
C  21.11100 50.22100 24.46200
C  20.20200 50.60000 27.99500
O  21.33000 50.20200 28.31800
C  19.16900 51.17300 29.03500
C  18.85900 50.19600 30.12700
O  18.17000 49.20700 29.97200
O  19.44200 50.52200 31.32300
C  19.37600 49.47000 32.31300
H  12.50600 53.10000 28.76200
H  13.30800 53.93000 22.28700
H  19.12400 51.31700 22.61600
H  16.88500 51.65900 30.73400
H  14.47100 53.42300 30.53900
H  14.85900 50.49300 31.01700
H  13.49400 50.80800 29.91800
H  13.58200 51.49600 31.46300
H  16.54300 54.66400 30.63000
H  18.02800 53.89900 30.29100
H  16.93100 54.62100 32.74500
H  18.33100 53.46000 32.57200
H  9.94300 52.91600 27.04100
H  9.99100 54.75200 26.64900
H  10.77800 54.14100 27.99200
H  9.49200 54.83400 24.76100
H  9.09200 53.19700 24.70700
H  8.83100 54.08700 23.13500
H  15.45900 54.45800 20.97900
H  17.38800 52.08700 20.81100
H  13.91600 52.30600 20.65600
H  15.41100 51.78200 19.81600
H  14.47200 53.15900 19.33800
H  18.68200 54.27300 22.21500
H  17.60900 55.02900 21.17000
H  18.86000 53.01000 19.49800
H  20.14400 53.46600 20.67800
H  19.50700 54.56500 19.52500
H  21.58000 49.51100 25.14300
H  21.79900 50.94800 24.02800
H  20.78300 49.62400 23.61100
H  19.72700 52.00300 29.46800
H  18.39100 49.57000 32.76900
H  20.14300 49.43500 33.08600
H  19.52800 48.51200 31.81500
Mg -8.22400 40.25300 42.32700
C  -7.10100 36.78000 41.40300
C  -5.74900 41.46700 40.71500
C  -9.87600 43.06400 42.80800
C  -11.14200 38.59400 43.56300
N  -6.63300 39.18700 41.15800
C  -6.31200 37.85500 40.88300
C  -5.02200 37.80200 40.08300
C  -4.58800 39.31900 39.93400
C  -5.71500 40.04500 40.63300
C  -3.24700 39.62400 40.55200
C  -5.32000 37.05000 38.74100
C  -4.30000 35.88100 38.44500
H  -3.31700 35.99800 37.28900
N  -7.82500 42.05900 41.93100
C  -6.73500 42.35500 41.19800
C  -6.70500 43.79800 41.05800
C  -7.88900 44.30500 41.71700
C  -8.58600 43.09400 42.14500
C  -5.60600 44.58000 40.32700
C  -8.21300 45.84200 41.90800
O  -7.51600 46.70600 41.37800
C  -9.36000 46.36900 42.76400
N  -10.30100 40.76600 43.05400
C  -10.62200 42.03600 43.27500
C  -12.08900 42.13200 43.80800
C  -12.47400 40.67700 44.11400
C  -11.26600 39.94800 43.53900
C  -12.49200 43.15100 44.88400
C  -13.84200 40.14400 43.37800
C  -14.67400 39.05700 44.10700
N  -9.01200 38.11800 42.55400
C  -10.22400 37.68300 43.05600
C  -10.33900 36.25400 43.07300
C  -9.11500 35.86600 42.50700
C  -8.34900 37.04700 42.10000
C  -11.33900 35.34100 43.76300
C  -8.32500 34.66700 42.09100
O  -8.53900 33.48600 42.26900
C  -6.97800 35.20900 41.41700
C  -5.82000 34.71000 42.17100
O  -5.69800 34.72000 43.37500
O  -4.87800 34.33500 41.32500
C  -3.55100 33.92900 41.92100
H  -4.93300 42.08400 40.33200
H  -10.30300 44.06000 42.94400
H  -12.02200 38.04500 43.90400
H  -4.35000 37.21500 40.70900
H  -4.52200 39.57300 38.87600
H  -2.51300 40.12100 39.91800
H  -2.89400 38.61200 40.75200
H  -3.53300 40.27000 41.38200
H  -5.18200 37.72000 37.89300
H  -6.33400 36.65000 38.75900
H  -4.88400 35.07700 37.99800
H  -3.78300 35.59200 39.36000
H  -5.85200 45.64000 40.26500
H  -5.62400 44.16100 39.32000
H  -4.65700 44.37300 40.82100
H  -9.34700 47.45200 42.88900
H  -9.15600 45.95700 43.75200
H  -10.29300 45.96500 42.37100
H  -12.62600 42.56600 42.96400
H  -12.44000 40.41000 45.17000
H  -12.55500 42.63800 45.84400
H  -13.48200 43.53000 44.63200
H  -11.65900 43.84700 44.98800
H  -13.50200 39.55900 42.52400
H  -14.44600 41.00200 43.08400
H  -14.63800 39.30500 45.16700
H  -14.14600 38.11500 43.95700
H  -15.69100 38.94400 43.73300
H  -10.86100 34.38700 43.98500
H  -12.27100 35.14400 43.23200
H  -11.70300 35.85200 44.65400
H  -6.99900 34.76900 40.41900
H  -2.89100 34.77100 42.12900
H  -3.09200 33.28300 41.17300
H  -3.63800 33.38800 42.86300

