158

Mg 35.68600 2.87900 30.41200
C  33.31900 4.11500 32.63500
C  37.81400 2.48800 33.04300
C  38.04600 1.75100 28.29600
C  33.55200 3.60100 27.73100
N  35.63700 3.46800 32.58400
C  34.54500 3.89400 33.26300
C  34.82100 3.72100 34.74900
C  36.35800 3.63000 34.80500
C  36.63000 3.13200 33.43000
C  37.07000 4.98100 35.04300
C  34.09100 2.52400 35.39500
C  33.76500 2.53700 36.82400
H  34.47100 3.68200 37.58700
N  37.65800 2.32100 30.65000
C  38.30500 2.16000 31.75100
C  39.59600 1.38100 31.54700
C  39.67200 1.20000 30.13700
C  38.43100 1.83400 29.62700
C  40.54200 0.86000 32.60100
C  40.65400 0.38900 29.32200
O  40.53700 0.16700 28.12100
C  41.76500 -0.33700 30.04900
N  35.84400 2.85600 28.23600
C  36.79800 2.10000 27.73100
C  36.55600 1.92200 26.17000
C  35.07600 2.46600 26.02100
C  34.75900 2.96300 27.41300
C  37.62200 2.51800 25.25100
C  34.03900 1.47100 25.49000
C  32.96500 2.04800 24.58600
N  33.79400 3.60100 30.20400
C  33.09200 3.86200 29.04200
C  31.78100 4.35600 29.48200
C  31.83400 4.50700 30.85600
C  33.08800 4.05900 31.24800
C  30.52800 4.56400 28.62400
C  31.02600 4.84700 32.05000
O  29.88800 5.24800 32.17700
C  32.07500 4.67000 33.28500
C  32.29700 6.01200 33.97500
O  33.14100 6.85200 33.61000
O  31.64300 6.08600 35.18900
C  31.65500 7.27300 35.96600
H  38.53700 2.36700 33.85300
H  38.70700 1.22600 27.60300
H  32.81000 3.82000 26.96000
H  34.43100 4.63300 35.20100
H  36.62900 2.86100 35.52900
H  36.50300 5.64700 35.69300
H  37.26200 5.43700 34.07200
H  38.03600 4.81400 35.52000
H  34.64800 1.63300 35.10400
H  33.10800 2.56000 34.92500
H  34.14900 1.64100 37.31200
H  32.74100 2.58100 37.19600
H  41.51400 1.34300 32.49700
H  40.60200 -0.22700 32.54600
H  40.10300 0.91000 33.59800
H  42.36300 -0.90600 29.33700
H  41.23500 -1.08200 30.64200
H  42.43100 0.29500 30.63700
H  36.49100 0.85200 25.97000
H  35.08300 3.38000 25.42800
H  38.46000 2.92700 25.81600
H  37.19300 3.27900 24.59900
H  38.00100 1.70000 24.63800
H  33.66300 1.01700 26.40700
H  34.50000 0.72600 24.84200
H  33.10700 1.63000 23.58900
H  32.91000 3.13500 24.52600
H  31.94800 1.79800 24.88600
H  29.72600 3.97200 29.06600
H  30.70100 4.28200 27.58500
H  30.16600 5.58500 28.74500
H  31.70600 4.01000 34.07100
H  30.61100 7.53000 36.14400
H  32.05100 8.14400 35.44400
H  32.19900 7.28800 36.91000
Mg 49.35600 15.34100 29.21500
C  47.28900 15.57100 32.10600
C  51.73400 17.12800 31.09400
C  51.29300 15.79000 26.48200
C  46.81700 14.10500 27.43300
N  49.50100 16.15000 31.36600
C  48.55400 16.08000 32.32600
C  49.02700 16.56000 33.70100
C  50.30100 17.33900 33.23200
C  50.54100 16.86600 31.84500
C  50.16700 18.84700 33.55300
C  49.30200 15.32300 34.73300
C  48.55100 15.37400 36.14100
H  48.73600 16.65700 37.05400
N  51.29300 16.23600 28.87800
C  52.09400 16.82600 29.76000
C  53.37800 17.20400 29.18700
C  53.31500 16.80200 27.83900
C  51.95900 16.23000 27.68200
C  54.48300 17.82500 29.97500
C  54.20900 17.07800 26.66100
O  53.90800 16.94900 25.46700
C  55.60800 17.53600 26.85500
N  49.06600 15.14800 27.23200
C  49.98600 15.32200 26.32000
C  49.46400 14.93900 24.92500
C  48.25100 13.99900 25.27400
C  47.98800 14.46900 26.71600
C  49.20400 16.16900 23.98800
C  48.46800 12.47500 25.16200
C  47.31800 11.54000 24.93100
N  47.46800 14.89800 29.60100
C  46.48500 14.41900 28.66900
C  45.31000 14.10300 29.50700
C  45.62600 14.53500 30.86000
C  46.87600 15.04700 30.83000
C  44.06400 13.45900 28.93000
C  45.04000 14.59000 32.21300
O  43.92200 14.15500 32.58900
C  46.12300 15.32000 33.04600
C  45.54300 16.59700 33.52000
O  45.44300 17.67000 32.92800
O  45.05600 16.41700 34.74900
C  44.50100 17.49600 35.51000
H  52.42800 17.76500 31.64600
H  51.82000 15.75800 25.52600
H  45.99200 13.69400 26.84700
H  48.26200 17.24000 34.07700
H  51.15100 16.99500 33.82100
H  50.80900 19.47400 32.93400
H  50.66500 19.01900 34.50800
H  49.11200 19.12000 33.56300
H  50.35300 15.05100 34.83200
H  48.99100 14.35000 34.35300
H  48.87200 14.41800 36.55300
H  47.47400 15.28300 36.00300
H  54.12900 18.74800 30.43400
H  55.35400 18.03500 29.35500
H  54.76300 17.12600 30.76300
H  56.18000 17.49900 25.92900
H  56.14200 16.93500 27.59100
H  55.55900 18.55400 27.24200
H  50.10700 14.29500 24.32500
H  47.40100 14.26200 24.64400
H  49.13100 17.05600 24.61700
H  48.34300 15.99300 23.34300
H  50.05400 16.19900 23.30600
H  49.04000 12.18800 26.04400
H  49.15000 12.30700 24.32900
H  47.66300 10.63200 24.43700
H  46.60700 12.13000 24.35300
H  46.79700 11.27500 25.85100
H  43.67300 14.05100 28.10200
H  43.28800 13.40300 29.69300
H  44.21400 12.48900 28.45700
H  46.37100 14.65000 33.87000
H  45.04000 18.43400 35.37800
H  44.40300 17.22600 36.56100
H  43.44000 17.50500 35.26200

