158

Mg 24.97900 1.32300 29.28400
C  27.18100 1.20700 32.11900
C  22.35400 1.59100 31.53600
C  22.96900 1.48300 26.73900
C  27.77300 0.90200 27.28700
N  24.76600 1.15700 31.55800
C  25.81600 1.26200 32.46000
C  25.27200 1.43600 33.88600
C  23.72700 1.58000 33.67100
C  23.63100 1.47700 32.13600
C  22.72800 0.64800 34.49500
C  26.03500 2.62300 34.67300
C  25.30700 3.22200 35.91400
H  26.11500 3.78900 37.06200
N  22.90300 1.39200 29.13800
C  21.98900 1.56200 30.14800
C  20.73200 1.77300 29.58800
C  20.90000 1.67900 28.12400
C  22.30100 1.46500 27.94000
C  19.50600 2.09300 30.40800
C  19.85100 1.68900 26.98900
O  20.02500 1.59100 25.75300
C  18.46600 1.68300 27.53600
N  25.33200 1.00500 27.30100
C  24.31300 1.37300 26.45500
C  24.85700 1.44000 24.98300
C  26.33600 1.16400 25.10900
C  26.52100 1.08200 26.64400
C  24.15600 0.44500 23.98600
C  27.14100 2.31900 24.52200
C  26.86200 3.70200 25.19900
N  27.03800 1.16600 29.58300
C  28.02400 0.85800 28.66800
C  29.24900 0.54100 29.34100
C  28.94100 0.74100 30.68100
C  27.61600 1.06400 30.74100
C  30.58100 0.30900 28.73800
C  29.58100 0.79900 32.02900
O  30.74200 0.60900 32.37700
C  28.42000 1.24400 32.97500
C  28.29100 0.29800 34.11000
O  27.56300 -0.69200 34.26000
O  29.16500 0.68300 35.09900
C  28.98400 0.12100 36.53900
H  21.50400 1.92700 32.13200
H  22.32000 1.81800 25.92800
H  28.61700 0.82600 26.59900
H  25.49800 0.49900 34.39600
H  23.44800 2.61500 33.87000
H  22.27100 -0.11600 33.86600
H  22.02100 1.35700 34.92600
H  23.26100 0.08500 35.26200
H  25.96000 3.39300 33.90500
H  27.05200 2.36100 34.96500
H  24.57200 2.45400 36.15200
H  24.74600 4.09800 35.58800
H  18.69000 1.37300 30.33700
H  19.12900 3.00700 29.94900
H  19.69800 2.25300 31.46800
H  17.83500 1.33200 26.71900
H  18.16600 2.62800 27.98900
H  18.35900 0.80100 28.16700
H  24.57400 2.40600 24.56500
H  26.60700 0.20000 24.67900
H  24.69000 -0.50200 23.90300
H  24.16200 0.95800 23.02400
H  23.16400 0.10700 24.28500
H  26.85900 2.48100 23.48200
H  28.15100 1.92500 24.63800
H  27.78900 3.94500 25.71800
H  25.96200 3.78200 25.80800
H  26.81100 4.40100 24.36400
H  31.39100 0.80500 29.27300
H  30.59700 0.58900 27.68500
H  30.70900 -0.76100 28.90300
H  28.41800 2.24300 33.41100
H  28.85400 -0.95400 36.41000
H  28.09300 0.55500 36.99200
H  29.82000 0.38900 37.18500
Mg 43.76700 5.28700 46.65400
C  41.87600 8.30300 46.46500
C  40.81100 3.62500 46.23100
C  45.51100 2.49900 46.31400
C  46.64800 7.16600 46.66600
N  41.55500 5.91400 46.45000
C  41.01200 7.19600 46.41100
C  39.51800 7.12800 46.21300
C  39.20800 5.56500 46.31500
C  40.62000 4.96000 46.40900
C  38.23000 5.20400 47.53300
C  39.06100 7.71600 44.83400
C  40.14400 7.64300 43.70400
H  39.70000 7.07800 42.30700
N  43.17700 3.26200 46.43600
C  41.97000 2.84000 46.16600
C  42.04600 1.47900 45.88200
C  43.39900 1.06700 45.93400
C  44.08500 2.25800 46.30100
C  40.88200 0.60900 45.64800
C  43.97400 -0.36900 45.64700
O  43.28200 -1.31900 45.36600
C  45.39000 -0.63300 45.70200
N  45.80200 4.84700 46.34000
C  46.31200 3.61800 46.38500
C  47.89000 3.58200 46.35400
C  48.19200 5.13200 46.51800
C  46.85400 5.77500 46.48400
C  48.51600 2.59900 47.42300
C  49.16800 5.63700 45.40700
C  50.53100 6.10800 45.87700
N  44.20200 7.33000 46.59200
C  45.43400 7.93900 46.62000
C  45.25000 9.41900 46.51600
C  43.83200 9.55800 46.56700
C  43.24300 8.28500 46.54800
C  46.24500 10.43100 46.49400
C  42.76400 10.57300 46.58700
O  42.85000 11.80900 46.72600
C  41.42500 9.77100 46.50300
C  40.59700 10.04500 47.74000
O  40.67400 9.41200 48.78200
O  39.53500 10.89400 47.42200
C  38.48100 10.89400 48.42900
H  39.85600 3.13900 46.01800
H  46.17700 1.63900 46.21900
H  47.61500 7.64500 46.83700
H  38.98200 7.62200 47.02400
H  38.78800 5.16100 45.39400
H  38.27000 5.98400 48.29200
H  38.65700 4.30500 47.97800
H  37.22600 4.92000 47.21700
H  38.87400 8.78600 44.91600
H  38.14000 7.18200 44.59900
H  41.05500 7.14200 44.03200
H  40.48700 8.67200 43.58800
H  41.13600 0.12600 44.70300
H  40.01000 1.15600 45.29100
H  40.58800 -0.10900 46.41300
H  45.68500 -1.67600 45.59700
H  45.69800 -0.40900 46.72400
H  45.92300 -0.10000 44.91500
H  48.12500 3.24000 45.34700
H  48.61800 5.34500 47.49800
H  48.96900 1.75100 46.90800
H  47.78400 2.19700 48.12300
H  49.29100 3.13800 47.96700
H  48.69700 6.54200 45.02300
H  49.23200 4.90600 44.60100
H  50.70100 7.18200 45.81300
H  51.38100 5.67200 45.35200
H  50.65300 5.73200 46.89400
H  47.02800 10.04500 45.84100
H  46.66000 10.53300 47.49700
H  45.75400 11.33300 46.12800
H  40.87600 10.16700 45.64800
H  38.68400 10.75400 49.49000
H  37.82500 10.05600 48.19300
H  37.80100 11.73000 48.26400

