158

Mg 29.38200 58.16100 40.79900
C  26.58500 56.51900 39.52300
C  31.38500 55.74800 39.24800
C  32.15200 60.22100 41.06600
C  27.25700 60.84800 41.59400
N  29.03100 56.46800 39.56200
C  27.80200 55.98700 39.10200
C  27.87400 54.77500 38.27000
C  29.39400 54.36500 38.44700
C  29.95900 55.59900 39.16200
C  29.57200 53.02600 39.14000
C  27.50000 55.00600 36.73700
C  26.34000 54.27700 36.07400
H  25.68400 55.08000 34.99600
N  31.53500 57.92900 40.39400
C  32.10300 56.81700 39.74900
C  33.49300 57.05000 39.54200
C  33.78300 58.27600 40.08500
C  32.49300 58.93200 40.50700
C  34.44800 56.03000 38.87800
C  35.19800 58.78600 40.21500
O  36.16400 58.07900 39.89600
C  35.53000 60.06800 40.87300
N  29.67700 60.23700 41.33300
C  30.91000 60.78600 41.37300
C  30.85400 62.30400 41.70800
C  29.33100 62.50500 42.00700
C  28.69800 61.13200 41.63700
C  31.82000 62.78800 42.77800
C  28.79600 63.73300 41.16500
C  28.86500 65.06200 41.84700
N  27.39500 58.54800 40.82900
C  26.62600 59.67600 41.24100
C  25.23500 59.31200 41.26700
C  25.19200 58.12400 40.54600
C  26.47700 57.69400 40.31000
C  24.14900 60.25800 41.73500
C  24.27700 57.23400 39.99300
O  23.08300 57.28100 39.93700
C  25.17500 56.08000 39.36400
C  24.77200 54.83200 40.15700
O  25.00500 54.61200 41.32600
O  23.86000 54.15100 39.42700
C  22.94900 53.31600 40.28500
H  31.89300 54.86400 38.85500
H  33.05000 60.84400 41.07400
H  26.56000 61.68300 41.69000
H  27.22100 54.00900 38.68800
H  29.95600 54.22000 37.52400
H  30.46100 53.03200 39.77100
H  29.68800 52.25200 38.38100
H  28.65900 52.70800 39.64300
H  28.43300 54.65000 36.30000
H  27.39600 56.08000 36.58000
H  25.57100 53.88700 36.74100
H  26.66700 53.31600 35.67800
H  35.04600 56.51300 38.10500
H  33.88000 55.26600 38.34600
H  35.02100 55.53200 39.66000
H  35.27300 60.93200 40.26000
H  36.60200 60.15800 41.04700
H  34.82900 60.15500 41.70300
H  31.12900 62.82800 40.79300
H  29.10300 62.78700 43.03400
H  32.60300 63.39800 42.32800
H  32.24800 61.98500 43.37900
H  31.26900 63.49100 43.40200
H  27.81800 63.50300 40.74200
H  29.36900 63.77600 40.23900
H  29.22400 65.73400 41.06800
H  29.48600 65.10300 42.74200
H  27.93700 65.44000 42.27500
H  23.12600 59.93400 41.54800
H  24.34300 61.19900 41.22100
H  24.22500 60.48000 42.80000
H  24.90500 55.96200 38.31500
H  22.34200 53.90300 40.97400
H  23.47300 52.65300 40.97300
H  22.34400 52.72200 39.60100
Mg 0.05400 43.58100 26.20500
C  2.68200 43.30400 28.64700
C  -2.19900 43.26000 28.88600
C  -2.32600 43.32800 23.96600
C  2.52600 43.88500 23.77400
N  0.26800 43.37700 28.49600
C  1.42300 43.32500 29.23100
C  1.07900 43.19400 30.67700
C  -0.44900 42.90800 30.72100
C  -0.86300 43.28600 29.32600
C  -0.77900 41.50600 31.06600
C  1.55700 44.59000 31.34800
C  1.82800 44.59200 32.80100
H  1.24400 43.52000 33.66200
N  -1.93100 43.30600 26.40300
C  -2.67800 43.34300 27.54300
C  -4.10600 43.35300 27.20600
C  -4.11800 43.27200 25.76500
C  -2.73500 43.27800 25.32300
C  -5.18300 43.26300 28.25200
C  -5.29700 43.17500 24.79800
O  -5.26600 43.08000 23.55100
C  -6.69400 43.20000 25.37000
N  0.17300 43.13100 24.15000
C  -1.01900 43.36900 23.48800
C  -0.66600 43.56200 21.98500
C  0.78100 44.10000 21.99500
C  1.24700 43.61700 23.37400
C  -0.87900 42.18300 21.27500
C  0.92600 45.63800 21.84000
C  1.88200 46.10600 20.71000
N  2.15900 43.50000 26.13500
C  3.03400 43.70900 25.08800
C  4.38900 43.66800 25.61300
C  4.30900 43.49800 26.99300
C  2.92900 43.37200 27.24400
C  5.58200 43.97400 24.69100
C  5.13100 43.42900 28.16200
O  6.32100 43.41000 28.36600
C  4.04300 43.25800 29.31100
C  4.23100 42.02900 30.16300
O  4.03300 40.85200 29.87800
O  4.61800 42.50900 31.38700
C  4.89000 41.50900 32.39300
H  -2.97600 43.17600 29.64800
H  -3.04600 43.49200 23.16200
H  3.26500 44.17000 23.02200
H  1.64100 42.43700 31.22400
H  -0.87600 43.54400 31.49600
H  0.06700 41.01900 31.55200
H  -1.01300 40.89800 30.19200
H  -1.62400 41.37700 31.74200
H  0.76600 45.30400 31.11800
H  2.40000 45.09900 30.88000
H  1.52900 45.55300 33.21900
H  2.91100 44.62800 32.92300
H  -4.72400 42.67900 29.05000
H  -6.06800 42.83300 27.78300
H  -5.50000 44.23500 28.62800
H  -6.76300 44.14500 25.91100
H  -6.76900 42.27800 25.94700
H  -7.41400 43.06200 24.56300
H  -1.24500 44.31700 21.45200
H  1.21900 43.65700 21.10100
H  -0.02000 41.62300 20.90400
H  -1.48900 42.22500 20.37200
H  -1.38400 41.52700 21.98300
H  1.32400 46.03300 22.77500
H  -0.05900 46.06700 21.65400
H  1.50500 46.97300 20.16600
H  2.07400 45.39800 19.90300
H  2.75400 46.63500 21.09400
H  5.29400 43.62600 23.69900
H  6.49000 43.51900 25.08800
H  5.83400 45.03400 24.67200
H  4.17300 44.11800 29.96800
H  4.87700 42.03000 33.35000
H  5.78200 40.88800 32.30900
H  4.04900 40.82200 32.49100

