158

Mg 53.87100 23.45400 45.15600
C  51.57700 26.06400 44.30100
C  51.54100 21.25300 43.94400
C  56.32100 21.21000 45.14900
C  56.26300 25.96200 46.15700
N  51.72400 23.69300 44.25600
C  51.02200 24.83600 44.00700
C  49.60800 24.52200 43.50200
C  49.57900 22.90100 43.67500
C  51.04300 22.55700 44.04900
C  48.44100 22.39700 44.64800
C  49.39000 25.04500 42.06000
C  47.90200 25.18500 41.66400
H  47.50100 24.36200 40.39000
N  53.90100 21.48400 44.59800
C  52.87600 20.74700 44.05600
C  53.29700 19.36500 43.99400
C  54.72000 19.31600 44.30700
C  55.05800 20.68600 44.70200
C  52.43700 18.23500 43.40300
C  55.56000 18.04600 44.34900
O  55.15700 16.96700 43.87600
C  56.88500 17.94100 45.05000
N  56.02500 23.62700 45.33000
C  56.77900 22.50900 45.38400
C  58.22500 22.74400 45.76100
C  58.22000 24.24200 45.98300
C  56.77800 24.69400 45.75300
C  58.78700 21.95900 46.91900
C  59.17600 24.99800 44.98800
C  59.82600 26.34000 45.53900
N  53.96400 25.55300 45.30300
C  54.92300 26.37600 45.75500
C  54.37500 27.75100 45.78700
C  53.11000 27.65900 45.15600
C  52.92600 26.31900 44.84200
C  55.16500 28.95600 46.18900
C  51.95300 28.44500 44.79200
O  51.70100 29.69600 44.93500
C  51.07500 27.44000 44.05900
C  51.21500 27.79300 42.61900
O  51.92600 27.26300 41.77500
O  50.44100 28.89100 42.32400
C  50.16500 29.19500 40.98300
H  50.82800 20.45400 43.73100
H  57.10800 20.45400 45.17100
H  56.91700 26.74700 46.54300
H  48.92200 25.10900 44.11300
H  49.39100 22.43100 42.71000
H  47.98500 21.46200 44.32200
H  47.62400 23.11700 44.69300
H  48.73500 22.29100 45.69200
H  49.80500 24.25600 41.43400
H  49.82900 26.00500 41.78700
H  47.70500 26.23200 41.43300
H  47.27400 24.87400 42.49900
H  51.36800 18.42200 43.29500
H  52.48900 17.46200 44.17000
H  52.89600 17.88400 42.47900
H  57.65000 18.40900 44.43000
H  57.08600 16.87300 45.12600
H  56.92700 18.37700 46.04800
H  58.78500 22.39900 44.89200
H  58.53400 24.39600 47.01500
H  59.71900 22.37500 47.30000
H  58.87900 20.91700 46.61400
H  58.08300 21.84500 47.74400
H  58.64000 25.37100 44.11500
H  59.92800 24.26600 44.69500
H  60.88200 26.09000 45.64000
H  59.37700 26.66400 46.47700
H  59.73200 27.10400 44.76800
H  56.24500 28.80800 46.22400
H  54.71100 29.24800 47.13600
H  55.00400 29.68600 45.39500
H  50.00800 27.44200 44.28100
H  49.15500 29.60500 40.95300
H  50.32600 28.40000 40.25600
H  50.72400 30.10200 40.75100
Mg -1.51400 34.70900 27.18600
C  -3.25000 32.77100 29.61600
C  -0.24900 36.65900 29.53900
C  0.06800 36.22800 24.62600
C  -3.20300 32.64300 24.70400
N  -1.89600 34.86500 29.33000
C  -2.51000 33.89500 30.15700
C  -2.41300 34.31400 31.64000
C  -1.57500 35.57600 31.59100
C  -1.12300 35.65400 30.07100
C  -2.27000 36.86700 32.14600
C  -1.81100 33.13800 32.51800
C  -1.07200 33.41900 33.89900
H  -1.58500 32.69600 35.12900
N  -0.40900 36.32000 27.08600
C  0.01900 37.01100 28.15400
C  0.84500 38.11100 27.73200
C  0.97300 37.97900 26.33400
C  0.21700 36.77500 25.91800
C  1.55600 39.03300 28.74800
C  1.78200 38.94200 25.33200
O  1.71900 38.75700 24.14600
C  2.62900 40.04600 25.71300
N  -1.64400 34.53800 25.05800
C  -0.80800 35.20000 24.23400
C  -0.80400 34.69500 22.76600
C  -1.86600 33.61600 22.80700
C  -2.26400 33.55500 24.29300
C  -1.05100 35.78700 21.68300
C  -1.20700 32.23100 22.25200
C  -0.27700 31.58700 23.27900
N  -2.98000 33.11100 27.14700
C  -3.54300 32.41200 26.07000
C  -4.38600 31.34000 26.61200
C  -4.31400 31.43900 28.00200
C  -3.39200 32.48900 28.26900
C  -5.22000 30.35200 25.83100
C  -4.74300 30.88700 29.19700
O  -5.51200 30.02000 29.45200
C  -4.14800 31.81600 30.36100
C  -5.29100 32.35900 31.17300
O  -6.32100 32.85500 30.68400
O  -5.04300 32.17000 32.42700
C  -5.98700 32.68800 33.44700
H  0.41200 37.10000 30.28800
H  0.51500 36.80600 23.81400
H  -3.58800 31.93600 23.96600
H  -3.43800 34.49000 31.96700
H  -0.64600 35.55700 32.16100
H  -2.40000 37.54400 31.30100
H  -1.74700 37.41000 32.93300
H  -3.29000 36.64500 32.46100
H  -1.08800 32.62800 31.88100
H  -2.59100 32.41700 32.76600
H  -1.34900 34.47000 33.97800
H  0.01700 33.38400 33.85900
H  1.08100 40.00800 28.64100
H  2.62200 39.06400 28.52400
H  1.43700 38.73100 29.78900
H  2.01400 40.90100 25.99500
H  3.11300 40.30600 24.77100
H  3.40100 39.82100 26.44900
H  0.19700 34.32800 22.53800
H  -2.75600 33.85700 22.22700
H  -0.26700 35.97100 20.94900
H  -1.28100 36.76000 22.11800
H  -1.94600 35.57900 21.09800
H  -0.60700 32.30400 21.34500
H  -2.06000 31.56500 22.11900
H  -0.67900 30.57500 23.23000
H  -0.31100 31.97500 24.29700
H  0.74700 31.46700 22.92500
H  -5.03000 30.54800 24.77600
H  -6.26700 30.49300 26.09800
H  -4.83900 29.38700 26.16400
H  -3.61000 31.24500 31.11900
H  -6.81700 33.07900 32.85900
H  -5.51100 33.51700 33.97100
H  -6.19700 31.89100 34.16000

