158

Mg 9.42200 3.53300 28.23700
C  10.75500 1.88600 31.08100
C  7.45900 5.47600 30.39100
C  7.72200 4.58200 25.60900
C  10.80600 0.94900 26.22900
N  9.20600 3.66800 30.51700
C  9.90900 2.98300 31.44400
C  9.56200 3.50900 32.90800
C  8.46600 4.58900 32.60000
C  8.31700 4.61600 31.03800
C  7.07700 4.38700 33.29400
C  10.77900 4.13400 33.71200
C  11.10100 3.53400 35.07600
H  11.23400 4.48600 36.31100
N  7.82100 4.84400 27.99400
C  7.22400 5.59900 28.98100
C  6.31200 6.54900 28.29700
C  6.37800 6.34800 26.89700
C  7.35200 5.20200 26.79000
C  5.44000 7.49800 29.10000
C  5.58400 7.02200 25.76700
O  5.85100 6.83400 24.60300
C  4.52400 8.10300 26.09300
N  9.35500 2.90200 26.23100
C  8.62100 3.54000 25.35800
C  8.96800 3.10700 23.94000
C  9.79800 1.90200 24.12800
C  10.04300 1.90000 25.60800
C  7.76700 2.90800 23.00000
C  11.11700 1.86500 23.33200
C  11.48400 0.58500 22.49500
N  10.59600 1.80500 28.55500
C  11.09800 0.87600 27.64400
C  11.88800 -0.07600 28.32100
C  11.72400 0.21700 29.64100
C  11.00800 1.44400 29.77000
C  12.57600 -1.29100 27.77400
C  12.10500 -0.25700 30.99100
O  12.60400 -1.31000 31.29300
C  11.50700 0.87900 31.98300
C  10.62300 0.26900 33.07900
O  9.41800 -0.00300 32.95900
O  11.31300 -0.02000 34.22100
C  10.50100 -0.47700 35.34100
H  6.89400 6.15000 31.03800
H  7.15700 4.90000 24.73100
H  11.15800 0.16800 25.55200
H  9.12800 2.60100 33.32600
H  8.84000 5.54700 32.96100
H  7.22100 3.46600 33.85900
H  6.33600 4.38200 32.49400
H  6.92800 5.18600 34.01900
H  10.62700 5.21100 33.77900
H  11.61400 3.96500 33.03300
H  12.01600 2.97400 34.88300
H  10.29300 2.81700 35.21900
H  5.47000 7.40700 30.18600
H  4.41200 7.19300 28.90900
H  5.79800 8.50500 28.88600
H  3.76900 7.56100 26.66400
H  4.20700 8.47600 25.11900
H  5.02800 8.92100 26.60700
H  9.61000 3.86200 23.48700
H  9.32100 0.94100 23.93400
H  6.88500 2.98000 23.63500
H  7.81400 1.87900 22.64400
H  7.49500 3.54900 22.16100
H  11.94200 2.10700 24.00200
H  11.00900 2.62600 22.56000
H  10.67200 0.26000 21.84500
H  11.66700 -0.27800 23.13500
H  12.41600 0.76600 21.96000
H  13.22700 -1.83000 28.46200
H  13.03900 -1.14500 26.79800
H  11.85100 -2.06700 27.52900
H  12.23800 1.47400 32.52900
H  10.12100 -1.40200 34.90700
H  9.65100 0.17100 35.55800
H  11.01000 -0.66300 36.28700
Mg 1.00700 43.62600 25.69800
C  2.88500 43.41500 28.58800
C  -1.68400 42.50600 27.43400
C  -0.55600 42.95900 22.72100
C  3.99300 44.39900 24.01600
N  0.67300 43.13500 27.74200
C  1.51300 43.34400 28.71500
C  0.84400 43.20600 30.06900
C  -0.64900 42.73200 29.78000
C  -0.58500 42.79100 28.24900
C  -1.13000 41.36400 30.34900
C  0.97500 44.51500 30.92500
C  1.54200 44.37500 32.42300
H  1.29800 43.05800 33.16500
N  -0.89100 42.85500 25.12200
C  -1.80400 42.46800 26.02300
C  -2.99100 41.95900 25.27000
C  -2.73700 42.07300 23.93000
C  -1.32700 42.58200 23.85700
C  -4.13000 41.42000 25.96200
C  -3.53800 41.72600 22.65900
O  -3.12300 41.88000 21.49300
C  -4.94500 41.26700 22.72200
N  1.57100 43.85400 23.70800
C  0.69000 43.64100 22.70400
C  1.36700 43.99200 21.34100
C  2.74700 44.56300 21.77100
C  2.80400 44.37400 23.27900
C  1.44700 42.69400 20.50300
C  3.05100 46.09800 21.45300
C  3.76300 46.30600 20.10000
N  3.03500 43.91500 26.18900
C  4.14500 44.16700 25.39100
C  5.37200 44.04100 26.19500
C  4.88100 43.77500 27.46200
C  3.48800 43.71300 27.42500
C  6.75400 44.22500 25.65500
C  5.33700 43.56700 28.79300
O  6.44900 43.52900 29.29000
C  3.99100 43.46300 29.69100
C  4.13300 42.28900 30.54000
O  3.81200 41.16500 30.21700
O  4.90100 42.60500 31.64100
C  5.16300 41.50000 32.61300
H  -2.62300 42.31600 27.95900
H  -1.02600 42.80600 21.74700
H  4.81100 44.83000 23.43500
H  1.36600 42.36700 30.53100
H  -1.41200 43.49400 29.93700
H  -0.25200 40.82500 30.70600
H  -1.56400 40.70000 29.60100
H  -1.64000 41.56200 31.29200
H  -0.01800 44.95800 30.99900
H  1.62300 45.25700 30.45900
H  1.01700 45.18600 32.92800
H  2.56700 44.68100 32.63500
H  -4.39700 40.49900 25.44400
H  -4.98100 42.08300 26.12000
H  -3.91500 41.04800 26.96400
H  -5.65700 41.98100 23.13400
H  -5.07100 40.28000 23.16800
H  -5.30400 41.28200 21.69300
H  0.62300 44.69400 20.96400
H  3.62200 44.04500 21.37700
H  1.34900 41.81300 21.13800
H  2.45200 42.64800 20.08100
H  0.71100 42.78200 19.70500
H  3.63400 46.49300 22.28500
H  2.09400 46.62000 21.46300
H  3.86600 45.36300 19.56200
H  4.82300 46.54400 20.18300
H  3.18600 46.96400 19.44900
H  6.79100 44.65300 24.65300
H  7.35400 43.31500 25.63400
H  7.40900 44.87300 26.23600
H  3.90300 44.36700 30.29400
H  5.03400 42.06800 33.53400
H  6.15200 41.04200 32.60700
H  4.43300 40.69300 32.66500

