158

Mg 41.13500 7.86700 28.67600
C  42.83200 9.23200 31.51600
C  38.79200 6.44700 30.69700
C  39.88300 6.33000 25.97100
C  43.96700 8.77700 26.74800
N  40.87800 7.85100 30.88100
C  41.62000 8.57400 31.83700
C  40.97800 8.42100 33.23800
C  39.72100 7.55200 32.95100
C  39.72500 7.30800 31.37700
C  39.68800 6.13500 33.65200
C  40.55100 9.81800 33.79400
C  39.93100 9.88100 35.19600
H  40.60500 10.59800 36.39300
N  39.52700 6.71100 28.41000
C  38.61400 6.25700 29.31700
C  37.57600 5.49100 28.65100
C  37.79900 5.66300 27.20300
C  39.13400 6.24700 27.13700
C  36.46000 4.71900 29.29600
C  37.01200 5.12300 25.99500
O  37.30400 5.26100 24.81200
C  35.65600 4.43600 26.26000
N  41.87700 7.53600 26.66400
C  41.16500 6.82100 25.72700
C  41.88300 6.77000 24.43800
C  43.27700 7.51100 24.70500
C  43.01100 8.05900 26.10000
C  42.08200 5.35200 23.80400
C  43.61600 8.60300 23.64100
C  43.94200 8.08900 22.24900
N  42.89400 8.89800 28.95600
C  43.89700 9.20500 28.08400
C  45.00400 9.98900 28.80300
C  44.57900 9.95200 30.14000
C  43.37400 9.21000 30.19800
C  46.27200 10.56300 28.24600
C  44.88600 10.34800 31.47600
O  45.88500 10.88300 31.88200
C  43.80200 9.90100 32.42200
C  44.33500 9.03100 33.48900
O  44.86500 7.94000 33.29700
O  44.01500 9.50000 34.73800
C  44.64600 8.72400 35.84800
H  38.10400 5.88200 31.33000
H  39.40800 5.76000 25.17000
H  44.77000 9.17000 26.12200
H  41.70700 7.92000 33.87400
H  38.82400 8.09500 33.25000
H  40.57500 6.03800 34.27800
H  39.71300 5.26500 32.99700
H  38.83000 5.93100 34.29200
H  39.84500 10.23100 33.07400
H  41.32200 10.58400 33.88000
H  39.83800 8.84200 35.51300
H  38.92200 10.29300 35.20500
H  36.41600 4.90700 30.36900
H  36.60400 3.66200 29.07200
H  35.63300 5.20100 28.77700
H  35.87600 3.67800 27.01200
H  35.30300 4.10000 25.28500
H  35.04600 5.27900 26.58700
H  41.34600 7.38400 23.71500
H  44.18300 6.90900 24.77800
H  41.51300 4.51100 24.20200
H  43.13900 5.08700 23.81700
H  41.64100 5.44100 22.81100
H  44.33600 9.37400 23.91400
H  42.77700 9.26500 23.42500
H  43.27000 8.54200 21.52000
H  43.82400 7.00600 22.26000
H  44.97800 8.36800 22.05400
H  46.98000 10.94700 28.98100
H  45.97300 11.30200 27.50200
H  46.86400 9.90300 27.61200
H  43.38300 10.77400 32.92100
H  44.40600 7.66100 35.83300
H  44.53400 9.11600 36.85900
H  45.71400 8.72800 35.63300
Mg -9.66500 18.14900 42.74100
C  -6.25200 17.28000 42.69400
C  -8.81100 21.33900 41.85200
C  -12.92800 18.78600 42.52200
C  -10.26700 14.66600 43.05400
N  -7.62900 19.15400 42.25700
C  -6.39000 18.63100 42.48600
C  -5.38700 19.70600 42.29000
C  -6.25700 20.99900 42.10000
C  -7.69000 20.51700 42.09900
C  -6.01200 22.22700 42.99700
C  -4.24200 19.44700 41.24400
C  -4.69100 18.69000 39.95100
H  -4.10000 19.16400 38.60400
N  -10.73000 19.89800 42.27400
C  -10.20000 21.09500 41.96000
C  -11.27000 22.04900 41.74700
C  -12.50300 21.33600 41.91500
C  -12.08200 19.93600 42.25600
C  -11.05700 23.40000 41.21100
C  -13.89600 21.84100 41.68100
O  -14.11800 23.06000 41.56100
C  -15.02600 20.94000 41.55600
N  -11.33000 16.89000 42.37900
C  -12.55900 17.40200 42.61000
C  -13.64600 16.31000 42.95200
C  -12.72200 15.02000 42.92500
C  -11.33900 15.52000 42.74800
C  -14.32500 16.54100 44.33200
C  -12.99000 14.03400 41.72500
C  -13.80100 12.72900 42.12500
N  -8.51200 16.23900 42.96600
C  -8.90700 14.98600 43.03000
C  -7.83300 14.08300 43.19800
C  -6.72600 14.95400 43.13300
C  -7.18800 16.25400 42.85500
C  -7.90100 12.55500 43.29300
C  -5.29600 15.00200 43.14200
O  -4.44600 14.13900 43.17800
C  -4.90900 16.47000 42.88200
C  -4.07900 16.95600 43.95000
O  -2.91700 17.19800 43.88300
O  -4.85500 17.26900 45.05800
C  -4.20500 18.04600 46.11000
H  -8.48200 22.33600 41.55200
H  -14.00200 18.81200 42.71800
H  -10.58900 13.65400 43.30500
H  -4.95500 19.79400 43.28700
H  -6.06200 21.29300 41.06900
H  -6.94000 22.67200 43.35700
H  -5.74500 23.01700 42.29600
H  -5.31000 22.08400 43.81800
H  -3.42200 18.88600 41.69400
H  -3.73800 20.38500 41.01200
H  -5.76400 18.87400 39.91800
H  -4.51400 17.61700 40.02400
H  -10.99300 24.09200 42.05000
H  -11.87700 23.75400 40.58600
H  -10.19300 23.53900 40.56100
H  -14.86400 20.09100 40.89200
H  -15.89600 21.42700 41.11700
H  -15.27900 20.70700 42.59100
H  -14.48400 16.35000 42.25600
H  -12.84500 14.45700 43.85100
H  -14.04700 15.81300 45.09300
H  -15.41200 16.54800 44.25600
H  -14.21600 17.53100 44.77600
H  -12.10400 13.78700 41.13900
H  -13.70800 14.60100 41.13200
H  -14.73500 12.79100 41.56700
H  -14.12100 12.72700 43.16700
H  -13.15900 11.85800 41.99500
H  -7.37900 12.14200 42.43000
H  -8.94000 12.22900 43.34900
H  -7.49400 12.23200 44.25100
H  -4.39200 16.53100 41.92400
H  -3.19400 18.32400 45.81100
H  -4.09400 17.51300 47.05400
H  -4.68700 19.00900 46.28200

