158

Mg 36.62400 49.67700 25.43400
C  36.80300 47.68300 28.40800
C  35.06800 52.07000 27.29600
C  36.12000 51.29700 22.59100
C  38.24200 47.12800 23.71000
N  36.00200 49.85500 27.61400
C  36.23900 48.96200 28.62100
C  35.95100 49.61100 29.98800
C  35.17900 50.90800 29.64200
C  35.46300 50.98600 28.12300
C  33.66600 50.89100 30.01000
C  37.22100 49.88500 30.85500
C  37.10100 49.84200 32.43100
H  35.68600 49.88400 33.08900
N  35.80100 51.45600 24.96200
C  35.22300 52.27100 25.89600
C  34.76300 53.46400 25.17000
C  34.96200 53.29900 23.73300
C  35.64700 51.98600 23.69900
C  34.22700 54.68600 25.88000
C  34.64400 54.21900 22.60500
O  34.85400 53.96400 21.43800
C  33.97600 55.54100 22.78100
N  37.08600 49.23300 23.42400
C  36.75600 50.05100 22.38600
C  37.16300 49.42100 20.98300
C  38.12000 48.25200 21.43800
C  37.85400 48.18600 22.93400
C  36.00500 49.03900 20.03900
C  39.52800 48.40600 20.91300
C  40.54100 48.92400 21.86400
N  37.30800 47.78800 25.86500
C  37.93600 46.93500 25.11900
C  38.24900 45.69300 25.86900
C  37.86000 46.01600 27.12400
C  37.24800 47.25700 27.11600
C  38.77600 44.43000 25.22800
C  37.77300 45.48600 28.42400
O  38.25700 44.41800 28.86400
C  37.19900 46.58100 29.29800
C  36.22700 45.96400 30.23500
O  35.05600 45.79800 30.06100
O  36.86400 45.55500 31.40200
C  36.01800 44.98900 32.45300
H  34.45900 52.78300 27.85700
H  35.97500 51.84300 21.65600
H  38.76700 46.34500 23.15900
H  35.32300 48.89000 30.51200
H  35.59500 51.78300 30.14200
H  33.14100 50.97100 29.05800
H  33.35000 51.76000 30.58800
H  33.34400 49.93800 30.43000
H  37.59100 50.88200 30.61500
H  38.02600 49.17900 30.65400
H  37.74400 50.61800 32.84700
H  37.69800 49.00000 32.78200
H  33.34500 55.07000 25.36800
H  34.97900 55.44600 26.09400
H  33.75200 54.37500 26.81000
H  33.74600 55.92800 21.78900
H  34.55200 56.28600 23.33000
H  32.98300 55.32900 23.17800
H  37.70500 50.23900 20.50900
H  37.65100 47.36200 21.01700
H  35.40900 48.26800 20.52700
H  36.43500 48.55800 19.16100
H  35.31700 49.83800 19.76600
H  39.58100 49.00500 20.00400
H  39.88100 47.40100 20.68200
H  40.15100 49.74300 22.46700
H  41.41300 49.32800 21.34900
H  40.80000 48.06600 22.48400
H  38.17700 44.17300 24.35400
H  38.58400 43.68200 25.99700
H  39.82700 44.63700 25.02100
H  38.03900 46.91000 29.91000
H  35.47200 44.08000 32.20000
H  35.21400 45.68100 32.70300
H  36.61200 44.85000 33.35700
Mg -12.48000 16.70000 41.85900
C  -9.39400 14.97400 41.35400
C  -10.97100 19.49400 40.43200
C  -15.45400 18.10700 41.66300
C  -13.95600 13.71900 42.87500
N  -10.49200 17.09800 40.80500
C  -9.36600 16.21300 40.78300
C  -8.20600 16.93400 40.17900
C  -8.68000 18.45500 40.03300
C  -10.16100 18.39500 40.46400
C  -7.80500 19.54200 40.61900
C  -7.80700 16.30800 38.78500
C  -6.37800 15.78500 38.67600
H  -5.70400 16.34200 37.37200
N  -13.15500 18.58400 41.25700
C  -12.35700 19.59400 40.69900
C  -13.17700 20.76200 40.46500
C  -14.51500 20.37400 40.79700
C  -14.44300 18.97000 41.28000
C  -12.76400 22.12800 39.97500
C  -15.70500 21.30300 40.72100
O  -15.50700 22.47600 40.41100
C  -17.14800 20.86100 41.00100
N  -14.46100 15.94500 42.01800
C  -15.49200 16.73800 41.95800
C  -16.83300 16.03900 42.20400
C  -16.27100 14.75900 42.90300
C  -14.79500 14.78000 42.62600
C  -17.94400 16.73400 43.05800
C  -16.94100 13.47600 42.35400
C  -17.57800 12.56100 43.40000
N  -11.87400 14.64900 42.04800
C  -12.54200 13.60300 42.62100
C  -11.67400 12.46300 42.74800
C  -10.41600 12.95200 42.25600
C  -10.54400 14.31000 41.91400
C  -12.15200 11.12200 43.23600
C  -8.96200 12.59900 41.89400
O  -8.45100 11.48200 41.85800
C  -8.26700 13.89900 41.34200
C  -7.15700 14.19200 42.33800
O  -7.27900 14.14300 43.55300
O  -6.00200 14.64400 41.70000
C  -4.99000 15.13600 42.62600
H  -10.58500 20.33700 39.85600
H  -16.45000 18.55300 41.68500
H  -14.47100 12.81500 43.20700
H  -7.38600 16.90100 40.89600
H  -8.62500 18.77800 38.99300
H  -8.26500 19.88800 41.54500
H  -7.85000 20.36900 39.91000
H  -6.81000 19.16000 40.84500
H  -7.99700 17.00600 37.96900
H  -8.44000 15.43200 38.64400
H  -6.51900 14.70400 38.64100
H  -5.75600 16.21300 39.46100
H  -12.85100 22.22700 38.89300
H  -11.68000 22.19800 40.06800
H  -13.02500 22.99000 40.58800
H  -17.13900 20.43100 42.00300
H  -17.28100 20.06100 40.27300
H  -17.95700 21.57700 40.85700
H  -17.29000 15.90700 41.22300
H  -16.39600 14.76400 43.98600
H  -17.99800 16.29700 44.05500
H  -18.86500 16.39600 42.58400
H  -17.83400 17.81800 43.03500
H  -16.29400 12.91700 41.67700
H  -17.81800 13.76500 41.77500
H  -17.51700 11.53600 43.03300
H  -18.62600 12.82000 43.55200
H  -17.09500 12.54400 44.37700
H  -11.33500 10.41400 43.37400
H  -12.92600 10.69900 42.59600
H  -12.57700 11.33800 44.21600
H  -7.80300 13.62600 40.39500
H  -4.58400 14.28600 43.17600
H  -5.42100 15.83100 43.34600
H  -4.40300 15.83600 42.03200

