158

Mg 36.44300 2.56500 30.27700
C  33.91300 3.36800 32.52400
C  38.72100 2.68300 32.81800
C  38.88800 2.05700 27.92700
C  34.04900 2.89800 27.59900
N  36.30900 2.93700 32.39700
C  35.18600 3.24200 33.11300
C  35.53900 3.27600 34.62900
C  37.14100 3.32500 34.61900
C  37.42200 2.95400 33.18500
C  37.68600 4.68100 35.00700
C  34.87900 2.11100 35.45300
C  34.40200 2.48100 36.85100
H  34.81100 3.76300 37.60100
N  38.49900 2.21700 30.41400
C  39.30500 2.41900 31.55200
C  40.60400 2.07700 31.26100
C  40.68600 1.99800 29.81900
C  39.33100 2.07900 29.31000
C  41.56200 1.75000 32.36800
C  41.90400 1.67800 28.95900
O  41.73000 1.65200 27.73300
C  43.20100 1.43800 29.58400
N  36.53700 2.71700 28.13500
C  37.62500 2.25200 27.39700
C  37.35800 2.35000 25.89900
C  35.81300 2.28500 25.92400
C  35.38200 2.67900 27.32700
C  37.94500 3.62900 25.32300
C  35.20200 0.94100 25.39100
C  35.41500 -0.36500 26.29700
N  34.43200 3.00200 30.07900
C  33.60700 3.04900 28.94700
C  32.21200 3.30600 29.40300
C  32.30100 3.46300 30.77300
C  33.66100 3.20400 31.14200
C  31.07200 3.22500 28.48100
C  31.57000 3.75700 32.03000
O  30.37600 4.05000 32.16600
C  32.57200 3.67900 33.18700
C  32.48700 5.04400 33.77500
O  32.97000 5.99100 33.24800
O  31.96400 5.00600 35.02500
C  32.16400 6.14400 35.85100
H  39.49600 2.83100 33.57400
H  39.62100 2.05900 27.11700
H  33.23000 2.94300 26.87900
H  35.11900 4.18400 35.06100
H  37.61000 2.54100 35.21300
H  38.39100 5.00400 34.24100
H  38.17100 4.45200 35.95500
H  36.98500 5.48200 35.24300
H  35.62700 1.32000 35.39500
H  33.98800 1.72500 34.95800
H  34.63900 1.55700 37.37900
H  33.32400 2.63700 36.79900
H  41.77100 2.58800 33.03400
H  42.56800 1.37100 32.18700
H  41.19500 0.99500 33.06300
H  44.03500 1.48600 28.88500
H  43.04900 0.49600 30.11100
H  43.33200 2.23400 30.31700
H  37.83700 1.49100 25.43000
H  35.52300 3.09000 25.24900
H  38.04100 3.46800 24.25000
H  38.79600 3.97800 25.90700
H  37.24700 4.46100 25.41500
H  35.67400 0.65100 24.45200
H  34.13600 1.08300 25.21000
H  36.21500 -0.21300 27.02200
H  35.53500 -1.31500 25.77700
H  34.44900 -0.46100 26.79300
H  31.17000 2.31400 27.89100
H  30.95500 4.03900 27.76600
H  30.13200 3.26300 29.03000
H  32.29000 2.95600 33.95300
H  31.27000 6.76400 35.78600
H  32.96900 6.76000 35.45000
H  32.32100 5.78700 36.86900
Mg 48.06300 16.10000 28.30900
C  46.12600 15.78000 31.04300
C  50.34300 17.93200 29.92100
C  49.78300 16.21000 25.36300
C  45.42300 14.55300 26.46000
N  48.08500 16.90600 30.31700
C  47.28700 16.49500 31.27200
C  47.98800 16.75900 32.65200
C  49.17600 17.77100 32.32200
C  49.23600 17.54600 30.74800
C  48.89000 19.24100 32.64100
C  48.32300 15.62400 33.56300
C  48.01200 15.84100 35.10400
H  47.90400 17.31500 35.59000
N  49.86800 16.93700 27.71700
C  50.68900 17.68900 28.51600
C  51.93100 17.98100 27.83500
C  51.84200 17.36800 26.53900
C  50.41100 16.83900 26.46000
C  53.14100 18.65400 28.44900
C  52.91800 17.18200 25.44600
O  52.76500 16.38300 24.46100
C  54.31800 17.83000 25.56300
N  47.61100 15.56000 26.23900
C  48.50900 15.65500 25.23500
C  48.01100 15.07400 23.89800
C  46.63900 14.49900 24.33500
C  46.51600 14.91000 25.75000
C  48.12600 16.15200 22.80000
C  46.53800 12.94000 24.06900
C  45.56500 12.49500 22.96200
N  46.13200 15.40200 28.65700
C  45.18800 14.82900 27.79100
C  44.00500 14.38500 28.62200
C  44.41500 14.66600 29.87500
C  45.61800 15.38800 29.83200
C  42.76900 13.85300 28.09700
C  44.00300 14.62700 31.33300
O  43.05900 14.09400 31.88000
C  45.12000 15.29100 32.09900
C  44.43400 16.34400 32.92700
O  44.14800 17.45300 32.56400
O  44.24600 15.91300 34.21500
C  43.37600 16.65400 35.15800
H  51.13600 18.37200 30.52900
H  50.25000 16.32700 24.38300
H  44.59400 14.09400 25.91700
H  47.24200 17.44100 33.06000
H  50.09700 17.29400 32.65900
H  47.96600 19.26100 33.21900
H  48.69200 19.85100 31.75900
H  49.78600 19.61100 33.14000
H  49.38500 15.38200 33.51400
H  47.77300 14.77700 33.15400
H  48.76900 15.39200 35.74700
H  47.08500 15.34200 35.38800
H  52.92300 19.30200 29.29800
H  53.58700 19.26900 27.66800
H  53.93400 17.95400 28.71200
H  54.69800 17.78100 26.58400
H  54.14600 18.88900 25.36800
H  55.00400 17.41100 24.82700
H  48.77400 14.31000 23.74400
H  45.89100 15.04600 23.76100
H  47.34400 15.91400 22.08000
H  49.05200 16.07000 22.23100
H  47.97500 17.14200 23.23200
H  46.35100 12.38200 24.98600
H  47.49700 12.58300 23.69300
H  46.13000 12.46100 22.03000
H  44.77800 13.20900 22.72100
H  45.14500 11.50400 23.13500
H  42.18600 14.26100 27.27100
H  42.04700 13.76900 28.90900
H  43.00300 12.81000 27.88600
H  45.58700 14.51500 32.70600
H  43.00900 15.81900 35.75500
H  42.54700 17.04500 34.56700
H  43.95300 17.37900 35.73200

