158

Mg 2.06200 -1.20700 43.58200
C  5.43200 -0.20100 42.75000
C  0.91400 1.62800 42.06100
C  -0.95900 -2.69500 43.52400
C  3.46500 -4.20600 44.88800
N  3.07600 0.41700 42.46800
C  4.44900 0.61900 42.26300
C  4.67800 1.99600 41.62100
C  3.29900 2.67500 41.68400
C  2.32800 1.53500 42.13400
C  3.20400 3.95600 42.63700
C  5.09700 1.79000 40.13900
C  5.94800 2.81900 39.41800
H  5.38300 3.52800 38.24200
N  0.17200 -0.57900 42.98200
C  -0.12000 0.66200 42.44300
C  -1.50400 0.83600 42.37900
C  -2.11600 -0.37600 42.87300
C  -0.99700 -1.33200 43.15000
C  -2.12900 2.14100 41.85300
C  -3.60400 -0.65100 43.06900
O  -4.43000 0.27500 42.78800
C  -4.02000 -1.98900 43.50700
N  1.33100 -3.09900 44.13200
C  0.09800 -3.52800 43.89900
C  -0.14400 -5.01700 44.07500
C  1.23300 -5.40400 44.78900
C  2.07000 -4.16600 44.59500
C  -1.43800 -5.27100 44.90400
C  2.02300 -6.59600 44.19400
C  2.15700 -7.79600 45.11600
N  4.00600 -2.03500 43.95400
C  4.36900 -3.22800 44.58200
C  5.80600 -3.20100 44.77400
C  6.25000 -2.08400 44.01100
C  5.11300 -1.41500 43.51700
C  6.64400 -4.17100 45.43800
C  7.57100 -1.38200 43.58900
O  8.73300 -1.71500 43.71200
C  6.97400 -0.07500 42.89800
C  7.40500 1.09000 43.69300
O  6.79200 1.60800 44.62000
O  8.66300 1.48500 43.24900
C  8.99700 2.88000 43.73300
H  0.69400 2.64700 41.73800
H  -1.86000 -3.30100 43.40700
H  3.94000 -5.07300 45.35200
H  5.38700 2.65600 42.12000
H  3.05600 3.07000 40.69700
H  4.04600 3.96300 43.32900
H  2.29500 3.96200 43.23900
H  3.20400 4.87500 42.05200
H  4.17900 1.51800 39.61800
H  5.59200 0.84200 39.92900
H  6.78800 2.20200 39.10000
H  6.20100 3.60900 40.12600
H  -3.06300 1.84400 41.37700
H  -1.54200 2.58800 41.05100
H  -2.25700 2.95700 42.56500
H  -5.07300 -1.93100 43.78500
H  -3.57800 -2.28100 44.46000
H  -3.80500 -2.60800 42.63600
H  -0.23200 -5.32300 43.03200
H  1.06000 -5.44000 45.86400
H  -1.22000 -6.06300 45.62100
H  -2.26600 -5.54200 44.25000
H  -1.52900 -4.48100 45.65000
H  2.98000 -6.44900 43.69400
H  1.40100 -7.00100 43.39600
H  2.43800 -7.58100 46.14700
H  2.96900 -8.42100 44.74500
H  1.32500 -8.50000 45.09400
H  5.99700 -4.47000 46.26200
H  7.53000 -3.68000 45.84000
H  6.85500 -5.04500 44.82200
H  7.43700 0.06100 41.92000
H  9.75700 3.27100 43.05700
H  9.33100 2.78500 44.76600
H  8.13000 3.54000 43.68400
Mg 55.54400 25.10100 45.39100
C  53.20500 27.14900 43.74800
C  54.30800 22.38300 43.63200
C  58.42700 23.43000 45.85600
C  57.09000 27.97900 46.56900
N  54.09800 24.91100 43.71500
C  53.25500 25.83700 43.20100
C  52.29700 25.24400 42.11900
C  52.43900 23.75300 42.52200
C  53.72900 23.65800 43.31900
C  51.22200 23.19900 43.36100
C  52.81100 25.54300 40.60700
C  51.72600 26.02600 39.58300
H  51.54000 25.32500 38.23200
N  56.22600 23.21600 44.96300
C  55.52400 22.19500 44.32200
C  56.21100 20.89100 44.44200
C  57.37200 21.16800 45.23400
C  57.37400 22.63700 45.43800
C  55.80600 19.53600 43.80200
C  58.37400 20.17300 45.69800
O  58.20500 18.94800 45.43000
C  59.47200 20.53300 46.59600
N  57.46100 25.64000 46.16400
C  58.52800 24.76800 46.15400
C  59.76400 25.42400 46.74700
C  59.28100 26.92400 46.98100
C  57.84700 26.86900 46.61000
C  60.34300 24.72400 47.98900
C  60.09900 27.78600 45.93800
C  61.51900 28.11900 46.27000
N  55.11700 27.19100 45.41300
C  55.77200 28.20600 46.01400
C  54.91900 29.35000 45.93000
C  53.91500 28.98400 45.01900
C  54.10500 27.66500 44.61400
C  55.21000 30.75700 46.62600
C  52.77400 29.49600 44.28100
O  52.22200 30.58000 44.28600
C  52.17300 28.25600 43.55200
C  51.87000 28.61700 42.18500
O  52.65000 28.94900 41.30400
O  50.49700 28.53200 42.02700
C  49.90300 28.83900 40.71300
H  53.76500 21.53200 43.21500
H  59.39400 22.97100 46.07600
H  57.62000 28.81400 47.03200
H  51.25000 25.52200 42.23200
H  52.48300 23.12100 41.63500
H  51.38100 22.17200 43.68800
H  50.34300 23.31600 42.72700
H  50.97600 23.74100 44.27400
H  53.30700 24.62100 40.30400
H  53.58200 26.30900 40.69300
H  51.87800 27.00600 39.13100
H  50.70800 26.13300 39.95800
H  55.75500 18.84700 44.64500
H  56.53300 19.16100 43.08100
H  54.81300 19.65800 43.37100
H  59.91900 19.68800 47.12000
H  59.02600 21.17800 47.35300
H  60.26900 20.92000 45.96000
H  60.53600 25.35100 45.98200
H  59.55600 27.21400 47.99500
H  59.73500 23.88700 48.33300
H  60.48100 25.51700 48.72400
H  61.31000 24.32000 47.69100
H  59.59000 28.74500 45.84100
H  60.01500 27.25800 44.98800
H  61.70500 29.18000 46.43200
H  62.23400 27.78300 45.51800
H  61.84000 27.54400 47.13900
H  55.90400 30.48900 47.42300
H  54.27700 31.12500 47.05400
H  55.59200 31.40900 45.84000
H  51.22700 28.21400 44.09200
H  49.78300 29.92100 40.65700
H  48.94000 28.33000 40.74500
H  50.56100 28.44600 39.93800

