158

Mg 54.16300 24.41400 44.46000
C  51.45300 26.33800 43.29600
C  52.50200 21.65000 43.42800
C  57.03500 22.76600 44.52600
C  55.93500 27.42200 45.09600
N  52.16800 24.11900 43.41400
C  51.24800 24.97600 43.00200
C  50.01200 24.24000 42.44800
C  50.22800 22.75600 42.99400
C  51.72600 22.81300 43.37500
C  49.30200 22.26300 44.14700
C  49.87800 24.36400 40.86300
C  48.82100 23.43900 40.22800
H  48.33400 23.69200 38.77200
N  54.67000 22.43800 44.20900
C  53.82700 21.48600 43.80600
C  54.58000 20.19300 43.83800
C  55.93700 20.51800 43.97700
C  55.91000 21.94700 44.26300
C  53.83700 18.87500 43.67100
C  57.12300 19.52700 43.70300
O  56.83000 18.36900 43.42300
C  58.57200 19.89600 43.80500
N  56.24400 25.06400 44.62400
C  57.21700 24.13700 44.75500
C  58.61000 24.84100 44.81300
C  58.22500 26.32300 45.10400
C  56.73200 26.29700 44.89600
C  59.60700 24.17600 45.93200
C  58.93400 27.33000 44.15400
C  58.31500 27.74100 42.75000
N  53.73600 26.47100 44.36500
C  54.46300 27.59600 44.78400
C  53.65800 28.84900 44.69200
C  52.48800 28.36600 43.99500
C  52.59000 26.96000 43.87000
C  54.11000 30.14400 45.01000
C  51.27200 28.82100 43.32300
O  50.95000 29.96700 43.04900
C  50.56900 27.52000 42.86800
C  50.37600 27.67800 41.42700
O  51.18800 27.80100 40.55500
O  49.03400 27.70800 41.24000
C  48.64100 27.90500 39.80900
H  51.92700 20.82100 43.01000
H  57.94400 22.16100 44.55600
H  56.59200 28.27200 45.29300
H  49.16500 24.75500 42.90300
H  50.14200 21.99000 42.22300
H  48.81300 21.30800 43.95200
H  48.49700 22.99200 44.05400
H  49.77500 22.33000 45.12600
H  50.88400 24.15300 40.50000
H  49.63600 25.41400 40.70200
H  48.00800 23.42400 40.95400
H  49.26800 22.46000 40.05200
H  53.58100 18.80700 42.61300
H  52.97700 19.01500 44.32600
H  54.36200 18.02800 44.11200
H  58.92300 20.55500 43.01100
H  59.20600 19.01800 43.68400
H  58.75700 20.23700 44.82400
H  59.06700 24.64200 43.84300
H  58.48900 26.57300 46.13100
H  60.29100 24.96700 46.24200
H  60.19900 23.34800 45.54300
H  59.11900 23.99100 46.88800
H  59.97000 27.07900 43.92700
H  59.18500 28.22200 44.72800
H  58.03700 28.79400 42.69500
H  57.46100 27.12200 42.47400
H  59.06300 27.62100 41.96600
H  55.14800 30.10300 44.67900
H  54.06200 30.38000 46.07300
H  53.56400 30.99000 44.59200
H  49.64400 27.62900 43.43400
H  48.65500 26.94500 39.29200
H  49.36100 28.57800 39.34400
H  47.70800 28.42800 39.60100
Mg 42.64600 41.70200 26.47500
C  42.03100 44.15600 29.01900
C  43.61000 39.57200 29.08800
C  43.68900 39.51100 24.24700
C  42.31000 44.10900 24.11800
N  42.80800 41.88300 28.85000
C  42.50600 43.02700 29.59500
C  42.61900 42.68900 31.11900
C  43.35300 41.23200 31.10000
C  43.19500 40.80700 29.61500
C  44.87200 41.35000 31.52000
C  41.09100 42.58400 31.78900
C  40.91500 43.32600 33.15700
H  40.09100 42.68300 34.20800
N  43.32600 39.71500 26.65100
C  43.67800 39.05800 27.78400
C  44.08300 37.68100 27.42300
C  44.23900 37.72900 26.00100
C  43.73800 39.01400 25.59500
C  44.54800 36.70400 28.44700
C  44.67200 36.65700 25.02300
O  44.64800 36.76000 23.81800
C  45.39100 35.41800 25.52100
N  43.13900 41.80900 24.41100
C  43.36000 40.73400 23.70900
C  43.57300 41.14700 22.21600
C  42.79600 42.42500 22.18000
C  42.76100 42.87700 23.61900
C  45.05600 41.20300 21.79700
C  41.37400 42.39100 21.48100
C  40.35300 41.24600 21.79900
N  42.22100 43.69800 26.50600
C  42.12400 44.54600 25.42500
C  41.71000 45.82300 25.81400
C  41.52300 45.66600 27.18200
C  41.99300 44.39700 27.63400
C  41.26100 47.00000 24.90700
C  41.14800 46.29800 28.43000
O  40.75300 47.43500 28.56200
C  41.41300 45.35700 29.60200
C  42.34700 46.04300 30.44200
O  43.53500 46.29100 30.11700
O  41.80200 46.39700 31.64300
C  42.66700 47.02800 32.67600
H  44.07600 38.94400 29.84900
H  43.75100 38.81100 23.41200
H  42.18200 44.82800 23.30600
H  43.26400 43.35200 31.69600
H  42.79500 40.56900 31.76200
H  44.95700 40.78200 32.44600
H  45.16000 42.39500 31.63300
H  45.57500 40.98700 30.77000
H  40.88100 41.59500 32.19600
H  40.33200 42.84600 31.05200
H  40.25000 44.18200 33.04300
H  41.87600 43.55500 33.61800
H  44.96500 35.78200 28.04200
H  43.74200 36.31200 29.06900
H  45.32400 37.10700 29.09700
H  45.83500 34.86700 24.69200
H  44.71100 34.80600 26.11200
H  46.26900 35.76000 26.07000
H  43.02600 40.43600 21.59600
H  43.46100 43.12100 21.66900
H  45.74500 40.70800 22.48200
H  45.42600 42.20100 21.56300
H  45.15600 40.69900 20.83600
H  41.37700 42.56400 20.40500
H  40.99500 43.35800 21.81200
H  39.98700 40.62400 20.98300
H  39.62100 41.68200 22.47800
H  40.80300 40.58400 22.54000
H  40.58900 47.66700 25.44700
H  40.81200 46.65400 23.97600
H  42.13800 47.59100 24.64100
H  40.54300 45.18600 30.23700
H  42.42800 48.07400 32.86500
H  43.74700 46.88300 32.63000
H  42.39200 46.53600 33.60900

