158

Mg 47.36000 25.36200 28.54800
C  47.80700 27.41400 31.31500
C  46.07200 22.90500 30.52900
C  47.27300 23.28100 25.87900
C  48.37100 27.93800 26.42600
N  46.73700 25.29100 30.72400
C  47.20600 26.19300 31.66900
C  46.83400 25.69800 33.00900
C  46.34700 24.20400 32.82900
C  46.49200 24.06000 31.29300
C  47.09000 23.10900 33.60200
C  45.75400 26.56800 33.68500
C  46.18500 27.20700 34.98500
H  45.17300 27.39300 36.11200
N  46.69800 23.39900 28.25400
C  46.15500 22.56700 29.21700
C  45.78100 21.28400 28.60300
C  46.16800 21.35600 27.20900
C  46.69700 22.72300 27.06900
C  45.19600 20.22400 29.39400
C  46.07900 20.25900 26.22700
O  46.53700 20.34500 25.07100
C  45.55500 18.89900 26.69900
N  47.68400 25.61100 26.40200
C  47.59900 24.66700 25.50400
C  48.22400 25.01400 24.10900
C  48.30600 26.56100 24.26200
C  48.11200 26.76600 25.80200
C  49.58500 24.33400 23.64900
C  47.34500 27.42600 23.49300
C  47.87200 28.01900 22.18100
N  47.97200 27.30400 28.79200
C  48.34200 28.20100 27.84100
C  48.77100 29.44400 28.47600
C  48.65200 29.20400 29.83400
C  48.09700 27.87100 30.00100
C  49.31600 30.70000 27.84000
C  48.86500 29.65200 31.16300
O  49.34500 30.76500 31.54100
C  48.42600 28.49000 32.13100
C  49.64100 28.00000 32.78600
O  50.75600 27.94300 32.34100
O  49.38800 27.72000 34.06500
C  50.51900 27.23800 34.88600
H  45.67800 22.16000 31.22300
H  47.20000 22.69000 24.96400
H  48.72500 28.68000 25.70800
H  47.83100 25.69600 33.45000
H  45.28600 24.08000 33.04900
H  47.71500 23.69700 34.27300
H  47.73700 22.59100 32.89400
H  46.52300 22.31800 34.09400
H  44.74600 26.17700 33.82800
H  45.53200 27.36700 32.97800
H  46.38500 28.24800 34.73300
H  47.09900 26.78200 35.39900
H  44.27700 19.91500 28.89400
H  44.82000 20.46000 30.38900
H  45.93900 19.43300 29.49600
H  46.11400 18.65300 27.60200
H  45.56300 18.17600 25.88300
H  44.49900 18.95900 26.95900
H  47.42100 24.70100 23.44100
H  49.32700 26.89200 24.07100
H  49.87200 23.60700 24.40900
H  50.30600 25.11900 23.42400
H  49.43400 23.60100 22.85600
H  46.98100 28.27900 24.06600
H  46.50000 26.76900 23.28400
H  48.88500 27.71200 21.91900
H  47.89300 29.08300 22.41600
H  47.19500 27.78700 21.35900
H  50.40200 30.60500 27.79900
H  49.07300 31.55700 28.46800
H  49.06900 30.83800 26.78800
H  47.66900 28.89500 32.80200
H  50.17900 27.27600 35.92100
H  51.34400 27.92400 34.69400
H  50.75800 26.23300 34.53700
Mg 36.63500 49.61400 24.59600
C  36.45300 47.74400 27.63000
C  35.30100 52.36700 26.28300
C  35.90900 51.13300 21.58700
C  37.51200 46.78000 22.93800
N  35.84700 49.90200 26.68200
C  35.91100 49.04900 27.72700
C  35.58600 49.89700 29.00600
C  35.01000 51.26000 28.47100
C  35.42600 51.17500 27.04900
C  33.48100 51.49500 28.66600
C  36.81900 50.13300 29.94000
C  36.54800 50.04000 31.45400
H  35.22700 49.68900 31.94300
N  35.75800 51.52500 24.00000
C  35.41700 52.56400 24.87600
C  34.94700 53.67100 24.05000
C  35.24700 53.32300 22.72100
C  35.63200 51.91200 22.72500
C  34.28000 54.80800 24.74600
C  35.28200 54.17900 21.49300
O  35.52400 53.79200 20.39400
C  34.95400 55.56400 21.61900
N  36.74600 49.03400 22.54400
C  36.49400 49.90900 21.49300
C  36.83500 49.18800 20.12400
C  37.63600 47.93100 20.61200
C  37.29100 47.86700 22.13200
C  35.57100 48.88300 19.31100
C  39.16000 48.04200 20.36900
C  39.88000 46.67000 20.43300
N  36.95600 47.60900 25.16100
C  37.34100 46.58500 24.35800
C  37.56400 45.36000 25.19900
C  37.30000 45.80000 26.50600
C  36.82300 47.12100 26.42300
C  38.19500 44.16200 24.74600
C  37.26500 45.39000 27.91000
O  37.54200 44.32300 28.36600
C  36.72700 46.67100 28.70800
C  35.49700 46.10600 29.32800
O  34.45800 45.86200 28.76400
O  35.78500 45.75300 30.62100
C  34.73900 45.05700 31.20200
H  35.17200 53.22900 26.94100
H  35.68800 51.51200 20.58700
H  37.89000 45.95600 22.32900
H  34.82200 49.35700 29.56600
H  35.57000 52.12500 28.82900
H  33.14000 50.99500 29.57300
H  32.88900 51.03400 27.87600
H  33.17400 52.53600 28.77100
H  37.27600 51.10400 29.74600
H  37.55300 49.36700 29.69000
H  36.98200 50.98100 31.79300
H  37.21400 49.27000 31.84400
H  35.02000 55.55400 25.03400
H  33.81200 54.51500 25.68600
H  33.45900 55.30500 24.23100
H  33.87500 55.65400 21.48700
H  35.41100 56.17900 20.84400
H  35.23900 55.95300 22.59700
H  37.38800 49.86200 19.46900
H  37.26100 46.97000 20.26100
H  34.69900 49.41500 19.69200
H  35.38200 47.81000 19.27700
H  35.69100 49.30100 18.31100
H  39.47900 48.68900 21.18600
H  39.32400 48.74400 19.55100
H  40.56100 46.47600 19.60400
H  39.18600 45.83300 20.50500
H  40.50200 46.59900 21.32500
H  39.01800 43.91300 25.41700
H  38.69800 44.20800 23.78000
H  37.48000 43.36400 24.54600
H  37.28500 47.04900 29.56500
H  34.88400 45.16500 32.27700
H  34.80000 43.99200 30.98200
H  33.69400 45.19800 30.92600

