158

Mg 25.89700 0.35000 29.73100
C  27.96300 0.22400 32.42100
C  23.18600 0.66500 31.78000
C  23.88100 0.23000 27.00900
C  28.67400 -0.19300 27.63700
N  25.61900 0.29700 31.81200
C  26.59200 0.32400 32.77900
C  26.06800 0.43000 34.28000
C  24.52300 0.39900 33.95200
C  24.43900 0.44300 32.42500
C  23.85700 -0.76100 34.59900
C  26.57600 1.57100 35.10900
C  25.75900 2.21700 36.19900
H  26.69900 2.54900 37.43000
N  23.83900 0.53600 29.42000
C  22.90000 0.69600 30.40500
C  21.61400 0.79300 29.80900
C  21.79200 0.78100 28.44000
C  23.23600 0.51200 28.22400
C  20.29200 0.83000 30.58800
C  20.78100 1.11100 27.29000
O  21.14800 1.10500 26.09200
C  19.31500 1.38300 27.60400
N  26.23500 0.04100 27.73400
C  25.22800 0.00400 26.77600
C  25.72700 -0.20200 25.35900
C  27.23500 -0.35400 25.54400
C  27.46800 -0.05700 27.01400
C  24.99500 -1.42300 24.72600
C  28.07300 0.65900 24.66800
C  28.29200 2.10500 25.21100
N  27.87900 0.15800 29.90700
C  28.91300 -0.13900 29.02600
C  30.21300 -0.26000 29.77200
C  29.91000 -0.10700 31.13200
C  28.48800 0.11700 31.11500
C  31.57600 -0.48500 29.18100
C  30.39600 -0.04800 32.44300
O  31.53600 -0.15400 32.91000
C  29.16800 0.12100 33.29500
C  29.10000 -1.04500 34.22600
O  28.69100 -2.10300 33.92300
O  29.64600 -0.72600 35.39500
C  29.65700 -1.69300 36.46800
H  22.32000 0.83200 32.42400
H  23.29300 0.20000 26.08900
H  29.52700 -0.47700 27.01700
H  26.44900 -0.53800 34.60700
H  23.97700 1.21200 34.43100
H  24.60500 -1.55400 34.59800
H  23.06600 -1.20200 33.99400
H  23.57400 -0.54000 35.62800
H  26.97900 2.36300 34.47800
H  27.35600 1.05400 35.66900
H  24.99600 1.47200 36.42100
H  25.35700 3.15800 35.82300
H  19.66300 -0.00300 30.27200
H  19.79400 1.76700 30.34200
H  20.48900 0.74300 31.65700
H  18.95600 0.53900 28.19300
H  18.74600 1.40500 26.67500
H  19.23400 2.30100 28.18700
H  25.51700 0.68100 24.75500
H  27.57000 -1.36200 25.30200
H  24.34100 -2.02500 25.35500
H  25.57100 -2.18100 24.19600
H  24.35400 -1.04300 23.93000
H  27.50200 0.68500 23.74000
H  29.05100 0.21700 24.47800
H  28.05300 2.39400 26.23400
H  27.65100 2.76800 24.63000
H  29.31700 2.31200 24.90100
H  31.62700 -0.05600 28.18100
H  31.75900 -1.55900 29.16500
H  32.35300 0.02200 29.75500
H  29.30600 1.04600 33.85400
H  28.81000 -1.54300 37.13700
H  30.64100 -1.65800 36.93600
H  29.62000 -2.73500 36.15200
Mg -10.91000 18.18300 40.91000
C  -7.37200 17.45800 40.82200
C  -10.07500 21.47600 40.29100
C  -14.02200 18.74400 40.27500
C  -11.49300 14.67400 40.63800
N  -8.94500 19.31800 40.40500
C  -7.61100 18.79700 40.52500
C  -6.53100 19.94100 40.22400
C  -7.44100 21.22100 40.54400
C  -8.91900 20.66700 40.43400
C  -6.97500 21.88700 41.89000
C  -6.19400 19.86900 38.65900
C  -4.79900 19.32500 38.20200
H  -4.77600 18.06500 37.20100
N  -11.97900 19.88500 40.42800
C  -11.45900 21.11200 40.17900
C  -12.49400 22.03000 39.90900
C  -13.67300 21.28600 39.81100
C  -13.28300 19.91800 40.11700
C  -12.26900 23.54000 39.80000
C  -15.06000 21.87100 39.47800
O  -15.26300 23.10600 39.38000
C  -16.25800 21.01300 39.17800
N  -12.47500 16.90700 40.26300
C  -13.72300 17.40400 40.36900
C  -14.74900 16.30900 40.37500
C  -14.00700 14.94800 40.17500
C  -12.56700 15.50300 40.36800
C  -15.63100 16.22400 41.60400
C  -14.29400 14.04100 38.91700
C  -13.34500 14.12200 37.67600
N  -9.77500 16.44100 40.92700
C  -10.15000 15.11000 40.78200
C  -9.00700 14.21500 41.00800
C  -7.90100 15.06500 40.98100
C  -8.42200 16.43900 40.95500
C  -8.89200 12.73800 41.01400
C  -6.49900 15.14900 40.92300
O  -5.64600 14.29400 40.84700
C  -6.08900 16.68600 40.95100
C  -5.28600 16.94300 42.25600
O  -4.08500 17.29500 42.23400
O  -5.98000 16.56800 43.37000
C  -5.11000 16.64000 44.59100
H  -9.76300 22.50500 40.10100
H  -15.09200 18.87600 40.10200
H  -11.82000 13.63200 40.64800
H  -5.67800 19.90200 40.90100
H  -7.36500 22.00000 39.78500
H  -7.81500 21.85600 42.58400
H  -6.66400 22.91200 41.69000
H  -6.04800 21.45000 42.26200
H  -6.20900 20.84800 38.18000
H  -6.89400 19.25700 38.09100
H  -4.30500 19.06300 39.13700
H  -4.15000 20.12300 37.84100
H  -12.02000 23.79000 40.83100
H  -13.22900 24.02500 39.62300
H  -11.52100 23.83200 39.06200
H  -15.98200 20.23000 38.47200
H  -17.15800 21.58100 38.94200
H  -16.58500 20.47600 40.06900
H  -15.45700 16.58800 39.59400
H  -14.19700 14.25900 40.99900
H  -15.19100 16.90800 42.33000
H  -15.77900 15.20700 41.96600
H  -16.63500 16.59500 41.39500
H  -15.34100 14.26200 38.70900
H  -14.40900 12.99800 39.21400
H  -13.74700 14.65900 36.81600
H  -13.22800 13.09400 37.33300
H  -12.36500 14.50000 37.96700
H  -8.37400 12.48200 40.09000
H  -9.84500 12.21000 40.99500
H  -8.32200 12.39100 41.87600
H  -5.34500 17.01600 40.22600
H  -5.31900 15.68200 45.06800
H  -5.57000 17.44100 45.17000
H  -4.07400 16.94100 44.43900

