158

Mg 26.25400 0.42200 28.89300
C  27.99300 -0.11400 31.82000
C  23.34100 0.75500 30.78200
C  24.60300 0.65100 26.07300
C  29.18500 -0.12400 27.06500
N  25.73200 0.23900 31.03500
C  26.63500 0.04900 32.08700
C  25.84700 0.17500 33.46600
C  24.38200 0.40800 33.06800
C  24.53300 0.61800 31.51400
C  23.23200 -0.67200 33.52300
C  26.51400 1.09500 34.51400
C  25.78600 1.40400 35.81000
H  26.71400 1.72500 36.99500
N  24.21400 0.71900 28.50300
C  23.14500 0.76900 29.36700
C  22.01200 1.09800 28.58400
C  22.32000 0.87500 27.21700
C  23.76300 0.72400 27.20200
C  20.71800 1.40100 29.20100
C  21.37200 0.87600 26.11800
O  21.69400 0.58700 24.92600
C  19.95700 1.47000 26.23500
N  26.81300 0.22600 26.81900
C  25.92500 0.42600 25.84800
C  26.52600 0.46000 24.47400
C  28.01600 0.42800 24.86200
C  28.06200 0.21400 26.34300
C  26.00600 -0.70500 23.63600
C  28.81600 1.70100 24.47400
C  30.28400 1.49400 24.03200
N  28.22700 -0.10200 29.37700
C  29.34500 -0.19500 28.48500
C  30.55300 -0.49000 29.32900
C  30.07300 -0.45500 30.67300
C  28.64200 -0.23100 30.56400
C  31.98500 -0.82400 28.83700
C  30.35900 -0.53700 32.08300
O  31.49100 -0.63900 32.61800
C  29.03400 -0.29800 32.86400
C  28.76300 -1.47700 33.83500
O  28.16500 -2.52100 33.66800
O  29.41900 -1.21500 34.99400
C  29.28500 -2.13600 36.14200
H  22.44600 0.99300 31.36000
H  24.11900 0.85000 25.11400
H  30.11700 -0.03200 26.50200
H  25.92500 -0.83200 33.87700
H  24.05500 1.33400 33.54300
H  22.32900 -0.23600 33.95100
H  23.71500 -1.31200 34.26200
H  23.02700 -1.33800 32.68500
H  26.91800 1.99800 34.05600
H  27.44900 0.60600 34.78900
H  25.22000 0.48400 35.95900
H  25.14600 2.27800 35.68300
H  20.72100 1.61300 30.27000
H  20.10700 0.53900 28.93200
H  20.38500 2.35800 28.79800
H  19.26700 0.82200 26.77500
H  19.66500 1.49500 25.18500
H  19.95000 2.53600 26.46400
H  26.12100 1.31900 23.94100
H  28.45500 -0.43100 24.35300
H  26.72300 -1.52600 23.67100
H  25.84300 -0.42800 22.59400
H  25.06400 -1.09300 24.02200
H  28.87600 2.35000 25.34800
H  28.19900 2.17200 23.70900
H  30.32300 2.04700 23.09400
H  30.62400 0.45900 24.06900
H  30.98600 2.00400 24.69300
H  32.84600 -0.26900 29.20700
H  32.06600 -0.76700 27.75100
H  32.16800 -1.88200 29.02300
H  29.21200 0.62300 33.41800
H  28.60100 -1.71600 36.88000
H  30.29300 -2.09700 36.55600
H  28.94300 -3.14700 35.92200
Mg 48.60000 44.84600 44.43300
C  45.09300 44.99000 43.74900
C  48.53800 41.47000 43.32900
C  51.90500 44.90800 44.06200
C  48.43300 48.28700 44.82800
N  46.96400 43.46200 43.55300
C  45.64600 43.70300 43.40900
C  44.88700 42.48400 42.83800
C  45.89800 41.33300 43.03400
C  47.22600 42.09300 43.34100
C  45.60200 40.23200 44.05200
C  44.49300 42.67500 41.37000
C  43.38000 41.69700 40.81900
H  43.24500 41.42300 39.33500
N  50.04900 43.31800 43.93000
C  49.75500 42.03200 43.46900
C  50.97500 41.37400 43.30600
C  52.06300 42.31500 43.64200
C  51.37100 43.55200 43.94500
C  51.03300 39.96800 42.83200
C  53.54000 42.08000 43.67600
O  54.03400 40.97100 43.32900
C  54.51100 43.02200 44.32400
N  49.97400 46.38700 44.14500
C  51.34200 46.17700 44.28300
C  52.14300 47.42000 44.62300
C  51.00400 48.46800 44.75400
C  49.73500 47.66600 44.61000
C  52.97400 47.25700 45.91300
C  51.10400 49.62700 43.77500
C  51.13100 50.98200 44.39600
N  47.08800 46.40800 44.40100
C  47.17400 47.77600 44.51100
C  45.85700 48.38000 44.45700
C  44.98100 47.32100 44.25200
C  45.78000 46.12900 44.15100
C  45.51400 49.79200 44.78300
C  43.56700 46.93200 44.04000
O  42.55400 47.62700 43.99800
C  43.59700 45.38800 43.66800
C  42.81700 44.71100 44.71800
O  42.15000 43.71900 44.44700
O  43.13400 45.13300 46.01600
C  42.50700 44.45700 47.17000
H  48.51400 40.41900 43.03600
H  52.99100 45.02600 44.09400
H  48.49500 49.32000 45.17600
H  44.10100 42.11200 43.49400
H  46.09400 40.78900 42.11000
H  44.60500 40.35500 44.47400
H  46.41800 40.11600 44.76500
H  45.36200 39.31800 43.50900
H  45.30100 42.41100 40.68800
H  44.17000 43.69700 41.17400
H  42.46200 42.21200 41.10200
H  43.35000 40.78500 41.41500
H  52.05900 39.59900 42.80900
H  50.60100 39.87000 41.83600
H  50.53400 39.37100 43.59500
H  54.85300 43.85800 43.71500
H  55.43200 42.50400 44.59100
H  54.02100 43.49200 45.17700
H  52.93200 47.54800 43.88100
H  50.95300 48.87900 45.76200
H  52.70300 46.32100 46.40300
H  52.87600 48.10100 46.59500
H  54.03700 47.13100 45.70500
H  50.25400 49.64100 43.09200
H  51.99700 49.50100 43.16300
H  51.25400 51.70800 43.59300
H  52.00800 50.89300 45.03700
H  50.14800 51.15400 44.83600
H  45.99800 50.28100 45.62900
H  44.44700 49.80100 45.00100
H  45.73800 50.31900 43.85500
H  43.15400 45.22700 42.68500
H  42.92800 43.45200 47.14400
H  41.42100 44.50300 47.09800
H  42.72000 44.84100 48.16700

