158

Mg 24.62000 -5.69500 45.88700
C  26.71100 -3.56600 44.12300
C  22.05500 -5.00800 43.54400
C  22.86200 -8.52300 46.75500
C  27.39200 -7.11600 47.45400
N  24.33600 -4.38300 44.21500
C  25.37100 -3.61000 43.66500
C  24.83600 -2.74400 42.47000
C  23.30500 -3.00800 42.48400
C  23.22000 -4.21200 43.44300
C  22.46200 -1.79400 43.04500
C  25.65600 -3.14800 41.19700
C  26.43700 -2.06600 40.40500
H  26.05200 -1.91200 38.86700
N  22.62100 -6.46200 45.43700
C  21.73800 -6.03300 44.42900
C  20.57400 -6.82300 44.44400
C  20.65800 -7.83900 45.54600
C  22.09200 -7.65500 46.01600
C  19.35300 -6.60100 43.47400
C  19.62900 -8.92600 45.93600
O  18.57400 -8.85900 45.34300
C  19.80800 -9.87900 47.01400
N  25.07900 -7.63700 47.00900
C  24.20600 -8.59500 47.15700
C  24.77400 -9.91800 47.74800
C  26.32600 -9.35900 48.06100
C  26.25400 -7.96300 47.45700
C  24.08300 -10.46900 49.06600
C  27.50200 -10.25900 47.38400
C  28.48400 -11.06200 48.26000
N  26.71500 -5.31400 45.95200
C  27.68200 -5.91400 46.73300
C  28.92300 -5.26400 46.45400
C  28.66400 -4.32600 45.44400
C  27.28100 -4.40200 45.13800
C  30.22000 -5.62500 47.08800
C  29.19000 -3.27900 44.54600
O  30.31000 -2.81200 44.54200
C  28.02000 -2.84900 43.66300
C  27.99000 -1.37800 43.80700
O  27.55900 -0.82300 44.79800
O  28.62500 -0.84600 42.70400
C  28.81800 0.62400 42.83100
H  21.37900 -4.78000 42.71700
H  22.37700 -9.49400 46.87300
H  28.24700 -7.53200 47.99200
H  25.23500 -1.76000 42.71900
H  22.82800 -3.25900 41.53600
H  23.08200 -0.90600 43.16300
H  22.07000 -2.04500 44.03100
H  21.69100 -1.54900 42.31500
H  24.85500 -3.51200 40.55400
H  26.34400 -3.97200 41.38700
H  27.51700 -2.20400 40.34800
H  26.24000 -1.06400 40.78500
H  18.78500 -5.74800 43.84500
H  18.87000 -7.56300 43.29900
H  19.78200 -6.29700 42.51900
H  18.84500 -10.15500 47.44300
H  20.54000 -9.49800 47.72700
H  20.27200 -10.71400 46.48900
H  24.70600 -10.60100 46.90100
H  26.38100 -9.24300 49.14400
H  23.16000 -9.91900 49.24700
H  24.75100 -10.35600 49.92000
H  23.78400 -11.49300 48.84100
H  28.13000 -9.62100 46.76200
H  27.02600 -11.06000 46.81800
H  28.36600 -12.12700 48.06300
H  28.19900 -10.84300 49.28900
H  29.51900 -10.87600 47.97300
H  30.11700 -6.02400 48.09700
H  30.96000 -4.83000 47.18000
H  30.72200 -6.39500 46.50300
H  28.25900 -3.12400 42.63600
H  28.12500 1.00300 43.58200
H  28.59200 1.06400 41.86000
H  29.88200 0.72100 43.05100
Mg 9.61700 49.04200 24.11400
C  7.25100 49.70700 26.46900
C  12.13500 50.20500 26.39400
C  12.06500 48.48200 21.80900
C  7.20300 47.97400 21.89500
N  9.65600 50.05100 26.17700
C  8.51400 50.03400 26.97900
C  8.90600 50.46800 28.43800
C  10.38400 51.04900 28.21000
C  10.78000 50.35300 26.85800
C  10.51800 52.57400 28.24800
C  8.69500 49.31300 29.47500
C  9.38500 49.46200 30.88200
H  8.49000 49.55800 32.05200
N  11.76200 49.24500 24.16900
C  12.55300 49.63200 25.22000
C  13.92600 49.69400 24.81000
C  14.01000 49.27600 23.40500
C  12.55800 48.97300 23.07600
C  15.09900 50.04700 25.65700
C  15.20600 49.04300 22.53300
O  15.05500 48.91200 21.31600
C  16.57300 48.90100 23.05600
N  9.59600 48.37400 22.09900
C  10.73600 48.17100 21.40500
C  10.55000 47.56200 20.05000
C  8.94600 47.42100 20.00500
C  8.49600 47.97000 21.40800
C  11.15200 48.35200 18.94000
C  8.60000 45.90800 19.72300
C  8.44300 44.95100 20.92800
N  7.60300 48.87000 24.07900
C  6.72200 48.45100 23.14500
C  5.36900 48.55600 23.68800
C  5.54400 49.06800 24.98700
C  6.91100 49.21600 25.18600
C  4.11300 48.14800 22.96800
C  4.80000 49.47500 26.17300
O  3.60700 49.46100 26.43800
C  5.86100 49.75300 27.19200
C  5.72500 48.64600 28.20500
O  6.20100 47.50300 28.07500
O  5.12900 49.16700 29.34700
C  4.82600 48.15000 30.28200
H  12.80000 50.66200 27.12900
H  12.81400 48.23200 21.05500
H  6.55900 47.49600 21.15300
H  8.31000 51.29600 28.82200
H  11.02400 50.69500 29.01800
H  9.56200 53.09400 28.18700
H  11.25900 52.91100 27.52300
H  10.94800 52.90200 29.19400
H  9.11600 48.46000 28.94300
H  7.62000 49.26000 29.64200
H  10.02600 50.34400 30.86700
H  10.14100 48.67800 30.93000
H  14.82200 50.14400 26.70600
H  15.47200 51.02800 25.36000
H  15.90200 49.31900 25.53900
H  16.54800 48.01000 23.68300
H  16.84900 49.81900 23.57600
H  17.29100 48.74800 22.25000
H  11.11900 46.63900 20.15800
H  8.42400 47.96200 19.21600
H  11.29000 49.34500 19.36600
H  10.31300 48.34200 18.24400
H  12.09300 48.00900 18.51100
H  9.42500 45.50400 19.13500
H  7.67000 45.77900 19.16900
H  8.50200 45.42500 21.90700
H  9.13000 44.10500 20.92900
H  7.40500 44.62100 20.96900
H  3.47800 47.61200 23.67300
H  4.38300 47.38800 22.23500
H  3.54600 48.97200 22.53500
H  5.70900 50.76400 27.57000
H  4.17800 47.42100 29.79600
H  4.23100 48.56200 31.09700
H  5.74600 47.67800 30.62700

