158

Mg 17.65800 0.03500 27.88700
C  16.27700 1.93900 30.37100
C  19.43700 -1.78400 30.07100
C  19.10500 -1.69500 25.30400
C  15.89100 2.00300 25.55000
N  17.99800 0.13300 29.89800
C  17.19600 0.90100 30.74300
C  17.62200 0.67800 32.21600
C  18.81000 -0.32900 32.14500
C  18.77800 -0.72800 30.65500
C  20.22600 0.23500 32.67000
C  16.39600 0.18000 33.06800
C  16.61000 0.14500 34.55400
H  17.85000 0.73100 35.23600
N  19.00200 -1.49100 27.71800
C  19.51200 -2.24900 28.80500
C  20.28000 -3.37200 28.40700
C  20.22700 -3.35100 26.95000
C  19.45900 -2.12100 26.57100
C  20.97600 -4.43900 29.35400
C  20.89100 -4.27500 25.95500
O  20.79900 -4.24900 24.68800
C  21.72500 -5.39900 26.54200
N  17.51100 0.14800 25.76500
C  18.29800 -0.61200 24.91500
C  18.07600 -0.21100 23.46400
C  16.89500 0.81400 23.58700
C  16.74100 0.96700 25.05100
C  19.47000 0.29700 22.88900
C  15.60500 0.55900 22.74900
C  14.32300 0.07400 23.40000
N  16.38200 1.65100 27.94000
C  15.80800 2.38400 26.91200
C  14.88000 3.32900 27.46000
C  15.06400 3.28600 28.83700
C  15.97200 2.19700 28.99900
C  14.11000 4.21200 26.70500
C  14.83300 3.84900 30.11500
O  14.13300 4.80000 30.48900
C  15.46900 2.96800 31.14600
C  16.23800 3.81800 32.05500
O  17.22600 4.37700 31.73400
O  15.72700 3.81400 33.37300
C  16.36800 4.77000 34.35400
H  20.06000 -2.38500 30.73600
H  19.48400 -2.20100 24.41400
H  15.25100 2.52900 24.83800
H  17.93500 1.62900 32.64600
H  18.54700 -1.15500 32.80600
H  20.73400 -0.49500 33.30100
H  20.09600 1.22900 33.09900
H  20.77300 0.47800 31.75900
H  16.27500 -0.84900 32.72800
H  15.51700 0.75100 32.76800
H  16.52200 -0.87800 34.92000
H  15.74400 0.62500 35.01100
H  20.85600 -4.24700 30.42000
H  22.06000 -4.51000 29.26500
H  20.64100 -5.47600 29.37000
H  22.09100 -5.96200 25.68400
H  21.04600 -5.96800 27.17700
H  22.54100 -5.13400 27.21400
H  17.88600 -1.13800 22.92300
H  17.17400 1.82400 23.28400
H  20.11400 0.55900 23.72800
H  19.39700 1.09700 22.15200
H  19.98800 -0.49100 22.34300
H  15.85200 -0.07200 21.89600
H  15.36600 1.53400 22.32300
H  13.67000 -0.38000 22.65400
H  13.85600 0.94100 23.86800
H  14.55700 -0.63400 24.19400
H  13.52100 3.47100 26.16400
H  14.76100 4.81200 26.06900
H  13.55600 4.93500 27.30400
H  14.71300 2.56600 31.82100
H  16.64900 5.68400 33.83200
H  17.18400 4.24000 34.84500
H  15.65300 4.98700 35.14800
Mg 35.21200 48.51900 25.40100
C  35.80600 46.46100 28.12200
C  34.19000 51.03200 27.44100
C  34.69700 50.47800 22.69900
C  36.19400 45.93000 23.34200
N  34.78400 48.64500 27.50600
C  35.32500 47.71300 28.46700
C  35.25100 48.33800 29.88500
C  34.43100 49.64500 29.57800
C  34.49900 49.81200 28.04900
C  33.04900 49.83600 30.32300
C  36.62800 48.60300 30.44400
C  36.77800 48.46000 31.96800
H  35.49500 48.38000 32.85400
N  34.46300 50.49200 25.12100
C  34.28200 51.39100 26.09400
C  34.03000 52.70600 25.52100
C  34.08000 52.57300 24.12100
C  34.44300 51.15300 23.91900
C  33.70800 53.82600 26.49200
C  33.83700 53.55900 22.99400
O  34.04800 53.27700 21.82000
C  33.52800 54.99000 23.35600
N  35.26900 48.23800 23.28700
C  35.11800 49.17000 22.39900
C  35.39800 48.65000 20.98700
C  35.98700 47.29400 21.22100
C  35.80900 47.15400 22.74300
C  34.22900 48.74800 19.87800
C  37.47200 47.12700 20.71100
C  38.65800 46.94300 21.68200
N  35.77600 46.57300 25.62800
C  36.13300 45.63300 24.68300
C  36.50800 44.38600 25.34200
C  36.44600 44.72000 26.69700
C  35.87000 46.00000 26.81600
C  36.81000 43.03500 24.74400
C  36.64700 44.24800 28.00900
O  37.03100 43.13900 28.36200
C  36.31400 45.41000 29.04000
C  35.23500 44.96400 29.97200
O  34.08200 44.86400 29.63800
O  35.59500 44.84600 31.32700
C  34.50800 44.38400 32.20500
H  34.10000 51.78100 28.23100
H  34.60400 51.09800 21.80500
H  36.53700 45.03900 22.81300
H  34.72200 47.66800 30.56300
H  35.03000 50.43500 30.03100
H  32.33900 50.13700 29.55200
H  33.20400 50.69800 30.97100
H  32.73000 48.88600 30.75300
H  36.99800 49.58700 30.15700
H  37.35800 47.92800 29.99600
H  37.27500 49.35900 32.33300
H  37.44900 47.62900 32.18700
H  33.08900 53.43000 27.29700
H  33.13100 54.52900 25.89100
H  34.58000 54.34400 26.89200
H  32.60600 55.16000 23.91200
H  33.48000 55.65600 22.49400
H  34.36100 55.36800 23.94900
H  36.18500 49.32600 20.65400
H  35.43200 46.50500 20.71400
H  34.07800 47.75400 19.45700
H  34.54300 49.44100 19.09700
H  33.23600 49.07800 20.18000
H  37.73000 47.90200 19.99000
H  37.37700 46.20000 20.14500
H  39.49500 47.49400 21.25100
H  38.97900 45.91200 21.82600
H  38.44500 47.38100 22.65700
H  37.41300 43.19500 23.85000
H  35.97000 42.42100 24.41800
H  37.45000 42.57400 25.49700
H  37.15200 45.73000 29.65800
H  34.01800 43.50600 31.78400
H  33.79900 45.16900 32.46700
H  34.84100 43.95900 33.15200

