158

Mg 46.97300 16.79400 28.47000
C  45.27200 16.84200 31.44200
C  49.45600 18.67500 30.21700
C  48.72000 17.40500 25.63700
C  44.47200 15.30500 26.79200
N  47.25500 17.63400 30.60800
C  46.51300 17.42000 31.68800
C  47.09500 17.94700 32.97600
C  48.16500 18.97300 32.45900
C  48.28300 18.46500 30.95500
C  47.79200 20.38300 32.61000
C  47.70000 16.78800 33.87900
C  47.32000 16.70400 35.34600
H  46.97400 18.07900 36.02400
N  48.88000 17.75100 28.00000
C  49.68000 18.51000 28.83600
C  50.80100 18.94800 28.09600
C  50.65300 18.52800 26.71900
C  49.42600 17.86100 26.72900
C  51.95200 19.84000 28.66400
C  51.52600 18.86500 25.52900
O  51.35600 18.36400 24.45900
C  52.63800 19.74100 25.72100
N  46.69400 16.27900 26.48500
C  47.49300 16.68800 25.49800
C  46.94100 16.27600 24.12700
C  45.61100 15.56900 24.48700
C  45.59800 15.56300 25.99500
C  46.66800 17.51600 23.17300
C  45.44400 14.11300 23.96500
C  44.47200 13.84100 22.78900
N  45.29600 16.14100 28.94600
C  44.33300 15.47300 28.16600
C  43.23400 15.18300 28.97900
C  43.51100 15.70900 30.26700
C  44.81200 16.20000 30.21600
C  42.05700 14.39300 28.57700
C  43.03700 15.84300 31.59900
O  41.98500 15.41700 32.07300
C  44.19700 16.53100 32.43000
C  43.64000 17.74000 33.17400
O  43.57300 18.91400 32.77800
O  43.03300 17.26500 34.32200
C  42.23100 18.25500 35.01900
H  50.26700 19.16700 30.75700
H  49.15600 17.63600 24.66300
H  43.60100 14.97600 26.22100
H  46.31800 18.43500 33.56500
H  49.16300 18.83800 32.87500
H  48.62000 20.88000 33.11500
H  46.84500 20.42600 33.14800
H  47.78700 21.00900 31.71800
H  48.78200 16.76800 33.74900
H  47.35700 15.87700 33.38900
H  48.30300 16.45300 35.74300
H  46.61100 15.91500 35.59800
H  51.89400 20.82000 28.19100
H  52.91300 19.32500 28.65100
H  51.70600 19.94500 29.72100
H  52.30500 20.77800 25.76800
H  53.17600 19.62200 24.78100
H  53.28700 19.42200 26.53700
H  47.70000 15.64600 23.66300
H  44.67400 16.03400 24.18000
H  45.63800 17.55200 22.81800
H  47.35000 17.42900 22.32700
H  46.81100 18.52600 23.55700
H  45.08200 13.40400 24.71000
H  46.43700 13.74400 23.70800
H  45.04400 13.38800 21.98000
H  43.83300 14.68400 22.52600
H  43.76800 13.09600 23.15900
H  41.61000 14.79800 27.66900
H  41.26900 14.23800 29.31400
H  42.44500 13.45600 28.17900
H  44.65600 15.82300 33.12000
H  41.82000 17.67300 35.84400
H  41.35900 18.48400 34.40700
H  42.75200 19.16700 35.31200
Mg 36.33900 49.97800 25.54700
C  36.35300 48.28200 28.51600
C  35.17500 52.82600 27.17400
C  36.00700 51.44900 22.49800
C  37.32400 47.12700 23.98500
N  35.74400 50.42500 27.57300
C  35.91500 49.60500 28.60900
C  35.77400 50.49800 29.91700
C  35.27700 51.89700 29.47300
C  35.39300 51.74600 27.98800
C  34.05500 52.43400 30.17500
C  37.10300 50.47000 30.70900
C  37.04000 50.21000 32.18000
H  35.75400 50.17200 33.04300
N  35.77800 51.85300 24.91300
C  35.34500 52.89700 25.71200
C  35.01800 54.04800 24.89700
C  35.22800 53.61400 23.55600
C  35.72900 52.26700 23.58900
C  34.31200 55.29100 25.41100
C  34.94900 54.50200 22.29500
O  35.10400 54.16000 21.16300
C  34.31900 55.88800 22.35600
N  36.67400 49.39800 23.59400
C  36.46600 50.17400 22.49800
C  36.80900 49.50200 21.18100
C  37.66800 48.30800 21.72500
C  37.21100 48.25200 23.17400
C  35.70400 49.01400 20.17600
C  39.23100 48.44200 21.65500
C  40.06700 47.15400 21.28800
N  36.68100 48.02200 26.06400
C  37.11000 46.91900 25.36200
C  37.29900 45.71400 26.17100
C  37.08400 46.22600 27.44600
C  36.73000 47.62900 27.29700
C  37.87800 44.35200 25.74300
C  37.21800 45.97100 28.91100
O  37.67100 45.01800 29.48200
C  36.66200 47.22400 29.63400
C  35.51400 46.87700 30.44200
O  34.36000 46.80900 29.99900
O  35.90100 46.43300 31.66000
C  34.82300 45.88000 32.56800
H  34.77000 53.65200 27.76300
H  35.99100 51.80600 21.46600
H  37.59900 46.17100 23.53500
H  34.99900 50.00000 30.49800
H  36.05000 52.63300 29.69100
H  34.39700 53.29200 30.75400
H  33.55000 51.74200 30.84900
H  33.32200 52.76200 29.43700
H  37.50600 51.47200 30.56500
H  37.85700 49.88400 30.18300
H  37.76100 50.87300 32.65600
H  37.50500 49.22800 32.27200
H  33.29900 55.25700 25.00800
H  34.85100 56.21900 25.22000
H  34.26800 55.14500 26.49000
H  34.43300 56.30800 21.35700
H  34.92300 56.58800 22.93400
H  33.29000 55.82900 22.71200
H  37.50900 50.17000 20.67900
H  37.35600 47.40000 21.20800
H  34.77200 49.56900 20.28500
H  35.45300 47.97600 20.39200
H  36.05300 49.10600 19.14700
H  39.64300 49.01200 22.48800
H  39.51700 49.18700 20.91200
H  40.47900 46.76300 22.21700
H  40.86200 47.41000 20.58800
H  39.29800 46.52600 20.83700
H  38.45600 44.02500 26.60700
H  38.55300 44.38000 24.88700
H  37.07400 43.64700 25.53500
H  37.39900 47.55100 30.36700
H  33.91100 46.47700 32.58200
H  35.14600 45.73800 33.59900
H  34.61500 44.89000 32.16300

