158

Mg 48.36800 45.25800 42.42000
C  45.10800 45.82600 40.95300
C  48.33500 42.26300 40.97200
C  51.67800 45.34700 42.44300
C  48.15700 48.61700 43.51400
N  46.92700 44.26600 40.97700
C  45.58800 44.57900 40.58600
C  44.88000 43.43900 39.84500
C  45.81700 42.23700 40.23300
C  47.16200 42.92600 40.78300
C  45.24200 41.27900 41.34900
C  44.70900 43.82500 38.36800
C  43.52700 43.20800 37.68800
H  43.75900 42.70200 36.24800
N  49.81700 43.90400 42.00200
C  49.55300 42.66100 41.34200
C  50.86000 41.94000 41.19300
C  51.84900 42.90400 41.69500
C  51.13800 44.12400 42.01700
C  51.09100 40.66600 40.66400
C  53.30600 42.60100 41.92600
O  53.75200 41.51200 41.58400
C  54.28700 43.48600 42.58900
N  49.66600 46.75800 42.88300
C  50.99300 46.51000 42.92000
C  51.78300 47.77500 43.40400
C  50.67900 48.70000 43.80200
C  49.39500 47.96200 43.48100
C  52.93100 47.60100 44.43300
C  50.73200 50.03500 43.15900
C  50.41300 51.23200 44.14100
N  46.93900 46.90900 42.31500
C  46.98100 48.16800 42.87900
C  45.74500 48.88900 42.63800
C  44.98700 47.92400 41.91600
C  45.79000 46.79500 41.71300
C  45.45300 50.32500 43.00500
C  43.65100 47.69100 41.30000
O  42.67700 48.48000 41.23400
C  43.72600 46.34500 40.62800
C  42.62500 45.62400 41.36600
O  41.72200 45.00300 40.89100
O  42.88300 45.79000 42.75000
C  42.01000 44.94500 43.54700
H  48.25700 41.22500 40.64200
H  52.76900 45.34500 42.39600
H  48.16600 49.62700 43.93100
H  43.91600 43.27200 40.32700
H  45.93100 41.58100 39.37000
H  44.62900 41.89500 42.00600
H  45.98800 40.68000 41.87100
H  44.55500 40.53200 40.95000
H  45.58500 43.39400 37.88300
H  44.79400 44.88200 38.11700
H  42.74900 43.97000 37.63900
H  43.06600 42.39500 38.24800
H  50.10400 40.23900 40.48400
H  51.65300 40.14900 41.44200
H  51.58800 40.76800 39.70000
H  53.84900 43.87200 43.50900
H  54.55600 44.27000 41.88000
H  55.15200 42.86900 42.83200
H  52.22200 48.09300 42.45800
H  50.68500 48.87400 44.87800
H  52.98200 46.56200 44.75700
H  53.01500 48.22400 45.32300
H  53.89500 47.71400 43.93800
H  49.99500 50.11100 42.35900
H  51.74300 50.15100 42.77000
H  49.63700 51.08600 44.89200
H  50.12500 52.07400 43.51200
H  51.30000 51.34800 44.76500
H  45.92700 51.09200 42.39200
H  45.82300 50.44500 44.02300
H  44.38300 50.52900 43.01800
H  43.42700 46.39900 39.58100
H  41.61300 44.07800 43.01700
H  41.20800 45.56900 43.94100
H  42.59000 44.66100 44.42500
Mg 0.56000 43.70400 26.40200
C  2.46500 43.08800 29.46800
C  -2.23900 43.36100 28.29400
C  -1.03400 43.24700 23.54500
C  3.64800 43.50100 24.75700
N  0.24600 43.14000 28.62100
C  1.09000 43.10700 29.66700
C  0.30300 42.91300 30.99100
C  -1.17500 42.74800 30.42100
C  -1.03200 43.20300 29.03700
C  -1.65100 41.27300 30.45500
C  0.47300 44.02700 31.98500
C  0.54700 43.79500 33.50000
H  0.24600 42.39200 34.04600
N  -1.40700 43.46000 25.98300
C  -2.42200 43.39200 26.89400
C  -3.72300 43.40900 26.13300
C  -3.40600 43.41500 24.80300
C  -1.87000 43.26600 24.68400
C  -5.05000 43.46900 26.91300
C  -4.34000 43.43700 23.58800
O  -3.85500 43.31700 22.45500
C  -5.78200 43.50700 23.74700
N  1.19800 43.44700 24.45300
C  0.34700 43.26600 23.38500
C  1.13500 43.20900 21.99400
C  2.56000 43.45000 22.42500
C  2.50200 43.48700 23.99200
C  0.83800 41.95500 21.04100
C  3.32800 44.82000 22.04500
C  4.19900 44.77600 20.78800
N  2.62600 43.49400 26.94000
C  3.77000 43.42700 26.12800
C  4.93100 43.33500 26.95100
C  4.43900 43.15000 28.26100
C  3.06400 43.19500 28.18700
C  6.39000 43.27800 26.59200
C  4.86600 42.93800 29.64600
O  5.98500 42.86300 30.06200
C  3.58300 42.98500 30.51400
C  3.58300 41.68700 31.20300
O  3.53600 40.49400 30.81400
O  3.78300 42.01400 32.55700
C  4.21000 40.96100 33.49700
H  -3.14800 43.26700 28.89100
H  -1.59400 43.10700 22.61800
H  4.50400 43.38300 24.08900
H  0.45700 41.95200 31.48100
H  -1.90300 43.31200 31.00400
H  -0.86500 40.64100 30.86800
H  -2.03300 40.89400 29.50700
H  -2.45800 41.04900 31.15300
H  -0.29800 44.78200 31.82900
H  1.42400 44.52300 31.79400
H  -0.02800 44.57300 34.00200
H  1.55300 44.01200 33.85700
H  -5.81500 44.12500 26.49800
H  -4.91200 43.69100 27.97100
H  -5.31800 42.41700 26.81400
H  -6.28400 43.84700 22.84200
H  -5.99400 44.25500 24.51200
H  -6.10000 42.50900 24.04800
H  0.89300 44.06300 21.36200
H  3.22900 42.61400 22.22000
H  0.49600 42.30500 20.06700
H  0.03800 41.32000 21.42100
H  1.73000 41.34700 20.89000
H  3.78000 45.29400 22.91600
H  2.53500 45.55700 21.91200
H  5.14600 45.30200 20.91200
H  3.54200 45.36800 20.15100
H  4.40000 43.79100 20.36700
H  6.54500 43.89100 25.70500
H  6.62400 42.24000 26.35700
H  6.94800 43.75200 27.40000
H  3.53500 43.86500 31.15500
H  3.53000 40.12600 33.33300
H  4.02100 41.32300 34.50800
H  5.26700 40.70000 33.54200

