158

Mg 0.45500 8.18700 25.16400
C  1.56400 9.83100 28.00600
C  1.06300 5.20700 26.77800
C  -0.27700 6.54100 22.21800
C  0.54000 11.07600 23.33700
N  1.53500 7.64100 27.17900
C  1.46000 8.43300 28.23600
C  1.68100 7.63500 29.58500
C  1.42300 6.15200 29.12400
C  1.44100 6.37600 27.58800
C  2.51700 5.16000 29.50600
C  0.62200 8.03900 30.65600
C  0.93400 7.96400 32.12800
H  2.10000 7.07400 32.67100
N  0.38600 6.10700 24.59400
C  0.63000 5.08400 25.41000
C  0.38700 3.80400 24.71500
C  0.13800 4.19800 23.38900
C  0.04200 5.67000 23.37000
C  0.49000 2.44800 25.44200
C  -0.08400 3.29900 22.16200
O  -0.13800 3.67400 21.03000
C  -0.12400 1.84300 22.50000
N  0.09000 8.77300 23.00600
C  -0.26700 7.94600 22.05200
C  -0.55800 8.65200 20.68500
C  -0.60700 10.14600 21.17900
C  0.00500 10.00500 22.57200
C  0.54100 8.27900 19.66000
C  -2.03600 10.81600 21.24400
C  -2.08700 12.20000 20.55000
N  0.89600 10.13100 25.51000
C  1.00400 11.25000 24.66900
C  1.53200 12.41900 25.40600
C  1.77600 11.87300 26.69700
C  1.39000 10.47700 26.73000
C  1.63300 13.80700 24.77300
C  2.24500 12.26300 28.00400
O  2.76000 13.27200 28.50900
C  2.01800 10.98700 28.89000
C  3.20400 10.74500 29.70100
O  4.36000 10.54900 29.33700
O  2.70700 10.63400 31.02500
C  3.67300 10.42600 32.09700
H  1.25600 4.29000 27.33900
H  -0.52500 6.01600 21.29300
H  0.56400 12.01200 22.77400
H  2.71100 7.80400 29.90000
H  0.46000 5.72700 29.40800
H  2.96100 5.58100 30.40800
H  3.37500 5.09900 28.83700
H  2.08900 4.19200 29.76800
H  -0.24200 7.38900 30.51800
H  0.35100 9.08700 30.53100
H  -0.02200 7.71900 32.59200
H  1.14600 8.96100 32.51400
H  -0.27200 1.70300 25.21800
H  0.45900 2.49900 26.53100
H  1.43900 1.93200 25.29900
H  -0.41700 1.24900 21.63400
H  -0.90800 1.76400 23.25300
H  0.84800 1.51400 22.86800
H  -1.54600 8.46000 20.26600
H  0.08700 10.77700 20.62400
H  1.06900 9.12000 19.21100
H  -0.08400 7.76900 18.92700
H  1.19400 7.52100 20.09300
H  -2.37000 10.77400 22.28100
H  -2.79600 10.23600 20.72000
H  -1.11600 12.48000 20.14300
H  -2.14300 12.94500 21.34400
H  -2.85000 12.24000 19.77300
H  1.35500 14.60200 25.46400
H  1.05200 13.79500 23.85100
H  2.65700 13.98500 24.44300
H  1.13700 11.21900 29.48900
H  4.27700 11.32200 32.24400
H  4.35400 9.67600 31.69400
H  3.15100 10.20600 33.02800
Mg 0.74900 43.30200 26.09300
C  2.87100 43.35100 28.87700
C  -1.85900 42.57000 28.36300
C  -1.03800 42.43900 23.45900
C  3.70200 43.84100 24.03300
N  0.53600 43.23200 28.39500
C  1.54600 43.38000 29.28200
C  1.02600 43.47100 30.67700
C  -0.52700 42.96800 30.46500
C  -0.67900 42.94800 28.97000
C  -0.72900 41.58600 31.04500
C  1.08200 44.87700 31.36200
C  1.13700 44.81100 32.86100
H  0.82600 43.52200 33.63000
N  -1.21600 42.71500 25.95000
C  -2.07200 42.41100 26.93800
C  -3.30000 41.92000 26.36500
C  -3.15700 41.92200 24.89300
C  -1.74600 42.33700 24.75000
C  -4.55500 41.63100 27.14000
C  -4.13700 41.47600 23.83500
O  -3.87500 41.46800 22.63600
C  -5.55400 41.03600 24.18100
N  1.34400 43.00800 23.99500
C  0.29800 42.71100 23.07300
C  0.84000 42.84400 21.68300
C  2.27700 43.50300 21.86700
C  2.51000 43.42100 23.38100
C  0.84500 41.44600 20.87000
C  2.34500 44.98500 21.31700
C  2.17200 46.11400 22.23700
N  2.92100 43.57700 26.32400
C  3.98100 43.74200 25.39700
C  5.25000 43.67600 26.09700
C  4.85300 43.61000 27.50400
C  3.38800 43.42200 27.53900
C  6.61400 43.80500 25.54200
C  5.32400 43.56000 28.92600
O  6.41400 43.61400 29.38900
C  4.11100 43.43800 29.82500
C  4.18600 42.23300 30.63300
O  3.93800 41.10200 30.26400
O  4.72900 42.48100 31.88300
C  4.84700 41.47900 32.91600
H  -2.71600 42.29100 28.97900
H  -1.69900 42.09000 22.66300
H  4.62600 44.02900 23.48200
H  1.63200 42.69800 31.14900
H  -1.24200 43.66700 30.89900
H  -0.94800 40.90800 30.22000
H  -1.51600 41.53000 31.79700
H  0.16700 41.05600 31.37000
H  0.19100 45.46000 31.12800
H  1.99600 45.39500 31.07000
H  0.46800 45.58700 33.23300
H  2.13600 45.09800 33.18700
H  -4.66800 40.55300 27.25700
H  -5.36000 42.14100 26.61200
H  -4.69200 42.16400 28.08200
H  -5.41600 40.26800 24.94300
H  -5.98200 40.37300 23.42900
H  -6.19800 41.85900 24.49000
H  0.10600 43.40600 21.10600
H  2.90100 42.78900 21.33100
H  1.82900 41.19900 20.47200
H  0.24100 41.65900 19.98700
H  0.58500 40.59800 21.50300
H  1.60600 45.05600 20.51900
H  3.26300 45.02600 20.73100
H  1.69600 45.73900 23.14300
H  1.46400 46.88700 21.93600
H  3.14000 46.54900 22.48500
H  7.04300 44.80600 25.58400
H  6.53800 43.50400 24.49700
H  7.28700 43.04400 25.93600
H  4.10500 44.28000 30.51700
H  5.83500 41.57200 33.36600
H  4.62500 40.47100 32.56800
H  4.12500 41.79000 33.67200

