158

Mg 47.23000 16.20800 28.67000
C  45.25000 16.30200 31.50700
C  49.59200 18.01700 30.40300
C  48.81900 16.71000 25.77600
C  44.55700 14.78300 26.91300
N  47.31900 17.16400 30.59800
C  46.51600 16.86200 31.65500
C  47.06300 17.28700 33.00400
C  48.32500 18.11700 32.49900
C  48.39900 17.83800 31.04500
C  48.21500 19.64200 32.94700
C  47.50500 16.07000 33.91200
C  47.29400 16.16800 35.42900
H  46.83300 17.56200 36.09000
N  49.02000 17.04700 28.16600
C  49.90000 17.71500 29.04400
C  51.15900 17.97500 28.39300
C  50.86000 17.83000 27.02300
C  49.52800 17.22400 26.92200
C  52.36600 18.44200 29.04300
C  51.73000 18.34500 25.81800
O  51.43900 18.10000 24.66100
C  53.02100 19.16000 26.00500
N  46.66800 15.91100 26.53100
C  47.58100 16.10500 25.53400
C  47.14400 15.49000 24.26100
C  45.74300 14.81400 24.64600
C  45.65800 15.14000 26.13200
C  47.03800 16.51400 23.03000
C  45.70200 13.22700 24.53800
C  45.00500 12.69000 23.28200
N  45.35200 15.58000 29.09200
C  44.36200 14.97200 28.30100
C  43.26200 14.63500 29.10000
C  43.52100 15.16800 30.36500
C  44.78500 15.77500 30.30400
C  42.00400 13.91700 28.68200
C  42.94700 15.26400 31.70600
O  41.96700 14.88200 32.23600
C  44.13400 16.03400 32.51900
C  43.45700 17.11200 33.33500
O  43.39300 18.29400 33.06100
O  42.88100 16.60500 34.44300
C  42.30700 17.53000 35.39000
H  50.31600 18.57000 31.00600
H  49.35100 16.80600 24.82700
H  43.72400 14.29400 26.40300
H  46.22600 17.72500 33.54800
H  49.25900 17.73500 32.91200
H  47.30200 19.86000 33.50200
H  48.50600 20.28600 32.11700
H  48.95600 19.66500 33.74600
H  48.56500 15.87700 33.74800
H  46.96300 15.20000 33.54000
H  48.16200 15.92100 36.04000
H  46.59900 15.38100 35.72200
H  53.16100 17.84100 28.60000
H  52.28500 18.13800 30.08600
H  52.60500 19.50300 28.96800
H  52.93200 20.15200 26.44800
H  53.46600 19.23200 25.01300
H  53.68600 18.47400 26.52900
H  47.90500 14.75300 24.00400
H  44.81000 15.18400 24.22300
H  46.03900 16.91800 22.86000
H  47.36400 16.09800 22.07700
H  47.52500 17.44200 23.32900
H  45.19200 12.78200 25.39100
H  46.69400 12.77700 24.55900
H  44.00600 12.37400 23.58300
H  45.55400 11.81300 22.93900
H  44.93000 13.41700 22.47400
H  41.24700 14.51200 29.19200
H  42.03900 12.86000 28.94700
H  41.83600 13.96900 27.60700
H  44.50100 15.32600 33.26300
H  41.56400 18.10800 34.84100
H  43.10500 18.18900 35.73100
H  41.83000 16.97300 36.19700
Mg 6.13400 53.30900 41.99000
C  6.07500 49.86600 41.24900
C  9.39300 53.45400 40.72500
C  6.11400 56.66800 42.35600
C  2.65100 53.12500 42.73000
N  7.42900 51.87000 40.87000
C  7.23400 50.49500 40.81500
C  8.47400 49.78300 40.14400
C  9.52600 50.96200 40.04600
C  8.77700 52.22100 40.64600
C  10.91500 50.91200 40.77700
C  8.38200 49.04600 38.84500
C  7.47900 49.70600 37.70200
H  6.79500 48.86800 36.59700
N  7.55600 54.88500 41.63800
C  8.83000 54.72100 41.14300
C  9.42100 56.03300 40.98500
C  8.58000 57.00000 41.54700
C  7.37400 56.25300 41.94800
C  10.79800 56.20000 40.39300
C  8.99300 58.45000 41.76500
O  10.10200 58.86000 41.40100
C  8.16300 59.36300 42.55100
N  4.58200 54.62700 42.43700
C  4.86700 55.99600 42.61300
C  3.59800 56.76800 42.91700
C  2.49800 55.70000 43.00300
C  3.27700 54.34400 42.76000
C  3.72400 57.60000 44.16500
C  1.24200 55.97200 42.15600
C  1.26500 55.39900 40.70500
N  4.64300 51.83700 42.10200
C  3.26600 51.84700 42.50400
C  2.81700 50.52600 42.58700
C  3.86400 49.66500 42.22300
C  4.95900 50.57100 41.89400
C  1.44200 50.12600 42.84800
C  4.24800 48.28000 41.96900
O  3.64200 47.21400 42.09500
C  5.65400 48.38300 41.19900
C  5.43300 47.82500 39.84800
O  4.84500 48.38500 38.95400
O  5.99800 46.56800 39.77700
C  5.60600 45.57500 38.75700
H  10.39900 53.49700 40.30200
H  5.98800 57.73500 42.54700
H  1.64200 53.10500 43.14600
H  8.83900 49.08100 40.89400
H  9.71600 51.06500 38.97800
H  11.73000 51.14400 40.09200
H  11.17900 49.92400 41.15500
H  11.04900 51.69200 41.52600
H  7.99600 48.04500 39.03700
H  9.36700 49.02400 38.37900
H  8.11100 50.51600 37.33800
H  6.63800 50.18300 38.20500
H  10.69500 57.00000 39.66000
H  11.23900 55.28700 39.99300
H  11.52100 56.60200 41.10300
H  8.69100 60.28500 42.79600
H  7.82400 58.77600 43.40400
H  7.26100 59.58400 41.98000
H  3.40700 57.53800 42.17000
H  2.06400 55.50300 43.98200
H  3.27000 57.02300 44.97100
H  3.22600 58.54900 43.96900
H  4.78800 57.82700 44.24000
H  1.20600 57.05900 42.08500
H  0.37000 55.66200 42.73000
H  0.27500 54.96200 40.57300
H  2.02700 54.64400 40.50900
H  1.34000 56.26400 40.04600
H  1.35700 49.97100 43.92300
H  1.32600 49.21000 42.26800
H  0.66200 50.84500 42.59700
H  6.45000 47.78100 41.63800
H  6.04300 44.59900 38.96700
H  5.68600 45.87500 37.71200
H  4.53900 45.41700 38.91600

