158

Mg 1.49800 -2.93300 45.07300
C  4.90600 -1.98200 44.28700
C  0.49900 -0.35400 42.90700
C  -1.55800 -4.04100 45.39500
C  2.78600 -5.42100 46.96300
N  2.57300 -1.48600 43.55900
C  3.88800 -1.21000 43.53400
C  4.14300 -0.01800 42.65500
C  2.72400 0.56800 42.35300
C  1.88500 -0.49000 43.00900
C  2.59100 1.98400 42.94000
C  5.01000 -0.43300 41.42400
C  6.10000 0.54300 40.99900
H  5.88500 1.39200 39.71900
N  -0.22700 -2.27300 44.23700
C  -0.47500 -1.21600 43.37800
C  -1.89900 -1.11800 43.17000
C  -2.49200 -2.24500 43.79900
C  -1.41800 -2.93700 44.49800
C  -2.65000 -0.10300 42.37600
C  -4.01500 -2.51800 43.75400
O  -4.86700 -1.79800 43.24200
C  -4.60200 -3.75800 44.40000
N  0.78900 -4.53600 45.87500
C  -0.52200 -4.80400 45.96500
C  -0.78300 -6.09200 46.76100
C  0.57800 -6.46200 47.42300
C  1.45600 -5.43000 46.69400
C  -1.93800 -6.04200 47.83100
C  1.03700 -7.97500 47.16200
C  1.44700 -8.66700 48.46300
N  3.41800 -3.68800 45.53500
C  3.78900 -4.63900 46.42900
C  5.22000 -4.77300 46.50900
C  5.67800 -3.69800 45.80800
C  4.56600 -3.10700 45.12600
C  6.00300 -5.87400 47.23900
C  6.83600 -2.99400 45.35500
O  8.00200 -3.13100 45.67100
C  6.40000 -1.74600 44.54500
C  6.51500 -0.50200 45.43400
O  5.76300 -0.35900 46.37800
O  7.47500 0.37500 44.97700
C  7.50200 1.71900 45.61300
H  0.14700 0.50100 42.32500
H  -2.54700 -4.43600 45.63800
H  3.24100 -6.12700 47.66100
H  4.80400 0.61600 43.24700
H  2.59800 0.54300 41.27100
H  3.52400 2.36600 43.35400
H  1.79000 2.13500 43.66400
H  2.46100 2.74100 42.16600
H  4.33700 -0.29600 40.57700
H  5.47200 -1.39300 41.65400
H  6.98300 -0.05000 40.76400
H  6.43500 1.21500 41.79000
H  -3.25700 0.45700 43.08800
H  -3.30500 -0.42700 41.56800
H  -2.02500 0.62300 41.85600
H  -4.55700 -3.58300 45.47500
H  -3.96100 -4.56800 44.05200
H  -5.58900 -3.90000 43.96000
H  -1.04800 -6.70800 45.90200
H  0.57500 -6.34400 48.50600
H  -2.32200 -5.02900 47.95200
H  -1.63600 -6.47600 48.78500
H  -2.67200 -6.66300 47.31600
H  1.77700 -7.98900 46.36100
H  0.25500 -8.58800 46.71400
H  1.54300 -7.94500 49.27400
H  2.36200 -9.19700 48.19800
H  0.79400 -9.47600 48.79000
H  5.66900 -5.69800 48.26200
H  7.07300 -5.75200 47.07500
H  5.75900 -6.89400 46.94200
H  6.94700 -1.56600 43.61900
H  7.76700 2.46800 44.86700
H  8.16200 1.69600 46.48100
H  6.52300 1.93300 46.04100
Mg 6.66000 53.67200 41.30100
C  6.32100 50.06200 41.16500
C  9.61000 53.33600 39.63500
C  6.73600 57.02000 40.89100
C  3.39000 53.86800 42.41700
N  7.71200 51.85100 40.55800
C  7.53200 50.49900 40.61800
C  8.79500 49.67500 40.06600
C  9.85400 50.81600 39.84000
C  8.95100 52.11600 39.96900
C  11.07300 50.85700 40.77900
C  8.50200 48.77300 38.85000
C  8.54800 49.39400 37.35700
H  7.39000 48.99700 36.40800
N  8.03500 55.03200 40.37000
C  9.23500 54.66700 39.82400
C  9.89100 55.83800 39.44600
C  9.05500 56.96500 39.71900
C  7.88000 56.38300 40.39800
C  11.27000 55.85400 38.68200
C  9.45000 58.39400 39.37400
O  10.42600 58.66100 38.76500
C  8.52300 59.52000 39.85900
N  5.27400 55.22900 41.43800
C  5.54600 56.51900 41.37900
C  4.35100 57.45300 41.79400
C  3.19800 56.39900 41.99700
C  3.98300 55.12100 41.93000
C  4.66200 58.45400 42.92500
C  2.03200 56.37800 40.93500
C  0.59600 56.61800 41.40500
N  5.27000 52.30200 41.87900
C  3.94700 52.56800 42.35400
C  3.27800 51.33600 42.67900
C  4.24400 50.32300 42.25600
C  5.35000 50.93700 41.67400
C  1.97200 51.04200 43.34500
C  4.38200 48.83700 42.09100
O  3.63100 47.94900 42.46400
C  5.75300 48.63100 41.39600
C  5.38200 47.97200 40.18400
O  4.69700 48.45100 39.27500
O  5.87200 46.67700 40.08100
C  5.47600 45.92200 38.86400
H  10.63200 53.30900 39.25300
H  6.71300 58.10900 40.96800
H  2.31200 53.87600 42.59200
H  9.15200 49.06500 40.89500
H  10.37300 50.73100 38.88600
H  11.38500 49.82900 40.96900
H  10.83500 51.44700 41.66300
H  11.90900 51.32500 40.25900
H  7.48500 48.41000 38.99400
H  9.11300 47.87100 38.87000
H  9.42600 49.08800 36.78800
H  8.63200 50.46700 37.53200
H  11.07700 55.78800 37.61200
H  11.93500 55.06200 39.02600
H  11.85900 56.74800 38.88900
H  7.51400 59.49600 39.44800
H  9.01800 60.48100 39.72300
H  8.54500 59.37600 40.93900
H  4.04900 58.13100 40.99600
H  2.85700 56.39200 43.03200
H  5.69200 58.54200 43.26900
H  4.01500 58.30800 43.79000
H  4.44600 59.43200 42.49500
H  2.08700 55.38500 40.48800
H  2.33700 57.09800 40.17500
H  0.68600 56.50800 42.48600
H  -0.20700 55.95800 41.07600
H  0.39000 57.66000 41.16000
H  1.67400 50.05500 42.99200
H  1.21100 51.68400 42.90200
H  2.17200 51.08300 44.41600
H  6.45700 47.94900 41.87400
H  6.22400 45.16200 38.63700
H  5.55500 46.59700 38.01200
H  4.45500 45.54600 38.93400

