158

Mg 0.09800 7.59800 26.87400
C  1.07400 9.90300 29.38100
C  -0.09200 5.14300 29.27800
C  -0.32100 5.47200 24.33200
C  0.85100 10.17600 24.50200
N  0.53100 7.50400 29.02700
C  0.71500 8.64300 29.83800
C  0.53600 8.24700 31.28900
C  0.45000 6.68900 31.28400
C  0.22400 6.44100 29.78700
C  1.72700 5.97400 31.75300
C  -0.69000 8.89400 32.00000
C  -0.64500 9.01100 33.56900
H  0.54400 8.63600 34.39200
N  -0.12300 5.53100 26.79200
C  -0.14100 4.68700 27.93800
C  -0.29000 3.29000 27.39600
C  -0.25100 3.38400 26.02000
C  -0.18000 4.86700 25.62900
C  -0.63600 2.11900 28.31200
C  -0.27400 2.26300 25.05000
O  -0.14600 2.48000 23.84700
C  -0.28700 0.81200 25.51800
N  -0.06100 7.81800 24.71500
C  -0.27600 6.75800 23.80400
C  -0.36500 7.22500 22.40200
C  0.18800 8.68000 22.50900
C  0.32400 8.93900 24.01200
C  0.41800 6.43900 21.35700
C  -0.66800 9.66400 21.67500
C  -1.82700 10.30000 22.45800
N  0.70700 9.55900 26.89200
C  0.88500 10.52400 25.87400
C  1.38100 11.75600 26.34300
C  1.49100 11.52100 27.72100
C  0.98300 10.21700 28.05200
C  1.74700 12.96900 25.54600
C  1.80700 12.19600 29.04700
O  2.33200 13.29800 29.23300
C  1.56300 11.12000 30.10300
C  2.81700 10.81700 30.85900
O  3.71100 10.04500 30.56500
O  2.89200 11.63900 31.92900
C  4.15200 11.65500 32.75000
H  -0.17600 4.37900 30.05300
H  -0.45800 4.71900 23.55200
H  1.09000 10.96300 23.78400
H  1.47700 8.58300 31.72500
H  -0.41200 6.24200 31.78000
H  2.41300 6.71700 32.15900
H  2.20700 5.76600 30.79700
H  1.66100 5.01600 32.26900
H  -1.46700 8.16300 31.77500
H  -1.08200 9.76100 31.46800
H  -1.57400 8.55900 33.91400
H  -0.71000 10.08600 33.73700
H  -1.59500 1.69300 28.01800
H  -0.70600 2.45200 29.34700
H  0.15100 1.36500 28.30300
H  -1.22000 0.56300 26.02100
H  0.55000 0.79100 26.21600
H  -0.09500 0.12000 24.69800
H  -1.38600 7.16300 22.02600
H  1.17800 8.77000 22.06000
H  0.61000 5.41200 21.66800
H  1.36000 6.96500 21.19900
H  -0.18800 6.24600 20.47200
H  -1.08500 9.11400 20.83300
H  -0.02200 10.50700 21.43100
H  -1.92000 9.85200 23.44700
H  -2.79000 10.32400 21.94800
H  -1.60000 11.35500 22.61200
H  2.49100 13.58900 26.04800
H  0.82400 13.50100 25.31800
H  2.20600 12.65100 24.61000
H  0.82100 11.51500 30.79700
H  4.94900 10.95700 32.49400
H  3.87100 11.43600 33.78000
H  4.62000 12.63100 32.61600
Mg 7.80900 3.34500 27.79400
C  8.93300 1.73400 30.80300
C  6.21300 5.58900 29.70300
C  6.76900 4.61900 24.94800
C  9.69300 0.93500 25.98300
N  7.55000 3.50900 30.04700
C  8.17000 2.81000 31.04200
C  7.94000 3.49200 32.42700
C  6.77100 4.53600 32.07700
C  6.87100 4.64700 30.52700
C  5.38700 4.17700 32.51800
C  9.23600 4.17000 33.06500
C  8.98200 4.85900 34.39700
H  9.87100 4.63400 35.60100
N  6.60000 4.94500 27.36200
C  5.98600 5.70200 28.29200
C  5.17800 6.67400 27.59700
C  5.44300 6.48500 26.16500
C  6.30400 5.35500 26.10800
C  4.41300 7.74100 28.31500
C  4.93900 7.35500 25.01300
O  5.22400 7.12400 23.82400
C  3.97900 8.45100 25.31600
N  8.03700 2.71200 25.74600
C  7.44900 3.41100 24.81200
C  7.64300 2.75400 23.41300
C  8.81100 1.78800 23.70400
C  8.93700 1.82400 25.23900
C  6.35500 1.97000 22.90900
C  10.15400 1.96000 22.94800
C  10.88700 0.66100 22.59400
N  8.94500 1.70000 28.23500
C  9.74800 0.91800 27.39000
C  10.44500 -0.06200 28.21000
C  10.18100 0.22500 29.50500
C  9.20400 1.28900 29.49000
C  11.31800 -1.16500 27.70000
C  10.46800 -0.17200 30.75500
O  11.18500 -1.09000 31.12600
C  9.76500 0.85000 31.69900
C  9.02700 0.10400 32.67400
O  7.96300 -0.57800 32.50400
O  9.67800 0.27800 33.82000
C  9.16100 -0.34500 35.02300
H  5.77200 6.31500 30.38800
H  6.30800 5.02900 24.04700
H  10.24100 0.17400 25.42200
H  7.68300 2.69300 33.12300
H  7.14000 5.38000 32.66000
H  5.44400 3.27400 33.12600
H  4.70100 4.04900 31.68000
H  5.13700 5.01700 33.16500
H  9.59800 4.97400 32.42500
H  9.96100 3.37200 33.22400
H  7.94400 4.79100 34.72400
H  9.09200 5.90900 34.12800
H  4.74200 8.76200 28.12200
H  4.56700 7.58500 29.38300
H  3.35400 7.60100 28.09700
H  3.88600 9.04000 24.40300
H  4.43700 9.09200 26.07000
H  3.00400 8.15900 25.70600
H  7.93900 3.53200 22.71000
H  8.46900 0.76600 23.54100
H  5.42700 2.27000 23.39600
H  6.44700 0.89600 22.74400
H  6.15800 2.29400 21.88700
H  10.82300 2.40900 23.68200
H  10.02500 2.54400 22.03700
H  11.75400 0.50700 23.23600
H  11.09400 0.52100 21.53300
H  10.16800 -0.14400 22.74100
H  12.07200 -1.45500 28.43100
H  11.85300 -0.83100 26.81000
H  10.70100 -1.95900 27.28000
H  10.56800 1.38200 32.21000
H  9.74700 -1.20100 35.35800
H  8.20500 -0.81800 34.80000
H  9.11900 0.46400 35.75400

