158

Mg -1.68700 17.53600 27.26800
C  -2.38800 15.12200 29.84300
C  -2.66100 19.96700 29.47500
C  -1.55900 19.76500 24.71900
C  -1.47800 14.97900 25.01200
N  -2.52800 17.45800 29.40100
C  -2.66300 16.44600 30.26400
C  -2.95600 17.01900 31.65400
C  -3.47600 18.44100 31.38500
C  -2.86700 18.65600 30.00500
C  -5.02500 18.61500 31.48400
C  -1.70400 16.79300 32.61900
C  -1.46900 17.74600 33.81900
H  -1.01500 17.17400 35.08600
N  -2.03400 19.63600 27.08700
C  -2.21400 20.41900 28.18100
C  -2.19900 21.76800 27.60000
C  -1.74200 21.77200 26.30400
C  -1.74900 20.37400 25.96300
C  -2.51800 22.94200 28.55400
C  -1.45000 22.93400 25.34100
O  -1.02000 22.78100 24.16500
C  -1.39900 24.44400 25.78900
N  -1.83200 17.48700 25.08800
C  -1.69400 18.52300 24.24100
C  -1.59700 17.93700 22.80400
C  -1.41900 16.43700 23.01800
C  -1.56100 16.27200 24.46700
C  -2.67400 18.57700 21.90500
C  -0.06300 15.90700 22.44500
C  -0.18400 14.64500 21.62800
N  -1.76700 15.51700 27.33800
C  -1.71100 14.63000 26.32200
C  -1.76300 13.26100 26.85200
C  -2.01700 13.43000 28.21900
C  -2.03600 14.83700 28.42600
C  -1.65000 12.01000 26.04100
C  -2.25700 12.73900 29.46200
O  -2.15700 11.52500 29.72200
C  -2.34300 13.80800 30.52500
C  -1.12800 13.78500 31.40500
O  -0.01300 14.23500 31.12200
O  -1.53400 13.33900 32.69800
C  -0.45100 13.34100 33.68200
H  -2.99600 20.68800 30.22400
H  -1.36100 20.46900 23.90800
H  -1.32100 14.19300 24.27000
H  -3.63700 16.24400 32.00600
H  -3.00300 19.21800 31.98500
H  -5.50500 18.53500 30.50900
H  -5.12400 19.65600 31.79100
H  -5.51700 17.97200 32.21300
H  -0.80800 16.74200 32.00100
H  -1.77300 15.79700 33.05600
H  -2.44700 18.22300 33.89400
H  -0.67200 18.43800 33.54900
H  -2.77800 22.72200 29.59000
H  -3.40900 23.46200 28.20200
H  -1.69400 23.65600 28.56200
H  -1.46700 24.50500 26.87500
H  -2.29000 24.92100 25.38000
H  -0.42800 24.82300 25.47200
H  -0.66200 18.40500 22.49700
H  -2.29800 15.89700 22.66600
H  -3.67600 18.31000 22.24200
H  -2.51300 18.09900 20.93900
H  -2.53100 19.65700 21.94200
H  0.67700 15.73700 23.22700
H  0.26800 16.68000 21.75100
H  -1.01600 13.97900 21.85800
H  0.64900 13.96900 21.82200
H  -0.11500 14.90900 20.57300
H  -0.76300 12.06000 25.41000
H  -2.50700 11.93100 25.37300
H  -1.55200 11.14100 26.69200
H  -3.27600 13.63300 31.06200
H  -0.10800 12.30600 33.71100
H  -0.86400 13.60900 34.65500
H  0.28300 14.12800 33.51100
Mg 54.14900 24.41300 45.16700
C  51.30100 26.35400 44.08600
C  52.57400 21.75000 43.56700
C  57.01200 22.79100 45.34700
C  55.55000 27.36400 46.14500
N  52.12400 24.08300 43.98100
C  51.25500 25.05800 43.58400
C  50.19900 24.40800 42.66900
C  50.30900 22.91600 43.07700
C  51.74900 22.87100 43.59400
C  49.19400 22.44800 44.06500
C  50.49900 24.76800 41.21600
C  49.36100 25.38900 40.42300
H  49.10300 24.79200 39.02800
N  54.71500 22.43900 44.58800
C  53.95600 21.52800 43.99100
C  54.64200 20.30300 43.89900
C  55.93400 20.49200 44.42900
C  55.99200 21.94300 44.77400
C  54.05800 18.98300 43.34000
C  56.93700 19.43800 44.68800
O  56.77100 18.26600 44.39600
C  58.29500 19.78900 45.13300
N  56.06200 25.04200 45.46200
C  57.07900 24.11600 45.63600
C  58.35100 24.88300 46.09600
C  57.86100 26.31800 46.49500
C  56.36800 26.24100 46.01500
C  59.32300 24.13100 47.17500
C  58.70200 27.42500 45.87800
C  58.98900 28.67900 46.66900
N  53.55900 26.42400 45.21000
C  54.18500 27.50200 45.79000
C  53.29900 28.66900 45.87000
C  52.16500 28.27000 45.20000
C  52.34300 26.93900 44.81300
C  53.58900 30.03700 46.37000
C  50.82300 28.61400 44.74100
O  50.18600 29.68000 44.74600
C  50.18600 27.38400 44.11500
C  49.78800 27.89900 42.73900
O  50.52200 28.36500 41.94100
O  48.45100 27.92900 42.66700
C  47.93800 28.68700 41.50200
H  51.95900 20.90500 43.25000
H  57.87700 22.26800 45.76100
H  55.89400 28.27900 46.63300
H  49.23100 24.82900 42.94100
H  50.18900 22.39900 42.12500
H  49.08600 21.37600 43.89900
H  48.34300 23.12500 43.99600
H  49.51400 22.56600 45.10100
H  50.79700 23.84500 40.71700
H  51.35800 25.43900 41.21900
H  49.50700 26.44600 40.20200
H  48.45700 25.27400 41.02200
H  53.00200 19.02100 43.07200
H  54.19700 18.08900 43.94800
H  54.61300 18.64300 42.46600
H  58.98300 18.94500 45.17900
H  58.31600 20.03200 46.19500
H  58.76200 20.55400 44.51200
H  59.01300 24.93200 45.23100
H  57.79400 26.33400 47.58300
H  60.29800 24.09900 46.69000
H  59.10000 23.11300 47.49400
H  59.41300 24.83600 48.00200
H  58.12700 27.78100 45.02400
H  59.68500 27.01000 45.65500
H  60.06800 28.72100 46.81300
H  58.42100 28.81100 47.59000
H  58.77900 29.61400 46.15100
H  53.64100 30.80200 45.59500
H  54.50900 30.06900 46.95300
H  52.76800 30.32500 47.02600
H  49.31500 27.02400 44.66300
H  46.88800 28.86800 41.73200
H  48.06700 28.18500 40.54300
H  48.37000 29.68700 41.45900

