158

Mg 16.97200 -1.74600 28.26800
C  15.66400 0.24800 30.63900
C  18.87400 -3.37300 30.60400
C  18.07600 -3.51300 25.72400
C  15.06900 0.21000 25.80100
N  17.29900 -1.53700 30.37200
C  16.55000 -0.67900 31.14800
C  16.96700 -0.75600 32.57200
C  18.16200 -1.80100 32.54400
C  18.10100 -2.34100 31.14900
C  19.54900 -1.23500 32.91200
C  15.81700 -1.13100 33.49300
C  15.92800 -0.58100 34.91900
H  17.32200 0.08900 35.34000
N  18.33100 -3.26000 28.20400
C  19.02800 -3.81500 29.28300
C  19.93800 -4.82500 28.75700
C  19.62200 -4.93100 27.32300
C  18.65300 -3.89600 26.99000
C  20.95200 -5.61600 29.65400
C  20.18700 -5.97100 26.41400
O  19.93400 -5.94800 25.21900
C  21.06900 -7.06300 26.85300
N  16.63200 -1.63800 26.05400
C  17.28800 -2.48600 25.23900
C  16.91000 -2.26400 23.76100
C  15.87200 -1.06200 23.85900
C  15.77700 -0.88000 25.38200
C  18.11800 -2.03600 22.81100
C  14.51000 -1.21800 23.09900
C  14.16900 -0.13000 22.06500
N  15.66200 -0.10200 28.22300
C  14.99700 0.62500 27.17800
C  14.35500 1.78600 27.76400
C  14.70100 1.72000 29.13700
C  15.32600 0.46800 29.32000
C  13.48000 2.85800 27.01900
C  14.47800 2.34500 30.39600
O  13.86300 3.41400 30.60500
C  15.08100 1.50400 31.42400
C  15.97500 2.45500 32.14900
O  17.14500 2.69000 31.84100
O  15.37400 2.94800 33.27400
C  16.16000 3.93800 34.00300
H  19.49900 -3.86200 31.35400
H  18.34000 -4.18400 24.90400
H  14.60500 0.88300 25.07800
H  17.35900 0.21000 32.89300
H  18.01800 -2.72700 33.10100
H  19.64100 -0.16200 32.74500
H  20.35400 -1.66500 32.31500
H  19.83100 -1.53500 33.92100
H  15.82100 -2.22100 33.50500
H  14.86100 -0.82400 33.06900
H  15.66100 -1.27700 35.71500
H  15.19600 0.22700 34.89100
H  21.20200 -4.88800 30.42600
H  21.72200 -5.92400 28.94800
H  20.42600 -6.47400 30.07200
H  21.10600 -7.88200 26.13400
H  20.48000 -7.48400 27.66800
H  22.07500 -6.70300 27.06800
H  16.34900 -3.16300 23.50400
H  16.34200 -0.14600 23.50100
H  18.90200 -2.66600 23.23200
H  18.44500 -0.99600 22.81400
H  17.81300 -2.20200 21.77800
H  13.65000 -1.28200 23.76500
H  14.49100 -2.14400 22.52300
H  13.83400 -0.66700 21.17800
H  15.12200 0.34100 21.82400
H  13.44200 0.61200 22.39400
H  13.81800 2.89100 25.98300
H  13.74800 3.86000 27.35600
H  12.40600 2.67900 26.97300
H  14.20700 1.23600 32.01800
H  16.62000 4.72700 33.40800
H  16.98700 3.51600 34.57500
H  15.40000 4.29200 34.69900
Mg -12.38200 17.46400 41.64100
C  -9.73400 15.16000 41.17500
C  -10.33600 19.88400 40.24700
C  -15.04300 19.39600 41.44100
C  -14.46600 14.63700 42.67900
N  -10.34400 17.39600 40.72400
C  -9.38800 16.46800 40.79500
C  -7.97800 17.02300 40.35800
C  -8.17600 18.54900 40.26700
C  -9.77900 18.63300 40.45800
C  -7.46800 19.44100 41.36100
C  -7.78800 16.41500 38.94900
C  -6.31600 16.02700 38.67600
H  -5.62800 16.77800 37.50000
N  -12.65300 19.44800 41.00100
C  -11.69500 20.22000 40.34700
C  -12.28600 21.41200 39.93400
C  -13.71300 21.38400 40.31200
C  -13.88100 20.00800 40.95800
C  -11.39500 22.53200 39.34400
C  -14.67900 22.45500 40.03400
O  -14.27400 23.42400 39.40200
C  -16.15600 22.38100 40.41200
N  -14.47100 17.01800 42.00800
C  -15.36600 18.08600 41.97300
C  -16.81600 17.57400 42.18400
C  -16.64000 16.10600 42.66400
C  -15.08100 15.91600 42.54900
C  -17.63500 18.45200 43.17500
C  -17.42300 15.02400 41.86100
C  -18.97300 15.11700 41.84700
N  -12.16600 15.31500 41.94600
C  -13.03800 14.34700 42.43200
C  -12.35400 13.05500 42.42400
C  -11.05900 13.28000 41.95700
C  -11.01000 14.69600 41.67500
C  -13.03500 11.78300 42.82600
C  -9.75300 12.67100 41.74000
O  -9.30200 11.55300 41.84100
C  -8.85600 13.87600 41.27700
C  -7.61200 14.14400 42.15800
O  -7.62500 14.24800 43.37400
O  -6.48800 14.20200 41.33600
C  -5.22500 14.49200 42.11400
H  -9.60600 20.60600 39.87600
H  -15.90600 20.06400 41.40200
H  -15.10000 13.85500 43.10300
H  -7.29200 16.68000 41.13300
H  -7.81600 18.97900 39.33200
H  -6.73800 18.86800 41.93100
H  -8.17900 20.01200 41.95900
H  -7.00600 20.19600 40.72600
H  -8.15400 17.11700 38.19900
H  -8.43800 15.59200 38.65000
H  -6.45300 14.96400 38.47400
H  -5.69500 16.13600 39.56600
H  -11.30100 22.33100 38.27700
H  -10.49100 22.46500 39.94800
H  -11.84200 23.49800 39.58000
H  -16.38700 22.26100 41.47100
H  -16.67700 21.62400 39.82600
H  -16.60100 23.28900 40.00400
H  -17.33700 17.58500 41.22700
H  -16.94800 16.02500 43.70600
H  -18.58000 18.64200 42.66700
H  -17.04000 19.33700 43.39900
H  -17.87700 17.98500 44.12900
H  -17.10900 14.08100 42.30800
H  -17.09300 15.02500 40.82300
H  -19.46400 15.28800 42.80500
H  -19.37700 14.23900 41.34400
H  -19.44000 15.86400 41.20500
H  -13.42800 11.87500 43.83800
H  -12.27800 11.01600 42.66600
H  -13.87300 11.43000 42.22600
H  -8.47700 13.61000 40.29000
H  -5.11100 15.57500 42.13800
H  -4.32000 14.24000 41.56200
H  -5.21800 13.99200 43.08300

