158

Mg 1.25500 8.12000 25.15100
C  1.79500 10.01800 28.03800
C  1.19700 5.29800 27.01200
C  1.07700 6.48300 22.25700
C  1.81800 11.23300 23.26900
N  1.83900 7.72500 27.27200
C  1.74000 8.65200 28.26300
C  1.72400 8.03100 29.67700
C  1.77600 6.50700 29.26900
C  1.53300 6.48100 27.72000
C  3.10100 5.73400 29.54700
C  0.44600 8.36100 30.51100
C  0.70300 8.34800 32.06900
H  1.97700 7.77000 32.61700
N  1.11300 6.14700 24.68100
C  1.09800 5.11400 25.60000
C  1.14800 3.86200 24.92800
C  0.93400 4.16000 23.49300
C  1.00700 5.62700 23.40000
C  1.19400 2.56500 25.72900
C  0.79600 3.24500 22.29000
O  0.99400 3.61700 21.12600
C  0.50100 1.75600 22.50100
N  1.48100 8.79900 23.04000
C  1.36600 7.87100 22.08500
C  1.23500 8.55500 20.73600
C  1.51100 10.09700 21.05200
C  1.68100 10.08800 22.54400
C  2.11100 7.91400 19.59300
C  0.39800 10.96200 20.50200
C  -0.97000 11.02300 21.22200
N  1.79400 10.22700 25.51900
C  1.80400 11.33600 24.68600
C  1.91000 12.51300 25.50700
C  1.92800 12.00400 26.84800
C  1.86200 10.64700 26.77500
C  1.91900 13.94200 25.11000
C  1.91900 12.44300 28.27900
O  1.85800 13.51500 28.83000
C  1.76300 11.13800 29.08900
C  2.98700 11.25200 29.91800
O  4.13100 11.09000 29.47400
O  2.59900 11.38100 31.22300
C  3.78000 11.72000 32.08600
H  1.11500 4.37600 27.59200
H  0.97200 5.88200 21.35100
H  1.69000 12.17200 22.72500
H  2.66800 8.39500 30.08300
H  1.08500 5.90500 29.85700
H  3.02700 4.98000 30.33000
H  3.87500 6.37700 29.96800
H  3.39700 5.13000 28.68900
H  -0.24800 7.55800 30.26300
H  -0.07500 9.26400 30.19200
H  -0.14100 7.75100 32.41600
H  0.55900 9.38400 32.37500
H  1.31400 1.59200 25.25300
H  0.19700 2.55600 26.16900
H  1.95400 2.54400 26.51000
H  1.22000 1.25600 23.14900
H  0.52200 1.17700 21.57800
H  -0.44200 1.45000 22.95200
H  0.20700 8.34800 20.43600
H  2.44100 10.40000 20.57100
H  2.96300 7.36600 19.99400
H  2.44000 8.73900 18.96000
H  1.50900 7.25400 18.96800
H  0.25600 10.49100 19.52900
H  0.78900 11.96500 20.33100
H  -1.72100 11.21800 20.45600
H  -0.90300 11.71300 22.06300
H  -1.24800 10.09100 21.71600
H  0.96500 14.31700 25.48000
H  2.00400 14.02700 24.02600
H  2.80400 14.45300 25.48800
H  0.84400 11.32400 29.64500
H  4.24500 10.80600 32.45500
H  3.57800 12.24800 33.01800
H  4.46800 12.34500 31.51700
Mg 24.32700 -5.58900 46.16000
C  26.90600 -3.53800 44.80800
C  22.06700 -4.07000 44.02600
C  22.18600 -8.13100 46.68600
C  26.81900 -7.47300 47.79600
N  24.58100 -4.09000 44.51900
C  25.68100 -3.36100 44.17900
C  25.31100 -2.42500 42.94200
C  23.71600 -2.36800 42.95100
C  23.40500 -3.60500 43.96200
C  23.18900 -0.94200 43.30200
C  25.90100 -2.96700 41.68200
C  26.96400 -2.14400 40.82300
H  26.93000 -2.30300 39.36300
N  22.31600 -5.89900 45.61100
C  21.56800 -5.16300 44.69600
C  20.23400 -5.70800 44.64600
C  20.26900 -6.89400 45.46400
C  21.66700 -7.03000 45.92400
C  19.05700 -5.15200 43.86700
C  19.04000 -7.70700 45.76900
O  17.93400 -7.34100 45.30000
C  19.05200 -8.95200 46.64500
N  24.47900 -7.55400 47.08700
C  23.40700 -8.37900 47.23400
C  23.73900 -9.72300 48.04100
C  25.22600 -9.37900 48.39300
C  25.54300 -8.05600 47.73200
C  22.82700 -9.95200 49.22900
C  26.13700 -10.52100 47.87900
C  26.81400 -11.30700 48.95200
N  26.43300 -5.55400 46.35200
C  27.24200 -6.24000 47.19200
C  28.53300 -5.63200 47.23500
C  28.41100 -4.54000 46.33100
C  27.14900 -4.57900 45.77100
C  29.70000 -6.04300 48.08500
C  29.17700 -3.44600 45.71900
O  30.27400 -3.01400 45.86000
C  28.18000 -2.71000 44.66500
C  27.81900 -1.35500 45.09800
O  28.04200 -0.31800 44.41800
O  27.14100 -1.37800 46.25800
C  26.24100 -0.17200 46.59100
H  21.31600 -3.48500 43.49000
H  21.46100 -8.81200 47.13800
H  27.62700 -7.97600 48.33200
H  25.70100 -1.41700 43.07700
H  23.26600 -2.48700 41.96500
H  22.23300 -1.01200 42.78400
H  23.70100 -0.18300 42.71000
H  23.24500 -0.74400 44.37200
H  25.07200 -3.15400 41.00000
H  26.35900 -3.94400 41.83900
H  27.94900 -2.25900 41.27500
H  26.69900 -1.12800 41.11300
H  19.34000 -4.34000 43.19700
H  18.26300 -4.80500 44.52800
H  18.69100 -5.98000 43.25900
H  19.46500 -9.80800 46.11200
H  17.98200 -9.00000 46.84800
H  19.56800 -8.70300 47.57200
H  23.64200 -10.49600 47.27800
H  25.36400 -9.16300 49.45200
H  21.78700 -9.80400 48.93700
H  23.11400 -9.27400 50.03200
H  22.83500 -10.99500 49.54700
H  26.97000 -10.12500 47.29700
H  25.71500 -11.30400 47.24800
H  26.19700 -12.17600 49.17900
H  26.81700 -10.73200 49.87800
H  27.82000 -11.51700 48.58900
H  29.58200 -6.02400 49.16900
H  30.54400 -5.37200 47.92800
H  30.03800 -7.01300 47.72000
H  28.56500 -2.64100 43.64800
H  25.41000 0.02200 45.91300
H  26.77800 0.77500 46.63600
H  25.69400 -0.38600 47.50900

