158

Mg -10.96700 39.60900 40.82500
C  -9.82400 36.44500 39.65300
C  -7.95600 40.96800 39.85700
C  -12.42000 42.55200 41.14500
C  -14.00000 38.02000 41.88700
N  -9.17900 38.76700 39.63200
C  -8.91900 37.46700 39.46200
C  -7.44200 37.25900 39.07100
C  -6.79600 38.66000 39.48100
C  -8.03800 39.50400 39.63800
C  -5.89900 38.67500 40.74800
C  -7.08800 36.80400 37.61600
C  -8.09100 37.23200 36.54200
H  -8.66600 36.12900 35.70200
N  -10.25800 41.54600 40.71000
C  -9.04700 41.85200 40.15600
C  -8.96300 43.32400 40.06500
C  -10.29300 43.83000 40.31500
C  -11.07600 42.63000 40.74500
C  -7.68400 43.96200 39.80000
C  -10.74500 45.23200 40.05700
O  -9.88900 46.03900 39.65500
C  -12.21600 45.62000 40.07400
N  -12.86500 40.21100 41.56400
C  -13.22500 41.52000 41.57500
C  -14.68100 41.60600 42.05400
C  -15.08800 40.24100 42.53700
C  -13.91700 39.40300 41.89000
C  -15.00300 42.82800 43.02500
C  -16.48600 39.88000 41.93100
C  -17.58200 39.61900 42.98800
N  -11.77400 37.63100 40.83700
C  -13.00200 37.14100 41.33700
C  -12.97100 35.64300 41.11100
C  -11.76500 35.36300 40.40800
C  -11.08100 36.60000 40.29300
C  -14.06000 34.75900 41.59000
C  -10.93700 34.31700 39.85500
O  -11.10300 33.09400 39.82500
C  -9.57500 34.98400 39.47400
C  -8.59500 34.52500 40.44100
O  -8.49700 34.76800 41.68400
O  -7.72000 33.65900 39.76700
C  -6.80200 32.85500 40.64500
H  -6.97400 41.29900 39.51500
H  -13.02800 43.44400 41.30900
H  -14.92800 37.50700 42.14900
H  -7.01900 36.52000 39.75200
H  -6.05900 38.98400 38.74600
H  -5.65400 37.63200 40.95000
H  -6.49400 39.13200 41.53900
H  -5.02600 39.31800 40.63300
H  -6.82000 35.74800 37.59000
H  -6.09600 37.12800 37.30100
H  -7.49400 37.79100 35.82200
H  -8.96100 37.76100 36.92900
H  -7.77000 45.04200 39.91100
H  -7.25900 43.77000 38.81500
H  -7.02100 43.57000 40.57100
H  -12.70600 45.79400 41.03200
H  -12.71500 44.85700 39.47600
H  -12.25500 46.60200 39.60100
H  -15.13600 41.79000 41.08100
H  -14.92200 40.21400 43.61400
H  -15.10500 43.73400 42.42700
H  -14.13600 42.99300 43.66500
H  -15.85300 42.59000 43.66500
H  -16.36700 38.93100 41.41000
H  -16.76500 40.61300 41.17300
H  -17.14200 39.73300 43.97900
H  -18.04500 38.63300 43.02300
H  -18.41100 40.31300 42.85400
H  -14.74300 35.20900 42.31100
H  -13.68700 33.86100 42.08200
H  -14.84100 34.45700 40.89100
H  -9.34200 34.68800 38.45200
H  -5.77000 32.99000 40.32300
H  -6.95100 31.77600 40.59200
H  -6.65300 33.32700 41.61600
Mg -0.35800 43.62400 26.95000
C  1.49400 43.48800 30.00800
C  -3.20600 42.92200 28.69600
C  -1.68000 42.67500 24.13600
C  2.73700 44.25300 25.36200
N  -0.83900 43.31800 29.03700
C  0.06800 43.39800 30.12700
C  -0.69500 43.42400 31.45300
C  -2.17500 43.10300 31.01700
C  -2.10800 43.13000 29.50700
C  -2.71000 41.71400 31.64800
C  -0.56200 44.85500 32.15100
C  -0.59700 44.95200 33.69400
H  -0.72400 43.65700 34.54600
N  -2.19900 42.95100 26.37500
C  -3.23600 42.81900 27.25200
C  -4.44100 42.46500 26.43300
C  -4.04300 42.39500 25.09900
C  -2.57400 42.63900 25.12800
C  -5.82200 42.24000 27.03400
C  -4.89200 42.12500 23.91500
O  -4.28900 41.83000 22.88100
C  -6.44600 42.04500 23.90800
N  0.37600 43.56900 25.06900
C  -0.40500 43.14100 24.03700
C  0.41600 43.25000 22.71800
C  1.70800 44.05500 23.16400
C  1.58700 44.00400 24.62900
C  0.72000 41.88400 21.96700
C  1.83200 45.49400 22.52700
C  2.11100 45.47300 21.00400
N  1.76900 43.83700 27.55700
C  2.83700 44.13600 26.77300
C  4.00300 44.22100 27.60400
C  3.56700 43.93100 28.91200
C  2.14000 43.68800 28.79200
C  5.51400 44.36500 27.25400
C  3.94600 43.65400 30.23800
O  5.13400 43.55400 30.59200
C  2.60700 43.51500 31.07900
C  2.63100 42.18600 31.71400
O  2.43700 41.10600 31.09200
O  3.00900 42.26800 33.03400
C  2.65300 41.10500 33.89700
H  -4.16600 42.80300 29.20300
H  -2.02700 42.43900 23.12800
H  3.64900 44.51600 24.82300
H  -0.37300 42.58400 32.06900
H  -2.83600 43.91000 31.33200
H  -1.83800 41.20500 32.05900
H  -3.09800 41.08100 30.85000
H  -3.32200 41.89900 32.53000
H  -1.39100 45.44500 31.76200
H  0.32800 45.31600 31.72300
H  -1.41500 45.63300 33.92700
H  0.34100 45.40900 34.01100
H  -6.38200 43.06200 26.58700
H  -5.80400 42.32400 28.12100
H  -6.34200 41.32800 26.74000
H  -6.86900 42.30000 22.93600
H  -6.92200 42.83500 24.49000
H  -6.70800 41.03700 24.23000
H  -0.06100 43.88400 21.97000
H  2.63600 43.53200 22.93500
H  0.34900 41.09600 22.62200
H  1.79600 41.80900 21.81200
H  0.19200 41.95000 21.01500
H  2.58100 46.15600 22.96000
H  0.87600 46.00500 22.63800
H  2.95200 46.15500 20.88000
H  1.27500 45.89200 20.44500
H  2.25300 44.46300 20.62100
H  6.06300 43.53900 26.80100
H  6.01600 44.47500 28.21500
H  5.71100 45.27100 26.68100
H  2.65000 44.32300 31.80900
H  1.61100 40.81500 33.76900
H  2.72800 41.32400 34.96200
H  3.43000 40.34500 33.81400

