158

Mg 47.29700 24.72800 28.42100
C  47.95400 27.09900 31.10200
C  46.35400 22.46800 30.96500
C  46.72000 22.45300 26.10300
C  48.52700 26.94900 26.20700
N  47.15400 24.84200 30.77800
C  47.40400 25.92400 31.60400
C  47.14800 25.55200 33.06200
C  46.87900 23.93100 33.00900
C  46.77000 23.68900 31.49000
C  48.02100 23.06600 33.54400
C  46.07800 26.34500 33.78200
C  45.72200 25.92400 35.23400
H  45.46500 26.90100 36.40700
N  46.56100 22.71900 28.53400
C  46.24500 22.02000 29.65300
C  45.84100 20.71200 29.24500
C  46.08700 20.61500 27.87600
C  46.44400 21.94800 27.44000
C  45.46600 19.58600 30.24400
C  45.86300 19.48000 26.92000
O  46.08900 19.67500 25.75200
C  45.31900 18.13300 27.37400
N  47.50600 24.74200 26.40300
C  47.17200 23.74800 25.63300
C  47.47600 24.07500 24.14100
C  47.85900 25.58400 24.26100
C  48.03200 25.79500 25.70800
C  48.59600 23.15500 23.47900
C  46.79000 26.44400 23.49500
C  47.29700 27.24300 22.22200
N  48.16600 26.55900 28.57200
C  48.63600 27.37000 27.52200
C  49.16300 28.61800 28.03900
C  48.91800 28.55200 29.46400
C  48.30900 27.29200 29.71700
C  49.79200 29.68600 27.17300
C  49.04400 29.25900 30.72500
O  49.52600 30.34500 31.05100
C  48.33500 28.39300 31.84800
C  49.24600 28.31000 32.95300
O  50.39400 27.94800 32.95400
O  48.66100 28.70300 34.03600
C  49.21000 28.21900 35.31900
H  46.09800 21.69300 31.69000
H  46.54300 21.69600 25.33600
H  48.78000 27.61600 25.38100
H  48.07000 25.85700 33.55500
H  45.91400 23.73800 33.47900
H  48.70500 23.66400 34.14500
H  48.60000 22.62700 32.73100
H  47.58500 22.25200 34.12300
H  45.16000 26.28600 33.19700
H  46.47600 27.36000 33.77500
H  46.51300 25.22200 35.49700
H  44.81300 25.34100 35.08800
H  46.30000 18.97600 30.58900
H  44.83000 18.84800 29.75600
H  44.82800 19.93100 31.05900
H  45.87200 17.78000 28.24500
H  45.51100 17.46600 26.53300
H  44.28900 18.28900 27.69300
H  46.54900 23.86500 23.60700
H  48.84500 25.72000 23.81800
H  49.57000 23.64500 23.47700
H  48.37000 23.06500 22.41600
H  48.60700 22.10500 23.77200
H  46.39900 27.16500 24.21300
H  46.02300 25.79300 23.07700
H  46.84700 26.63800 21.43600
H  48.38000 27.12700 22.22700
H  46.97700 28.27900 22.33800
H  50.60000 29.96000 27.85200
H  49.10900 30.50300 26.93800
H  50.24400 29.22900 26.29300
H  47.44500 28.95100 32.13700
H  49.43900 29.08100 35.94500
H  50.10600 27.60900 35.20300
H  48.40600 27.61300 35.73600
Mg -4.60400 25.72100 26.07400
C  -3.10400 27.07300 29.03000
C  -6.20200 23.45200 28.12400
C  -5.60800 24.28900 23.34200
C  -2.35800 27.83400 24.20900
N  -4.65300 25.34000 28.29400
C  -4.05500 26.06400 29.27500
C  -4.53800 25.62400 30.70600
C  -5.28300 24.26700 30.33100
C  -5.40900 24.33700 28.79800
C  -4.64100 22.90300 30.77200
C  -5.40300 26.69500 31.38100
C  -5.05200 27.21100 32.79200
H  -4.51700 26.22300 33.81200
N  -5.72800 24.19800 25.77700
C  -6.30300 23.41200 26.71400
C  -7.14900 22.33900 26.04800
C  -7.06600 22.55100 24.68700
C  -6.07900 23.68400 24.58300
C  -8.00500 21.37700 26.92100
C  -7.73900 21.79100 23.49800
O  -7.60300 22.08100 22.32200
C  -8.58800 20.65400 23.78500
N  -4.01600 25.97300 24.08400
C  -4.69100 25.30600 23.12800
C  -4.28800 25.78500 21.71500
C  -3.15500 26.90100 22.02800
C  -3.16100 26.90200 23.52300
C  -3.58800 24.66200 20.87000
C  -3.42400 28.32200 21.31300
C  -2.54800 28.61100 20.09500
N  -3.05600 27.18700 26.49200
C  -2.35700 28.00500 25.61800
C  -1.64000 29.01600 26.33200
C  -1.92100 28.74900 27.68000
C  -2.82200 27.61900 27.73300
C  -0.88700 30.25900 25.76900
C  -1.68600 29.15800 29.01400
O  -0.96500 30.07600 29.43600
C  -2.45600 28.13800 29.92100
C  -1.44600 27.49500 30.78000
O  -0.43300 26.93500 30.39200
O  -1.73800 27.69100 32.11800
C  -0.63900 27.37400 33.09900
H  -6.81400 22.79100 28.74000
H  -5.90500 23.70300 22.46900
H  -1.75700 28.46100 23.54800
H  -3.58600 25.49700 31.22300
H  -6.31000 24.21800 30.69300
H  -4.05200 22.63100 29.89600
H  -5.39500 22.14600 30.98900
H  -3.91600 23.02300 31.57700
H  -6.45900 26.42900 31.42800
H  -5.37900 27.59200 30.76300
H  -5.99500 27.60800 33.16800
H  -4.39300 28.07600 32.71600
H  -7.44900 20.95400 27.75800
H  -8.15600 20.46700 26.34100
H  -9.01000 21.78500 27.02600
H  -9.05700 20.39600 22.83500
H  -9.34400 21.15000 24.39400
H  -8.05100 19.84400 24.27800
H  -5.11000 26.13400 21.09000
H  -2.16700 26.50600 21.79600
H  -4.22300 24.56600 19.98900
H  -3.55700 23.69700 21.37500
H  -2.53200 24.85000 20.67700
H  -3.18100 29.07900 22.05800
H  -4.47800 28.49800 21.09700
H  -2.03500 29.57000 20.16500
H  -3.19700 28.73600 19.22800
H  -1.76600 27.92000 19.77800
H  -1.48800 31.13000 25.50700
H  -0.24900 30.14000 24.89300
H  -0.30000 30.55500 26.63800
H  -3.18100 28.53800 30.63000
H  -0.84100 26.30700 33.18400
H  -0.72200 27.82600 34.08700
H  0.37800 27.56800 32.75900

