158

Mg -1.67600 17.76500 27.94000
C  -2.00100 15.62700 30.64300
C  -2.19900 20.44600 30.05900
C  -1.26900 19.89000 25.34700
C  -1.47000 15.03900 25.82200
N  -2.10100 17.96200 30.08500
C  -2.15600 16.94200 30.98700
C  -2.52800 17.41800 32.42500
C  -2.57100 18.97900 32.18500
C  -2.37800 19.15100 30.62400
C  -3.84600 19.66400 32.76900
C  -1.57300 17.01100 33.65800
C  -1.53800 17.82700 34.99300
H  -0.39000 17.40800 35.99000
N  -1.77000 19.86100 27.63600
C  -1.91700 20.78300 28.72300
C  -1.84300 22.09600 28.19400
C  -1.75000 21.98800 26.78400
C  -1.57600 20.54300 26.51800
C  -2.09800 23.36400 29.01500
C  -1.81800 23.10000 25.70500
O  -1.64000 22.87900 24.47500
C  -2.13800 24.51600 26.19600
N  -1.42500 17.48800 25.87000
C  -1.33900 18.51300 24.97100
C  -1.20200 17.96600 23.53300
C  -0.98600 16.39800 23.75100
C  -1.30100 16.26100 25.21800
C  -2.46400 18.41900 22.70500
C  0.27800 15.72200 23.29900
C  1.49500 15.85100 24.22500
N  -1.83200 15.77500 28.14300
C  -1.68300 14.77600 27.17900
C  -1.66900 13.58900 27.86300
C  -1.74200 13.81800 29.22100
C  -1.88400 15.20100 29.33000
C  -1.42500 12.27600 27.24800
C  -1.78900 13.19100 30.55200
O  -1.72400 11.97900 30.91200
C  -2.00400 14.37200 31.52100
C  -0.80200 14.30200 32.45600
O  0.27800 14.75100 32.25400
O  -1.29100 13.58900 33.57600
C  -0.23800 13.08700 34.54100
H  -2.46900 21.21300 30.78800
H  -1.00700 20.45700 24.45100
H  -1.27600 14.18900 25.16500
H  -3.52900 17.06200 32.67000
H  -1.69400 19.34300 32.71900
H  -3.72800 20.63700 33.24700
H  -4.43800 18.97900 33.37500
H  -4.47100 19.84200 31.89400
H  -0.58200 16.92900 33.21000
H  -1.76400 16.03600 34.10700
H  -2.40400 17.42300 35.51600
H  -1.76900 18.89200 35.01200
H  -2.33800 23.08800 30.04100
H  -2.92300 23.89500 28.54000
H  -1.20200 23.98400 28.99400
H  -3.18500 24.47300 26.49400
H  -2.13400 25.22800 25.37100
H  -1.36600 24.88300 26.87300
H  -0.35300 18.33800 22.96100
H  -1.71900 15.83900 23.16900
H  -2.94800 19.27900 23.16900
H  -3.17100 17.58900 22.70200
H  -2.07000 18.64800 21.71500
H  0.49000 15.98300 22.26200
H  -0.00800 14.68100 23.15100
H  1.38900 16.21200 25.24800
H  1.98200 16.62400 23.63200
H  2.15800 14.99100 24.12300
H  -0.73400 12.31600 26.40500
H  -2.41700 12.02300 26.87400
H  -1.01500 11.53700 27.93600
H  -2.98000 14.33500 32.00400
H  -0.24800 11.99800 34.51500
H  -0.49300 13.37900 35.56000
H  0.71700 13.57100 34.33600
Mg 25.78100 0.97300 28.65600
C  27.65500 0.67800 31.58800
C  23.07000 1.69000 30.63700
C  23.97100 1.19400 25.86300
C  28.50300 -0.12600 26.81200
N  25.42000 1.08900 30.89600
C  26.34800 0.96200 31.87100
C  25.76400 1.21700 33.32300
C  24.28100 1.59700 32.97600
C  24.22100 1.44500 31.39500
C  23.31300 0.78200 33.90700
C  26.46300 2.36400 34.13200
C  25.85600 2.76600 35.46200
H  26.51200 2.18100 36.69500
N  23.78400 1.33300 28.32000
C  22.84200 1.66000 29.29000
C  21.60300 1.92700 28.58800
C  21.86900 1.86200 27.20700
C  23.25600 1.40800 27.04100
C  20.26000 2.31300 29.30500
C  20.93400 2.30600 26.08600
O  21.19800 2.05400 24.92400
C  19.67200 3.06000 26.42600
N  26.15300 0.43600 26.71300
C  25.29100 0.77600 25.78700
C  25.90600 0.54000 24.39900
C  27.37000 0.16000 24.67800
C  27.36000 0.18400 26.15800
C  25.26000 -0.41600 23.42600
C  28.33600 1.21700 23.97300
C  28.77300 2.50700 24.67500
N  27.68400 0.45600 29.03400
C  28.64500 -0.00100 28.18600
C  29.82300 -0.30800 28.89600
C  29.57100 0.01900 30.26000
C  28.20100 0.38900 30.27900
C  31.10600 -0.81600 28.26900
C  30.11200 0.11700 31.62900
O  31.24600 -0.08500 32.02200
C  28.87300 0.48000 32.55900
C  28.60300 -0.59300 33.53700
O  27.82000 -1.53800 33.40000
O  29.47200 -0.59300 34.58300
C  29.69200 -1.82900 35.40300
H  22.22400 2.01200 31.24900
H  23.46800 1.17700 24.89400
H  29.25500 -0.54100 26.13700
H  25.83200 0.30400 33.91500
H  24.06800 2.63000 33.25100
H  23.11600 1.21500 34.88700
H  23.75900 -0.20600 34.02300
H  22.34400 0.59700 33.44300
H  26.64000 3.15900 33.40800
H  27.45700 1.99100 34.37700
H  24.79900 2.53900 35.32100
H  25.94600 3.84000 35.62700
H  20.24100 2.13700 30.38100
H  19.48300 1.67100 28.89000
H  20.09200 3.36500 29.07400
H  19.79800 4.02100 26.92600
H  19.02500 2.33700 26.92300
H  19.24400 3.32900 25.46100
H  25.77400 1.48600 23.87300
H  27.64800 -0.82800 24.31100
H  24.67100 -1.10500 24.03100
H  25.92400 -0.96800 22.76000
H  24.62500 0.11200 22.71500
H  27.99400 1.50500 22.97900
H  29.27900 0.71300 23.75900
H  28.10300 2.88200 25.44900
H  28.91900 3.32200 23.96700
H  29.75200 2.30000 25.11000
H  31.76600 -0.04400 27.87500
H  30.88900 -1.55600 27.49800
H  31.66900 -1.27100 29.08400
H  29.20800 1.45400 32.91700
H  28.96600 -1.98300 36.20100
H  30.64600 -1.80700 35.93000
H  29.57900 -2.64200 34.68600

