158

Mg 23.78700 -5.26900 45.95200
C  26.05800 -2.93900 44.45500
C  21.48400 -4.26800 43.65000
C  21.96100 -7.88300 46.89100
C  26.63700 -6.66900 47.64300
N  23.80100 -3.74300 44.36000
C  24.79800 -2.88500 43.84700
C  24.31100 -2.19600 42.54100
C  22.80800 -2.43800 42.54300
C  22.65800 -3.56800 43.62500
C  21.96800 -1.15800 42.86400
C  25.04600 -2.74200 41.26000
C  25.89900 -1.88000 40.33500
H  25.62700 -1.81200 38.82000
N  21.88000 -5.96400 45.34800
C  21.06800 -5.32100 44.46500
C  19.77900 -6.01400 44.49500
C  19.91200 -7.08000 45.50200
C  21.28000 -7.04300 45.98200
C  18.57400 -5.61200 43.76300
C  18.73000 -8.00800 45.90200
O  17.60600 -7.97400 45.36900
C  18.86100 -9.02300 46.98700
N  24.15500 -6.92400 47.18400
C  23.20500 -7.88900 47.40100
C  23.77500 -9.01900 48.32700
C  25.28300 -8.58400 48.57200
C  25.33200 -7.27700 47.81700
C  22.90200 -9.32500 49.60000
C  26.37400 -9.66700 48.20100
C  27.59600 -9.46400 49.06200
N  25.84500 -4.83500 46.20600
C  26.83300 -5.47700 46.96800
C  28.08700 -4.80900 46.73400
C  27.87000 -3.83100 45.80500
C  26.49300 -3.84300 45.47200
C  29.31100 -5.21600 47.39600
C  28.46000 -2.81900 45.02300
O  29.60100 -2.32900 45.03300
C  27.33600 -2.21100 44.08200
C  27.27300 -0.74400 44.09200
O  26.80400 -0.09100 45.01600
O  27.76900 -0.24000 42.90600
C  27.78800 1.24000 42.80500
H  20.69500 -3.87100 43.00800
H  21.29400 -8.69200 47.19500
H  27.53500 -7.09100 48.09800
H  24.52200 -1.13500 42.67500
H  22.41700 -2.78400 41.58600
H  21.61800 -1.36900 43.87500
H  21.23300 -1.10800 42.06100
H  22.54700 -0.27000 43.12000
H  24.32900 -3.43200 40.81600
H  25.76700 -3.46900 41.63500
H  26.89600 -2.31800 40.36300
H  25.82800 -0.85300 40.69500
H  17.77400 -5.26100 44.41400
H  18.16200 -6.47300 43.23600
H  18.85800 -4.82100 43.06900
H  19.30500 -8.57500 47.87600
H  19.38600 -9.91300 46.63900
H  17.87500 -9.34600 47.32000
H  23.66000 -9.95000 47.77200
H  25.37800 -8.22400 49.59600
H  21.95400 -8.83300 49.37900
H  23.33000 -8.96800 50.53700
H  22.73200 -10.40100 49.62300
H  26.68700 -9.65300 47.15700
H  25.99000 -10.63700 48.51600
H  27.63100 -10.14500 49.91200
H  27.58300 -8.49600 49.56200
H  28.52800 -9.60900 48.51500
H  29.17400 -5.37200 48.46600
H  30.09900 -4.46300 47.36100
H  29.59500 -6.13000 46.87500
H  27.70900 -2.50200 43.10100
H  28.66600 1.62800 42.28900
H  27.75900 1.67900 43.80200
H  26.98700 1.57900 42.14700
Mg 36.17400 48.91200 26.61800
C  36.56300 46.76700 29.44500
C  35.09100 51.31700 28.72000
C  35.31500 50.55400 23.97300
C  37.12300 46.11000 24.63400
N  35.75700 49.02100 28.80600
C  36.07200 48.06200 29.78100
C  35.92000 48.67900 31.20100
C  34.99700 49.93300 30.90600
C  35.27600 50.14800 29.38200
C  33.46500 49.78200 31.13200
C  37.27200 49.10500 31.83300
C  37.55300 48.61300 33.30500
H  36.43600 48.61900 34.28700
N  35.46000 50.75300 26.38700
C  35.08500 51.60800 27.36500
C  34.81500 52.89500 26.66000
C  34.90300 52.73700 25.29500
C  35.20700 51.30700 25.16600
C  34.57800 54.19000 27.44500
C  34.77900 53.79600 24.20000
O  35.06900 53.56600 23.02200
C  34.06300 55.13400 24.54600
N  36.39000 48.39000 24.62300
C  35.78500 49.26300 23.65300
C  35.94100 48.63900 22.24000
C  36.66300 47.29700 22.41100
C  36.74700 47.26900 23.97800
C  34.63600 48.54000 21.42700
C  38.03000 47.06800 21.68200
C  39.26000 47.72200 22.26900
N  36.83600 46.86100 26.94500
C  37.23400 45.91900 26.06300
C  37.56100 44.67900 26.68700
C  37.38900 44.99500 28.06200
C  36.82500 46.29300 28.11400
C  38.00100 43.43000 25.96500
C  37.40700 44.50600 29.40100
O  37.63000 43.36800 29.75500
C  36.90300 45.57600 30.41400
C  35.70000 45.10500 31.12600
O  34.88200 44.38200 30.65400
O  35.77200 45.35200 32.48900
C  34.63600 44.80000 33.28500
H  34.78500 52.22100 29.25100
H  35.12400 51.04700 23.01800
H  37.25100 45.27000 23.94900
H  35.38600 47.96700 31.83100
H  35.34900 50.85600 31.36700
H  32.87300 50.37300 30.43400
H  33.20900 50.34300 32.03100
H  33.15600 48.73900 31.20700
H  37.38600 50.17200 32.02300
H  37.96300 48.62700 31.13800
H  38.34700 49.24800 33.70000
H  37.97300 47.61300 33.19900
H  35.22700 54.98500 27.07800
H  34.90700 53.97300 28.46200
H  33.50800 54.38700 27.50100
H  33.49700 55.56200 23.71900
H  34.62900 55.88600 25.09600
H  33.33900 54.85600 25.31300
H  36.47100 49.36900 21.62800
H  36.09600 46.39900 22.16300
H  34.20800 47.54500 21.31000
H  34.74300 49.08000 20.48600
H  33.85000 49.06600 21.96900
H  37.99100 47.13400 20.59500
H  38.25800 46.01400 21.84400
H  39.69800 48.37200 21.51100
H  39.92400 46.95400 22.66700
H  39.01600 48.42400 23.06600
H  38.36200 43.70500 24.97400
H  37.18000 42.71300 26.00300
H  38.82700 43.01700 26.54400
H  37.65800 45.91700 31.12200
H  34.52600 45.53900 34.07900
H  34.81500 43.82800 33.74500
H  33.71500 44.74900 32.70400

