158

Mg 48.74200 34.61500 26.15600
C  46.59700 33.35400 28.75100
C  49.00600 37.38100 27.98200
C  50.36400 35.95100 23.59600
C  47.74200 31.89800 24.16500
N  48.06300 35.20700 28.15000
C  47.33100 34.49500 29.05100
C  47.57700 35.02700 30.46200
C  47.95200 36.53300 30.15100
C  48.43700 36.37000 28.67200
C  46.64400 37.44400 30.14400
C  48.68400 34.28300 31.32800
C  48.67200 34.51300 32.89400
H  47.49600 35.38800 33.45100
N  49.60800 36.38100 25.84900
C  49.57500 37.41500 26.71600
C  50.29500 38.54500 26.16000
C  50.64400 38.12700 24.84100
C  50.24000 36.76300 24.73700
C  50.51600 39.88900 26.89300
C  51.39500 38.91500 23.75100
O  51.79500 38.44400 22.72700
C  51.27700 40.36700 23.89200
N  49.01500 33.97900 24.14400
C  49.81900 34.68700 23.35100
C  50.11800 33.87400 22.04300
C  49.22900 32.63500 22.21000
C  48.67500 32.81200 23.60800
C  49.89600 34.68900 20.81000
C  49.95200 31.19500 22.16500
C  49.34900 30.16000 21.16700
N  47.47400 32.96700 26.35900
C  47.19900 31.94300 25.46800
C  46.24000 31.04600 26.14600
C  45.96200 31.54700 27.38100
C  46.74500 32.71500 27.45400
C  45.77300 29.79900 25.48600
C  45.27500 31.34500 28.60000
O  44.47300 30.46400 28.85400
C  45.77800 32.48500 29.62300
C  46.48200 31.77200 30.68800
O  47.32300 30.94300 30.47900
O  46.08400 32.17100 31.96300
C  46.66300 31.25500 32.95500
H  49.23200 38.27600 28.56700
H  50.91500 36.45000 22.79600
H  47.42300 31.10600 23.48300
H  46.62700 35.04500 30.99600
H  48.74200 36.93800 30.78300
H  46.04400 37.12800 30.99800
H  46.09700 37.29200 29.21300
H  46.96800 38.48300 30.20300
H  49.65600 34.56100 30.92000
H  48.58300 33.20600 31.19800
H  49.60200 35.05700 33.05500
H  48.72600 33.54900 33.40000
H  51.55900 40.20200 26.94200
H  50.20600 39.88700 27.93800
H  49.91400 40.66100 26.41300
H  51.93400 40.83100 24.62800
H  50.25200 40.66100 24.11600
H  51.57800 40.74300 22.91400
H  51.15400 33.55200 22.15400
H  48.37600 32.63400 21.53200
H  49.79300 34.05600 19.92900
H  50.84000 35.22200 20.70200
H  49.08700 35.42000 20.79900
H  50.08800 30.63600 23.09100
H  50.93400 31.52500 21.82500
H  50.03600 30.17700 20.32100
H  48.37200 30.47700 20.80200
H  49.25400 29.16900 21.61300
H  45.41500 30.21300 24.54300
H  44.84300 29.44800 25.93300
H  46.50900 28.99600 25.44500
H  44.79600 32.87600 29.88900
H  46.58200 31.82100 33.88300
H  47.71600 30.98500 32.87200
H  46.18700 30.27700 33.03000
Mg 36.31900 48.54800 26.09700
C  36.23500 46.36400 28.91600
C  34.90400 50.98400 28.10700
C  35.76800 50.33500 23.36000
C  37.04600 45.69800 24.18300
N  35.69600 48.66500 28.21100
C  35.96800 47.77300 29.17900
C  35.87300 48.34500 30.57400
C  35.28400 49.78000 30.35500
C  35.34100 49.86600 28.78100
C  33.80400 50.00300 30.88600
C  37.23800 48.40400 31.30500
C  37.16300 48.72100 32.86800
H  35.93900 49.02300 33.65600
N  35.57300 50.50900 25.84700
C  34.98200 51.34600 26.75700
C  34.68900 52.59100 26.07300
C  34.92700 52.44800 24.70800
C  35.42800 51.04600 24.57900
C  34.14400 53.77100 26.83200
C  34.67600 53.40600 23.52400
O  35.01100 53.19700 22.32200
C  34.17700 54.84700 23.85200
N  36.54900 48.16300 24.09500
C  36.27100 49.08500 23.14800
C  36.37900 48.42200 21.77100
C  37.13000 47.02400 22.00600
C  36.96900 46.95200 23.54800
C  35.05400 48.27900 21.00000
C  38.63200 47.21800 21.53900
C  39.69200 47.57700 22.57500
N  36.66300 46.39900 26.41800
C  36.97700 45.45200 25.52600
C  37.13300 44.28500 26.15900
C  36.97000 44.51300 27.57300
C  36.56100 45.86500 27.60500
C  37.50800 42.97700 25.48800
C  36.97000 43.88500 28.89400
O  37.03900 42.77800 29.36300
C  36.56700 45.10200 29.78400
C  35.45300 44.69600 30.70400
O  34.35500 44.34300 30.41100
O  35.90800 44.94100 31.97300
C  34.88000 44.79900 33.06900
H  34.47700 51.70700 28.80400
H  35.47500 50.81600 22.42400
H  37.24500 44.90300 23.46100
H  35.20500 47.76200 31.20900
H  36.00500 50.41000 30.87700
H  33.45500 49.11100 31.40700
H  33.16100 50.14300 30.01700
H  33.73400 50.91600 31.47700
H  37.83000 49.16500 30.79700
H  37.66100 47.40200 31.22600
H  37.92600 49.47700 33.05100
H  37.34700 47.72400 33.26800
H  34.26100 53.62400 27.90500
H  33.07200 53.68000 26.65100
H  34.51000 54.78400 26.66400
H  34.15700 55.29400 22.85800
H  34.82300 55.37400 24.55400
H  33.19100 54.72300 24.29900
H  37.01800 49.09200 21.19700
H  36.61700 46.16000 21.58400
H  34.18300 48.45200 21.63200
H  34.90400 47.25100 20.67000
H  35.01300 48.91400 20.11500
H  38.70300 47.88200 20.67800
H  38.77800 46.20600 21.16300
H  40.46400 48.21100 22.13900
H  40.13100 46.61800 22.85100
H  39.27200 47.84500 23.54500
H  38.24300 43.08700 24.69200
H  36.51800 42.64400 25.17500
H  37.87000 42.28600 26.25000
H  37.52500 45.29600 30.26700
H  35.06100 45.38200 33.97200
H  34.90800 43.74000 33.32400
H  33.88000 45.01900 32.69500

