158

Mg -2.76200 16.88200 27.01200
C  -2.78200 14.88700 29.80500
C  -3.07400 19.63300 29.22500
C  -2.65300 19.03800 24.36200
C  -2.94700 14.18500 24.95000
N  -3.03500 17.23900 29.23700
C  -2.98200 16.21100 30.17300
C  -3.11800 16.76100 31.59500
C  -3.22000 18.33000 31.32600
C  -3.16100 18.41300 29.86200
C  -4.44100 19.02900 31.96500
C  -1.94200 16.23600 32.54800
C  -1.58600 17.17400 33.65400
H  -0.85700 16.47400 34.79000
N  -2.69600 19.02300 26.85000
C  -2.90500 19.93700 27.85500
C  -2.73900 21.27800 27.28800
C  -2.38500 21.12900 25.88500
C  -2.66200 19.71200 25.59500
C  -2.91200 22.58300 28.12800
C  -1.87900 22.16300 24.87500
O  -1.79500 21.94200 23.65400
C  -1.55500 23.56200 25.42800
N  -2.93100 16.69700 24.98000
C  -2.82900 17.68200 24.06400
C  -2.94000 17.09900 22.58900
C  -2.67300 15.52700 22.88000
C  -2.88400 15.42500 24.42800
C  -4.29900 17.41300 21.89000
C  -1.26100 15.13900 22.44900
C  -0.10500 16.09300 22.99500
N  -2.88500 14.92700 27.18900
C  -2.99700 13.94500 26.33200
C  -3.11100 12.63400 26.97400
C  -2.95700 12.97500 28.35900
C  -2.76500 14.37700 28.39500
C  -3.17400 11.21700 26.37400
C  -2.86400 12.39400 29.65300
O  -2.93600 11.24100 30.04200
C  -2.73400 13.62800 30.65800
C  -1.46800 13.42100 31.51700
O  -0.33400 13.56900 31.13400
O  -1.87900 12.82300 32.71900
C  -0.79900 12.70700 33.69300
H  -3.05900 20.44400 29.95600
H  -2.33900 19.58100 23.46900
H  -2.91100 13.27300 24.35100
H  -4.12300 16.47700 31.90600
H  -2.30400 18.88200 31.53600
H  -3.92400 19.86400 32.43800
H  -4.88500 18.39600 32.73400
H  -5.11000 19.36400 31.17300
H  -0.99200 16.00600 32.06600
H  -2.27700 15.35800 33.10000
H  -2.40800 17.71300 34.12500
H  -0.91500 17.98200 33.36500
H  -3.41000 22.29400 29.05400
H  -3.48000 23.38400 27.65500
H  -1.91900 22.87600 28.46800
H  -1.39200 24.24800 24.59700
H  -0.65600 23.35700 26.00900
H  -2.36800 23.97000 26.02800
H  -2.04300 17.44500 22.07700
H  -3.36000 15.02000 22.20200
H  -4.86600 18.18300 22.41300
H  -4.91600 16.51500 21.90100
H  -4.15500 17.67600 20.84200
H  -1.26800 15.11100 21.36000
H  -0.96900 14.14200 22.78200
H  0.44400 16.45400 22.12500
H  0.51500 15.47200 23.64000
H  -0.41500 17.00700 23.50100
H  -2.19600 11.13500 25.90100
H  -4.00700 11.08800 25.68400
H  -3.41100 10.53000 27.18700
H  -3.57600 13.46600 31.33000
H  -1.19000 13.21900 34.57200
H  0.14500 13.24900 33.63600
H  -0.53200 11.65600 33.80700
Mg 34.42400 3.15100 29.81500
C  32.27500 4.17600 32.41100
C  36.91700 3.24400 32.22100
C  36.53700 3.02000 27.26500
C  31.74700 3.56300 27.52200
N  34.64200 3.91000 32.05800
C  33.54200 4.11100 32.89700
C  33.93400 4.04100 34.36500
C  35.51400 4.23900 34.28200
C  35.72400 3.61700 32.79700
C  36.16900 5.69900 34.51900
C  33.53900 2.74800 35.10100
C  33.32300 2.92600 36.60000
H  33.94900 4.12700 37.34900
N  36.44900 2.98600 29.75100
C  37.32100 3.02000 30.83400
C  38.66100 2.87300 30.42100
C  38.57100 2.80900 28.96700
C  37.14900 2.86100 28.58200
C  39.84700 2.82300 31.34400
C  39.69100 2.65700 27.98400
O  39.54700 2.64900 26.77000
C  41.09300 2.42600 28.42800
N  34.21400 3.51800 27.74100
C  35.24900 3.28300 26.84300
C  34.70100 3.22300 25.33700
C  33.15900 3.21200 25.48900
C  33.02600 3.42900 26.98500
C  35.29400 4.33600 24.52000
C  32.44000 2.05800 24.88400
C  32.30100 0.70500 25.61300
N  32.46900 3.72200 29.90400
C  31.50900 3.76800 28.91500
C  30.25400 4.13900 29.52100
C  30.46600 4.20600 30.82900
C  31.87000 4.02500 31.03500
C  29.00300 4.44000 28.73900
C  29.83400 4.39400 32.11400
O  28.63100 4.62000 32.44700
C  30.95400 4.41100 33.16500
C  30.92800 5.69300 33.97900
O  31.34600 6.78500 33.64200
O  30.33000 5.47500 35.24200
C  30.47600 6.48800 36.31800
H  37.64600 3.07200 33.01500
H  37.20500 2.86500 26.41500
H  30.89600 3.44100 26.84800
H  33.41300 4.84600 34.88400
H  35.98400 3.52700 34.96200
H  36.65500 5.74300 35.49400
H  35.25300 6.22600 34.78900
H  36.65300 6.21500 33.69000
H  34.05400 1.81800 34.86000
H  32.50100 2.57900 34.81500
H  33.68600 2.01000 37.06500
H  32.28000 2.81500 36.89600
H  39.62300 2.74400 32.40800
H  40.47800 3.68900 31.14300
H  40.41100 1.90800 31.15800
H  41.35800 3.17900 29.17000
H  41.77600 2.62200 27.60200
H  41.08900 1.41600 28.83900
H  35.03100 2.25500 24.95800
H  32.70700 4.13300 25.12200
H  35.74300 4.97000 25.28400
H  34.59500 4.96200 23.96400
H  36.12000 4.03500 23.87600
H  32.91100 1.67800 23.97700
H  31.50000 2.48000 24.52700
H  31.22800 0.77500 25.79300
H  32.87100 0.83800 26.53200
H  32.50800 -0.17200 24.99900
H  28.32100 5.10400 29.27000
H  28.51400 3.53100 28.38800
H  29.25500 4.99400 27.83500
H  30.80600 3.52700 33.78600
H  29.90200 7.35700 35.99700
H  31.50600 6.66400 36.62800
H  30.00600 6.09700 37.22000

