158

Mg 3.07800 -0.60000 44.50500
C  6.39100 0.37600 43.56600
C  1.85200 2.04500 42.73500
C  0.08200 -2.13900 44.52200
C  4.58000 -3.60900 45.94300
N  4.01000 1.12900 43.34300
C  5.35800 1.31100 43.10000
C  5.56000 2.59000 42.19100
C  4.11900 3.25100 42.17500
C  3.22700 2.09600 42.83100
C  3.91900 4.56600 42.91700
C  6.01100 2.16300 40.82200
C  7.40900 2.59300 40.29000
H  7.40900 3.29200 38.87800
N  1.17400 -0.04400 43.91200
C  0.90800 1.10000 43.17100
C  -0.52000 1.20800 43.03000
C  -1.12200 -0.01200 43.52100
C  0.06700 -0.83900 44.02400
C  -1.24200 2.36300 42.19900
C  -2.56700 -0.36900 43.59400
O  -3.46800 0.28300 43.08200
C  -3.05200 -1.73300 44.23100
N  2.51200 -2.56000 45.14400
C  1.18500 -2.91500 45.02100
C  0.92400 -4.36500 45.53600
C  2.36200 -4.87000 45.78100
C  3.24000 -3.59700 45.63300
C  0.17200 -4.32000 46.92100
C  2.77900 -6.00600 44.71700
C  2.67700 -7.43200 45.32400
N  5.11000 -1.49100 44.77400
C  5.50500 -2.62300 45.46500
C  6.91700 -2.54700 45.61200
C  7.33500 -1.45000 44.83100
C  6.16300 -0.80200 44.39500
C  7.73200 -3.46600 46.43100
C  8.48200 -0.72300 44.32000
O  9.64500 -0.87300 44.53400
C  7.96400 0.41400 43.44400
C  8.54400 1.63100 43.97400
O  9.31600 2.35800 43.35200
O  8.02600 1.97200 45.22200
C  8.24300 3.27800 45.76300
H  1.41800 2.84500 42.13200
H  -0.81700 -2.72900 44.71100
H  4.89900 -4.51900 46.45400
H  6.36700 3.13200 42.68400
H  3.78600 3.43200 41.15300
H  4.77000 4.94000 43.48600
H  3.00400 4.42100 43.49200
H  3.76400 5.30200 42.12800
H  5.29400 2.45100 40.05300
H  5.95600 1.07400 40.80300
H  8.11500 1.76400 40.23500
H  7.67800 3.37900 40.99700
H  -1.89100 1.83900 41.49700
H  -0.56400 3.09100 41.75300
H  -1.88200 3.02900 42.77800
H  -4.11600 -1.66800 44.46000
H  -2.62500 -1.96200 45.20800
H  -2.86400 -2.47500 43.45500
H  0.33900 -4.97700 44.85000
H  2.47600 -5.26800 46.78900
H  -0.71600 -3.79000 46.57500
H  0.61300 -3.63000 47.64000
H  -0.10600 -5.24700 47.42200
H  3.80600 -5.74600 44.45800
H  2.13800 -5.93700 43.83900
H  2.20200 -7.37800 46.30300
H  3.68000 -7.83600 45.46500
H  2.07300 -7.97900 44.60000
H  7.16500 -3.55500 47.35700
H  8.75700 -3.15200 46.62800
H  7.85500 -4.43100 45.94000
H  8.26100 0.40700 42.39500
H  7.41700 3.95500 45.54300
H  9.14600 3.70800 45.33000
H  8.24700 3.24300 46.85300
Mg 52.74800 23.90300 44.76200
C  49.77800 25.85800 44.01200
C  51.11900 21.10500 43.86000
C  55.67400 22.36800 44.76600
C  54.23900 26.93000 45.56900
N  50.64300 23.62500 43.83900
C  49.58400 24.47600 43.73500
C  48.23800 23.67200 43.47200
C  48.67000 22.19500 43.64200
C  50.22400 22.25800 43.86500
C  47.99900 21.40700 44.79800
C  47.66500 24.00000 42.10700
C  48.69600 23.81500 40.87900
H  48.03700 23.25700 39.54200
N  53.36800 22.01000 44.27900
C  52.57300 20.98400 43.89500
C  53.32200 19.76800 43.72000
C  54.74300 20.13800 43.88900
C  54.70200 21.53800 44.34200
C  52.62900 18.52200 43.28600
C  55.95000 19.18700 43.70900
O  55.73400 18.00000 43.50800
C  57.37700 19.58900 43.79400
N  54.73900 24.58800 45.15100
C  55.80100 23.75200 45.04500
C  57.09600 24.52600 45.13100
C  56.68400 26.00900 45.50700
C  55.13000 25.88900 45.37300
C  58.17900 23.85900 46.08700
C  57.22500 27.17300 44.58000
C  58.25500 28.20400 45.13100
N  52.16000 25.93700 44.96500
C  52.85000 27.02800 45.38600
C  52.04800 28.26200 45.48700
C  50.80300 27.79200 44.93900
C  50.94900 26.37300 44.59500
C  52.42300 29.59500 45.91300
C  49.51700 28.23200 44.57900
O  48.95400 29.34600 44.62200
C  48.75400 26.96800 43.99700
C  48.35200 27.33100 42.58300
O  49.13100 27.31000 41.59500
O  47.01400 27.68800 42.50800
C  46.52200 27.88400 41.18900
H  50.59200 20.14900 43.89300
H  56.68000 21.95900 44.65100
H  54.71300 27.89000 45.78700
H  47.52700 23.88800 44.27000
H  48.39800 21.64200 42.74300
H  48.66100 20.62300 45.16500
H  47.12100 20.92800 44.36500
H  47.75900 22.09900 45.60500
H  47.00900 24.86900 42.06600
H  46.87000 23.26100 42.01300
H  49.43100 23.04500 41.11000
H  49.21700 24.75800 40.70900
H  51.55500 18.60900 43.12300
H  52.80000 17.70900 43.99200
H  53.07800 18.12600 42.37600
H  57.59400 20.28400 42.98300
H  57.94200 18.67300 43.62100
H  57.67000 20.00200 44.75900
H  57.56900 24.64200 44.15600
H  56.91800 26.09100 46.56800
H  57.85800 22.88400 46.45300
H  58.46400 24.47100 46.94300
H  59.01400 23.77900 45.39100
H  56.39200 27.78000 44.22200
H  57.65800 26.75700 43.67000
H  58.87700 27.72000 45.88500
H  57.74900 29.11200 45.45900
H  58.71100 28.53800 44.19900
H  52.79300 30.31900 45.18700
H  53.06900 29.41700 46.77200
H  51.49600 29.99100 46.32800
H  47.89100 26.72600 44.61700
H  46.79900 27.17600 40.40800
H  46.91700 28.83100 40.82200
H  45.43700 27.95500 41.26200

