158

Mg 25.61600 2.02300 30.31000
C  27.74200 1.84200 33.03900
C  23.09600 2.49300 32.62100
C  23.32000 1.77900 27.78400
C  28.13300 1.28600 28.15200
N  25.41300 2.02500 32.69800
C  26.47300 2.13500 33.52200
C  26.00900 2.47000 35.02300
C  24.48600 2.69800 34.80700
C  24.27500 2.40100 33.29400
C  23.56800 1.78000 35.66000
C  26.80300 3.72900 35.57800
C  27.59600 3.60900 36.85400
H  27.32300 4.59700 37.94700
N  23.51800 2.00800 30.31700
C  22.64800 2.30300 31.31200
C  21.25900 2.27000 30.78900
C  21.31200 1.95300 29.45200
C  22.78900 1.84400 29.13400
C  19.98800 2.49000 31.62500
C  20.14900 1.61600 28.48400
O  20.38300 1.35100 27.31200
C  18.70200 1.71300 28.97200
N  25.66900 1.56100 28.22300
C  24.68000 1.73300 27.34900
C  25.19100 1.95800 25.88800
C  26.67200 1.53300 26.03900
C  26.87800 1.51700 27.54600
C  24.33100 1.21000 24.86100
C  27.67000 2.41900 25.33700
C  27.80400 3.87900 25.75100
N  27.53100 1.60500 30.48100
C  28.47900 1.33900 29.57300
C  29.74400 1.13200 30.21700
C  29.48500 1.22900 31.56000
C  28.14600 1.61600 31.70200
C  31.07900 0.66300 29.59800
C  30.09400 1.10800 32.87700
O  31.27000 0.85400 33.13200
C  28.97100 1.51500 33.95000
C  28.70500 0.44100 35.01400
O  27.83700 -0.40400 34.84100
O  29.50500 0.52300 36.10000
C  29.25800 -0.37600 37.19900
H  22.29000 2.79500 33.29200
H  22.55900 2.03000 27.04200
H  29.00100 1.20700 27.49500
H  26.26900 1.54500 35.53700
H  24.17800 3.74300 34.83600
H  23.40100 0.87000 35.08400
H  22.61200 2.30200 35.72100
H  23.89600 1.63600 36.68900
H  26.01800 4.45700 35.78300
H  27.48300 4.04900 34.78800
H  28.66200 3.65200 36.63100
H  27.39200 2.62500 37.27800
H  19.39100 3.31800 31.24300
H  20.11300 2.55700 32.70500
H  19.49700 1.54100 31.41000
H  18.03700 1.61300 28.11500
H  18.65700 2.65200 29.52500
H  18.37700 0.86600 29.57700
H  25.07400 3.02600 25.70600
H  26.69700 0.50200 25.68500
H  24.95200 0.51400 24.29800
H  23.85300 1.90100 24.16600
H  23.57500 0.58400 25.33500
H  27.55700 2.29500 24.26000
H  28.64500 1.95100 25.47600
H  28.80100 4.20400 26.04900
H  27.17400 4.13000 26.60500
H  27.47100 4.57700 24.98300
H  31.37200 1.32500 28.78200
H  31.00200 -0.35200 29.21000
H  31.82100 0.67100 30.39600
H  29.26100 2.45200 34.42500
H  28.77800 -1.26500 36.78800
H  28.66100 0.09200 37.98200
H  30.26300 -0.53500 37.58800
Mg 26.80800 50.11900 26.42700
C  24.69500 51.23000 29.12200
C  29.11700 49.28200 28.86000
C  28.88100 49.25000 24.03600
C  24.44100 51.49200 24.22700
N  26.94400 50.49600 28.72900
C  25.94800 50.76200 29.64700
C  26.39500 50.48700 31.08500
C  27.88500 50.09700 30.98800
C  28.03000 49.95100 29.42800
C  28.97700 51.01700 31.64500
C  25.55900 49.34700 31.91600
C  24.55300 49.97500 32.95800
H  24.25100 49.37600 34.35000
N  28.79300 49.48700 26.46500
C  29.53100 49.06300 27.58200
C  30.88100 48.64900 27.11500
C  30.80100 48.56100 25.65400
C  29.49400 49.16100 25.32300
C  31.90700 48.24700 28.06700
C  31.69500 47.95300 24.61900
O  31.51900 48.00800 23.37800
C  32.97800 47.23700 24.98900
N  26.80300 50.58500 24.40100
C  27.63500 49.88500 23.61400
C  27.07200 49.73000 22.16300
C  25.65500 50.41400 22.23000
C  25.63700 50.89200 23.71900
C  27.94300 50.40600 21.10500
C  24.47600 49.42100 21.89200
C  23.15400 49.85100 21.25100
N  24.92900 51.09200 26.63300
C  24.12800 51.63200 25.61300
C  22.96300 52.21100 26.18600
C  23.06900 52.06000 27.62600
C  24.36000 51.41300 27.81000
C  21.74700 52.82700 25.52400
C  22.49700 52.46700 28.84700
O  21.55300 53.16800 29.12100
C  23.41900 51.75300 29.82800
C  23.74300 52.71200 30.98100
O  24.74300 53.46000 30.99600
O  22.65600 52.72500 31.87800
C  22.95500 53.63300 32.96200
H  29.73700 48.82400 29.63400
H  29.20100 48.57600 23.23900
H  23.60200 51.85000 23.62800
H  26.29600 51.43000 31.62300
H  28.08400 49.11800 31.42300
H  29.62100 50.51100 32.36400
H  28.35400 51.67400 32.25200
H  29.54100 51.57300 30.89600
H  26.14300 48.63200 32.49500
H  24.99600 48.70800 31.23600
H  23.65800 50.03200 32.33800
H  24.79700 51.03500 33.02600
H  32.81600 48.78900 27.80500
H  32.22000 47.21500 27.90900
H  31.73800 48.55800 29.09800
H  33.55600 46.97900 24.10200
H  32.56900 46.30800 25.38700
H  33.55300 47.81500 25.71200
H  26.96100 48.68800 21.86000
H  25.57300 51.24400 21.52800
H  28.94700 50.74600 21.35800
H  27.39200 51.14400 20.52200
H  28.14700 49.61600 20.38200
H  24.05800 48.86100 22.72900
H  24.83000 48.59500 21.27500
H  22.95900 49.34500 20.30500
H  23.09700 50.92200 21.05800
H  22.27300 49.65600 21.86300
H  20.99500 52.04900 25.39100
H  21.96400 53.03500 24.47600
H  21.39200 53.74900 25.98400
H  22.97900 50.82600 30.19700
H  23.14200 54.65100 32.61900
H  23.74400 53.37400 33.66900
H  22.03600 53.60100 33.54700

