158

Mg 3.21600 0.07900 44.43700
C  6.09100 1.85200 44.00600
C  1.44100 2.84900 43.22000
C  0.43000 -1.89600 44.11400
C  5.10100 -2.70900 45.29800
N  3.79500 2.10700 43.56400
C  4.99500 2.61200 43.52900
C  5.06400 3.98900 42.84400
C  3.54600 4.40700 42.99700
C  2.85100 3.04000 43.27600
C  3.27900 5.44000 44.00600
C  5.64500 4.00800 41.42400
C  5.51700 2.80000 40.44800
H  5.93700 3.14400 38.94500
N  1.16500 0.39600 43.77900
C  0.64100 1.69600 43.49700
C  -0.80600 1.56900 43.35800
C  -1.10300 0.25900 43.61900
C  0.18500 -0.50600 43.90300
C  -1.70900 2.76900 42.92100
C  -2.56700 -0.39200 43.77600
O  -3.50000 0.35600 43.64800
C  -2.85400 -1.86500 44.09900
N  2.89400 -1.99800 44.40600
C  1.64700 -2.59200 44.30200
C  1.71600 -4.13500 44.69600
C  3.24800 -4.38400 45.00100
C  3.75800 -2.94100 44.98500
C  0.70500 -4.60900 45.69500
C  3.91400 -5.36900 43.98900
C  4.87300 -6.21400 44.76600
N  5.16700 -0.32900 44.87500
C  5.76300 -1.48300 45.34400
C  7.18000 -1.23100 45.52400
C  7.33200 0.12500 45.10000
C  6.08900 0.57100 44.60900
C  8.20700 -2.22100 45.96900
C  8.26300 1.20000 44.87300
O  9.47100 1.17600 45.10700
C  7.50400 2.36000 44.13800
C  7.70800 3.64300 44.87000
O  8.68600 4.36300 44.84100
O  6.60700 3.91400 45.60600
C  6.79100 5.14000 46.45700
H  0.95000 3.76100 42.87600
H  -0.38100 -2.59400 43.89600
H  5.70700 -3.56600 45.59900
H  5.76900 4.67700 43.31000
H  3.15500 4.69700 42.02100
H  4.06600 5.77300 44.68300
H  2.42900 5.15800 44.62700
H  3.02400 6.32200 43.41900
H  6.68200 4.33100 41.51600
H  5.21000 4.89200 40.95700
H  4.49600 2.42300 40.38700
H  6.08300 1.93000 40.78100
H  -2.61200 2.38100 42.45000
H  -1.38400 3.35700 42.06300
H  -2.01000 3.36500 43.78200
H  -3.91100 -2.11200 44.00100
H  -2.69800 -2.15300 45.13800
H  -2.31100 -2.58300 43.48500
H  1.41700 -4.56300 43.73900
H  3.41900 -4.73000 46.02000
H  -0.01000 -5.28600 45.22600
H  0.17100 -3.76000 46.12200
H  1.21800 -5.15600 46.48500
H  4.49100 -4.87500 43.20700
H  3.19100 -6.04700 43.53600
H  4.96000 -6.04300 45.83900
H  5.85400 -5.99400 44.34600
H  4.58600 -7.23500 44.51400
H  9.20300 -1.81200 45.79900
H  8.08500 -3.16900 45.44400
H  7.93800 -2.42500 47.00600
H  7.99900 2.40900 43.16800
H  6.07800 5.21800 47.27800
H  6.84700 6.06800 45.88700
H  7.73100 4.97700 46.98300
Mg 40.73900 41.50500 27.41000
C  39.77300 43.71300 29.88400
C  41.80500 39.34000 29.67800
C  41.69000 39.51700 24.81400
C  39.79500 44.05100 25.06300
N  40.51900 41.43100 29.49700
C  40.05300 42.44200 30.38100
C  40.29700 42.07700 31.82900
C  41.13900 40.77900 31.77100
C  41.05700 40.44000 30.22500
C  42.51500 40.85400 32.44300
C  39.05000 42.00900 32.60200
C  39.21100 41.60900 34.08200
H  38.96000 42.75800 35.05200
N  41.63900 39.68600 27.31100
C  41.98700 38.95500 28.34700
C  42.57700 37.72100 27.86700
C  42.55400 37.70100 26.47000
C  41.96500 39.03800 26.14500
C  43.01400 36.56900 28.73000
C  43.17700 36.71000 25.45200
O  43.10800 36.76600 24.22700
C  43.90200 35.55300 25.99400
N  40.71400 41.70400 25.27900
C  41.17900 40.78900 24.42200
C  40.89200 41.18200 22.93200
C  40.08100 42.46600 23.11600
C  40.15500 42.82800 24.58200
C  42.08800 41.37200 22.00800
C  38.60300 42.39900 22.63000
C  37.76600 41.30300 23.34000
N  40.05900 43.46700 27.44500
C  39.75600 44.40100 26.45800
C  39.27700 45.59200 26.96900
C  39.28800 45.36300 28.38100
C  39.78100 44.12100 28.57200
C  39.00300 46.89500 26.24800
C  39.03700 45.96800 29.62800
O  38.56500 47.01000 29.91700
C  39.38000 44.88700 30.70000
C  40.46100 45.46900 31.56800
O  41.51700 45.84300 31.15300
O  40.06000 45.62800 32.94800
C  41.08800 45.98000 33.82400
H  42.05300 38.68600 30.51700
H  42.06700 38.85400 24.03300
H  39.40900 44.78100 24.34900
H  40.85700 42.89800 32.27600
H  40.65900 39.97000 32.32200
H  42.46800 41.67800 33.15500
H  43.29700 40.97500 31.69300
H  42.81000 39.94000 32.95800
H  38.25800 41.48900 32.06400
H  38.75900 43.05800 32.65600
H  40.20500 41.19800 34.26200
H  38.58800 40.75900 34.35900
H  42.65200 35.58100 28.44300
H  42.81200 36.76800 29.78200
H  44.09300 36.42000 28.73300
H  44.73300 35.86600 26.62700
H  44.29800 35.03900 25.11800
H  43.20300 34.86800 26.47400
H  40.32700 40.30800 22.60800
H  40.66100 43.20800 22.56800
H  42.80900 42.06000 22.44900
H  41.73700 41.73300 21.04200
H  42.55800 40.39400 21.90200
H  38.75800 42.08900 21.59600
H  38.05000 43.32800 22.76400
H  37.09900 40.81000 22.63400
H  37.15200 41.84900 24.05600
H  38.42000 40.60400 23.86200
H  38.25900 46.77600 25.45900
H  39.90900 47.37400 25.87700
H  38.54000 47.53200 27.00200
H  38.45300 44.76900 31.26200
H  41.24300 47.04800 33.67100
H  41.94300 45.30800 33.74800
H  40.72000 46.00500 34.85000

