158

Mg 49.47100 34.86700 26.99300
C  47.24500 33.71900 29.52900
C  50.29000 37.46100 29.06600
C  51.04200 36.16600 24.39700
C  48.34600 32.16300 24.98300
N  48.67000 35.61100 29.06200
C  47.89100 34.93300 29.95900
C  48.03000 35.60100 31.33000
C  48.58600 37.00300 31.01000
C  49.24900 36.66700 29.63100
C  47.59000 38.17500 30.79400
C  48.98000 34.76400 32.26900
C  48.59500 34.62800 33.71700
H  49.42500 35.55100 34.69800
N  50.58600 36.57700 26.76900
C  50.86000 37.48000 27.82000
C  51.79500 38.39800 27.31500
C  51.92700 38.21900 25.88500
C  51.17700 36.95700 25.60900
C  52.44500 39.41300 28.27200
C  52.84500 38.99300 24.85500
O  52.83700 38.71500 23.62900
C  53.83900 40.06700 25.18000
N  49.75600 34.21200 25.04000
C  50.43500 34.94200 24.14100
C  50.36300 34.33100 22.68600
C  49.78300 32.94200 23.05900
C  49.23100 33.11900 24.41200
C  49.52500 35.22500 21.67700
C  50.82000 31.73900 23.08000
C  51.26200 31.16400 21.76200
N  48.05000 33.28600 27.16700
C  47.72100 32.30200 26.24900
C  46.80100 31.39400 26.85700
C  46.51000 31.96900 28.11900
C  47.27600 33.11300 28.26400
C  46.15100 30.21600 26.24900
C  45.73700 31.74900 29.36900
O  44.97500 30.87100 29.77500
C  46.18600 32.94000 30.29400
C  46.73000 32.48300 31.58900
O  47.74900 31.87800 31.73500
O  45.77400 32.73700 32.53200
C  45.90100 32.05400 33.86500
H  50.55000 38.28400 29.73500
H  51.53900 36.60200 23.52800
H  48.00700 31.38000 24.30100
H  47.04200 35.68600 31.78200
H  49.36300 37.36100 31.68600
H  47.70700 38.70400 29.84800
H  47.78000 38.93100 31.55600
H  46.56600 37.94000 31.08400
H  49.88900 35.36300 32.32100
H  49.23300 33.86000 31.71500
H  48.76600 33.58700 33.99100
H  47.53100 34.76000 33.91600
H  52.96000 38.91600 29.09400
H  51.69300 40.12700 28.61100
H  53.18600 40.05300 27.79300
H  53.99900 40.62600 24.25900
H  54.81600 39.62000 25.36800
H  53.60000 40.71300 26.02500
H  51.36700 34.29700 22.26400
H  48.87900 32.68500 22.50800
H  50.19700 35.50500 20.86700
H  49.28700 36.11000 22.26700
H  48.67700 34.69300 21.24600
H  50.39600 30.98100 23.73800
H  51.75700 32.12000 23.48700
H  51.23800 30.08900 21.93700
H  52.26200 31.38700 21.38900
H  50.42400 31.44200 21.12300
H  45.91400 30.47500 25.21700
H  45.24500 29.96400 26.80100
H  46.76300 29.31900 26.16100
H  45.29700 33.57100 30.29500
H  46.66400 32.53000 34.48200
H  46.20900 31.04000 33.61200
H  44.91100 32.05700 34.32100
Mg 0.86600 42.59200 26.10100
C  2.45900 42.51200 29.23800
C  -2.11000 41.88700 27.63000
C  -0.50100 41.87200 23.05200
C  4.00000 43.00000 24.62600
N  0.27400 42.38700 28.20300
C  1.08800 42.31900 29.31700
C  0.24800 42.00100 30.62100
C  -1.20900 41.70200 30.03100
C  -1.04900 42.01300 28.51000
C  -1.65100 40.27700 30.35000
C  0.30400 43.17700 31.65800
C  0.88900 42.80800 32.99200
H  0.54000 41.52600 33.74000
N  -1.03700 42.12000 25.43600
C  -2.10900 42.00700 26.27400
C  -3.25600 41.94600 25.43500
C  -2.85500 41.92300 24.04300
C  -1.41200 41.88800 24.10500
C  -4.64900 41.87000 26.06500
C  -3.62100 41.77700 22.76900
O  -3.16200 41.61100 21.68900
C  -5.08400 41.91800 22.84900
N  1.58400 42.46200 24.19800
C  0.85800 42.10600 23.12800
C  1.73800 41.98500 21.88400
C  3.08800 42.73600 22.30300
C  2.88600 42.76300 23.83100
C  1.98200 40.49000 21.57000
C  3.23200 44.13100 21.62900
C  2.63400 45.35000 22.46600
N  2.82700 42.74000 26.80300
C  3.97000 42.99400 26.07300
C  5.06100 43.21800 26.93200
C  4.49600 43.01900 28.22000
C  3.16600 42.75200 28.05200
C  6.48000 43.53500 26.56100
C  4.84200 42.96800 29.55800
O  6.01100 43.06600 30.03400
C  3.51300 42.63500 30.33600
C  3.75400 41.31100 30.93500
O  3.75200 40.24100 30.34500
O  4.06300 41.43000 32.23700
C  4.44900 40.24100 33.09500
H  -2.97600 41.42600 28.10800
H  -0.88800 41.88300 22.03100
H  5.00900 43.09700 24.22100
H  0.73800 41.11000 31.01300
H  -1.95100 42.41300 30.39400
H  -1.69400 39.63800 29.46800
H  -2.66000 40.54000 30.67100
H  -1.13100 39.69200 31.10900
H  -0.72500 43.52400 31.75500
H  0.93700 44.00400 31.33500
H  0.51100 43.55600 33.68900
H  1.97300 42.90200 32.93500
H  -4.54100 42.36200 27.03200
H  -4.97200 40.84500 26.24500
H  -5.33400 42.47600 25.47100
H  -5.44300 41.12500 23.50600
H  -5.39700 41.77300 21.81500
H  -5.43800 42.83100 23.32800
H  1.26400 42.46400 21.02700
H  4.02500 42.22500 22.08400
H  1.48000 40.31700 20.61800
H  1.66000 39.82200 22.36900
H  3.03300 40.21100 21.48800
H  2.74200 44.18200 20.65700
H  4.26000 44.29200 21.30500
H  3.41500 45.99800 22.86300
H  1.95600 44.98900 23.24000
H  2.11300 45.98500 21.74900
H  6.47100 44.26900 25.75500
H  7.00100 42.70200 26.09000
H  7.05300 43.91200 27.40900
H  3.17500 43.38600 31.05100
H  5.51400 40.31800 33.31700
H  4.41600 39.30200 32.54300
H  3.75800 39.92100 33.87500

