158

Mg 24.83000 -6.90300 47.85600
C  27.41900 -5.01900 46.41200
C  22.79400 -5.85800 45.26700
C  22.74300 -9.56200 48.50600
C  27.34100 -8.50500 49.92200
N  25.13900 -5.61500 46.00000
C  26.25200 -4.88200 45.71300
C  25.95500 -3.86800 44.60100
C  24.37800 -3.97900 44.40600
C  24.04500 -5.15200 45.30900
C  23.53400 -2.71800 44.74800
C  26.73700 -3.95200 43.23900
C  26.96200 -2.67500 42.42200
H  25.93800 -2.27300 41.39000
N  22.95600 -7.51300 47.16000
C  22.32100 -6.97800 45.98200
C  21.03500 -7.55300 45.83900
C  21.04700 -8.69500 46.78200
C  22.26200 -8.67300 47.54100
C  19.88700 -7.14200 44.90600
C  19.87300 -9.69800 46.89500
O  19.00700 -9.67300 46.01000
C  19.70300 -10.71300 47.88400
N  24.97400 -8.59200 49.22300
C  23.92700 -9.52100 49.31000
C  24.39200 -10.76600 50.10500
C  25.73100 -10.37000 50.66600
C  26.11600 -9.15300 49.82700
C  23.34700 -11.21000 51.11500
C  26.82100 -11.51800 50.56900
C  26.32200 -12.97900 50.63000
N  26.92200 -6.70000 48.27500
C  27.75200 -7.34700 49.19500
C  29.09400 -6.81400 49.05100
C  28.98000 -5.77200 48.02900
C  27.70400 -5.89000 47.49300
C  30.19800 -7.16000 49.92100
C  29.70700 -4.77100 47.29900
O  30.84000 -4.41800 47.47000
C  28.75900 -4.23200 46.23900
C  28.72200 -2.78500 46.23700
O  29.46100 -2.06100 45.55600
O  27.91400 -2.23700 47.16900
C  27.84400 -0.79000 47.12800
H  22.03400 -5.45900 44.59300
H  22.11100 -10.44000 48.65500
H  28.19300 -8.90700 50.47500
H  26.11700 -2.88300 45.03700
H  24.16900 -4.35800 43.40600
H  22.86700 -2.88400 45.59300
H  22.85300 -2.34000 43.98500
H  24.17100 -1.87900 45.03100
H  26.18800 -4.56300 42.52300
H  27.67800 -4.39000 43.57200
H  27.99100 -2.75400 42.07000
H  26.84200 -1.78400 43.03800
H  19.13600 -6.51400 45.38500
H  19.40300 -7.97600 44.39900
H  20.24800 -6.49300 44.10800
H  18.68100 -11.04100 48.07600
H  19.92400 -10.36800 48.89400
H  20.38000 -11.56000 47.77300
H  24.52700 -11.56500 49.37600
H  25.75800 -9.93500 51.66500
H  23.67100 -11.21000 52.15600
H  23.05100 -12.22400 50.84700
H  22.39400 -10.68300 51.15000
H  27.72200 -11.39100 51.16800
H  27.10100 -11.48100 49.51600
H  25.54600 -13.14700 51.37700
H  27.18900 -13.56600 50.93500
H  26.03600 -13.24000 49.61100
H  30.31400 -8.23100 50.08700
H  30.01200 -6.73600 50.90700
H  31.07100 -6.75100 49.41200
H  29.23900 -4.51700 45.30200
H  28.87300 -0.43000 47.14900
H  27.16000 -0.42000 47.89100
H  27.45500 -0.37500 46.19800
Mg 9.74200 48.57400 26.26900
C  7.50700 48.43200 29.04900
C  12.24100 49.43200 28.41700
C  11.72700 48.56000 23.64300
C  6.92600 47.76700 24.21800
N  9.75100 49.13300 28.45600
C  8.81200 48.81600 29.37500
C  9.38600 48.94400 30.79300
C  10.72100 49.73100 30.55900
C  10.92200 49.44300 29.01700
C  10.60800 51.26700 30.82700
C  9.47700 47.53800 31.59800
C  10.63700 47.29300 32.59400
H  10.35000 46.36500 33.76700
N  11.74100 49.02200 26.06200
C  12.60500 49.33200 27.02900
C  13.86400 49.29200 26.53800
C  13.80500 48.99200 25.11900
C  12.43900 48.90600 24.85000
C  15.14700 49.61000 27.29800
C  14.94900 48.81500 23.94300
O  14.71500 48.58300 22.78200
C  16.30400 48.58400 24.54000
N  9.29500 48.40600 24.18500
C  10.36000 48.33300 23.28800
C  9.83100 48.04400 21.89600
C  8.37500 47.66000 22.15300
C  8.13300 48.04700 23.56900
C  10.14900 49.22200 20.89900
C  8.16800 46.15400 21.96500
C  6.93400 45.78900 21.04600
N  7.58000 48.24900 26.49400
C  6.59100 47.89900 25.59000
C  5.37600 47.60000 26.29000
C  5.63200 47.75300 27.63800
C  7.02100 48.20700 27.68300
C  4.05500 47.16000 25.64700
C  5.11100 47.81700 28.97900
O  3.95900 47.65100 29.37200
C  6.27400 48.09400 29.92600
C  6.42900 46.81100 30.74100
O  6.85800 45.74100 30.24700
O  5.91000 46.94500 31.98100
C  6.08400 45.87500 32.92900
H  13.05900 49.65000 29.10700
H  12.28300 48.45000 22.71000
H  6.06300 47.48500 23.61000
H  8.56500 49.52100 31.21900
H  11.64400 49.33500 30.98300
H  11.05400 51.86000 30.02800
H  11.12500 51.57200 31.73700
H  9.58200 51.46300 31.13600
H  9.20100 46.75700 30.88900
H  8.63400 47.68200 32.27300
H  10.94300 48.22800 33.06300
H  11.53900 46.99700 32.05800
H  15.04200 49.97600 28.32000
H  15.75000 50.35000 26.77200
H  15.68700 48.66600 27.36900
H  16.64700 49.54200 24.93200
H  17.04200 48.36600 23.76800
H  16.27800 47.78200 25.27700
H  10.41500 47.21300 21.50000
H  7.61600 48.12200 21.52100
H  10.68400 48.81800 20.03900
H  10.70100 49.94400 21.50000
H  9.26600 49.63500 20.41000
H  8.01400 45.59000 22.88500
H  9.08200 45.73000 21.54800
H  7.18900 45.65300 19.99500
H  6.10300 46.49200 21.10600
H  6.53900 44.81800 21.34400
H  4.27300 46.55000 24.77000
H  3.47700 48.03100 25.33900
H  3.39000 46.60000 26.30500
H  6.07300 48.99800 30.50100
H  5.05800 45.57900 33.14600
H  6.60500 46.24200 33.81300
H  6.55200 44.96300 32.55900

