158

Mg 23.43600 -6.36400 45.19300
C  25.72800 -4.15900 43.83800
C  20.94400 -4.84900 43.23700
C  21.38300 -9.14300 45.46800
C  25.99700 -7.97500 46.85900
N  23.33100 -4.45500 43.85700
C  24.47300 -3.81300 43.43500
C  24.07700 -2.79100 42.39000
C  22.47300 -2.84500 42.46400
C  22.25100 -4.15000 43.21500
C  21.85900 -1.67100 43.32900
C  24.63500 -3.26200 41.11100
C  25.48200 -2.23000 40.31200
H  25.08400 -1.94500 38.86500
N  21.46000 -6.91100 44.52400
C  20.64700 -6.14400 43.82000
C  19.32600 -6.78000 43.64900
C  19.56700 -8.10400 43.99900
C  20.86500 -8.15200 44.67200
C  18.17100 -6.08800 42.88800
C  18.51700 -9.19900 43.68300
O  17.31300 -8.92100 43.37800
C  18.82400 -10.62100 44.13300
N  23.69600 -8.28200 45.93200
C  22.64800 -9.17400 46.07300
C  23.15300 -10.43600 46.91200
C  24.58700 -9.99300 47.42000
C  24.79600 -8.69200 46.67500
C  22.32600 -10.82800 48.12000
C  25.74500 -11.01600 47.32500
C  26.62000 -11.26600 48.58600
N  25.48300 -6.06700 45.41000
C  26.38700 -6.80100 46.17900
C  27.73200 -6.29800 45.96700
C  27.50100 -5.27500 45.03700
C  26.15600 -5.18400 44.73000
C  29.03800 -6.83500 46.59900
C  28.14700 -4.17800 44.31400
O  29.32700 -3.90900 44.18200
C  26.97100 -3.45700 43.41400
C  27.05600 -2.01500 43.97000
O  26.63900 -1.55000 45.05000
O  27.85200 -1.27400 43.12800
C  27.94400 0.19300 43.36900
H  20.25200 -4.31300 42.58400
H  20.87000 -10.10600 45.51600
H  26.73900 -8.50100 47.46400
H  24.38900 -1.77100 42.61700
H  21.99400 -2.83000 41.48500
H  22.53800 -0.89200 43.67400
H  21.36600 -2.04100 44.22800
H  21.05600 -1.16700 42.79100
H  23.79700 -3.47300 40.44600
H  25.23400 -4.17000 41.18000
H  26.55000 -2.44900 40.28900
H  25.36900 -1.25300 40.78200
H  17.95100 -6.56600 41.93400
H  18.34100 -5.02700 42.70200
H  17.19400 -6.20800 43.35600
H  18.14500 -11.27900 43.59100
H  18.68600 -10.76400 45.20500
H  19.85400 -10.80000 43.82700
H  23.26700 -11.32600 46.29300
H  24.51500 -9.70000 48.46700
H  21.63000 -10.02400 48.36000
H  22.92800 -11.19000 48.95300
H  21.80500 -11.73300 47.80700
H  26.41100 -10.66400 46.53700
H  25.38600 -12.03100 47.15500
H  26.60300 -12.34900 48.71000
H  26.13200 -10.85800 49.47100
H  27.52700 -10.66400 48.53600
H  29.22300 -7.79400 46.11500
H  28.88300 -7.01000 47.66300
H  29.90800 -6.22400 46.35800
H  27.18900 -3.41500 42.34700
H  27.72500 0.37900 44.42100
H  27.29000 0.62000 42.60900
H  28.93100 0.63700 43.24700
Mg 25.17000 1.11900 29.97400
C  27.23900 0.86800 32.86100
C  22.38100 1.14200 31.99900
C  23.31400 0.91500 27.18800
C  28.04900 0.61100 27.99400
N  24.88700 1.07700 32.21700
C  25.84700 1.11300 33.20900
C  25.20000 1.22500 34.62100
C  23.70400 1.14900 34.21800
C  23.63600 1.13200 32.68300
C  22.79000 0.05700 34.92100
C  25.70400 2.50100 35.42700
C  26.37700 2.19900 36.80900
H  26.16700 3.14200 37.97300
N  23.13500 1.03200 29.58900
C  22.12100 1.01200 30.56200
C  20.86100 0.70300 29.95300
C  21.12500 0.66500 28.55300
C  22.60000 0.92300 28.39000
C  19.58100 0.61100 30.65900
C  20.21500 0.30000 27.33900
O  20.56500 0.43500 26.18900
C  18.86400 -0.26200 27.62600
N  25.66400 0.91200 27.81600
C  24.72300 0.93000 26.85300
C  25.32600 0.99300 25.47900
C  26.79800 1.11600 25.81300
C  26.90200 0.91500 27.25200
C  24.97800 -0.19100 24.65200
C  27.56100 2.48100 25.38900
C  26.91000 3.80200 25.75700
N  27.16300 0.74400 30.30000
C  28.18600 0.49400 29.39400
C  29.38300 0.05600 30.12500
C  29.06700 0.29300 31.47600
C  27.72700 0.70500 31.56400
C  30.60500 -0.47000 29.53400
C  29.66300 0.21000 32.84700
O  30.81600 -0.11400 33.25600
C  28.47000 0.60900 33.81000
C  28.26700 -0.47600 34.73900
O  27.65100 -1.51300 34.47800
O  29.03200 -0.25000 35.84500
C  28.95900 -1.21400 36.82700
H  21.50000 1.00500 32.63000
H  22.71700 0.98000 26.27600
H  28.90900 0.44900 27.34100
H  25.57000 0.29800 35.06100
H  23.25700 2.09500 34.52500
H  21.90200 0.46700 35.40200
H  23.35300 -0.15800 35.83000
H  22.61000 -0.66200 34.12200
H  24.78200 3.07200 35.53100
H  26.22600 3.23900 34.81800
H  27.43300 2.16200 36.54300
H  26.07600 1.22000 37.18200
H  19.54100 0.90200 31.70900
H  19.28800 -0.43900 30.66500
H  18.90000 1.25100 30.09800
H  18.60100 -0.69800 26.66200
H  18.17200 0.56000 27.80800
H  18.99400 -0.97200 28.44300
H  24.99600 1.91600 25.00100
H  27.46300 0.33500 25.44500
H  25.79800 -0.88200 24.45900
H  24.65900 0.30800 23.73700
H  24.17300 -0.75900 25.11900
H  27.58200 2.59100 24.30400
H  28.60700 2.38800 25.68200
H  26.10700 3.63600 26.47500
H  26.51600 4.31500 24.88000
H  27.61700 4.51200 26.18600
H  31.26400 0.39300 29.43900
H  30.45500 -1.09700 28.65500
H  31.05700 -1.00400 30.37000
H  28.76500 1.51400 34.34000
H  27.95400 -1.17400 37.24800
H  29.64800 -0.86300 37.59500
H  29.17500 -2.23900 36.52400

