158

Mg 36.19600 2.32500 29.93100
C  33.83500 3.76500 32.05800
C  38.24700 2.09600 32.65800
C  38.54600 1.34000 27.82700
C  33.95400 2.87600 27.30800
N  36.09300 3.17500 31.99800
C  35.01100 3.51200 32.68900
C  35.25400 3.56300 34.18000
C  36.78300 3.29800 34.30400
C  37.07400 2.84700 32.88300
C  37.43300 4.49700 34.87900
C  34.52000 2.47700 34.99200
C  33.80800 3.08100 36.31100
H  34.55200 4.10300 37.11000
N  38.15200 1.70600 30.23400
C  38.80400 1.62700 31.42700
C  40.07800 0.92300 31.25400
C  40.17600 0.84800 29.83200
C  38.93100 1.31800 29.20800
C  41.07400 0.74700 32.41200
C  41.32500 0.38700 28.95300
O  41.38400 0.33800 27.73900
C  42.62100 -0.11800 29.61200
N  36.23900 2.18900 27.92600
C  37.38400 1.89800 27.27600
C  37.22600 2.05300 25.67000
C  35.72100 2.25500 25.49400
C  35.25700 2.41000 27.04600
C  38.12400 3.18900 25.17400
C  35.08200 1.02200 24.89000
C  33.76900 1.22700 24.08600
N  34.18500 3.02000 29.63300
C  33.44500 3.19900 28.57600
C  32.14400 3.70600 28.94600
C  32.24800 3.92300 30.30200
C  33.55800 3.56600 30.67900
C  31.05800 4.04100 27.97800
C  31.53700 4.51800 31.42100
O  30.43900 5.04000 31.49500
C  32.52400 4.21600 32.65200
C  32.63700 5.52300 33.35000
O  33.27500 6.49900 33.00100
O  31.84400 5.45600 34.51400
C  31.88700 6.64400 35.40000
H  38.92200 2.10800 33.51600
H  39.29700 0.96400 27.13000
H  33.27600 3.17000 26.50400
H  34.93600 4.56500 34.46800
H  36.95700 2.38300 34.87000
H  37.61300 4.24700 35.92400
H  36.86000 5.42100 34.80100
H  38.43800 4.66600 34.49200
H  35.10000 1.63600 35.37000
H  33.72900 2.04800 34.37600
H  33.56500 2.25700 36.98200
H  32.89900 3.46400 35.84800
H  41.70300 -0.12300 32.21900
H  40.43200 0.62600 33.28400
H  41.61900 1.67000 32.61400
H  43.08100 0.72500 30.12700
H  43.36300 -0.42200 28.87300
H  42.44200 -0.93700 30.30900
H  37.51600 1.10000 25.22600
H  35.38800 3.17600 25.01600
H  38.94100 2.82000 24.55400
H  38.53100 3.68500 26.05600
H  37.50300 3.92000 24.65800
H  34.82500 0.38300 25.73500
H  35.79700 0.66900 24.14700
H  33.68100 0.34100 23.45700
H  33.87700 2.06500 23.39700
H  32.92300 1.40700 24.74800
H  31.03800 5.08300 27.65900
H  30.09500 3.72700 28.38300
H  31.12600 3.37500 27.11700
H  32.10400 3.49300 33.35100
H  31.27300 7.27500 34.75800
H  32.88000 7.05600 35.57900
H  31.34700 6.40100 36.31500
Mg 16.52900 51.18000 25.92100
C  18.55000 49.63000 28.47000
C  14.20300 51.80400 28.14800
C  14.56500 52.39000 23.27100
C  18.78300 49.87500 23.56400
N  16.42300 50.63700 28.09100
C  17.37100 50.24900 28.94700
C  16.97600 50.53000 30.38600
C  15.46900 50.93800 30.27800
C  15.37900 51.18100 28.73900
C  14.37200 50.00800 30.82400
C  17.93100 51.59000 30.97100
C  17.71200 52.07000 32.42100
H  16.68900 51.32800 33.35000
N  14.70500 51.95800 25.72400
C  13.91300 52.17300 26.80600
C  12.76400 52.94200 26.38900
C  12.75800 53.04000 24.92300
C  14.05900 52.42500 24.59900
C  11.76100 53.38600 27.38300
C  11.78300 53.79000 24.06000
O  11.86300 53.74400 22.82500
C  10.61200 54.53400 24.61100
N  16.69900 51.12100 23.72200
C  15.87200 51.83000 22.92100
C  16.40600 51.77800 21.38500
C  17.76200 51.05100 21.48000
C  17.72800 50.62600 22.97400
C  15.41300 51.33700 20.23700
C  18.93800 51.97000 21.05800
C  19.42600 53.07700 21.99200
N  18.31700 50.05800 25.98800
C  19.15500 49.68200 24.90900
C  20.33300 49.11000 25.46000
C  20.18500 49.04000 26.85600
C  18.91700 49.57400 27.12900
C  21.47400 48.64100 24.67700
C  20.76600 48.59200 28.06800
O  21.75100 47.96600 28.29800
C  19.65600 48.94200 29.13400
C  19.16500 47.90100 30.05900
O  18.59300 46.84900 29.73700
O  19.54600 48.29100 31.35200
C  19.21000 47.47200 32.44400
H  13.52200 51.91500 28.99500
H  14.05200 52.74000 22.37300
H  19.52500 49.49500 22.85900
H  17.20400 49.64100 30.97400
H  15.28900 51.80700 30.91200
H  14.35200 49.10300 30.21700
H  13.40400 50.47900 30.65300
H  14.41500 49.76400 31.88500
H  17.80500 52.47200 30.34400
H  18.92800 51.14900 30.94800
H  17.49800 53.13500 32.32500
H  18.63500 51.96900 32.99200
H  11.89600 53.05400 28.41200
H  10.74400 53.15500 27.06500
H  11.75800 54.46900 27.50300
H  10.95600 55.13100 25.45500
H  10.08500 53.62100 24.88700
H  10.13400 55.14500 23.84400
H  16.58300 52.84500 21.24900
H  17.83700 50.10800 20.93700
H  15.11500 52.13200 19.55300
H  14.50600 50.97700 20.72200
H  15.71000 50.53200 19.56400
H  18.54800 52.59600 20.25500
H  19.74600 51.28700 20.79600
H  18.73500 53.14500 22.83200
H  19.66100 54.05300 21.56600
H  20.37600 52.75500 22.41800
H  21.85700 49.36000 23.95200
H  21.02100 47.79700 24.15600
H  22.24800 48.20400 25.30700
H  20.08400 49.80300 29.64700
H  19.14100 48.02700 33.38000
H  19.97200 46.72900 32.68100
H  18.31200 46.86900 32.30700

