158

Mg 16.53600 -2.69000 28.20200
C  15.47300 -0.45500 30.77700
C  18.18000 -4.56900 30.46200
C  18.21300 -4.25400 25.62200
C  15.02700 -0.50500 25.87300
N  16.79100 -2.41400 30.34400
C  16.17600 -1.56800 31.24400
C  16.41000 -1.99900 32.68700
C  17.39100 -3.19200 32.52500
C  17.45700 -3.47300 30.98700
C  18.80000 -3.07100 33.09700
C  15.12900 -2.26900 33.51000
C  14.97800 -1.89300 34.98600
H  16.19600 -1.30700 35.63300
N  17.97700 -4.24400 28.06100
C  18.47900 -4.92800 29.11300
C  19.25300 -6.08000 28.60700
C  19.42300 -5.91100 27.17400
C  18.54000 -4.75500 26.91400
C  19.83400 -7.09900 29.50500
C  20.06500 -6.83800 26.14500
O  19.88900 -6.81100 24.91700
C  21.05500 -7.83100 26.60200
N  16.70400 -2.35000 26.07800
C  17.34300 -3.24100 25.23900
C  17.14500 -2.83100 23.77200
C  16.11400 -1.65900 23.88300
C  15.86500 -1.56400 25.39300
C  18.51000 -2.60500 23.06200
C  14.80000 -1.88200 23.11400
C  14.62200 -1.08400 21.86900
N  15.50400 -0.90600 28.26500
C  14.91200 -0.19100 27.20500
C  14.40400 1.06800 27.73500
C  14.51800 0.99500 29.14300
C  15.20700 -0.25800 29.40900
C  13.75100 2.12700 26.91200
C  14.23100 1.62200 30.37400
O  13.48700 2.59700 30.63100
C  14.91500 0.75200 31.47600
C  15.95800 1.57700 32.16000
O  16.98400 1.93300 31.58700
O  15.59500 1.94500 33.40300
C  16.53300 2.91600 34.07100
H  18.68000 -5.14900 31.24100
H  18.75400 -4.70300 24.78700
H  14.43000 0.14900 25.23400
H  16.92500 -1.15800 33.15200
H  16.99100 -4.10400 32.96800
H  18.77300 -2.31100 33.87700
H  19.59100 -2.94800 32.35600
H  19.06400 -3.99500 33.61300
H  14.93200 -3.32900 33.35200
H  14.38400 -1.67800 32.97800
H  14.72800 -2.84000 35.46500
H  14.09800 -1.26300 35.11900
H  19.52200 -8.03800 29.04900
H  19.58400 -6.93400 30.55300
H  20.92200 -7.02500 29.50700
H  21.45800 -7.47700 27.55100
H  21.79300 -8.09000 25.84300
H  20.45500 -8.70200 26.86900
H  16.65100 -3.67100 23.28400
H  16.58900 -0.75100 23.51200
H  19.21100 -2.60800 23.89700
H  18.46800 -1.66300 22.51500
H  18.66600 -3.46200 22.40700
H  13.94900 -1.59500 23.73200
H  14.62700 -2.91400 22.80600
H  13.92400 -0.24700 21.85000
H  14.35600 -1.79100 21.08300
H  15.52400 -0.51800 21.63600
H  12.78400 1.81600 26.51600
H  14.27900 2.30600 25.97500
H  13.68700 3.02900 27.52100
H  14.03400 0.50600 32.06900
H  16.08600 3.41500 34.93100
H  16.77100 3.73200 33.38900
H  17.42200 2.41000 34.44900
Mg 25.71800 0.17300 28.86300
C  27.81400 -0.02800 31.71800
C  22.97300 0.28500 30.82700
C  23.77000 0.48600 25.98400
C  28.42300 -0.61700 26.85700
N  25.48700 0.12400 30.99400
C  26.48000 0.27800 31.99800
C  25.80600 0.48100 33.33900
C  24.32000 0.50400 33.01500
C  24.23600 0.28500 31.51700
C  23.38000 -0.27800 33.89000
C  26.49400 1.73800 34.03300
C  25.74900 2.38400 35.24300
H  26.48000 2.79800 36.51800
N  23.65200 0.42400 28.47100
C  22.66900 0.31000 29.45900
C  21.41200 0.27600 28.76300
C  21.64600 0.36700 27.37300
C  23.10700 0.42700 27.21900
C  20.16300 0.09000 29.54900
C  20.67400 0.35700 26.19500
O  20.98200 0.50600 25.00200
C  19.19800 0.12300 26.44500
N  26.10300 0.13800 26.69800
C  25.16200 0.35500 25.73900
C  25.71200 0.23100 24.30200
C  27.28300 -0.06600 24.62500
C  27.27500 -0.22500 26.11400
C  25.02700 -0.95400 23.54900
C  28.35500 1.02000 24.29000
C  27.94000 2.53900 24.46500
N  27.77600 -0.23900 29.15300
C  28.71900 -0.58200 28.23000
C  29.96500 -0.85000 28.93300
C  29.65700 -0.61800 30.32700
C  28.33200 -0.25400 30.42500
C  31.24200 -1.29500 28.32400
C  30.17200 -0.58600 31.68100
O  31.21900 -0.89600 32.19700
C  29.01100 -0.10200 32.56900
C  28.91900 -1.13200 33.60900
O  28.52000 -2.30500 33.38400
O  29.20400 -0.62500 34.82100
C  28.99700 -1.34500 36.09600
H  22.11800 0.48800 31.47500
H  23.17400 0.60100 25.07600
H  29.30800 -0.87500 26.27200
H  26.04400 -0.38600 33.95600
H  24.04800 1.54300 33.19800
H  22.36000 0.06600 33.71800
H  23.62800 -0.10800 34.93800
H  23.46500 -1.34100 33.66200
H  26.76800 2.53500 33.34200
H  27.40000 1.31800 34.47100
H  25.04600 1.63100 35.59800
H  25.27600 3.28100 34.84300
H  20.31200 -0.23900 30.57800
H  19.61700 -0.67900 29.00200
H  19.56100 0.99500 29.62100
H  18.64300 0.78600 27.10900
H  19.12100 -0.78700 27.04000
H  18.61400 -0.05300 25.54200
H  25.68600 1.19500 23.79300
H  27.49100 -1.00400 24.11000
H  24.51700 -1.63000 24.23600
H  25.67300 -1.46500 22.83500
H  24.19100 -0.51300 23.00600
H  28.49100 0.91500 23.21400
H  29.33900 0.86900 24.73400
H  27.35900 2.86400 25.32800
H  27.51100 2.96500 23.55800
H  28.86900 3.10600 24.52800
H  31.31900 -2.37000 28.48500
H  32.10600 -0.75700 28.71400
H  31.28100 -1.13000 27.24800
H  29.28600 0.88700 32.93600
H  28.30300 -2.16600 35.91900
H  28.47600 -0.54300 36.62000
H  29.87500 -1.76300 36.58800

