158

Mg 47.57800 24.54100 28.02400
C  48.34700 26.82100 30.58700
C  46.72400 22.18700 30.61200
C  47.00300 22.17700 25.81500
C  48.97400 26.59800 25.68900
N  47.49300 24.56800 30.31800
C  47.75900 25.61900 31.06300
C  47.50100 25.24100 32.61500
C  47.08800 23.76900 32.57500
C  47.09900 23.47100 31.09000
C  47.98200 22.84300 33.44800
C  46.58400 26.30900 33.25700
C  45.75700 25.81100 34.42000
H  45.55800 26.65900 35.70600
N  46.98000 22.44300 28.15700
C  46.59700 21.70600 29.25200
C  45.96800 20.49800 28.86700
C  46.11200 20.41500 27.48500
C  46.80600 21.65300 27.09500
C  45.39200 19.45800 29.75800
C  45.61600 19.35500 26.48900
O  45.76200 19.42600 25.27700
C  44.89700 18.11700 26.94600
N  48.05100 24.32500 26.06300
C  47.51000 23.39400 25.28400
C  47.60400 23.65300 23.81700
C  48.12000 25.11600 23.83300
C  48.39000 25.35700 25.27400
C  48.60000 22.70700 23.03900
C  47.08000 26.15000 23.35000
C  47.58400 26.98800 22.21100
N  48.42600 26.38200 28.09700
C  48.91700 27.11000 27.05900
C  49.38100 28.39600 27.63500
C  49.17800 28.25900 29.03000
C  48.63000 27.01900 29.25400
C  50.10000 29.54100 26.95300
C  49.45700 29.02200 30.23900
O  49.95200 30.09000 30.46100
C  48.76600 28.12500 31.28300
C  49.74900 28.07800 32.44500
O  50.82600 27.58400 32.40200
O  49.18400 28.57100 33.55100
C  49.91000 28.58600 34.81700
H  46.34500 21.51000 31.38000
H  46.67400 21.49000 25.03200
H  49.13000 27.45200 25.02700
H  48.47000 25.33700 33.10600
H  46.01600 23.72700 32.76400
H  48.74100 23.35900 34.03600
H  48.41900 22.12600 32.75400
H  47.41300 22.13800 34.05300
H  45.87500 26.51700 32.45600
H  47.07800 27.24000 33.53900
H  46.22800 24.87500 34.72000
H  44.75200 25.66400 34.02500
H  44.36600 19.32500 29.41400
H  45.31900 19.82800 30.78000
H  45.94800 18.52700 29.64500
H  44.33000 17.67700 26.12600
H  44.04300 18.52900 27.48400
H  45.55500 17.51000 27.56800
H  46.56800 23.56900 23.48600
H  49.06000 25.19300 23.28700
H  48.04200 21.79900 22.80800
H  49.49600 22.40900 23.58300
H  48.90600 23.30500 22.18100
H  46.78200 26.80600 24.16800
H  46.13000 25.70800 23.05100
H  48.62300 26.81700 21.93000
H  47.41100 28.03200 22.47400
H  47.01700 26.81200 21.29700
H  49.68000 29.65800 25.95300
H  51.17100 29.34400 26.99700
H  50.05100 30.49000 27.48800
H  47.88500 28.67100 31.62100
H  49.92100 29.57700 35.27100
H  50.90100 28.15200 34.95300
H  49.41700 27.91700 35.52200
Mg 50.62500 45.46500 41.43400
C  47.61600 46.46700 40.18200
C  49.80700 42.24500 40.78000
C  53.94600 44.77900 41.88700
C  51.44900 48.98700 41.58900
N  48.88400 44.51100 40.55700
C  47.74300 45.08500 40.08500
C  46.68500 44.01100 39.58700
C  47.36100 42.72600 40.18800
C  48.79800 43.16400 40.50800
C  46.72900 41.95100 41.38600
C  46.49000 44.09800 38.10800
C  45.05100 44.11200 37.62700
H  44.77400 42.90500 36.66900
N  51.73500 43.75100 41.33500
C  51.17200 42.48600 41.14900
C  52.19800 41.51500 41.07000
C  53.39600 42.19200 41.35900
C  53.06300 43.67800 41.62900
C  51.91000 40.03100 40.78400
C  54.72000 41.61900 41.29400
O  54.95400 40.46600 41.04100
C  56.07500 42.42000 41.52300
N  52.44900 46.66200 41.53200
C  53.66100 46.11900 41.79900
C  54.70100 47.19600 42.06000
C  53.90800 48.51000 42.08900
C  52.46400 48.03900 41.72600
C  55.66500 47.05800 43.30400
C  54.48500 49.58400 41.13700
C  54.64700 50.96400 41.76900
N  49.69700 47.39700 41.10700
C  50.09700 48.64700 41.26500
C  49.03500 49.57700 40.93700
C  48.04400 48.77400 40.40100
C  48.50000 47.41000 40.58100
C  48.96600 51.05000 41.07200
C  46.68800 48.81200 39.85300
O  45.93800 49.76500 39.66100
C  46.41200 47.30900 39.68400
C  45.18800 47.13400 40.53200
O  45.18900 46.66100 41.68800
O  43.98100 47.41000 39.88800
C  42.75300 47.18000 40.61100
H  49.48600 41.24200 40.49100
H  55.00400 44.54700 42.03000
H  51.55300 50.06300 41.74000
H  45.73900 44.16100 40.10800
H  47.44700 41.92800 39.45000
H  47.41100 41.99800 42.23600
H  46.77100 40.88100 41.18400
H  45.72200 42.23900 41.68700
H  46.84400 43.17200 37.65500
H  46.98800 44.97100 37.68700
H  44.85600 45.07500 37.15500
H  44.40200 44.03600 38.49900
H  51.31000 39.71800 41.63900
H  52.82900 39.44500 40.78100
H  51.34500 39.91600 39.85900
H  56.27400 42.77700 42.53300
H  56.12700 43.24400 40.81100
H  56.83900 41.67000 41.32300
H  55.26800 47.18600 41.13000
H  53.79300 48.90400 43.09900
H  56.21700 47.99000 43.42500
H  56.36500 46.28200 42.99600
H  55.07000 46.68800 44.13900
H  53.90000 49.70900 40.22600
H  55.50600 49.40100 40.80200
H  55.58200 51.48900 41.57200
H  54.50100 51.02500 42.84700
H  53.94900 51.71300 41.39400
H  48.00100 51.29500 40.62800
H  49.80400 51.57600 40.61400
H  48.90400 51.34400 42.11900
H  46.08100 47.13400 38.66000
H  42.31900 48.17900 40.56900
H  42.78500 46.84200 41.64700
H  42.07600 46.52400 40.06300

