158

Mg 16.97600 -1.71700 28.20100
C  16.31900 0.50100 30.82100
C  18.72200 -3.72000 30.24600
C  17.95900 -3.45500 25.40700
C  15.20300 0.51000 26.02300
N  17.54900 -1.44000 30.30600
C  17.15000 -0.54100 31.21700
C  17.71400 -0.89600 32.59700
C  18.74200 -2.01400 32.37000
C  18.33100 -2.45300 30.93800
C  20.24600 -1.57900 32.37400
C  16.50100 -1.44800 33.47300
C  16.22800 -0.75300 34.88200
H  17.41800 0.05400 35.51000
N  18.06000 -3.43900 27.87200
C  18.73100 -4.10400 28.89800
C  19.35000 -5.29500 28.27000
C  19.07500 -5.24100 26.83600
C  18.25900 -4.07700 26.60400
C  20.13000 -6.33700 29.08500
C  19.62200 -6.20500 25.70900
O  19.51500 -5.97100 24.51500
C  20.47900 -7.39000 26.00300
N  16.74800 -1.40300 26.07600
C  17.26700 -2.29200 25.17000
C  17.16200 -1.82100 23.71100
C  16.09000 -0.63900 23.90500
C  15.92100 -0.53100 25.47000
C  18.60900 -1.35200 23.10900
C  14.71300 -0.89000 23.15900
C  14.34000 0.06400 22.09800
N  15.99600 0.12400 28.34700
C  15.20100 0.83500 27.43100
C  14.61800 2.01800 28.07600
C  14.95200 1.84900 29.38300
C  15.85500 0.76000 29.50000
C  13.73300 3.12700 27.48000
C  14.78400 2.44000 30.67100
O  14.15000 3.45700 31.08800
C  15.67500 1.62000 31.71600
C  16.69900 2.48300 32.30600
O  17.83200 2.63700 31.82800
O  16.17100 3.23400 33.34200
C  16.97900 4.30800 33.92500
H  19.40500 -4.32300 30.84800
H  18.22300 -4.00800 24.50300
H  14.69600 1.19700 25.34200
H  18.25100 -0.04200 33.01200
H  18.60100 -2.82200 33.08800
H  20.30600 -0.49100 32.39200
H  20.84400 -1.99200 31.56100
H  20.57400 -1.85600 33.37500
H  16.58000 -2.53500 33.51100
H  15.64300 -1.17200 32.86000
H  15.83600 -1.45200 35.62100
H  15.33300 -0.18000 34.64200
H  20.35400 -6.00500 30.09900
H  21.07000 -6.54500 28.57400
H  19.68900 -7.31700 29.26700
H  20.09600 -8.04000 26.79000
H  21.39300 -6.93500 26.38500
H  20.70000 -8.06700 25.17700
H  16.73000 -2.55600 23.03100
H  16.47200 0.34300 23.62600
H  18.78300 -1.89800 22.18100
H  19.41200 -1.58200 23.80900
H  18.77800 -0.29700 22.89200
H  13.92400 -0.94500 23.90900
H  14.62600 -1.86900 22.68700
H  15.23100 0.28200 21.51000
H  13.87000 0.99200 22.42300
H  13.64100 -0.44600 21.43500
H  14.14400 4.12800 27.61800
H  12.77300 3.07200 27.99200
H  13.49500 2.86100 26.45000
H  14.94000 1.26700 32.43900
H  17.81900 4.66700 33.33000
H  17.29100 3.83400 34.85600
H  16.31600 5.16000 34.06900
Mg -3.21500 35.03600 27.22800
C  -4.14000 32.87300 29.85000
C  -1.72300 37.14100 29.65300
C  -2.54800 37.15700 24.86100
C  -4.90200 32.93100 24.97400
N  -3.14400 35.01600 29.54400
C  -3.50600 33.97100 30.30900
C  -3.23200 34.30800 31.72500
C  -2.62700 35.76200 31.68200
C  -2.38100 35.99600 30.19600
C  -3.57800 36.84500 32.29200
C  -2.29600 33.21800 32.39800
C  -2.74700 32.40600 33.66500
H  -1.93100 32.62200 34.94400
N  -2.13300 36.80500 27.24800
C  -1.56500 37.46100 28.34800
C  -1.04000 38.73100 27.78400
C  -1.16900 38.74500 26.39700
C  -2.00300 37.53600 26.10900
C  -0.28100 39.70000 28.75800
C  -0.75000 39.70700 25.30500
O  -0.80200 39.62400 24.07800
C  -0.03700 40.93700 25.89400
N  -3.69600 35.08500 25.16500
C  -3.23100 36.06900 24.39100
C  -3.50900 35.81500 22.92300
C  -4.34700 34.54000 22.96800
C  -4.33000 34.14900 24.45900
C  -4.10000 36.94700 22.06900
C  -3.76900 33.36600 22.10900
C  -2.41500 32.68400 22.52000
N  -4.33300 33.29800 27.36300
C  -4.83600 32.50200 26.35700
C  -5.40700 31.29800 26.92000
C  -5.13100 31.44800 28.24800
C  -4.47000 32.60900 28.50800
C  -6.19500 30.27800 26.16800
C  -5.42300 30.76800 29.46800
O  -6.07800 29.75900 29.75300
C  -4.70500 31.70200 30.63000
C  -5.87300 32.05300 31.51500
O  -6.73200 32.85500 31.18700
O  -5.79500 31.33700 32.71400
C  -6.70200 31.80000 33.71200
H  -1.27500 37.82500 30.37600
H  -2.47600 37.93300 24.09700
H  -5.16900 32.14800 24.26100
H  -4.16100 34.27300 32.29300
H  -1.64400 35.88000 32.13900
H  -3.04300 37.33300 33.10700
H  -4.50700 36.43300 32.68500
H  -3.84400 37.70400 31.67600
H  -1.33800 33.72900 32.49100
H  -2.16200 32.50800 31.58300
H  -2.66600 31.35600 33.38300
H  -3.78000 32.69700 33.86000
H  -0.18800 39.36500 29.79100
H  -0.59800 40.73900 28.66700
H  0.71600 39.65600 28.31900
H  0.86300 40.61000 26.41600
H  -0.73300 41.34500 26.62700
H  0.28300 41.56300 25.06100
H  -2.56000 35.68400 22.40100
H  -5.35500 34.68300 22.58100
H  -5.17300 36.80200 21.94200
H  -3.53200 37.14300 21.15900
H  -4.01800 37.93500 22.52300
H  -3.61100 33.72800 21.09300
H  -4.55000 32.61300 22.00000
H  -2.48400 31.60300 22.39300
H  -2.19300 32.90300 23.56400
H  -1.61000 33.10600 21.91900
H  -5.63600 29.41400 25.81000
H  -6.48800 30.81200 25.26300
H  -7.01700 29.89800 26.77400
H  -3.94200 31.11500 31.14100
H  -6.10200 32.53200 34.25200
H  -7.00000 30.97100 34.35500
H  -7.63300 32.18100 33.29500

