158

Mg 48.90700 34.49200 27.15200
C  46.90400 33.42000 29.87500
C  49.69800 37.22700 29.12000
C  50.79000 35.73400 24.66800
C  47.70700 31.89700 25.27000
N  48.44200 35.14100 29.35700
C  47.74700 34.46100 30.25600
C  47.84000 35.14400 31.60500
C  48.39900 36.58000 31.25100
C  48.84600 36.39000 29.79200
C  47.42400 37.78400 31.24300
C  48.86300 34.41500 32.56300
C  48.50600 34.27300 34.05300
H  48.99700 35.48000 34.95800
N  50.10900 36.29100 26.86200
C  50.37100 37.21500 27.84400
C  51.22400 38.19900 27.22000
C  51.53800 37.84200 25.91000
C  50.83600 36.58600 25.74800
C  51.71500 39.41100 27.88500
C  52.40400 38.57900 24.83100
O  52.63600 38.07900 23.75600
C  53.06000 39.87400 25.12200
N  49.06900 33.97200 25.14100
C  49.97500 34.59000 24.33600
C  50.14900 33.79200 22.99200
C  49.27800 32.48600 23.24200
C  48.58400 32.77900 24.60900
C  49.77500 34.66200 21.77700
C  50.14200 31.17400 23.18800
C  50.46100 30.65200 21.71000
N  47.52800 33.01300 27.40800
C  47.12200 31.99700 26.55800
C  46.15700 31.12600 27.26000
C  45.93500 31.73300 28.48600
C  46.87100 32.80700 28.59600
C  45.58400 29.82500 26.58500
C  45.21000 31.62300 29.79600
O  44.43800 30.82300 30.29900
C  45.76000 32.75700 30.70600
C  46.33300 32.04600 31.86800
O  47.22600 31.23100 31.79300
O  45.76600 32.40500 33.02500
C  46.25200 31.60400 34.14400
H  50.02800 38.06800 29.73400
H  51.53500 35.96100 23.90300
H  47.48300 31.04400 24.62600
H  46.91800 35.25300 32.17500
H  49.32000 36.81700 31.78500
H  46.98800 37.95700 30.26000
H  47.97300 38.69300 31.49000
H  46.68900 37.58700 32.02300
H  49.90200 34.72200 32.44600
H  48.82600 33.37100 32.25000
H  49.00200 33.37900 34.43200
H  47.42600 34.14800 33.98000
H  51.39000 40.29900 27.34200
H  52.80400 39.37300 27.91100
H  51.36600 39.53600 28.91000
H  53.78900 39.74100 25.92300
H  52.36000 40.68400 25.32300
H  53.52600 40.27500 24.22300
H  51.19400 33.50800 22.87300
H  48.50200 32.25000 22.51400
H  48.78500 34.36900 21.42800
H  50.47800 34.39800 20.98700
H  49.92700 35.74000 21.83700
H  49.83500 30.40600 23.89800
H  51.13600 31.54700 23.43600
H  49.74900 31.10500 21.02200
H  50.42700 29.56400 21.77100
H  51.49500 30.88500 21.45500
H  46.39000 29.15400 26.29100
H  44.98400 30.10900 25.72100
H  44.99600 29.26100 27.30900
H  44.89500 33.36000 30.98100
H  47.30000 31.78900 34.37700
H  46.02900 30.54300 34.02800
H  45.69100 31.96700 35.00500
Mg 42.83900 41.42100 26.47800
C  41.49500 43.64500 28.72000
C  43.60300 39.24000 29.02200
C  43.93800 39.29800 24.17100
C  41.80600 43.66500 23.94600
N  42.67600 41.48100 28.61600
C  42.07900 42.57000 29.35100
C  42.07600 42.18100 30.85000
C  42.82200 40.79200 30.94800
C  43.05100 40.45800 29.42600
C  44.18900 40.75600 31.74700
C  40.69300 42.12500 31.53600
C  40.44200 43.05500 32.74600
H  39.93400 42.43600 34.06900
N  43.65200 39.51100 26.58500
C  43.88500 38.77500 27.75200
C  44.42700 37.55300 27.36300
C  44.79100 37.54900 25.99600
C  44.09300 38.82700 25.51500
C  44.68100 36.52800 28.39400
C  45.53200 36.59500 25.01700
O  45.85000 36.83700 23.85900
C  45.84600 35.30600 25.58900
N  42.79700 41.49900 24.40700
C  43.33700 40.49300 23.66900
C  43.03800 40.62600 22.18200
C  42.42200 42.08200 22.01700
C  42.31900 42.46300 23.56600
C  44.22600 40.33700 21.26000
C  41.14400 42.38100 21.16300
C  41.22900 43.66400 20.24400
N  41.92500 43.30600 26.33700
C  41.63700 44.11000 25.28100
C  40.94400 45.31900 25.71800
C  40.88400 45.16000 27.08600
C  41.48000 43.89300 27.38700
C  40.42400 46.38200 24.86300
C  40.45400 45.82200 28.24500
O  39.83200 46.86500 28.38900
C  40.86600 44.87100 29.45100
C  41.65000 45.68900 30.39000
O  42.78700 46.08900 30.18200
O  40.94000 45.97200 31.51300
C  41.55800 46.52900 32.67100
H  44.04300 38.55600 29.75200
H  44.21900 38.50100 23.47900
H  41.58400 44.34600 23.12300
H  42.68700 42.88800 31.41200
H  42.13300 40.08500 31.41200
H  44.05500 39.92400 32.43900
H  44.27300 41.66600 32.34000
H  45.03600 40.70800 31.06300
H  40.47400 41.17600 32.02500
H  39.90800 42.26700 30.79300
H  39.65600 43.72000 32.38900
H  41.37700 43.53400 33.03700
H  44.77100 35.58700 27.85100
H  43.93400 36.42800 29.18200
H  45.66300 36.72100 28.82500
H  46.60700 35.53900 26.33400
H  46.35700 34.68200 24.85700
H  45.08100 34.62200 25.95700
H  42.24300 39.88600 22.09500
H  43.22400 42.73500 21.67300
H  44.99900 39.75000 21.75600
H  44.70400 41.26200 20.93700
H  43.91300 39.77100 20.38300
H  40.34300 42.49900 21.89300
H  40.80800 41.51700 20.59100
H  41.66900 43.44500 19.27100
H  41.97800 44.35300 20.63400
H  40.33800 44.29100 20.19900
H  40.81700 46.37600 23.84700
H  40.73500 47.28500 25.38800
H  39.34600 46.22200 24.87600
H  39.92800 44.66000 29.96500
H  42.47600 47.09700 32.52100
H  41.79800 45.76400 33.40900
H  40.91100 47.28600 33.11400

