158

Mg 47.37500 25.77300 27.62500
C  48.17400 28.18200 30.15300
C  47.02400 23.49500 30.13900
C  46.91800 23.40600 25.21800
C  48.91000 27.83600 25.26300
N  47.51300 25.89100 29.81400
C  47.72700 26.97000 30.66600
C  47.59300 26.64800 32.11100
C  47.50300 25.08300 32.05200
C  47.33900 24.81400 30.60900
C  48.72000 24.28300 32.70900
C  46.44500 27.45600 32.78900
C  45.84300 26.96200 34.12900
H  45.80300 27.93200 35.28900
N  46.90600 23.72900 27.63300
C  46.79500 22.97000 28.82900
C  46.29200 21.63400 28.53000
C  46.19000 21.60200 27.04700
C  46.74400 22.89100 26.55400
C  46.10700 20.56800 29.55600
C  45.69700 20.48800 26.15700
O  45.75800 20.59300 24.93600
C  45.13500 19.25500 26.64400
N  47.79700 25.62500 25.51000
C  47.52300 24.58100 24.69100
C  47.89800 24.87400 23.21400
C  48.08200 26.42700 23.25400
C  48.32100 26.63900 24.75700
C  49.03600 23.94800 22.73800
C  46.92200 27.29000 22.65000
C  47.35500 28.49800 21.79800
N  48.29000 27.64800 27.63900
C  48.93300 28.26800 26.63100
C  49.34600 29.59200 27.13400
C  49.06600 29.59600 28.51800
C  48.47200 28.38000 28.79100
C  49.88000 30.70000 26.32400
C  49.15600 30.38900 29.76400
O  49.68200 31.51200 29.93100
C  48.58100 29.48400 30.93500
C  49.62700 29.28800 31.95500
O  50.54000 28.40900 32.00900
O  49.25900 30.05900 33.06000
C  49.82400 29.57200 34.31700
H  46.87300 22.71000 30.88400
H  46.85000 22.67700 24.40800
H  49.32600 28.48200 24.48800
H  48.58400 26.90400 32.48400
H  46.65000 24.77100 32.65500
H  49.51000 24.91900 33.10800
H  49.24900 23.71600 31.94300
H  48.33600 23.58200 33.45000
H  45.61000 27.55200 32.09600
H  46.90800 28.43000 32.94900
H  46.22100 25.96600 34.36100
H  44.77700 26.77000 34.01100
H  45.07400 20.22500 29.51300
H  46.19400 20.88000 30.59600
H  46.77700 19.76000 29.26400
H  44.21600 19.40400 27.20900
H  45.92700 18.72800 27.17500
H  44.78000 18.72600 25.76000
H  47.04900 24.60900 22.58500
H  49.03800 26.52000 22.73900
H  49.38100 23.38000 23.60100
H  49.80900 24.57500 22.29400
H  48.52800 23.26800 22.05400
H  46.31500 27.63900 23.48500
H  46.22900 26.66300 22.08900
H  47.45000 29.37600 22.43800
H  46.53400 28.65200 21.09800
H  48.26300 28.32500 21.22000
H  49.16100 31.06600 25.59100
H  50.81100 30.47900 25.80300
H  50.09400 31.47100 27.06500
H  47.71300 29.89600 31.45100
H  50.90800 29.48400 34.23700
H  49.29400 28.64100 34.51500
H  49.63400 30.33900 35.06900
Mg -12.30300 37.44800 41.82900
C  -10.26100 34.85900 40.73400
C  -10.17200 39.76600 40.33200
C  -14.74200 39.92800 42.06200
C  -14.62600 35.09100 42.82500
N  -10.42200 37.26900 40.75200
C  -9.74700 36.15800 40.42300
C  -8.42500 36.54500 39.74700
C  -8.26000 38.10000 39.96200
C  -9.77800 38.41900 40.37200
C  -7.34700 38.47500 41.20400
C  -8.48400 35.96000 38.28500
C  -7.37300 34.99000 37.89800
H  -6.29300 35.45600 36.92000
N  -12.41500 39.56300 41.31800
C  -11.40600 40.29900 40.74500
C  -11.81500 41.68300 40.61600
C  -13.03700 41.77600 41.31500
C  -13.47300 40.39200 41.61100
C  -10.95400 42.80000 40.05900
C  -13.70400 43.08900 41.52400
O  -13.03500 44.06200 41.27300
C  -15.12600 43.17000 41.98100
N  -14.47700 37.46300 42.26300
C  -15.16400 38.59700 42.45400
C  -16.45100 38.33800 43.26200
C  -16.46900 36.82100 43.48300
C  -15.08100 36.44100 42.81400
C  -16.56700 39.12700 44.60500
C  -17.63300 36.07400 42.86600
C  -17.71200 36.10800 41.28700
N  -12.43800 35.40600 41.90400
C  -13.43300 34.56700 42.38100
C  -12.91200 33.21700 42.29100
C  -11.68800 33.28100 41.65300
C  -11.45800 34.63500 41.47000
C  -13.65800 31.98500 42.78100
C  -10.60200 32.44700 41.15700
O  -10.38200 31.25000 41.12100
C  -9.62200 33.46500 40.46400
C  -8.33100 33.32700 41.08200
O  -7.39200 32.62600 40.60700
O  -8.23800 34.05200 42.25400
C  -6.96100 33.90700 42.99400
H  -9.40200 40.43800 39.94700
H  -15.57100 40.61200 42.25800
H  -15.18700 34.28600 43.30500
H  -7.58000 36.10000 40.27300
H  -7.83300 38.57100 39.07700
H  -7.94600 38.84600 42.03500
H  -6.64000 39.28200 41.00900
H  -6.75200 37.60000 41.46700
H  -8.35400 36.77800 37.57600
H  -9.41600 35.40000 38.21600
H  -7.73800 34.02100 37.55900
H  -6.97100 34.59700 38.83200
H  -10.21000 42.43500 39.35000
H  -10.51400 43.34400 40.89400
H  -11.55700 43.52000 39.50500
H  -15.80700 42.63900 41.31600
H  -15.42400 44.20000 42.18000
H  -15.26000 42.62600 42.91600
H  -17.27800 38.64200 42.61900
H  -16.39700 36.56700 44.54100
H  -17.02300 40.06600 44.29100
H  -15.59100 39.52700 44.87900
H  -17.13600 38.56100 45.34300
H  -18.59100 36.37900 43.28700
H  -17.57300 35.05900 43.25700
H  -17.91000 35.13400 40.84000
H  -16.84100 36.57800 40.83100
H  -18.51400 36.76900 40.95800
H  -13.84000 32.09300 43.85000
H  -13.19000 31.02500 42.56100
H  -14.55900 32.09100 42.17800
H  -9.56100 33.24600 39.39800
H  -6.20500 34.57100 42.57400
H  -6.60900 32.87500 42.99100
H  -7.07400 34.10900 44.05900

