158

Mg 53.36700 23.48300 44.78500
C  50.61100 25.40400 43.84900
C  51.71600 20.59300 43.86300
C  56.33000 22.00900 44.93400
C  54.88500 26.52000 45.79000
N  51.40500 23.06500 43.86800
C  50.42200 23.99500 43.59900
C  49.21300 23.32200 42.98700
C  49.43000 21.82100 43.47500
C  50.92200 21.78600 43.77600
C  48.37500 21.47700 44.53500
C  49.27200 23.49400 41.47400
C  47.88000 23.43500 40.73900
H  47.70700 23.44300 39.23200
N  53.98100 21.56300 44.36100
C  53.16500 20.52400 44.03800
C  53.97500 19.35500 44.10500
C  55.36100 19.71000 44.32500
C  55.32000 21.18600 44.51700
C  53.51100 17.90000 43.76300
C  56.53500 18.75500 44.38600
O  56.50000 17.63300 43.89400
C  57.86100 19.19900 45.06700
N  55.34300 24.13000 45.39900
C  56.43500 23.38000 45.32600
C  57.72700 24.06100 45.73100
C  57.15100 25.41700 46.26700
C  55.73100 25.35100 45.78500
C  58.56000 23.34600 46.81100
C  58.04200 26.56100 45.70500
C  59.52300 26.79500 46.21300
N  52.92500 25.55400 44.76600
C  53.60500 26.61700 45.25000
C  52.83100 27.83200 45.28500
C  51.64300 27.44900 44.68900
C  51.78100 26.08100 44.31100
C  53.31100 29.19000 45.74100
C  50.30700 27.84900 44.34400
O  49.63000 28.85600 44.55800
C  49.66800 26.60100 43.70300
C  49.41000 27.08300 42.32900
O  50.26300 27.62100 41.61100
O  48.13000 26.80400 41.97300
C  47.71700 27.28900 40.68200
H  51.14400 19.67600 43.70800
H  57.32200 21.57200 44.80400
H  55.28100 27.46500 46.16800
H  48.30700 23.80000 43.35900
H  49.19700 21.14600 42.65100
H  47.75000 20.69000 44.11500
H  47.70500 22.26000 44.89100
H  48.84300 21.13200 45.45700
H  49.79400 22.61000 41.10600
H  49.77500 24.42400 41.21000
H  47.34900 24.30000 41.13800
H  47.47600 22.52200 41.17700
H  53.62700 17.68500 42.70100
H  52.44800 17.73100 43.93200
H  54.06400 17.12600 44.29600
H  58.42800 19.79100 44.35000
H  58.42400 18.27700 45.21600
H  57.62100 19.65200 46.02900
H  58.34400 24.12600 44.83500
H  57.17000 25.52700 47.35200
H  58.67500 23.98200 47.68900
H  59.59100 23.14600 46.51800
H  57.94100 22.51700 47.15100
H  57.70000 27.58400 45.86800
H  58.21900 26.40400 44.64100
H  59.60700 26.29800 47.18000
H  59.85100 27.82800 46.33200
H  60.24400 26.31400 45.55300
H  52.51900 29.91400 45.55000
H  54.07600 29.49700 45.02700
H  53.63300 29.05700 46.77400
H  48.73000 26.37700 44.21000
H  47.84500 26.52000 39.92100
H  48.21600 28.21300 40.39000
H  46.64100 27.46200 40.70500
Mg -4.36500 24.65100 26.15700
C  -3.37100 26.23000 28.98100
C  -6.13500 22.39000 28.12400
C  -5.32500 22.96600 23.37200
C  -2.66000 26.93100 24.17700
N  -4.99000 24.56900 28.32200
C  -4.37800 25.28100 29.23900
C  -4.91800 24.88000 30.66700
C  -5.57800 23.48100 30.39600
C  -5.56800 23.45200 28.82300
C  -5.01900 22.26800 31.15500
C  -5.87900 25.98500 31.19300
C  -5.60300 26.37300 32.70000
H  -4.83700 25.58200 33.73200
N  -5.57200 22.94300 25.81000
C  -6.21400 22.17700 26.76000
C  -6.84200 21.02800 26.12800
C  -6.64800 21.18500 24.72500
C  -5.75700 22.38500 24.57300
C  -7.51700 19.91400 26.95000
C  -7.15200 20.30700 23.51300
O  -6.65100 20.48100 22.40700
C  -8.08200 19.13900 23.77700
N  -4.05400 24.91900 24.07400
C  -4.58700 24.17100 23.11600
C  -4.43100 24.79000 21.72900
C  -3.48900 25.99300 22.01100
C  -3.42700 25.98800 23.49100
C  -3.78900 23.92300 20.61400
C  -3.97700 27.29600 21.44200
C  -2.90700 28.26300 20.89200
N  -3.21200 26.27200 26.41200
C  -2.56900 27.08500 25.56400
C  -1.76500 28.08400 26.27500
C  -2.00900 27.74600 27.68600
C  -2.98000 26.71100 27.70000
C  -0.84000 29.17700 25.67700
C  -1.70800 28.10600 29.02800
O  -0.95200 28.86600 29.52100
C  -2.55300 27.19700 29.86300
C  -1.56500 26.34800 30.70700
O  -1.02400 25.31100 30.34600
O  -1.31900 27.08600 31.79400
C  -0.48100 26.42600 32.81300
H  -6.42900 21.64800 28.87000
H  -5.78500 22.62200 22.44400
H  -2.32900 27.80200 23.60700
H  -4.04800 24.80700 31.32000
H  -6.64300 23.51600 30.62400
H  -4.06800 21.95900 30.72100
H  -5.75500 21.46700 31.22500
H  -4.76300 22.57800 32.16800
H  -6.91700 25.67000 31.09000
H  -5.77100 26.80400 30.48200
H  -6.60900 26.53600 33.08700
H  -5.10700 27.33700 32.58600
H  -7.01400 19.73200 27.90000
H  -7.51900 18.98000 26.38800
H  -8.54900 20.16800 27.18800
H  -8.84200 19.49400 24.47400
H  -7.52200 18.29800 24.18600
H  -8.64300 18.84500 22.89000
H  -5.37500 25.22000 21.39300
H  -2.50400 25.87800 21.55800
H  -4.59500 23.51200 20.00500
H  -3.03900 23.22800 20.99300
H  -3.10100 24.48900 19.98700
H  -4.56900 27.68900 22.26800
H  -4.65600 27.12000 20.60700
H  -1.89900 27.86500 21.00700
H  -3.02600 29.27000 21.29300
H  -3.09600 28.33900 19.82100
H  -1.27000 30.15700 25.88200
H  -0.68800 29.17500 24.59800
H  0.12800 29.11800 26.17600
H  -3.11000 27.90900 30.47200
H  0.52000 26.61600 32.42500
H  -0.62900 25.35100 32.92000
H  -0.56600 27.08600 33.67700

