158

Mg 54.14600 23.12900 44.92200
C  51.70300 25.41100 43.61200
C  52.26000 20.55000 43.74200
C  56.66600 21.09700 45.36400
C  56.04700 25.89900 45.84600
N  52.16000 23.06900 43.76700
C  51.29400 24.09900 43.39600
C  50.24900 23.51500 42.50000
C  50.22500 22.03200 43.07500
C  51.65300 21.82900 43.47800
C  49.22600 21.91000 44.31800
C  50.46000 23.62400 40.93900
C  49.28100 24.10300 40.05900
H  49.02700 23.44900 38.62800
N  54.47000 21.05900 44.57000
C  53.52900 20.12700 44.16300
C  54.06900 18.78700 44.19800
C  55.44100 18.91000 44.53600
C  55.61200 20.37500 44.87400
C  53.32000 17.50500 43.84800
C  56.43600 17.85000 44.58000
O  56.18800 16.66400 44.35300
C  57.81800 18.11700 44.84400
N  56.16200 23.48900 45.32900
C  56.94800 22.43800 45.59600
C  58.31400 22.83400 46.16600
C  58.21000 24.38900 46.22600
C  56.69700 24.63100 45.83900
C  58.68700 22.23600 47.51900
C  59.25200 25.06500 45.28300
C  60.65400 25.34200 45.92400
N  53.92900 25.15000 44.91500
C  54.73600 26.16600 45.41400
C  54.08900 27.47600 45.29900
C  52.91400 27.19200 44.55000
C  52.84600 25.77700 44.36500
C  54.74100 28.83700 45.70000
C  51.75400 27.75400 43.88600
O  51.38200 28.95800 43.81100
C  50.92400 26.59700 43.26100
C  51.00900 26.93400 41.79400
O  52.01500 26.90000 41.05500
O  49.83400 27.47800 41.35200
C  49.81300 28.26700 40.12800
H  51.60100 19.74000 43.42200
H  57.58400 20.52800 45.52500
H  56.68600 26.74200 46.11500
H  49.29900 24.03100 42.63900
H  50.01800 21.24500 42.35000
H  48.75600 22.86700 44.54500
H  49.65400 21.56900 45.26000
H  48.40800 21.33100 43.89100
H  50.81000 22.66300 40.56300
H  51.27500 24.32100 40.74100
H  49.32100 25.17300 39.85300
H  48.41300 23.97200 40.70500
H  53.58400 17.25600 42.82000
H  52.25100 17.69000 43.95200
H  53.52600 16.65200 44.49600
H  58.10600 18.98300 44.24800
H  58.30100 17.19700 44.51400
H  57.94700 18.27000 45.91500
H  59.08800 22.46800 45.49200
H  58.30200 24.74900 47.25000
H  58.06000 21.41900 47.87600
H  58.55600 22.90300 48.37200
H  59.69000 21.81500 47.45700
H  58.74500 25.98100 44.98200
H  59.37600 24.48300 44.36900
H  61.46500 25.05400 45.25600
H  60.70200 24.80300 46.87000
H  60.76100 26.41600 46.08100
H  55.82600 28.83400 45.60100
H  54.37600 29.14200 46.68000
H  54.33200 29.59400 45.03100
H  49.90000 26.69600 43.62000
H  49.15100 29.13300 40.14800
H  49.36600 27.68600 39.32100
H  50.79600 28.64200 39.84300
Mg 42.10900 41.25000 26.89500
C  41.55900 43.57500 29.46000
C  43.20600 39.09100 29.27700
C  42.91000 39.16500 24.48400
C  41.22500 43.67100 24.54500
N  42.30200 41.35300 29.04800
C  41.88800 42.29100 29.89800
C  42.02600 41.92000 31.38500
C  42.60800 40.46400 31.34500
C  42.73000 40.30300 29.81800
C  43.85800 40.22100 32.18900
C  40.59900 41.90200 32.01500
C  40.49800 42.78100 33.27300
H  39.66600 42.02800 34.36500
N  43.05000 39.45700 26.90600
C  43.31700 38.59100 27.96500
C  43.73800 37.33300 27.54100
C  43.65000 37.27900 26.13700
C  43.15100 38.64200 25.76400
C  44.25300 36.22600 28.46900
C  43.97000 36.19800 25.16100
O  43.84100 36.30400 23.94100
C  44.42600 34.79700 25.68200
N  42.31600 41.44900 24.77900
C  42.48000 40.36400 23.98800
C  42.13900 40.56600 22.49300
C  41.44500 41.99800 22.57100
C  41.72200 42.43700 24.03900
C  43.38100 40.66800 21.58100
C  39.87600 42.07700 22.25800
C  38.89300 40.96100 22.55800
N  41.57400 43.29800 26.89600
C  41.17900 44.12000 25.85900
C  40.71200 45.38600 26.45500
C  40.89500 45.18900 27.78800
C  41.32400 43.92900 28.08900
C  40.26600 46.61100 25.80800
C  40.73900 45.90500 29.11500
O  40.42300 47.01200 29.45800
C  41.11400 44.83500 30.17700
C  42.20100 45.36700 31.06700
O  43.41200 45.29100 30.77700
O  41.62200 45.85000 32.18100
C  42.62600 46.39300 33.17200
H  43.38700 38.31100 30.02000
H  43.19900 38.48400 23.68000
H  40.68400 44.24600 23.79100
H  42.79700 42.55000 31.82800
H  41.78700 39.78600 31.58000
H  43.75400 39.14600 32.33600
H  43.86300 40.79600 33.11500
H  44.71900 40.59500 31.63500
H  40.30000 40.91800 32.37700
H  39.83600 42.03500 31.24800
H  39.97300 43.70800 33.04400
H  41.48600 43.11800 33.58500
H  44.39400 36.65500 29.46100
H  45.20700 35.96700 28.01000
H  43.50400 35.43700 28.41400
H  43.49800 34.59800 26.21800
H  45.34200 34.99300 26.23900
H  44.52800 34.14600 24.81300
H  41.42600 39.88500 22.02900
H  41.90700 42.68300 21.86100
H  44.27900 40.78200 22.18900
H  43.38100 41.55200 20.94200
H  43.38900 39.76800 20.96600
H  39.78000 42.42700 21.23000
H  39.44300 42.91000 22.81100
H  39.35900 40.34500 23.32700
H  38.68900 40.35000 21.67900
H  38.01700 41.40800 23.02800
H  39.98100 47.23300 26.65600
H  39.49500 46.31600 25.09600
H  41.08200 47.07200 25.25100
H  40.30900 44.68500 30.89700
H  42.91900 45.50500 33.73300
H  41.97900 47.01200 33.79300
H  43.48900 46.93200 32.77900

