158

Mg 16.80400 -2.02200 27.86200
C  15.81100 0.10700 30.37300
C  18.49500 -3.94700 30.04700
C  18.24200 -3.69700 25.24000
C  15.52600 0.30000 25.48600
N  17.23500 -1.80800 29.87000
C  16.58600 -0.93800 30.77900
C  16.94200 -1.36000 32.24200
C  17.93200 -2.50700 32.14500
C  17.93900 -2.77600 30.55700
C  19.42200 -2.16200 32.55900
C  15.72600 -1.49400 33.21500
C  15.83800 -0.60900 34.49800
H  17.29400 -0.25400 35.07600
N  18.13100 -3.71100 27.68300
C  18.57800 -4.43800 28.73400
C  19.24000 -5.62700 28.23600
C  19.07200 -5.56800 26.83100
C  18.53500 -4.23300 26.54600
C  19.75000 -6.72000 29.21500
C  19.42700 -6.57500 25.85200
O  19.32100 -6.43700 24.62800
C  19.97100 -7.83700 26.33600
N  16.81200 -1.81200 25.65600
C  17.61000 -2.52800 24.88200
C  17.47300 -2.05300 23.42400
C  16.35300 -0.94900 23.48900
C  16.22500 -0.76200 24.93300
C  18.72900 -1.57200 22.69500
C  15.00900 -1.30400 22.89300
C  14.37100 -0.42300 21.88500
N  15.78900 -0.24100 27.88800
C  15.28800 0.50400 26.85900
C  14.49600 1.66100 27.41700
C  14.79300 1.57700 28.81400
C  15.46900 0.34300 29.06100
C  13.70300 2.64800 26.71100
C  14.55000 2.21400 30.03200
O  14.09100 3.32500 30.28800
C  15.08600 1.30600 31.17400
C  15.97300 2.11100 31.96600
O  17.16900 2.37600 31.67900
O  15.34600 2.52600 33.12500
C  16.08900 3.35300 34.09500
H  18.79700 -4.70000 30.77900
H  18.51900 -4.18900 24.30500
H  15.08700 1.05700 24.83200
H  17.53100 -0.56600 32.70200
H  17.56500 -3.35900 32.71700
H  19.85700 -3.09900 32.90700
H  19.37800 -1.55800 33.46600
H  19.92100 -1.68600 31.71500
H  15.73100 -2.55200 33.47500
H  14.83700 -1.16500 32.67700
H  15.24900 -1.13900 35.24600
H  15.23900 0.29600 34.39100
H  20.57800 -7.30000 28.80800
H  18.90300 -7.28900 29.59700
H  20.18300 -6.21900 30.08000
H  20.09500 -8.35600 25.38500
H  19.25500 -8.36100 26.97000
H  20.98700 -7.65400 26.68700
H  17.00000 -2.86500 22.87200
H  16.76200 -0.06500 23.00100
H  18.69600 -0.51200 22.44500
H  18.76900 -2.14900 21.77100
H  19.63500 -1.91100 23.19800
H  14.29800 -1.29800 23.71900
H  15.03800 -2.36900 22.66500
H  13.61800 0.21300 22.35100
H  13.84100 -1.06700 21.18400
H  14.93400 0.28600 21.27700
H  14.39500 2.85500 25.89400
H  13.50400 3.54300 27.30100
H  12.78900 2.30100 26.23100
H  14.22400 1.02300 31.77800
H  15.65200 4.35100 34.11800
H  17.14400 3.40300 33.82500
H  16.06900 2.87600 35.07500
Mg 30.68900 59.03800 40.14400
C  27.70300 57.44800 39.37500
C  32.33000 56.15300 39.30700
C  33.48000 60.85800 39.92300
C  28.82100 62.10700 40.38800
N  30.03900 57.02800 39.56600
C  28.79500 56.58100 39.39600
C  28.76800 55.12800 38.88500
C  30.18300 54.68900 39.23800
C  30.91700 56.03000 39.37100
C  30.29400 53.98400 40.67300
C  28.51200 55.18900 37.26400
C  27.51000 54.16300 36.59300
H  26.61600 54.68300 35.42800
N  32.64100 58.58400 39.77100
C  33.10000 57.32000 39.47800
C  34.55900 57.45200 39.24900
C  34.95500 58.79900 39.53500
C  33.66300 59.46500 39.73000
C  35.39100 56.19800 39.06100
C  36.34300 59.35600 39.71200
O  37.27900 58.60300 39.39200
C  36.79200 60.64800 40.34400
N  31.15300 61.14500 40.16600
C  32.32200 61.66100 40.12800
C  32.36700 63.15000 40.17300
C  30.88000 63.57000 40.37800
C  30.19100 62.17000 40.24800
C  33.39400 63.72200 41.16500
C  30.38800 64.61200 39.36900
C  29.75400 65.86500 39.93400
N  28.72300 59.66100 39.98000
C  28.12100 60.98800 40.08300
C  26.72700 60.81500 39.75200
C  26.62100 59.50300 39.45700
C  27.78200 58.81900 39.59300
C  25.58200 61.81400 39.57800
C  25.62300 58.55900 39.04200
O  24.44500 58.77500 38.89400
C  26.29100 57.20700 38.93800
C  25.54300 56.19000 39.78100
O  25.44100 56.11100 41.04000
O  25.10100 55.17700 38.94500
C  24.93100 53.85300 39.52200
H  32.90900 55.24300 39.13500
H  34.42800 61.39900 39.88500
H  28.26700 63.04800 40.33600
H  27.97300 54.51100 39.30500
H  30.66400 54.02400 38.52100
H  29.33500 53.70000 41.10700
H  30.73000 54.63100 41.43400
H  31.00600 53.17100 40.52500
H  29.49000 54.86600 36.90800
H  28.37900 56.18700 36.84600
H  26.79700 53.74500 37.30500
H  28.16600 53.36500 36.24600
H  34.88100 55.64400 38.27300
H  35.14600 55.63500 39.96200
H  36.36900 56.44200 38.64600
H  37.81700 60.46400 40.66500
H  36.11600 60.93500 41.14900
H  36.77300 61.46100 39.61800
H  32.66200 63.53800 39.19800
H  30.74300 63.96900 41.38300
H  33.86900 62.87200 41.65600
H  32.95000 64.39700 41.89700
H  34.15800 64.31600 40.66500
H  29.58100 64.17100 38.78500
H  31.03700 64.92800 38.55200
H  30.09900 66.61100 39.21800
H  30.14600 66.21000 40.89100
H  28.67000 65.77500 39.85900
H  24.80700 61.57200 40.30600
H  25.22000 61.81200 38.55000
H  25.96700 62.79000 39.87200
H  26.20000 56.81000 37.92700
H  25.91300 53.43700 39.74400
H  24.56300 53.21400 38.71900
H  24.26800 53.89600 40.38600

