158

Mg 0.59300 8.68700 27.08400
C  1.51200 10.72200 29.83200
C  1.34500 5.89200 29.16300
C  0.18400 6.63600 24.41500
C  0.89300 11.47100 24.96000
N  1.59200 8.39200 29.16900
C  1.61400 9.37600 30.14000
C  1.63900 8.73200 31.50400
C  1.89600 7.23800 31.21200
C  1.70400 7.12100 29.73600
C  3.21100 6.56900 31.73100
C  0.25400 8.86800 32.26500
C  0.21700 8.81400 33.81600
H  1.44300 8.19700 34.63100
N  0.58800 6.54100 26.86700
C  0.88200 5.62700 27.85400
C  0.72800 4.33700 27.20100
C  0.27400 4.55200 25.89500
C  0.29100 5.95500 25.68800
C  1.12300 3.12200 27.93900
C  -0.16500 3.53200 24.83100
O  -0.58800 3.82100 23.70500
C  0.09900 2.08200 25.20300
N  0.56700 9.03000 24.90300
C  0.32000 8.06100 24.02200
C  0.39100 8.63600 22.58200
C  0.18000 10.13000 22.89600
C  0.65400 10.24100 24.32100
C  1.70900 8.26800 21.91400
C  -1.32100 10.45100 22.78400
C  -1.75800 11.88700 22.58400
N  0.98900 10.69600 27.25300
C  1.17000 11.74100 26.34100
C  1.53000 12.94000 27.02400
C  1.56500 12.58900 28.42900
C  1.26700 11.22100 28.52300
C  1.74900 14.29700 26.41800
C  1.82500 13.14900 29.70900
O  2.15100 14.28100 30.08600
C  1.66100 11.95600 30.65600
C  2.71400 11.96100 31.67400
O  3.94500 12.13200 31.40900
O  2.27400 11.91600 32.95700
C  3.28200 12.28300 33.99800
H  1.35600 5.06100 29.87100
H  0.04900 6.02400 23.52000
H  0.88200 12.34900 24.31100
H  2.43100 9.20400 32.08500
H  1.10900 6.65400 31.69000
H  3.60800 7.06000 32.62000
H  3.93200 6.61800 30.91500
H  2.94900 5.56500 32.06500
H  -0.43200 8.09600 31.91600
H  -0.26600 9.74300 31.87500
H  -0.63900 8.24400 34.17700
H  0.06300 9.81700 34.21300
H  1.60000 3.38800 28.88200
H  1.74400 2.45000 27.34600
H  0.13900 2.70300 28.14900
H  -0.32000 1.70300 26.13500
H  1.18800 2.05500 25.23600
H  -0.17900 1.46800 24.34600
H  -0.40100 8.13900 22.02200
H  0.82500 10.79700 22.32500
H  1.44700 7.93400 20.91100
H  2.11700 7.43600 22.48800
H  2.32400 9.16600 21.85100
H  -1.94300 10.17300 23.63500
H  -1.68000 9.92000 21.90200
H  -0.88700 12.54200 22.58700
H  -2.34100 12.17700 23.45800
H  -2.49900 12.07900 21.80800
H  1.68700 14.25500 25.33100
H  2.66000 14.72400 26.83800
H  1.00300 14.94900 26.87200
H  0.69600 11.94300 31.16300
H  3.32800 13.37200 34.00900
H  4.30000 11.93100 33.83400
H  3.00600 11.91700 34.98700
Mg 25.69500 1.88900 28.70300
C  27.58700 1.45500 31.81700
C  22.92700 2.31400 30.60600
C  23.93800 1.88000 25.98300
C  28.66300 0.90700 26.97400
N  25.28000 1.85300 31.00200
C  26.20600 1.76700 32.10900
C  25.50900 2.01600 33.46400
C  23.97800 2.06300 33.01600
C  24.06300 2.09800 31.47800
C  22.83200 1.11000 33.61200
C  26.02100 3.30600 34.23700
C  26.84500 3.11100 35.53000
H  26.51300 3.84900 36.81800
N  23.66900 2.18000 28.30600
C  22.68300 2.37900 29.19900
C  21.45700 2.58200 28.47800
C  21.70300 2.52500 27.12000
C  23.16900 2.29800 27.04700
C  20.21400 2.87300 29.22200
C  20.81900 2.75000 25.97400
O  21.24300 2.88700 24.84700
C  19.32000 2.93400 26.18800
N  26.19100 1.36200 26.80100
C  25.22700 1.34100 25.82400
C  25.90800 1.16700 24.39400
C  27.35300 0.75400 24.77500
C  27.46800 0.99600 26.21900
C  25.16000 0.17300 23.39700
C  28.42100 1.27100 23.81500
C  29.07300 2.63600 24.08300
N  27.72200 1.43000 29.12300
C  28.81400 1.05000 28.34500
C  29.90200 0.72100 29.15900
C  29.52500 0.92800 30.51500
C  28.15600 1.30400 30.47200
C  31.05600 -0.04400 28.74100
C  29.96200 0.81400 31.86800
O  31.04000 0.35400 32.25600
C  28.74100 1.26700 32.79400
C  28.55500 0.16400 33.80900
O  28.27000 -0.94700 33.44000
O  28.81700 0.64100 35.12100
C  28.50400 -0.35400 36.14700
H  22.09400 2.57600 31.26200
H  23.30500 1.94300 25.09500
H  29.61600 0.64000 26.51300
H  25.61600 1.10100 34.04700
H  23.59700 3.04400 33.30000
H  23.16800 0.60900 34.51900
H  22.79800 0.34800 32.83400
H  21.85300 1.55700 33.78400
H  25.24400 4.03100 34.47900
H  26.76000 3.84100 33.64200
H  27.87000 3.43400 35.35000
H  26.86500 2.05300 35.79400
H  19.80000 1.96300 29.65700
H  19.38900 3.33900 28.68200
H  20.46500 3.67700 29.91500
H  18.88900 2.16900 26.83500
H  18.82300 2.99100 25.22000
H  19.25600 3.93700 26.61100
H  25.97800 2.15400 23.93700
H  27.48000 -0.32800 24.81000
H  24.22900 -0.25300 23.77100
H  25.69300 -0.73100 23.10400
H  24.99900 0.61500 22.41400
H  28.12500 1.23800 22.76600
H  29.28900 0.63200 23.97800
H  30.15100 2.66100 24.24200
H  28.58400 3.08900 24.94600
H  28.87000 3.30600 23.24800
H  31.54100 -0.39100 29.65300
H  31.77500 0.53600 28.16400
H  30.72300 -0.81000 28.04000
H  28.99600 2.21000 33.27800
H  27.45200 -0.55300 36.34800
H  28.99800 -0.07900 37.07800
H  28.84000 -1.34000 35.82600

