158

Mg 0.72500 7.39800 26.54000
C  1.55900 9.84600 28.91000
C  0.98700 5.01100 28.86500
C  0.20800 5.16700 24.11500
C  1.31700 9.92500 24.14300
N  1.33800 7.46600 28.62200
C  1.38500 8.54800 29.46400
C  1.06500 8.14200 30.90800
C  1.47700 6.63800 30.79100
C  1.24700 6.31900 29.31200
C  2.90700 6.24700 31.24600
C  -0.28300 8.59800 31.41300
C  -0.36000 8.86800 32.89500
H  0.78200 8.54200 33.84600
N  0.45300 5.35400 26.53900
C  0.62400 4.53000 27.56100
C  0.36900 3.17700 27.17600
C  0.01900 3.15600 25.80900
C  0.22400 4.55500 25.41300
C  0.17700 2.04000 28.14900
C  -0.47200 2.06500 24.90900
O  -0.70400 2.20300 23.71800
C  -0.59200 0.65400 25.53000
N  0.66000 7.60000 24.38600
C  0.37500 6.45300 23.62500
C  0.48100 6.75200 22.11800
C  1.04300 8.27500 22.05600
C  0.99300 8.65000 23.59200
C  1.40400 5.69200 21.37500
C  0.18400 9.23100 21.17600
C  -1.25100 9.33700 21.66500
N  1.21900 9.47800 26.46200
C  1.37100 10.31600 25.44300
C  1.57800 11.64600 25.84600
C  1.67800 11.52000 27.26900
C  1.50400 10.19800 27.54800
C  1.72400 12.93700 24.97400
C  1.81400 12.20900 28.53400
O  2.04400 13.38900 28.84900
C  1.66000 11.17700 29.68400
C  2.83400 11.18600 30.48300
O  3.93200 10.68300 30.20800
O  2.66400 11.78200 31.70700
C  3.76100 11.83400 32.69600
H  1.12000 4.26800 29.65400
H  0.10800 4.48600 23.26700
H  1.50400 10.70000 23.39600
H  1.82600 8.65500 31.49500
H  0.60300 6.05900 31.08800
H  2.79000 5.99600 32.30000
H  3.60900 7.04200 30.99400
H  3.15300 5.35800 30.66500
H  -0.97700 7.76500 31.30300
H  -0.59400 9.52100 30.92300
H  -1.15600 8.22700 33.27400
H  -0.55200 9.92800 33.06600
H  -0.84900 1.71200 27.98600
H  0.29000 2.26800 29.20900
H  0.92300 1.27400 27.93900
H  0.19400 0.42100 26.24800
H  -0.53900 -0.08600 24.73200
H  -1.61400 0.59900 25.90500
H  -0.48400 6.62900 21.62500
H  2.04900 8.22700 21.63900
H  2.11200 5.17300 22.02200
H  2.04200 6.05100 20.56800
H  0.75500 4.91200 20.97700
H  0.22200 8.93800 20.12700
H  0.65900 10.21200 21.19100
H  -1.65900 10.33000 21.84800
H  -1.56800 8.85900 22.59200
H  -1.87300 8.82100 20.93400
H  0.87800 13.61000 25.11400
H  1.77000 12.77300 23.89700
H  2.63500 13.45800 25.26800
H  0.83100 11.44800 30.33800
H  4.69200 12.14400 32.22100
H  3.90400 10.93200 33.29100
H  3.71200 12.60600 33.46400
Mg 47.61100 25.11700 27.84600
C  48.41000 27.27000 30.46700
C  46.94600 22.70600 30.27100
C  47.31200 22.95900 25.35400
C  49.11400 27.38300 25.61200
N  47.34700 25.09000 30.11800
C  47.81000 26.10600 30.95500
C  47.55900 25.78400 32.41300
C  47.01600 24.34900 32.28600
C  47.09500 24.00200 30.82900
C  47.60200 23.21400 33.20200
C  46.41200 26.73000 32.90900
C  45.83900 26.30000 34.28300
H  45.47200 27.38300 35.34000
N  47.20300 23.12700 27.77500
C  46.89600 22.28900 28.88900
C  46.61800 20.92500 28.43300
C  46.73300 21.02400 26.97900
C  47.16900 22.40700 26.61200
C  46.17400 19.71400 29.26900
C  46.34800 20.02100 25.96700
O  46.50100 20.20300 24.78200
C  45.67500 18.66000 26.24200
N  48.19700 25.20600 25.84500
C  47.85700 24.17300 24.98900
C  48.03900 24.59900 23.50700
C  48.32200 26.09700 23.60700
C  48.63700 26.21200 25.07300
C  49.19200 23.78300 22.73100
C  47.07100 27.00500 23.16700
C  47.44200 28.00600 22.06200
N  48.54800 26.98800 27.94600
C  49.15600 27.80600 26.94000
C  49.69200 28.95100 27.61700
C  49.44800 28.84200 28.99200
C  48.68700 27.62100 29.14400
C  50.43500 30.04900 26.90800
C  49.69300 29.37300 30.26400
O  50.28800 30.41700 30.59400
C  49.11100 28.38700 31.23200
C  50.22700 27.93400 32.17000
O  50.87800 26.95900 31.92300
O  50.27100 28.68700 33.32500
C  51.41700 28.34800 34.16200
H  46.78200 21.82400 30.89400
H  47.04500 22.35100 24.48800
H  49.46100 28.00000 24.78100
H  48.45700 25.94900 33.00900
H  45.99000 24.27700 32.64500
H  47.93400 22.30100 32.70700
H  47.03800 22.89700 34.07900
H  48.58900 23.55600 33.51600
H  45.59000 26.75400 32.19300
H  46.74700 27.76200 33.01400
H  46.51000 25.62800 34.81600
H  44.89900 25.80300 34.04400
H  46.61900 18.77600 28.93600
H  45.09500 19.68400 29.12400
H  46.49000 19.83400 30.30500
H  45.27900 18.12600 25.37900
H  44.81700 18.81200 26.89700
H  46.49300 18.06400 26.64800
H  47.08700 24.46300 22.99400
H  49.19600 26.37700 23.01800
H  50.12300 24.34100 22.62900
H  48.89200 23.65600 21.69100
H  49.34800 22.82900 23.23600
H  46.70700 27.50500 24.06500
H  46.27900 26.34600 22.81200
H  47.00500 27.62400 21.13900
H  48.52600 28.04800 21.95700
H  47.13300 29.00300 22.37600
H  50.96900 30.67300 27.62500
H  49.76800 30.69800 26.34000
H  51.20600 29.65900 26.24300
H  48.43100 28.87500 31.93100
H  52.28700 28.37800 33.50800
H  51.27500 27.37700 34.63600
H  51.53600 29.02400 35.00900

