158

Mg 35.90600 2.55900 30.69400
C  33.64700 3.71500 32.99100
C  38.35700 2.54400 33.12900
C  38.24700 1.56600 28.36100
C  33.54900 2.88200 28.14300
N  35.96000 3.08800 32.71600
C  34.91900 3.42400 33.50800
C  35.30100 3.27800 35.06500
C  36.82600 3.37600 34.86000
C  37.08700 2.97300 33.41600
C  37.48100 4.64100 35.35200
C  34.70500 2.01800 35.70800
C  34.44000 2.12100 37.26200
H  34.99200 3.34800 37.97100
N  38.05500 2.09700 30.70700
C  38.81600 2.15900 31.87500
C  40.16500 1.79400 31.57900
C  40.19500 1.35900 30.14200
C  38.82800 1.69300 29.64600
C  41.28000 1.84200 32.62000
C  41.23400 0.84200 29.31300
O  41.11600 0.50500 28.12200
C  42.59000 0.69000 29.89700
N  35.93000 2.49700 28.51500
C  36.96300 1.87800 27.80900
C  36.63300 1.56400 26.31700
C  35.12400 1.93700 26.26600
C  34.83600 2.51000 27.69800
C  37.62600 2.27200 25.33700
C  34.09500 0.84400 25.81800
C  34.37900 0.11500 24.51900
N  33.97400 3.23000 30.52600
C  33.14200 3.31600 29.42500
C  31.80900 3.72400 29.93000
C  31.93800 3.79800 31.33800
C  33.29700 3.62100 31.58900
C  30.55100 3.82500 29.03900
C  31.21700 4.07200 32.56600
O  30.04400 4.30500 32.65000
C  32.23700 3.89200 33.75000
C  31.94700 4.99100 34.67600
O  32.33000 6.15200 34.54700
O  31.14900 4.49400 35.71000
C  31.04400 5.42600 36.89000
H  39.06500 2.66900 33.95100
H  38.95300 1.30300 27.57000
H  32.75400 2.90100 27.39500
H  34.98100 4.13000 35.66400
H  37.27300 2.51600 35.35900
H  36.89000 5.08200 36.15500
H  37.62600 5.29500 34.49200
H  38.44300 4.45300 35.82900
H  35.32600 1.15300 35.47500
H  33.78200 1.77100 35.18300
H  34.81400 1.26700 37.82500
H  33.35400 2.08400 37.34600
H  41.36200 0.80800 32.95400
H  41.02100 2.53200 33.42300
H  42.16800 2.34400 32.23500
H  43.31100 0.30900 29.17400
H  42.50900 0.11000 30.81700
H  42.94500 1.68900 30.14900
H  36.71400 0.52900 25.98500
H  34.95000 2.82200 25.65400
H  37.15600 3.09900 24.80500
H  38.24600 1.63000 24.71100
H  38.26900 2.81600 26.02900
H  33.12500 1.29400 25.61000
H  34.01100 0.10800 26.61800
H  34.39800 -0.97200 24.59500
H  35.39700 0.38900 24.24100
H  33.62500 0.35500 23.77000
H  30.60700 3.06200 28.26200
H  30.34700 4.85400 28.74000
H  29.65900 3.44400 29.53600
H  31.90100 2.92800 34.13200
H  30.25500 4.93800 37.46200
H  30.71900 6.45100 36.71100
H  31.92900 5.37300 37.52400
Mg 47.96300 16.06600 28.19100
C  45.75400 15.85500 31.07700
C  49.91500 18.24100 30.19400
C  49.90500 16.70600 25.55200
C  45.67100 14.27400 26.37900
N  47.79600 16.99400 30.35700
C  46.89500 16.57300 31.38600
C  47.38000 17.16300 32.78900
C  48.54100 18.15700 32.32700
C  48.74900 17.75200 30.90300
C  48.28500 19.69100 32.39800
C  47.93300 16.10800 33.81300
C  47.69800 16.48600 35.27500
H  47.28000 17.90000 35.62500
N  49.67300 17.28800 27.91600
C  50.31900 18.04400 28.88800
C  51.50300 18.57800 28.38100
C  51.45100 18.30800 26.90300
C  50.30300 17.35800 26.72200
C  52.44000 19.45100 29.16900
C  52.34000 18.92000 25.76400
O  52.16400 18.69600 24.56400
C  53.52700 19.77800 26.12800
N  47.76300 15.61000 26.25700
C  48.74500 15.91800 25.35000
C  48.38800 15.35100 24.00200
C  47.21600 14.44000 24.28600
C  46.86700 14.74300 25.75000
C  48.16600 16.45000 22.99400
C  47.58900 12.92500 24.05100
C  46.96400 12.28700 22.79100
N  46.00100 15.27300 28.50500
C  45.20700 14.54300 27.64900
C  43.99200 14.16300 28.34800
C  44.13700 14.66000 29.70800
C  45.42700 15.32900 29.75800
C  42.87000 13.38700 27.75500
C  43.51900 14.70600 31.05200
O  42.46700 14.30900 31.48600
C  44.58500 15.38800 31.98500
C  44.00100 16.64100 32.62600
O  43.95900 17.69500 32.09900
O  43.53600 16.37500 33.87100
C  43.07300 17.55700 34.64000
H  50.59300 18.88900 30.75300
H  50.45000 16.97100 24.64400
H  45.12500 13.54500 25.77700
H  46.55100 17.80500 33.08300
H  49.46100 18.02000 32.89600
H  48.17100 20.12600 31.40500
H  49.16000 20.13200 32.87600
H  47.42600 19.94300 33.02100
H  49.00700 15.94100 33.72500
H  47.50500 15.12100 33.64000
H  48.63800 16.37100 35.81400
H  46.94200 15.81500 35.68400
H  52.94900 18.93000 29.98000
H  51.92400 20.22600 29.73500
H  53.29500 19.87700 28.64500
H  53.26600 20.75100 26.54500
H  53.98600 19.92400 25.15000
H  54.06800 19.16600 26.85000
H  49.25000 14.76100 23.69100
H  46.42200 14.73700 23.60000
H  48.94700 16.24300 22.26200
H  48.29500 17.46000 23.38500
H  47.30100 16.26900 22.35600
H  47.28100 12.31500 24.90000
H  48.67400 12.83100 24.01400
H  46.50000 11.34300 23.07600
H  47.75700 12.16900 22.05200
H  46.22100 12.89600 22.27500
H  43.11500 13.03800 26.75200
H  42.01900 14.05200 27.61000
H  42.62400 12.51400 28.35900
H  44.83400 14.66600 32.76300
H  42.01600 17.82500 34.63900
H  43.59100 18.49400 34.43700
H  43.49100 17.38600 35.63200

