158

Mg 54.29500 24.59900 44.29200
C  51.57600 26.90700 43.73800
C  52.29000 22.23000 43.44400
C  57.01400 22.59400 44.10300
C  56.25000 27.45400 44.69900
N  52.16600 24.62600 43.57600
C  51.21100 25.54600 43.46200
C  49.87700 24.97500 42.93600
C  50.10200 23.48300 43.17100
C  51.61100 23.40300 43.44800
C  49.29800 22.73100 44.30500
C  49.69100 25.21200 41.42700
C  48.16500 25.14900 40.99000
H  47.95400 24.71100 39.55900
N  54.61200 22.65900 43.86000
C  53.64300 21.78500 43.55900
C  54.14800 20.47300 43.46500
C  55.55600 20.63000 43.58000
C  55.83000 22.03100 43.81400
C  53.26000 19.23500 43.24200
C  56.59800 19.49900 43.48300
O  56.21800 18.36500 43.26500
C  58.14400 19.63400 43.59700
N  56.42500 25.00600 44.30800
C  57.33700 23.96000 44.39100
C  58.76200 24.49400 44.54700
C  58.40300 26.06500 44.80100
C  56.92000 26.21500 44.60700
C  59.44200 23.84200 45.77900
C  59.16100 27.05100 43.85500
C  59.77600 28.30500 44.59400
N  54.04400 26.78200 44.30700
C  54.92700 27.73400 44.48900
C  54.33600 29.04400 44.42200
C  53.00700 28.74100 44.14300
C  52.90800 27.38700 44.06600
C  54.86700 30.36700 44.69700
C  51.67700 29.30500 43.95300
O  51.24600 30.43700 44.04500
C  50.69000 28.20000 43.79500
C  50.08400 28.54400 42.50700
O  50.69500 28.39600 41.44100
O  48.78000 28.88200 42.58400
C  48.21600 29.49700 41.38900
H  51.67900 21.32600 43.45900
H  57.84300 21.89300 44.21800
H  56.94400 28.27200 44.90500
H  49.00300 25.44600 43.38700
H  49.96600 22.94100 42.23500
H  49.88200 22.23500 45.08100
H  48.65700 22.03500 43.76300
H  48.69900 23.44500 44.87000
H  50.17800 24.43100 40.84400
H  50.13300 26.14700 41.08100
H  47.85600 26.18400 41.13400
H  47.61200 24.39600 41.55200
H  53.02500 19.09500 42.18600
H  52.34600 19.36800 43.82000
H  53.82200 18.39000 43.63800
H  58.45500 20.37900 42.86500
H  58.59500 18.66000 43.40600
H  58.39600 19.85800 44.63300
H  59.21700 24.42300 43.55900
H  58.66800 26.22100 45.84600
H  58.75500 23.08400 46.15300
H  59.54900 24.58300 46.57200
H  60.38300 23.34600 45.54000
H  58.49900 27.44300 43.08300
H  59.98100 26.47600 43.42400
H  59.45100 29.20200 44.06700
H  60.84900 28.18000 44.44700
H  59.60300 28.26500 45.67000
H  55.19300 30.59500 45.71200
H  54.06600 31.06900 44.46400
H  55.72000 30.58700 44.05500
H  50.00200 28.18800 44.64000
H  47.25500 29.94000 41.65000
H  48.04100 28.69800 40.66800
H  48.87000 30.25900 40.96600
Mg -10.64900 38.59300 41.01400
C  -8.59500 35.79600 40.53700
C  -8.46500 40.50600 39.35000
C  -12.92700 41.07200 41.24300
C  -13.12400 36.40200 42.49200
N  -8.83600 38.11500 39.84500
C  -8.15800 36.90700 39.77300
C  -6.88600 37.05900 38.94500
C  -6.81600 38.60300 38.65000
C  -8.10400 39.15700 39.37100
C  -5.47800 39.17900 39.14400
C  -6.93300 36.12700 37.70000
C  -5.60100 35.40300 37.31300
H  -4.54900 36.17900 36.45100
N  -10.64300 40.53600 40.41400
C  -9.59900 41.21700 39.76000
C  -9.94700 42.60300 39.58800
C  -11.31700 42.80900 40.03300
C  -11.70900 41.46200 40.64800
C  -8.96500 43.65800 39.16800
C  -12.06800 44.17500 40.00300
O  -11.61800 45.17600 39.54800
C  -13.41600 44.23100 40.75800
N  -12.80400 38.60600 41.48800
C  -13.39600 39.80800 41.63900
C  -14.84300 39.70500 42.17100
C  -15.01400 38.18300 42.34400
C  -13.56500 37.65600 42.12700
C  -15.17000 40.59400 43.36800
C  -16.01800 37.50200 41.32300
C  -15.53500 36.88800 40.00800
N  -10.86500 36.58600 41.44500
C  -11.84300 35.87100 42.10900
C  -11.34400 34.57700 42.44200
C  -10.09900 34.51700 41.83700
C  -9.84800 35.76800 41.23200
C  -12.15500 33.49900 43.10300
C  -8.98000 33.65500 41.58100
O  -8.88600 32.51700 41.91800
C  -7.95900 34.42700 40.80600
C  -6.66000 34.33900 41.52200
O  -5.97200 33.32200 41.49600
O  -6.36400 35.51100 42.23400
C  -5.15000 35.50300 43.13600
H  -7.63600 41.11100 38.97600
H  -13.69300 41.80700 41.49800
H  -13.83300 35.71100 42.95300
H  -6.00100 36.73800 39.49300
H  -6.80000 38.97100 37.62400
H  -5.59900 39.61900 40.13400
H  -5.10400 39.96500 38.48700
H  -4.73800 38.40300 39.33900
H  -7.18100 36.83700 36.91200
H  -7.71700 35.38600 37.85700
H  -5.96100 34.57500 36.70200
H  -5.12400 35.00700 38.21000
H  -7.95000 43.26100 39.19000
H  -9.05500 44.39700 39.96400
H  -9.15200 44.18800 38.23500
H  -13.23900 44.06000 41.82000
H  -14.07500 43.48900 40.30700
H  -13.88900 45.21100 40.70700
H  -15.48000 39.95900 41.32400
H  -15.34700 37.91100 43.34500
H  -14.18800 40.92700 43.70400
H  -15.61400 39.99500 44.16300
H  -15.75600 41.45000 43.03000
H  -16.83500 38.16800 41.04900
H  -16.38400 36.60600 41.82500
H  -16.13200 37.05200 39.11200
H  -15.32800 35.81800 40.00500
H  -14.56100 37.36400 39.89100
H  -12.55100 33.80800 44.07000
H  -11.42300 32.75800 43.42300
H  -12.94700 33.07000 42.48900
H  -8.06800 33.96600 39.82500
H  -5.38800 35.59100 44.19600
H  -4.65800 36.47400 43.07100
H  -4.39000 34.74100 42.96500

