158

Mg 0.23600 7.31100 26.34400
C  1.10100 9.32800 29.03900
C  -0.00200 4.52200 28.49400
C  -0.40100 5.39100 23.69000
C  0.62400 10.10900 24.26000
N  0.54100 7.05500 28.47500
C  0.84100 8.01500 29.43400
C  0.81900 7.40400 30.78800
C  0.73100 5.90200 30.56400
C  0.31700 5.81200 29.06000
C  2.06800 5.12500 30.84800
C  -0.47300 7.93400 31.56400
C  -0.48500 7.82400 33.16700
H  0.72900 7.15900 33.77000
N  -0.06700 5.20000 26.08800
C  -0.15100 4.25800 27.05600
C  -0.41500 2.94900 26.44000
C  -0.45000 3.20300 25.07800
C  -0.27400 4.62600 24.87700
C  -0.58800 1.60400 27.17600
C  -0.64800 2.19500 23.88400
O  -0.55800 2.51900 22.71100
C  -0.92800 0.73600 24.24800
N  0.29500 7.65800 24.30900
C  -0.21000 6.75800 23.46700
C  -0.40100 7.28500 22.02500
C  -0.41000 8.80300 22.31200
C  0.18100 8.89500 23.69100
C  0.87600 6.82800 21.14800
C  -1.85200 9.43800 22.20400
C  -2.00900 10.30800 20.92600
N  0.78000 9.34900 26.52600
C  0.96900 10.33400 25.60700
C  1.33500 11.55000 26.26900
C  1.48400 11.22600 27.60600
C  1.03800 9.83700 27.71200
C  1.57600 12.88400 25.59100
C  1.72900 11.72300 28.93700
O  1.92500 12.88900 29.29300
C  1.47000 10.47000 29.94600
C  2.79900 10.18400 30.60000
O  3.59700 9.35400 30.23800
O  2.78300 10.81500 31.85900
C  3.74500 10.24400 32.85200
H  0.02400 3.66300 29.16800
H  -0.50100 4.79200 22.78200
H  0.69200 10.95200 23.56900
H  1.66100 7.80000 31.35500
H  -0.01700 5.44200 31.20800
H  2.73600 5.77200 31.41600
H  2.59200 4.97000 29.90400
H  1.88900 4.15600 31.31200
H  -1.33500 7.46100 31.09400
H  -0.60800 9.00300 31.39900
H  -1.44100 7.34300 33.37400
H  -0.58300 8.89400 33.34900
H  0.12000 0.83100 26.87700
H  -1.61900 1.26600 27.07000
H  -0.40800 1.69700 28.24700
H  -1.84500 0.69600 24.83700
H  -0.10800 0.17300 24.69300
H  -1.16000 0.20800 23.32300
H  -1.30800 6.93000 21.53600
H  0.23700 9.29300 21.58500
H  1.77700 6.77900 21.75900
H  0.94000 7.49800 20.29100
H  0.69100 5.79800 20.84300
H  -2.01800 10.12700 23.03200
H  -2.66900 8.71700 22.19300
H  -1.16000 10.14900 20.26200
H  -2.01500 11.35500 21.23200
H  -2.93000 10.05600 20.40100
H  0.70400 13.49800 25.81700
H  1.55000 12.76100 24.50900
H  2.35600 13.48200 26.06200
H  0.74200 10.88400 30.64500
H  3.75400 9.15800 32.95100
H  3.56000 10.64700 33.84800
H  4.79600 10.43800 32.63500
Mg -11.78500 17.13900 42.23400
C  -8.62100 15.51200 41.90600
C  -10.18300 19.96200 40.73300
C  -14.79100 18.58500 41.95600
C  -13.20000 14.12200 43.09900
N  -9.64100 17.65000 41.36000
C  -8.53800 16.79600 41.34800
C  -7.29300 17.58700 40.86700
C  -7.82200 18.96400 40.60400
C  -9.26400 18.87100 40.99900
C  -7.04700 20.12400 41.29800
C  -6.72200 16.85500 39.59800
C  -5.28500 16.27400 39.75700
H  -4.78800 15.05000 38.88000
N  -12.37000 19.11400 41.53400
C  -11.58000 20.00800 40.93600
C  -12.45800 21.08700 40.56000
C  -13.76900 20.78400 41.06900
C  -13.68500 19.42700 41.56600
C  -11.91600 22.30300 39.87700
C  -14.90400 21.83800 41.09500
O  -14.77900 22.94100 40.57900
C  -16.19300 21.61700 41.89500
N  -13.69000 16.40100 42.19000
C  -14.83200 17.15900 42.13000
C  -16.13400 16.43400 42.48900
C  -15.51200 15.02900 42.90800
C  -14.05700 15.12800 42.59700
C  -16.84100 17.11900 43.78600
C  -16.13800 13.85500 42.24700
C  -16.45700 12.62000 43.12600
N  -11.18300 15.15200 42.46000
C  -11.79800 14.11100 43.02400
C  -10.84700 13.00100 43.27200
C  -9.59800 13.56600 42.80100
C  -9.85800 14.87000 42.36700
C  -11.25100 11.64900 43.76400
C  -8.25300 13.28100 42.60900
O  -7.60200 12.23600 42.75700
C  -7.52000 14.46200 41.97600
C  -6.40400 14.94300 42.82400
O  -6.43100 15.81900 43.65100
O  -5.29800 14.19100 42.58300
C  -4.02400 14.64800 43.19400
H  -9.73200 20.85100 40.28800
H  -15.76400 19.07200 41.85900
H  -13.63100 13.27200 43.63100
H  -6.53000 17.62000 41.64500
H  -7.70400 19.23800 39.55500
H  -6.40000 20.62200 40.57600
H  -6.46300 19.66600 42.09600
H  -7.69300 20.83000 41.82000
H  -6.60600 17.54100 38.75900
H  -7.36300 16.02000 39.31700
H  -5.05100 16.06000 40.80000
H  -4.64200 17.06000 39.36200
H  -12.65700 22.84700 39.29100
H  -11.19300 22.00000 39.12000
H  -11.53500 22.96400 40.65500
H  -16.63200 22.61500 41.92600
H  -16.05100 21.11400 42.85200
H  -16.77900 20.98400 41.23000
H  -16.70600 16.34400 41.56600
H  -15.61600 14.99700 43.99200
H  -16.81800 16.48100 44.66900
H  -17.85100 17.47200 43.58100
H  -16.22100 17.96100 44.09400
H  -15.49600 13.49000 41.44600
H  -17.14800 14.13100 41.94600
H  -15.54400 12.12700 43.46300
H  -17.12600 11.93800 42.60200
H  -17.00400 12.87800 44.03300
H  -10.86000 10.90000 43.07500
H  -12.32500 11.49800 43.87000
H  -10.73200 11.49000 44.70900
H  -7.14800 14.32100 40.96100
H  -3.96600 15.62900 43.66600
H  -3.32200 14.64100 42.36100
H  -3.70900 13.88200 43.90400

