158

Mg 47.82000 45.32400 42.74500
C  44.50400 44.25800 42.72500
C  48.71900 41.85400 42.60000
C  50.92600 46.13200 41.90700
C  46.73200 48.64500 42.60100
N  46.78300 43.33700 42.73200
C  45.43200 43.18000 42.71900
C  45.09700 41.68500 42.76500
C  46.41300 40.87800 42.91400
C  47.36100 42.07100 42.76500
C  46.58800 40.07400 44.30000
C  44.13300 41.04100 41.68400
C  44.74000 41.13900 40.19900
H  43.76900 41.00300 38.94400
N  49.60500 44.20200 42.39400
C  49.77200 42.80500 42.38400
C  51.23500 42.49100 42.24300
C  51.83600 43.71700 42.00100
C  50.85500 44.74900 42.08200
C  51.76900 41.10500 42.05400
C  53.29000 43.88700 41.62000
O  54.00200 42.89200 41.49900
C  53.91000 45.18900 41.41600
N  48.61800 47.03800 42.34000
C  49.97000 47.19000 42.05200
C  50.39100 48.66100 41.97900
C  49.20700 49.39500 42.52700
C  48.08500 48.30400 42.47500
C  51.68100 49.12900 42.67800
C  48.87000 50.68500 41.71600
C  48.55200 51.92200 42.54600
N  46.04000 46.26000 42.91100
C  45.68500 47.66800 42.65900
C  44.29700 47.79800 42.56800
C  43.74800 46.46500 42.69600
C  44.85700 45.59900 42.83600
C  43.49200 49.00400 42.16900
C  42.53400 45.71200 42.70900
O  41.34100 46.03800 42.61400
C  42.95900 44.18900 42.85200
C  42.37500 43.67900 44.15100
O  41.40500 42.90300 44.27200
O  42.89300 44.48400 45.12900
C  42.35200 44.43700 46.43600
H  49.03500 40.81300 42.69400
H  51.86500 46.60600 41.61400
H  46.44400 49.69400 42.69600
H  44.58300 41.61000 43.72400
H  46.66700 40.11600 42.17600
H  45.57400 40.01700 44.69400
H  47.15300 40.74700 44.94500
H  47.11700 39.12200 44.34000
H  43.08500 41.30700 41.82600
H  44.03900 39.98900 41.95500
H  45.37200 40.25300 40.26400
H  45.30300 42.05900 40.04700
H  52.24400 40.97400 41.08100
H  51.02100 40.34800 42.28800
H  52.63000 40.95800 42.70500
H  53.67800 45.64500 40.45300
H  54.98700 45.03800 41.48800
H  53.52700 45.80000 42.23400
H  50.49500 48.69900 40.89500
H  49.40500 49.65600 43.56700
H  51.63500 50.20200 42.86600
H  52.58900 48.86000 42.13700
H  51.76000 48.59700 43.62600
H  48.10900 50.40000 40.99000
H  49.71500 50.94300 41.07600
H  47.52800 52.27200 42.41800
H  49.10000 52.77900 42.15600
H  48.84900 51.73900 43.57900
H  42.61200 48.72700 41.58800
H  44.11900 49.69700 41.60800
H  43.25800 49.53800 43.08900
H  42.44500 43.67700 42.03900
H  41.52000 43.73700 46.51900
H  41.98600 45.38200 46.83600
H  43.21000 44.12700 47.03200
Mg 15.90900 51.63400 25.89600
C  17.85700 50.67500 28.59200
C  13.35300 52.48100 27.91100
C  13.92700 52.27200 23.09900
C  18.42300 50.48200 23.71200
N  15.58000 51.51700 28.09200
C  16.58200 51.21600 29.02500
C  16.07600 51.50600 30.42200
C  14.59500 51.94800 30.20600
C  14.48800 52.07300 28.65600
C  13.56300 50.86300 30.81200
C  17.04400 52.55700 31.08500
C  17.18000 52.49800 32.60500
H  16.32800 51.44900 33.35700
N  13.93800 52.51700 25.58700
C  12.99700 52.64400 26.58500
C  11.78000 53.02100 25.95700
C  11.98600 53.13800 24.59000
C  13.39100 52.71800 24.33000
C  10.58900 53.30600 26.80200
C  10.92700 53.57700 23.52600
O  11.16200 53.71900 22.31000
C  9.58800 54.12400 23.87800
N  16.15900 51.57000 23.71400
C  15.16700 51.82800 22.80200
C  15.55900 51.48100 21.35600
C  17.08200 51.14400 21.56900
C  17.30300 51.05900 23.10200
C  14.62800 50.41800 20.78800
C  18.10900 52.03100 20.83900
C  18.34100 53.44300 21.35000
N  17.69500 50.69000 26.10500
C  18.66300 50.35700 25.11500
C  19.74000 49.80500 25.77000
C  19.52900 49.85100 27.13400
C  18.24500 50.45400 27.29200
C  20.99600 49.30200 25.10500
C  19.97300 49.52800 28.40500
O  20.97000 48.89900 28.75100
C  18.92900 50.05100 29.48200
C  18.48700 48.94100 30.40700
O  17.76800 48.00900 30.03100
O  19.03500 49.12600 31.64900
C  18.66600 48.03100 32.59500
H  12.47200 52.63900 28.53700
H  13.24900 52.25200 22.24300
H  19.13500 50.12300 22.96600
H  16.14600 50.56700 30.97100
H  14.40400 52.87200 30.75200
H  12.74300 50.72300 30.10800
H  13.04500 51.36600 31.62900
H  14.02500 49.96300 31.21800
H  16.65000 53.51300 30.74100
H  18.02400 52.51700 30.60700
H  16.99600 53.50200 32.98600
H  18.20600 52.19100 32.81000
H  10.67200 52.75700 27.74000
H  9.62000 53.02700 26.38800
H  10.56300 54.36800 27.04800
H  9.73000 55.01300 24.49100
H  8.94900 53.43500 24.43100
H  9.18900 54.46600 22.92300
H  15.40200 52.40400 20.79600
H  17.21700 50.11600 21.23200
H  15.25600 49.67900 20.28900
H  14.01000 50.88300 20.02000
H  13.87900 49.97900 21.44700
H  17.72300 52.11300 19.82200
H  19.02800 51.46500 20.68300
H  18.25400 54.22700 20.59800
H  19.32000 53.58800 21.80700
H  17.66400 53.76400 22.14200
H  21.31200 49.90400 24.25300
H  20.92000 48.26100 24.79200
H  21.79000 49.40900 25.84500
H  19.39200 50.85600 30.05200
H  18.02600 47.19400 32.31700
H  18.25600 48.44800 33.51600
H  19.53700 47.57500 33.06500

