158

Mg -2.07000 16.92100 26.35000
C  -2.65000 14.94200 29.13000
C  -2.63600 19.66300 28.26700
C  -2.26100 18.56300 23.47200
C  -2.43800 13.80600 24.26600
N  -2.56700 17.17900 28.47900
C  -2.58700 16.28200 29.45000
C  -2.61600 16.92800 30.84800
C  -2.66500 18.43600 30.50900
C  -2.66100 18.44900 28.99000
C  -3.79300 19.22700 31.26000
C  -1.50500 16.62000 31.84200
C  -1.41000 17.40300 33.13900
H  -0.74000 16.71500 34.35100
N  -2.20500 18.88800 25.90600
C  -2.45000 19.85500 26.88300
C  -2.57000 21.13900 26.14200
C  -2.23000 20.78800 24.81500
C  -2.25400 19.35700 24.68800
C  -3.01300 22.52400 26.71300
C  -1.89900 21.80200 23.68100
O  -1.71300 21.37300 22.51600
C  -1.66800 23.19200 24.01500
N  -2.17500 16.19500 24.15000
C  -2.20800 17.17500 23.19500
C  -2.10300 16.61200 21.71700
C  -2.51300 15.11300 22.05000
C  -2.26800 15.03100 23.56900
C  -2.85200 17.14400 20.59000
C  -1.66200 14.16600 21.15300
C  -2.48700 13.45700 20.07000
N  -2.44300 14.81200 26.60500
C  -2.57400 13.73200 25.69700
C  -2.97800 12.54400 26.46100
C  -2.91700 12.92600 27.84300
C  -2.61300 14.27100 27.85600
C  -3.22400 11.24300 25.89300
C  -3.04200 12.49600 29.27100
O  -3.10600 11.35600 29.73900
C  -2.92500 13.81500 30.14800
C  -1.72700 13.45600 30.97000
O  -0.58100 13.60600 30.61600
O  -2.05000 12.78100 32.14900
C  -0.89300 12.26700 32.92500
H  -2.63500 20.55300 28.90000
H  -2.36200 19.20800 22.59700
H  -2.69700 12.95600 23.63100
H  -3.59100 16.65000 31.24800
H  -1.73200 18.93600 30.76900
H  -4.54600 19.40500 30.49200
H  -3.41700 20.19000 31.60700
H  -4.10600 18.61200 32.10400
H  -0.52700 16.74300 31.37700
H  -1.56600 15.54900 32.03500
H  -2.38200 17.80100 33.43000
H  -0.81400 18.30900 33.03800
H  -3.61600 22.42900 27.61500
H  -3.71200 22.95700 25.99700
H  -2.09600 23.09600 26.85700
H  -1.17200 23.72700 23.20500
H  -0.88400 23.27000 24.76900
H  -2.59100 23.70900 24.27600
H  -1.06300 16.69300 21.39900
H  -3.58200 14.89900 22.02500
H  -3.59600 17.87400 20.90900
H  -3.22100 16.43800 19.84500
H  -2.18900 17.76700 19.99000
H  -1.39900 13.29400 21.75200
H  -0.74600 14.59600 20.74700
H  -2.17300 13.90900 19.12900
H  -3.56500 13.53300 20.21500
H  -2.28200 12.39600 19.92400
H  -2.58200 10.96500 25.05600
H  -4.28200 11.18500 25.63900
H  -2.89800 10.41900 26.52700
H  -3.81100 13.99000 30.76000
H  -0.56900 13.10600 33.54100
H  -0.08900 11.73300 32.41700
H  -1.31400 11.55700 33.63700
Mg 17.36800 51.64100 26.63900
C  19.18100 50.20900 29.32200
C  14.82100 52.36200 28.78300
C  15.44300 52.72900 23.92900
C  19.74500 50.45100 24.36700
N  17.08900 51.36100 28.86500
C  18.02300 50.88600 29.74600
C  17.55000 51.07800 31.19700
C  15.99500 51.42200 30.97300
C  15.96800 51.78800 29.46600
C  14.94800 50.33800 31.30300
C  18.43100 52.09000 31.94500
C  18.07600 52.44900 33.42600
H  17.23500 51.42600 34.24600
N  15.39100 52.56400 26.44700
C  14.53100 52.73800 27.43700
C  13.31700 53.44500 26.93800
C  13.44800 53.52000 25.50800
C  14.79400 52.92500 25.22600
C  12.18000 53.73500 27.90700
C  12.54900 54.19500 24.46700
O  12.75200 54.27100 23.25200
C  11.24700 54.73000 24.90600
N  17.52000 51.60000 24.47900
C  16.61100 52.13800 23.60600
C  17.16200 52.01300 22.18000
C  18.52300 51.26500 22.34300
C  18.68500 51.20600 23.84400
C  16.16200 51.37000 21.20500
C  19.70100 51.91400 21.60600
C  20.88300 52.48700 22.40900
N  19.07000 50.51400 26.79700
C  19.95200 50.15700 25.75000
C  21.05400 49.32100 26.31400
C  20.79000 49.33400 27.72700
C  19.60800 50.04000 27.92800
C  22.19100 48.64600 25.66600
C  21.17900 48.74300 28.99600
O  22.03700 47.90400 29.25200
C  20.26900 49.47800 30.09900
C  19.78000 48.58900 31.14100
O  19.16700 47.54900 30.95100
O  20.07800 49.10700 32.42200
C  19.68400 48.15200 33.52300
H  14.02400 52.57100 29.50100
H  15.12400 53.07200 22.94300
H  20.49900 50.11200 23.65400
H  17.68700 50.12000 31.69800
H  15.69700 52.36700 31.42700
H  14.13400 50.82300 31.84300
H  15.48800 49.58600 31.87800
H  14.50000 50.03100 30.35800
H  18.28400 53.04300 31.43700
H  19.45000 51.70300 31.93300
H  17.65000 53.45100 33.39500
H  19.00900 52.58500 33.97300
H  11.26100 54.25700 27.64500
H  12.58700 54.15000 28.82900
H  11.85000 52.76400 28.27800
H  10.59900 54.02600 25.42800
H  10.72300 55.15300 24.04900
H  11.52600 55.53200 25.59000
H  17.31000 53.02100 21.79200
H  18.41600 50.27300 21.90500
H  15.56600 50.57200 21.64700
H  16.77400 50.85500 20.46500
H  15.56000 52.13600 20.71700
H  19.28600 52.58800 20.85700
H  20.06200 51.02000 21.09700
H  21.54600 51.68000 22.72100
H  20.47900 52.98500 23.29100
H  21.45500 53.17700 21.78900
H  21.98600 48.40900 24.62200
H  22.40500 47.67100 26.10500
H  23.14900 49.16500 25.68300
H  20.98500 50.19300 30.50400
H  18.64000 48.00800 33.24600
H  19.58600 48.74600 34.43100
H  20.20900 47.22400 33.75200

