158

Mg 47.82100 25.33300 28.93500
C  48.81100 27.54200 31.50800
C  46.69100 23.05000 31.36700
C  47.16600 23.07100 26.47500
C  49.32600 27.35600 26.59800
N  48.03200 25.24200 31.32600
C  48.27800 26.36800 32.09000
C  47.95400 26.00900 33.58100
C  47.24700 24.60700 33.43300
C  47.38400 24.21100 31.90400
C  47.74000 23.54500 34.40500
C  46.98900 27.06300 34.31700
C  47.40400 27.37900 35.82000
H  46.31300 27.68300 36.85100
N  46.87200 23.39400 28.92700
C  46.49600 22.66500 30.02400
C  45.84500 21.45200 29.54300
C  45.98900 21.45800 28.07000
C  46.71400 22.72600 27.73200
C  45.16200 20.29700 30.38600
C  45.45300 20.47900 27.09500
O  45.43600 20.68100 25.88200
C  44.73900 19.14900 27.57800
N  48.21700 25.26500 26.88800
C  47.99500 24.13600 26.13100
C  48.45100 24.46700 24.68000
C  48.80800 25.96200 24.67500
C  48.80200 26.16800 26.16600
C  49.50800 23.38600 24.20100
C  47.82200 26.98100 23.99300
C  48.30600 28.39800 23.65300
N  48.93900 27.06500 28.98600
C  49.38700 27.85600 27.95400
C  49.87000 29.12500 28.48900
C  49.62200 28.97800 29.84500
C  49.12800 27.69200 30.08500
C  50.42600 30.27200 27.71200
C  49.71400 29.74900 31.10700
O  50.07900 30.90100 31.23500
C  49.27400 28.75600 32.23800
C  50.49600 28.55400 33.05500
O  51.52000 27.91900 32.75400
O  50.34700 29.15800 34.30900
C  51.36000 28.80700 35.25900
H  46.30700 22.30900 32.07100
H  47.04600 22.29100 25.72000
H  49.79900 28.03300 25.88200
H  48.83000 25.71200 34.15800
H  46.18200 24.69500 33.64900
H  48.00600 22.71100 33.75600
H  46.95500 23.20200 35.07900
H  48.70700 23.74000 34.86800
H  45.97000 26.75100 34.09000
H  47.06500 28.01700 33.79600
H  48.01300 28.27100 35.67000
H  48.11500 26.63400 36.17800
H  45.71300 19.36800 30.24100
H  44.09700 20.27700 30.15600
H  45.08400 20.53200 31.44700
H  43.85700 19.17400 28.21800
H  45.51700 18.62200 28.13200
H  44.49200 18.57000 26.68900
H  47.59100 24.27600 24.03900
H  49.83200 26.03500 24.30900
H  49.07200 22.65500 23.51900
H  49.83000 22.92500 25.13400
H  50.36000 23.83200 23.68700
H  47.02600 27.21000 24.70100
H  47.48100 26.48600 23.08300
H  47.82800 28.75800 22.74200
H  49.39100 28.34400 23.56700
H  47.98500 29.08800 24.43300
H  51.48000 30.47100 27.90500
H  49.80600 31.14500 27.91600
H  50.15000 30.05400 26.68000
H  48.44200 29.26000 32.73100
H  52.35500 28.51500 34.92200
H  51.06700 28.02100 35.95600
H  51.42600 29.71900 35.85200
Mg 28.51100 58.80900 42.54400
C  25.87200 56.89200 41.03400
C  30.73500 56.99500 40.83600
C  30.72700 61.06900 43.39800
C  25.89000 60.99600 43.63300
N  28.23100 57.11500 41.12800
C  27.17000 56.50700 40.61000
C  27.52100 55.39500 39.59000
C  29.09800 55.35100 39.74100
C  29.39300 56.59800 40.64800
C  29.63300 54.07200 40.38100
C  26.99500 55.64200 38.14300
C  26.47400 54.48400 37.35900
H  27.08600 54.29500 35.98900
N  30.49300 58.98400 42.17100
C  31.29100 58.13600 41.45700
C  32.63900 58.55200 41.47100
C  32.65500 59.71800 42.23400
C  31.24600 59.96400 42.69300
C  33.77200 57.83300 40.77200
C  33.84700 60.53000 42.61800
O  34.94200 60.12500 42.30400
C  33.81300 61.70000 43.49200
N  28.31500 60.68500 43.57400
C  29.40200 61.36100 43.92200
C  29.04000 62.69800 44.57800
C  27.54800 62.66200 44.49600
C  27.17800 61.29600 43.90600
C  29.57600 62.75700 46.04400
C  26.99200 63.94500 43.78400
C  25.80100 64.61900 44.48000
N  26.31100 58.87100 42.58800
C  25.39200 59.78800 43.09300
C  24.05600 59.40900 42.94900
C  24.20200 58.30300 42.11300
C  25.56500 57.96400 41.91900
C  22.84400 60.10000 43.34800
C  23.36500 57.34800 41.46700
O  22.12300 57.18600 41.55800
C  24.48800 56.38200 40.70900
C  24.23600 54.96500 41.19600
O  24.07200 54.52100 42.32000
O  24.35200 54.15700 40.04100
C  24.47900 52.67900 40.22100
H  31.47100 56.29200 40.43900
H  31.48300 61.79200 43.71100
H  25.11100 61.69000 43.95300
H  26.94900 54.52100 39.90400
H  29.51000 55.32800 38.73200
H  30.40400 53.67500 39.72000
H  28.90800 53.28300 40.57900
H  30.18400 54.22000 41.30900
H  27.85800 56.09000 37.65100
H  26.17800 56.35600 38.24300
H  25.38500 54.50300 37.30100
H  26.68200 53.51600 37.81500
H  33.30900 56.96000 40.31000
H  34.69400 57.67400 41.33000
H  34.13900 58.44100 39.94500
H  33.41400 62.59900 43.02300
H  34.86900 61.89100 43.68500
H  33.35000 61.51600 44.46200
H  29.62300 63.49500 44.11800
H  27.03400 62.69400 45.45700
H  29.53500 63.77000 46.44400
H  30.62300 62.46700 45.96200
H  29.07800 62.10000 46.75800
H  26.58400 63.55500 42.85100
H  27.78300 64.64600 43.51700
H  25.70900 65.70300 44.41800
H  25.76300 64.32000 45.52800
H  24.89400 64.13700 44.11300
H  22.97100 60.73600 44.22300
H  21.99200 59.43200 43.47200
H  22.58000 60.69800 42.47600
H  24.18900 56.54100 39.67300
H  23.44900 52.32100 40.22000
H  24.94400 52.45200 41.18000
H  24.86500 52.18800 39.32700

