158

Mg 47.04900 25.00700 28.92700
C  47.85500 27.44700 31.36100
C  46.02700 22.99900 31.46500
C  46.54200 22.73200 26.62700
C  48.84100 26.99600 26.55100
N  47.03900 25.20700 31.18900
C  47.19600 26.34100 31.90800
C  46.98200 26.14500 33.43000
C  46.49900 24.62500 33.50000
C  46.48300 24.24500 31.92000
C  47.30400 23.67600 34.42100
C  46.01900 27.18700 33.94700
C  46.10300 27.59700 35.44000
H  46.94700 26.79100 36.39900
N  46.24400 23.10600 29.00200
C  45.89600 22.45700 30.14400
C  45.36100 21.20600 29.72600
C  45.54800 21.15700 28.34700
C  46.08500 22.37700 27.91800
C  44.86900 20.15600 30.70800
C  45.27800 19.98700 27.39300
O  45.54000 20.03100 26.21300
C  44.83300 18.68800 28.04700
N  47.53300 25.00000 26.84800
C  47.20500 23.85900 26.13300
C  47.52400 24.13800 24.66300
C  48.27300 25.50700 24.58900
C  48.17200 25.88600 26.08800
C  48.28000 22.97200 23.85500
C  47.37500 26.40500 23.64400
C  46.20200 27.20800 24.26600
N  48.08000 26.83100 28.86500
C  48.69600 27.52500 27.85000
C  49.12300 28.78200 28.32900
C  48.83800 28.79600 29.70100
C  48.22900 27.60000 29.98800
C  49.57600 29.87600 27.36600
C  48.94400 29.64700 30.83600
O  49.41100 30.80500 30.85300
C  48.33400 28.78400 32.01600
C  49.33200 28.62300 33.08200
O  50.30800 27.85500 33.06800
O  49.01800 29.54400 34.00400
C  49.98600 29.46800 35.15200
H  45.43500 22.46300 32.21000
H  46.35200 22.01300 25.82800
H  49.34200 27.55200 25.75700
H  47.98400 26.14700 33.86000
H  45.43600 24.67300 33.73500
H  48.07900 24.29400 34.87400
H  47.64900 22.84500 33.80600
H  46.66700 23.42200 35.26700
H  45.06900 26.65200 33.94400
H  45.90900 28.07200 33.32000
H  45.04600 27.63500 35.70100
H  46.48300 28.61600 35.51800
H  45.50400 19.27300 30.79100
H  43.89600 19.77000 30.40500
H  44.82800 20.57700 31.71300
H  45.56800 18.04100 28.52700
H  44.65800 18.08500 27.15600
H  43.87600 19.01500 28.45200
H  46.53300 24.16400 24.20900
H  49.32800 25.52900 24.31600
H  49.21500 23.38400 23.47600
H  47.64600 22.71400 23.00700
H  48.39000 22.14600 24.55800
H  46.92000 25.74400 22.90600
H  48.03700 27.03300 23.04700
H  46.08000 27.17500 25.34800
H  45.26900 26.84500 23.83500
H  46.43900 28.21900 23.93500
H  49.42700 29.74000 26.29500
H  50.63400 30.06300 27.54900
H  48.95700 30.74100 27.60700
H  47.46700 29.37000 32.32400
H  50.97300 29.01100 35.08600
H  49.30300 29.04700 35.88900
H  50.21400 30.48800 35.46400
Mg 16.81700 52.08500 25.99800
C  18.42200 50.48400 28.70100
C  14.71100 53.37000 28.25400
C  15.36800 53.38500 23.45100
C  19.16900 50.31900 23.84200
N  16.51000 51.86100 28.30300
C  17.29600 51.18000 29.17600
C  16.82000 51.41900 30.67400
C  15.50400 52.25700 30.38300
C  15.56300 52.55900 28.92500
C  14.09800 51.71300 30.80200
C  17.87600 52.29500 31.37000
C  18.28500 51.82700 32.88200
H  17.61200 52.56800 33.95800
N  15.17600 53.21100 25.80500
C  14.50900 53.72500 26.87400
C  13.42800 54.55500 26.39900
C  13.64600 54.67200 25.00100
C  14.73200 53.73600 24.66100
C  12.47000 55.34300 27.19700
C  12.84800 55.38500 23.91500
O  13.14500 55.39200 22.71100
C  11.55000 56.21800 24.24500
N  17.07100 51.70200 23.92100
C  16.40000 52.47300 23.07800
C  16.90500 52.34200 21.64300
C  18.21200 51.46800 21.79000
C  18.17100 51.13200 23.26400
C  15.88500 52.10100 20.47600
C  19.55300 52.28600 21.42200
C  19.84000 53.62600 22.08300
N  18.48200 50.69300 26.16300
C  19.34300 50.11900 25.20000
C  20.41900 49.47300 25.88700
C  20.12300 49.52700 27.23500
C  18.92000 50.22100 27.34400
C  21.56100 48.89300 25.12500
C  20.55800 49.25000 28.61600
O  21.49300 48.65300 29.01700
C  19.43500 49.85900 29.62100
C  18.82000 48.90700 30.51800
O  17.92300 48.13600 30.23000
O  19.53300 48.97800 31.65400
C  19.14900 48.12100 32.77700
H  13.99300 53.87500 28.90200
H  14.97900 53.74300 22.49600
H  19.92700 49.87800 23.19100
H  16.59000 50.51700 31.24100
H  15.49500 53.26700 30.79300
H  13.78800 51.17100 29.90800
H  13.43300 52.51300 31.12800
H  14.23100 51.03100 31.64200
H  17.41200 53.24000 31.65500
H  18.79000 52.54400 30.83300
H  19.34700 52.02200 33.02700
H  18.12400 50.75100 32.95700
H  11.45700 54.94000 27.19600
H  12.56100 56.35300 26.79700
H  12.79900 55.33400 28.23600
H  10.89400 55.60900 24.86700
H  11.21800 56.52300 23.25200
H  11.70400 57.07400 24.90200
H  17.23100 53.33300 21.32600
H  18.13000 50.55500 21.20000
H  15.76100 52.96600 19.82500
H  14.90800 52.00000 20.94900
H  16.03900 51.17700 19.91800
H  19.64300 52.28100 20.33600
H  20.38700 51.63800 21.69100
H  20.22700 54.28100 21.30200
H  20.49100 53.43700 22.93600
H  18.91500 54.01600 22.50700
H  21.21400 48.17600 24.38100
H  22.21800 48.40400 25.84400
H  22.05100 49.71400 24.60100
H  19.80200 50.67600 30.24300
H  18.26600 47.49700 32.64100
H  18.93000 48.64000 33.71100
H  19.97400 47.48200 33.09100

