158

Mg 16.11200 52.45300 25.46600
C  18.28400 51.51500 27.92500
C  13.79200 53.31300 27.73900
C  13.92200 53.42500 22.94600
C  18.35500 51.40600 23.07700
N  16.08600 52.44500 27.63500
C  17.10500 51.99500 28.44500
C  16.70800 52.25200 29.99500
C  15.19000 52.69900 29.85600
C  15.02100 52.86600 28.34700
C  14.15200 51.72100 30.43700
C  17.57700 53.35600 30.70300
C  17.61500 53.38400 32.26300
H  16.67200 52.57800 33.18100
N  14.17300 53.43000 25.35200
C  13.32500 53.63500 26.41100
C  12.13000 54.25400 25.97200
C  12.21000 54.34200 24.54400
C  13.52100 53.82000 24.19400
C  10.93400 54.66900 26.90300
C  11.11400 54.71000 23.51100
O  11.27900 54.67700 22.28100
C  9.68500 55.03200 24.00200
N  16.16600 52.59600 23.30900
C  15.14100 52.89000 22.56200
C  15.48700 52.55800 21.06200
C  16.88200 52.03400 21.11900
C  17.17900 51.99100 22.60100
C  14.44500 51.62200 20.31700
C  17.97700 52.81400 20.30100
C  18.65500 51.99300 19.18000
N  17.97700 51.72800 25.40500
C  18.78200 51.41300 24.35500
C  19.94100 50.77100 24.86900
C  19.84500 50.85400 26.22000
C  18.62800 51.46500 26.52400
C  21.00600 50.02600 24.10200
C  20.44500 50.36100 27.46100
O  21.42000 49.63800 27.64400
C  19.54400 50.92700 28.60500
C  19.22100 49.83600 29.56900
O  18.68700 48.79400 29.42000
O  19.70800 50.16000 30.76600
C  19.42400 49.29900 31.94800
H  13.12800 53.58200 28.56400
H  13.42300 53.86800 22.08200
H  18.73700 50.82500 22.23500
H  16.81800 51.29900 30.51300
H  15.06900 53.67600 30.32400
H  14.67900 50.81500 30.73500
H  13.52300 51.38800 29.61200
H  13.61800 52.04200 31.33100
H  17.17800 54.31800 30.38200
H  18.61800 53.31100 30.38300
H  17.70200 54.39000 32.67200
H  18.56500 52.85100 32.29600
H  10.05800 54.02100 26.90200
H  10.54700 55.67900 26.77000
H  11.39800 54.64100 27.88900
H  9.06400 54.95800 23.10900
H  9.83400 56.04700 24.36900
H  9.32900 54.36700 24.78900
H  15.42500 53.52900 20.57200
H  16.94300 50.99500 20.79400
H  14.85400 50.76800 19.77600
H  13.83900 52.14000 19.57400
H  13.81900 51.19900 21.10300
H  18.76100 53.15300 20.97800
H  17.49800 53.71800 19.92600
H  18.79000 52.51500 18.23200
H  18.06800 51.11700 18.90100
H  19.64400 51.66700 19.50000
H  21.46800 50.81100 23.50300
H  20.53300 49.34100 23.39800
H  21.69900 49.52700 24.77900
H  20.11700 51.75100 29.02900
H  18.34400 49.18100 32.04400
H  19.96500 49.74200 32.78400
H  19.82500 48.28900 31.86700
Mg -0.18500 44.04000 25.93700
C  2.04200 43.83400 28.72400
C  -2.57200 42.72800 27.96200
C  -2.18000 44.24600 23.30000
C  2.52800 45.04200 23.97700
N  -0.23100 43.41600 28.15400
C  0.76100 43.46900 29.13300
C  0.34000 42.85600 30.49700
C  -1.17700 42.47200 30.17600
C  -1.36700 42.83500 28.71100
C  -1.68600 41.00400 30.62300
C  0.41800 43.79300 31.66600
C  0.95200 43.20700 33.00100
H  0.23500 41.93700 33.34200
N  -2.11700 43.54600 25.67700
C  -2.96900 43.08300 26.64900
C  -4.28000 42.96600 26.00500
C  -4.14300 43.24700 24.63300
C  -2.75500 43.73800 24.50500
C  -5.49000 42.38700 26.78000
C  -5.18600 43.04800 23.51000
O  -4.92900 43.32700 22.33400
C  -6.55200 42.43600 23.79500
N  0.04800 44.85200 24.04100
C  -0.90400 44.71700 23.07900
C  -0.43700 45.14800 21.71000
C  1.09000 45.50000 21.95800
C  1.24600 45.06100 23.39500
C  -0.57300 44.03900 20.63500
C  1.34200 47.04500 21.84600
C  0.95900 47.79400 20.57000
N  1.87900 44.30600 26.16700
C  2.85500 44.71100 25.28900
C  4.11800 44.63400 25.91000
C  3.87800 44.36400 27.21900
C  2.45600 44.21500 27.36900
C  5.38400 44.93500 25.29400
C  4.51300 44.08000 28.46800
O  5.69300 43.99700 28.76600
C  3.32600 43.85900 29.55400
C  3.64500 42.42900 29.93600
O  3.56900 41.41800 29.25500
O  3.95700 42.32600 31.24800
C  3.96500 40.93300 31.86200
H  -3.31300 42.23500 28.59600
H  -2.74500 44.46200 22.39100
H  3.38600 45.10500 23.30400
H  0.86800 41.92000 30.68100
H  -1.89200 43.14000 30.65600
H  -2.06900 40.53200 29.71900
H  -2.59700 41.11700 31.21000
H  -0.96300 40.33600 31.09200
H  -0.51600 44.30200 31.90600
H  1.06000 44.60500 31.32500
H  0.75400 43.87100 33.84300
H  2.03900 43.12100 33.01300
H  -5.54700 41.32600 26.53900
H  -6.41100 42.84600 26.42100
H  -5.53000 42.56900 27.85400
H  -7.07000 42.45700 22.83600
H  -6.99300 43.22900 24.40000
H  -6.56000 41.48800 24.33200
H  -1.02800 46.01400 21.41200
H  1.86500 45.07900 21.31700
H  0.29400 43.84700 20.00200
H  -1.45500 44.27500 20.04000
H  -0.72200 43.11100 21.18700
H  2.42900 47.09700 21.90800
H  0.86300 47.59000 22.66000
H  0.25500 48.59100 20.80500
H  0.46700 47.13400 19.85600
H  1.92300 48.23900 20.32200
H  6.04000 45.43900 26.00300
H  5.39600 45.54200 24.38900
H  5.84200 43.98600 25.01400
H  3.40200 44.55200 30.39200
H  4.41900 40.19000 31.20700
H  2.96700 40.53900 32.05000
H  4.75100 40.73900 32.59200

