158

Mg -1.94400 17.49600 26.39000
C  -2.21800 15.14400 29.02100
C  -2.59700 20.03300 28.60700
C  -2.18600 19.53100 23.82000
C  -1.92400 14.67000 24.15500
N  -2.48600 17.51700 28.57200
C  -2.35400 16.43700 29.47200
C  -2.50400 17.03300 30.92100
C  -2.65500 18.60200 30.73500
C  -2.58200 18.74800 29.19300
C  -3.98300 19.14500 31.41200
C  -1.26100 16.71000 31.76100
C  -1.05500 17.50600 33.04300
H  -0.66300 16.66700 34.28600
N  -2.14600 19.49700 26.24000
C  -2.36200 20.35300 27.28500
C  -2.40100 21.77100 26.74400
C  -2.27000 21.58500 25.32900
C  -2.24500 20.16400 25.07100
C  -2.44100 22.99400 27.59200
C  -2.10400 22.60100 24.28000
O  -2.23200 22.39300 23.08200
C  -1.80800 24.00400 24.77900
N  -2.17000 17.07500 24.25300
C  -1.98700 18.19300 23.48100
C  -1.96300 17.79400 22.00300
C  -1.65300 16.27000 22.09700
C  -1.86200 15.93800 23.57400
C  -3.23400 18.25200 21.27500
C  -0.25600 15.85500 21.56200
C  -0.19200 15.18200 20.14800
N  -2.07200 15.37000 26.44900
C  -2.06200 14.37000 25.51800
C  -2.13300 13.05100 26.05200
C  -2.14000 13.20700 27.45600
C  -2.10200 14.71900 27.66000
C  -2.37600 11.82400 25.30700
C  -2.19700 12.63100 28.81000
O  -2.10600 11.47200 29.22800
C  -2.27000 13.85000 29.80100
C  -1.15000 13.58100 30.72900
O  -0.03200 13.96900 30.53200
O  -1.64100 13.05600 31.83400
C  -0.62800 12.63100 32.82100
H  -2.81700 20.83900 29.31000
H  -2.26400 20.20100 22.96200
H  -1.73800 13.88900 23.41500
H  -3.41600 16.60900 31.34200
H  -1.76800 19.13200 31.08200
H  -3.64500 19.97600 32.03000
H  -4.62100 18.36000 31.81900
H  -4.58600 19.60900 30.63100
H  -0.41700 16.79800 31.07700
H  -1.27200 15.66800 32.08100
H  -1.90000 18.14400 33.29900
H  -0.23200 18.21100 32.93400
H  -2.47600 22.77700 28.66000
H  -3.27000 23.67500 27.39900
H  -1.55800 23.58700 27.35400
H  -0.90700 23.84100 25.37100
H  -2.67700 24.42700 25.28200
H  -1.64400 24.58000 23.86900
H  -1.16200 18.39600 21.57400
H  -2.48800 15.74000 21.64000
H  -3.91700 18.83900 21.89000
H  -3.67900 17.27600 21.08200
H  -3.03900 18.85700 20.38900
H  0.15000 15.18500 22.31900
H  0.29400 16.79500 21.50700
H  0.26800 14.20100 20.26900
H  0.46700 15.79000 19.52800
H  -1.18500 15.09900 19.70700
H  -1.51500 11.25600 24.95400
H  -2.96300 12.15500 24.45000
H  -2.96600 11.27900 26.04300
H  -3.21600 13.83600 30.34100
H  0.23100 12.13600 32.36900
H  -0.93600 11.95200 33.61600
H  -0.32600 13.55400 33.31700
Mg 16.32000 51.51900 25.62900
C  18.09200 50.12900 28.44200
C  13.92800 52.43500 27.91400
C  14.28100 51.87200 23.06600
C  18.83800 50.35600 23.55100
N  16.16900 51.33200 27.98000
C  17.03300 50.85700 28.90900
C  16.58800 51.16000 30.31800
C  15.12300 51.65600 30.11300
C  15.07800 51.86900 28.59100
C  13.96300 50.73300 30.54600
C  17.55600 52.10100 31.05800
C  18.16800 51.61900 32.41500
H  17.30100 50.81500 33.37900
N  14.42600 52.12200 25.45500
C  13.58000 52.59800 26.51200
C  12.32600 52.99700 25.97600
C  12.34300 52.63700 24.57900
C  13.71600 52.21600 24.30100
C  11.20800 53.58900 26.87600
C  11.19600 52.75900 23.58400
O  11.31100 52.41000 22.42100
C  9.90100 53.44000 23.97000
N  16.64000 51.21900 23.58800
C  15.61600 51.47000 22.71300
C  16.12200 51.28900 21.25300
C  17.65300 51.11500 21.43800
C  17.72200 50.86300 22.97900
C  15.45000 50.15400 20.42400
C  18.61200 52.21100 21.03600
C  18.34900 53.67400 21.59800
N  18.14000 50.46700 25.94800
C  19.04300 50.07000 24.94200
C  20.16900 49.41500 25.58400
C  19.78900 49.43100 26.98400
C  18.54400 50.04500 27.08700
C  21.44800 48.96200 25.02200
C  20.29700 49.02900 28.29600
O  21.37700 48.56800 28.66600
C  19.16300 49.49500 29.29100
C  18.67200 48.28400 30.16800
O  17.62700 47.68200 30.03300
O  19.51100 48.11000 31.27500
C  19.09100 47.00800 32.19500
H  13.21500 52.62500 28.71800
H  13.70200 52.20400 22.20100
H  19.69900 49.93500 23.02700
H  16.47600 50.31200 30.99200
H  15.03800 52.56900 30.70100
H  14.31500 49.85300 31.08400
H  13.23000 50.32400 29.85100
H  13.36000 51.21000 31.31800
H  17.10700 53.08200 31.21200
H  18.42300 52.27500 30.42100
H  18.40300 52.43700 33.09700
H  18.99800 50.97200 32.13300
H  10.47800 52.78800 26.99400
H  10.76200 54.42900 26.34300
H  11.74600 54.02100 27.71900
H  9.09000 53.14100 23.30600
H  10.19700 54.48900 23.93700
H  9.71300 53.00800 24.95300
H  16.00400 52.20400 20.67400
H  18.00500 50.22300 20.92000
H  14.37800 49.96400 20.47600
H  15.83400 49.16300 20.66800
H  15.66000 50.27300 19.36100
H  18.55600 52.32600 19.95400
H  19.65000 51.90700 21.17700
H  18.36100 54.44900 20.83200
H  19.14300 53.91700 22.30400
H  17.34300 53.66500 22.01800
H  21.85700 49.60700 24.24300
H  21.29800 47.97200 24.59200
H  22.24600 48.88300 25.76100
H  19.67700 50.27100 29.85900
H  18.50100 46.19800 31.76600
H  18.43500 47.30700 33.01200
H  20.00100 46.53400 32.56400

