158

Mg 0.70400 8.49000 26.18000
C  1.51300 10.23000 29.15600
C  1.18100 5.55700 27.96200
C  0.70300 6.78900 23.23400
C  1.15800 11.38000 24.39100
N  1.21400 8.00000 28.31400
C  1.40700 8.87700 29.36100
C  1.43300 8.11000 30.67200
C  1.51900 6.65600 30.29400
C  1.25900 6.72600 28.77100
C  2.87300 5.83200 30.65300
C  0.23600 8.51600 31.62300
C  0.36600 8.50800 33.26800
H  1.69100 7.95300 33.78400
N  0.83500 6.43600 25.68300
C  0.98700 5.40300 26.58600
C  0.93700 4.14500 25.87800
C  0.84100 4.52800 24.46400
C  0.74300 5.97600 24.37800
C  0.99400 2.80200 26.52700
C  0.88800 3.65500 23.20100
O  0.66300 4.14200 22.10900
C  1.39200 2.26300 23.31100
N  0.70000 8.95400 24.19800
C  0.76200 8.16100 23.17300
C  1.14300 8.89800 21.96700
C  0.49100 10.22400 22.28100
C  0.75300 10.20000 23.71800
C  2.68700 8.96700 21.71700
C  -1.04100 10.39500 22.04800
C  -1.49900 11.67800 21.46600
N  1.15800 10.46300 26.63800
C  1.41800 11.52700 25.78800
C  1.80200 12.72200 26.58200
C  1.76900 12.21300 27.93500
C  1.36700 10.86500 27.91200
C  2.09600 14.13900 26.08300
C  2.05900 12.61200 29.31700
O  2.50200 13.65300 29.75700
C  1.80500 11.27600 30.14400
C  2.88900 11.09100 31.13800
O  4.03200 10.71600 30.89600
O  2.50900 11.57200 32.35400
C  3.52800 11.41300 33.46000
H  1.28500 4.65500 28.56800
H  0.74200 6.39600 22.21600
H  1.45200 12.13200 23.65600
H  2.34800 8.24800 31.24700
H  0.64800 6.08300 30.61000
H  2.50500 4.80800 30.72100
H  3.33800 6.18800 31.57300
H  3.61300 5.97700 29.86600
H  -0.58400 7.84100 31.37600
H  -0.05800 9.53600 31.37500
H  -0.39800 7.88600 33.73500
H  0.23700 9.48000 33.74500
H  0.66800 2.71400 27.56400
H  1.95300 2.31000 26.36700
H  0.21700 2.27100 25.97700
H  1.69700 1.99800 22.29800
H  0.73600 1.53200 23.78300
H  2.24000 2.18200 23.99100
H  0.65900 8.41500 21.11800
H  0.94100 10.95000 21.60400
H  3.08900 9.97800 21.65600
H  3.04300 8.49700 20.80000
H  3.19400 8.46000 22.53800
H  -1.62600 10.23700 22.95400
H  -1.39200 9.74200 21.24900
H  -0.75000 12.45800 21.33800
H  -2.15000 12.20100 22.16700
H  -2.11800 11.58100 20.57300
H  1.21000 14.57700 25.62300
H  3.03800 14.25600 25.54600
H  2.34000 14.76000 26.94500
H  0.94600 11.44700 30.79200
H  3.68800 12.39100 33.91300
H  4.41400 10.80400 33.28200
H  2.96800 10.99500 34.29700
Mg 46.78900 25.15300 28.40700
C  47.72500 27.32000 30.92600
C  46.17700 22.74000 30.84600
C  46.16500 22.85400 25.95200
C  48.00700 27.27800 26.03200
N  46.98100 25.07600 30.63400
C  47.26500 26.13300 31.44100
C  47.06600 25.79200 32.98500
C  46.70400 24.21900 32.90900
C  46.61800 23.97400 31.38800
C  47.54400 23.27400 33.80800
C  46.07700 26.71200 33.71500
C  45.38000 26.19500 34.97400
H  45.35900 27.09200 36.23600
N  46.17600 23.08800 28.42700
C  45.94100 22.28100 29.53300
C  45.43500 20.97200 29.07000
C  45.58700 20.96600 27.68300
C  45.95900 22.35000 27.27900
C  44.90300 19.85500 29.99900
C  45.33600 19.78000 26.80600
O  45.39200 19.81600 25.56200
C  44.84400 18.48200 27.40200
N  46.95900 25.15600 26.21600
C  46.56200 24.16100 25.43300
C  46.90600 24.40900 23.94800
C  47.24000 25.88400 23.99100
C  47.42900 26.11900 25.46800
C  48.00900 23.47400 23.40900
C  46.08500 26.78900 23.44400
C  46.44600 27.96000 22.52500
N  47.74900 26.86500 28.44000
C  48.19100 27.64200 27.38800
C  48.67900 28.84500 27.91200
C  48.58000 28.80000 29.29800
C  48.00000 27.54200 29.60100
C  49.34800 29.94600 27.14700
C  48.70800 29.56700 30.52000
O  49.15700 30.67400 30.73800
C  47.99200 28.66100 31.57500
C  48.98600 28.76000 32.78400
O  49.88300 27.98000 33.02900
O  48.53200 29.71000 33.71000
C  48.94000 29.70200 35.12600
H  46.08000 22.03600 31.67500
H  45.80800 22.16600 25.18300
H  48.44900 27.87900 25.23400
H  47.99300 26.14400 33.43700
H  45.65700 24.18000 33.20900
H  48.31900 22.69900 33.30100
H  46.85200 22.72700 34.44800
H  48.02900 24.05800 34.39000
H  45.27200 27.03700 33.05600
H  46.54500 27.69600 33.76400
H  45.84000 25.24400 35.24200
H  44.31600 26.08300 34.76800
H  44.86800 20.25600 31.01200
H  45.52200 18.96000 30.06000
H  43.87500 19.64200 29.70600
H  44.46600 17.79200 26.64700
H  43.82700 18.57600 27.78200
H  45.57800 18.01400 28.05800
H  45.99900 24.22600 23.37200
H  48.13800 25.98400 23.38100
H  48.08200 22.61000 24.06900
H  48.93500 24.04600 23.35000
H  47.67300 23.18700 22.41300
H  45.44600 27.11900 24.26400
H  45.44400 26.24900 22.74700
H  45.98400 27.85300 21.54400
H  47.51900 28.13100 22.43600
H  46.10400 28.93300 22.87600
H  48.79400 30.14300 26.22900
H  50.42500 29.79600 27.07400
H  49.36000 30.86500 27.73300
H  47.02500 29.10100 31.81700
H  48.66100 30.58700 35.69700
H  49.98700 29.55100 35.39100
H  48.39100 28.84600 35.51900

