158

Mg 45.76700 4.44900 47.89500
C  43.35000 6.88100 47.30500
C  43.21100 2.10600 47.81000
C  48.11000 2.04800 47.84200
C  48.14400 6.94000 47.69800
N  43.57600 4.41800 47.49100
C  42.79600 5.60200 47.40000
C  41.38100 5.25500 47.14600
C  41.27800 3.82900 47.81300
C  42.75400 3.40500 47.73600
C  40.76900 3.93900 49.23000
C  41.05900 5.34700 45.60200
C  39.90300 6.37500 45.18900
H  40.18900 7.51600 44.17100
N  45.67900 2.34400 47.79800
C  44.51600 1.59200 47.68600
C  44.89800 0.22700 47.61700
C  46.33200 0.11500 47.53000
C  46.78900 1.51800 47.78300
C  43.82900 -0.93000 47.55700
C  47.09900 -1.17600 47.19300
O  46.57500 -2.28400 47.15600
C  48.60300 -1.18600 47.03500
N  47.75800 4.50000 47.87000
C  48.57700 3.32600 47.91000
C  50.06000 3.70400 47.82200
C  49.98000 5.24200 47.89700
C  48.53900 5.62600 47.82700
C  50.91700 2.97700 48.85600
C  50.94800 5.90100 46.80200
C  52.19200 6.73300 47.30200
N  45.80100 6.58600 47.62700
C  46.86100 7.41800 47.59200
C  46.29900 8.74700 47.36600
C  44.93600 8.61900 47.28200
C  44.70300 7.25000 47.43000
C  47.05900 10.00400 47.11400
C  43.69600 9.31600 47.18400
O  43.56600 10.54100 47.07500
C  42.62600 8.25100 47.13500
C  41.65400 8.58600 48.20600
O  41.53600 7.96700 49.28200
O  40.79500 9.62700 47.88000
C  39.71800 9.94900 48.80400
H  42.42900 1.34500 47.75300
H  48.98600 1.39900 47.78000
H  48.93400 7.69400 47.65000
H  40.81100 5.95200 47.76000
H  40.56600 3.25100 47.22200
H  41.09800 3.03800 49.74800
H  39.68200 4.01300 49.25600
H  41.16400 4.83200 49.71300
H  40.70900 4.36200 45.29400
H  41.96400 5.66700 45.08500
H  39.48600 6.78800 46.10800
H  39.09400 5.77100 44.77700
H  42.96700 -0.75900 46.91200
H  43.42900 -1.02700 48.56600
H  44.18800 -1.93100 47.31900
H  49.06500 -2.09400 46.64800
H  49.12200 -0.84400 47.93100
H  48.75700 -0.42400 46.27100
H  50.25700 3.18800 46.88200
H  50.32500 5.64500 48.84900
H  51.63500 3.70900 49.22400
H  51.41100 2.17200 48.31100
H  50.34200 2.55400 49.67900
H  50.40500 6.55600 46.12000
H  51.40900 5.11300 46.20800
H  52.21700 7.59800 46.64000
H  53.11600 6.19200 47.09500
H  52.14100 7.03000 48.34900
H  46.50000 10.87000 46.76000
H  47.78900 9.72200 46.35500
H  47.67600 10.30000 47.96300
H  42.04800 8.34700 46.21600
H  39.88800 10.79900 49.46400
H  39.42300 9.09300 49.41000
H  38.82600 10.12900 48.20400
Mg -10.07700 40.00000 39.48800
C  -8.83100 36.92000 38.38400
C  -7.09500 41.39400 38.82400
C  -11.63800 42.91700 39.52700
C  -13.26800 38.29700 40.02900
N  -8.15000 39.24000 38.67900
C  -7.92600 37.99900 38.22500
C  -6.52200 38.02700 37.62800
C  -5.78500 39.23100 38.34700
C  -7.07800 40.00700 38.67300
C  -4.94500 38.94000 39.56600
C  -6.59800 38.11700 36.07900
C  -5.97900 36.97600 35.22300
H  -6.93200 36.33000 34.21700
N  -9.39700 41.96600 39.27500
C  -8.15600 42.30800 38.99100
C  -8.09400 43.78200 38.88900
C  -9.40400 44.27700 39.15500
C  -10.22600 43.04200 39.39700
C  -6.75800 44.54400 38.84700
C  -9.75400 45.72800 39.28000
O  -8.95500 46.60100 39.03500
C  -11.12400 46.18000 39.67300
N  -12.16900 40.54100 39.93500
C  -12.46200 41.84800 39.75400
C  -13.99600 41.97700 39.80200
C  -14.52400 40.56700 40.19400
C  -13.26900 39.74100 40.07700
C  -14.44100 43.15200 40.65300
C  -15.66700 40.07100 39.26900
C  -17.03100 40.74500 39.34400
N  -10.89800 37.93500 39.43100
C  -12.15800 37.41100 39.64700
C  -12.12000 36.04600 39.45700
C  -10.81200 35.73200 38.98700
C  -10.12700 36.95300 39.02400
C  -13.31300 35.09900 39.69300
C  -9.92900 34.73800 38.39600
O  -10.05200 33.53000 38.13100
C  -8.60800 35.48000 37.97700
C  -7.47100 34.88700 38.60900
O  -7.29900 34.76400 39.83300
O  -6.55100 34.47300 37.66700
C  -5.41700 33.75400 38.25000
H  -6.12700 41.87700 38.67600
H  -12.22400 43.83800 39.50500
H  -14.22400 37.82400 40.26200
H  -6.06500 37.07100 37.88400
H  -5.09400 39.70400 37.64900
H  -4.94000 37.85300 39.63900
H  -5.31600 39.43800 40.46200
H  -3.91300 39.26800 39.44500
H  -6.15900 39.04400 35.71100
H  -7.65200 38.05300 35.81000
H  -5.51400 36.24400 35.88200
H  -5.09900 37.28800 34.66000
H  -6.81500 45.20400 37.98100
H  -5.95800 43.82700 38.66300
H  -6.56800 45.14800 39.73400
H  -11.15700 47.21700 40.00600
H  -11.40700 45.56900 40.53000
H  -11.77000 45.90900 38.83800
H  -14.31800 42.23600 38.79400
H  -14.88300 40.60700 41.22200
H  -15.12100 42.80700 41.43200
H  -14.94500 43.82600 39.96100
H  -13.67600 43.72800 41.17500
H  -15.83100 39.01100 39.46000
H  -15.30800 40.27400 38.26000
H  -17.15300 41.47600 38.54500
H  -17.04900 41.31400 40.27300
H  -17.80000 39.99000 39.17600
H  -14.19400 35.59700 39.28900
H  -13.40100 35.01700 40.77600
H  -13.20100 34.13600 39.19300
H  -8.42300 35.42500 36.90500
H  -4.76700 34.46800 38.75600
H  -4.87100 33.20400 37.48300
H  -5.63800 33.11700 39.10700

