158

Mg 9.65200 47.20800 26.74700
C  7.83100 47.03000 29.67400
C  12.34300 48.45200 28.60100
C  11.40600 47.59400 23.91300
C  6.73700 46.80700 24.85300
N  10.05000 47.55700 28.86300
C  9.21500 47.32600 29.90300
C  9.75300 47.72900 31.24400
C  11.09100 48.55200 30.89500
C  11.15800 48.29100 29.33900
C  11.02900 50.10600 31.05100
C  10.00800 46.60200 32.23400
C  9.75500 46.96300 33.74600
H  10.03900 45.77900 34.70900
N  11.59000 47.65900 26.38200
C  12.55700 48.18700 27.20500
C  13.79000 48.28700 26.49500
C  13.56100 47.94200 25.18700
C  12.14500 47.68800 25.10500
C  15.08300 48.70500 27.17600
C  14.49600 47.83000 24.08800
O  14.02100 47.47100 23.03100
C  15.98700 48.11500 24.22400
N  9.14200 47.24500 24.61400
C  10.04700 47.45200 23.66400
C  9.47300 47.33500 22.27700
C  7.89500 47.16500 22.59600
C  7.89500 47.06500 24.13500
C  9.87300 48.57600 21.43900
C  7.11700 45.97800 21.83900
C  7.14900 44.62200 22.59400
N  7.62100 46.82500 27.16800
C  6.53200 46.73700 26.27400
C  5.34100 46.59700 27.08700
C  5.78000 46.79000 28.39500
C  7.23600 46.84300 28.43300
C  3.92800 46.39200 26.57400
C  5.33400 46.76400 29.82600
O  4.20700 46.50200 30.26500
C  6.68900 46.87200 30.65800
C  6.86400 45.62900 31.53400
O  6.90100 44.45700 31.13500
O  6.66400 45.86800 32.85300
C  6.34900 44.68700 33.71500
H  13.13900 49.11400 28.94800
H  11.86800 47.89400 22.97000
H  5.83400 46.68900 24.25000
H  9.12200 48.47500 31.72800
H  11.94400 48.08600 31.38900
H  11.16600 50.48400 30.03800
H  11.86000 50.39300 31.69600
H  10.06600 50.52200 31.34600
H  11.02400 46.21100 32.27500
H  9.26200 45.83500 32.02400
H  8.71200 47.27800 33.77900
H  10.27200 47.84500 34.12200
H  15.09900 48.54300 28.25400
H  15.39300 49.73900 27.02800
H  15.93300 48.08300 26.89600
H  16.44000 48.36900 23.26500
H  16.56700 47.30500 24.66500
H  16.03000 49.00300 24.85400
H  9.94200 46.51000 21.74100
H  7.36700 48.05600 22.25600
H  10.61800 49.23600 21.88300
H  9.04200 49.25100 21.23300
H  10.29800 48.24100 20.49300
H  7.65300 45.82000 20.90300
H  6.09500 46.27600 21.60200
H  6.20600 44.49800 23.12700
H  7.93500 44.54400 23.34400
H  7.31300 43.79400 21.90300
H  3.93600 46.62000 25.50900
H  3.23500 47.10800 27.01700
H  3.59400 45.38800 26.83700
H  6.63900 47.65700 31.41300
H  7.28100 44.12400 33.73900
H  5.57800 44.10900 33.20500
H  6.10400 44.99700 34.73100
Mg -11.44700 16.48200 41.16800
C  -8.37700 14.62600 40.84300
C  -9.91900 19.11200 39.62200
C  -14.49500 17.64900 40.37100
C  -12.91100 13.48800 42.41000
N  -9.39300 16.76400 40.38300
C  -8.34100 15.89400 40.19300
C  -7.14600 16.57900 39.51800
C  -7.61600 18.09300 39.44400
C  -9.05800 18.03100 39.84700
C  -6.90700 19.20700 40.26700
C  -6.73200 15.80400 38.22000
C  -5.21700 15.71900 38.05200
H  -4.79700 16.30500 36.66700
N  -12.15700 18.25800 40.30100
C  -11.33200 19.21100 39.77000
C  -12.18600 20.31400 39.21000
C  -13.50100 19.90300 39.47700
C  -13.45800 18.56500 40.00600
C  -11.51300 21.58500 38.57100
C  -14.70800 20.68100 39.03400
O  -14.61200 21.75500 38.43700
C  -16.09400 20.26600 39.39900
N  -13.39200 15.58500 41.18000
C  -14.52500 16.37900 40.95800
C  -15.85000 15.62000 41.20100
C  -15.38800 14.41400 42.02600
C  -13.77200 14.58200 41.99300
C  -17.05200 16.37200 41.76100
C  -15.88500 13.05500 41.47800
C  -16.47700 12.18300 42.56000
N  -10.76700 14.48900 41.76300
C  -11.50200 13.38300 42.19200
C  -10.56600 12.26500 42.29100
C  -9.34400 12.72100 41.82100
C  -9.54900 14.04700 41.42200
C  -10.93300 10.88400 42.75900
C  -7.99500 12.34800 41.65600
O  -7.47600 11.23800 41.86200
C  -7.28200 13.51500 40.89700
C  -6.11300 13.88000 41.61700
O  -6.07100 14.33900 42.74200
O  -4.98600 13.63600 40.81200
C  -3.67400 14.23800 41.34100
H  -9.44000 19.97500 39.15500
H  -15.48200 18.00600 40.07000
H  -13.41700 12.57800 42.74000
H  -6.34600 16.54100 40.25800
H  -7.53300 18.36200 38.39100
H  -7.56400 19.62700 41.02800
H  -6.59400 20.05000 39.65100
H  -6.09500 18.65900 40.74400
H  -7.10200 16.24500 37.29400
H  -7.13900 14.79500 38.16800
H  -4.87600 14.70700 38.27000
H  -4.74000 16.37200 38.78300
H  -10.56400 21.38500 38.07300
H  -11.29100 22.28600 39.37700
H  -12.16800 21.95700 37.78300
H  -16.68700 21.17500 39.29800
H  -16.15200 19.88000 40.41700
H  -16.45100 19.53100 38.67600
H  -16.08200 15.27300 40.19400
H  -15.76800 14.43900 43.04700
H  -17.92400 16.14900 41.14600
H  -16.85800 17.44300 41.81700
H  -17.13300 15.99100 42.77900
H  -15.07500 12.56400 40.93800
H  -16.75700 13.04300 40.82400
H  -17.55200 12.02900 42.47000
H  -16.31600 12.44800 43.60500
H  -15.99500 11.22700 42.35500
H  -11.78700 10.47000 42.22300
H  -11.09300 10.82400 43.83600
H  -10.10300 10.21400 42.53700
H  -7.07000 13.11800 39.90400
H  -2.79700 13.82300 40.84400
H  -3.53200 13.95700 42.38500
H  -3.75200 15.32300 41.26700

