158

Mg -0.83300 17.74300 27.19500
C  -1.37400 15.62400 29.65100
C  -1.74100 20.38200 29.24900
C  -0.77700 20.13600 24.51600
C  -0.72200 15.26600 24.86700
N  -1.36100 17.99500 29.22300
C  -1.44800 16.95900 30.08100
C  -1.67100 17.35800 31.57600
C  -1.95100 18.86900 31.39100
C  -1.66300 19.13200 29.87000
C  -3.40800 19.25800 31.86700
C  -0.42000 17.22300 32.53900
C  -0.88400 17.00100 33.98600
H  0.14800 17.21200 35.14100
N  -1.12700 19.91500 26.98400
C  -1.42600 20.78500 27.97100
C  -1.49200 22.17300 27.48000
C  -1.19400 22.14600 26.09800
C  -0.98700 20.68600 25.78700
C  -1.82100 23.39800 28.30400
C  -1.08700 23.29300 25.05700
O  -0.87100 23.13100 23.88300
C  -1.08100 24.75400 25.57400
N  -0.74000 17.80500 25.02300
C  -0.64900 18.82100 24.14100
C  -0.43400 18.30600 22.70500
C  -0.11000 16.75000 22.94300
C  -0.57000 16.56200 24.35900
C  -1.59900 18.47900 21.71700
C  1.32200 16.26700 22.80800
C  2.38800 16.76500 23.90000
N  -0.92200 15.83400 27.17600
C  -0.89200 14.85200 26.20500
C  -1.10500 13.52500 26.81200
C  -1.27000 13.82400 28.14700
C  -1.12100 15.22700 28.31900
C  -1.22100 12.12700 26.10400
C  -1.45400 13.16400 29.41000
O  -1.49000 12.00100 29.74500
C  -1.57200 14.33900 30.40800
C  -0.35600 14.23500 31.33600
O  0.79200 14.30300 31.00300
O  -0.77600 13.88400 32.59500
C  0.25400 13.70400 33.63200
H  -1.95800 21.19400 29.94500
H  -0.60900 20.77600 23.64800
H  -0.60300 14.52600 24.07300
H  -2.54400 16.78100 31.88100
H  -1.23200 19.36900 32.03900
H  -3.94000 19.84300 31.11700
H  -3.18700 19.70900 32.83400
H  -4.04300 18.38400 32.01600
H  0.32400 18.01700 32.59600
H  0.20900 16.36500 32.30300
H  -1.18900 15.95600 34.04100
H  -1.74600 17.60300 34.27500
H  -2.17800 23.11700 29.29400
H  -2.60200 23.99300 27.82900
H  -0.93100 24.00700 28.46200
H  -1.93600 25.11700 26.14500
H  -0.93000 25.32200 24.65600
H  -0.19200 24.80800 26.20300
H  0.43300 18.83100 22.30500
H  -0.70800 16.06800 22.33900
H  -2.48200 18.70900 22.31300
H  -1.89700 17.58200 21.17300
H  -1.37500 19.31000 21.04800
H  1.59600 16.73100 21.86000
H  1.22000 15.19100 22.66700
H  2.77100 15.89800 24.43900
H  1.97000 17.45600 24.63200
H  3.14000 17.26500 23.28900
H  -0.78800 11.91600 25.12600
H  -2.29200 11.94300 26.01300
H  -0.84000 11.38800 26.80900
H  -2.44300 14.38700 31.06300
H  0.82500 12.79700 33.43000
H  -0.28300 13.62800 34.57700
H  0.88900 14.59000 33.65500
Mg 46.77000 24.87100 27.84700
C  47.65300 27.42400 30.31800
C  46.46700 22.62700 30.40100
C  46.22800 22.63300 25.56400
C  47.66900 27.32800 25.44100
N  47.04400 25.05800 30.05800
C  47.27900 26.20500 30.85700
C  47.21500 25.84500 32.36300
C  46.91100 24.27400 32.42700
C  46.83300 23.94000 30.83800
C  47.88900 23.40600 33.25400
C  46.34200 26.86200 33.07300
C  45.66800 26.46100 34.38700
H  45.96200 27.43900 35.54700
N  46.30500 22.92100 27.95800
C  46.20600 22.14500 29.08800
C  45.87000 20.75900 28.70800
C  45.77500 20.78900 27.27100
C  46.11500 22.14800 26.84900
C  45.91500 19.64900 29.63800
C  45.41400 19.65800 26.29200
O  45.32000 19.79700 25.08400
C  45.07800 18.29700 26.75200
N  46.98800 25.00200 25.79500
C  46.56900 23.90400 25.07500
C  46.73700 24.06500 23.57100
C  47.20500 25.59200 23.58200
C  47.21100 26.07600 25.00500
C  47.74900 23.17600 22.81900
C  46.15200 26.49600 22.77900
C  46.67600 27.17100 21.50300
N  47.47400 26.97800 27.79100
C  47.77800 27.79000 26.74700
C  48.27200 29.12800 27.22600
C  48.14600 29.06800 28.61900
C  47.66600 27.71500 28.95000
C  48.87600 30.17700 26.35900
C  48.49900 29.71600 29.82700
O  49.14300 30.76700 29.92700
C  48.01300 28.75400 30.99800
C  49.09700 28.75600 32.02300
O  50.00300 27.97200 32.12900
O  48.68000 29.64500 33.00500
C  49.57700 29.76100 34.14900
H  46.33800 21.83900 31.14600
H  46.09500 21.87900 24.78600
H  47.84000 27.96700 24.57200
H  48.28300 25.94700 32.55500
H  45.93700 24.16300 32.90500
H  48.56700 24.07600 33.78300
H  48.40800 22.71300 32.59100
H  47.32800 22.81400 33.97700
H  45.47100 27.12200 32.47200
H  46.95500 27.74000 33.27400
H  45.92600 25.44100 34.67000
H  44.58900 26.56200 34.27700
H  44.95100 19.15600 29.51800
H  45.91200 19.84300 30.71100
H  46.64000 18.90100 29.31700
H  44.26100 18.29400 27.47500
H  45.99800 18.05400 27.28300
H  44.90600 17.64400 25.89700
H  45.76000 23.82100 23.15600
H  48.16600 25.66900 23.07400
H  48.55800 23.69400 22.30500
H  47.29000 22.46000 22.13700
H  48.38300 22.63200 23.52000
H  45.78300 27.33300 23.37200
H  45.33000 25.84300 22.48200
H  46.81200 28.22200 21.75700
H  46.00800 26.90100 20.68500
H  47.61800 26.70300 21.21800
H  48.51900 30.25200 25.33100
H  49.96300 30.10300 26.33500
H  48.68700 31.17400 26.75700
H  47.10900 29.19800 31.41500
H  50.57300 29.38600 33.91100
H  49.22600 29.18200 35.00300
H  49.70000 30.82900 34.32500

