158

Mg 40.25600 9.36200 29.59500
C  42.35300 10.47900 32.27500
C  38.31900 7.94200 32.00000
C  38.56400 8.06200 27.13200
C  42.88800 10.14800 27.41600
N  40.39300 9.16200 32.00800
C  41.21400 9.82000 32.79400
C  40.67100 9.69900 34.28000
C  39.46700 8.68000 34.13400
C  39.32700 8.62600 32.67300
C  39.71000 7.31300 34.74500
C  40.29700 11.04600 34.99100
C  39.71000 10.96300 36.35800
H  40.36100 11.79300 37.53500
N  38.53900 8.25600 29.53700
C  37.87300 7.76700 30.63600
C  36.72000 7.06700 30.17100
C  36.75700 7.05500 28.71600
C  37.96300 7.77600 28.40900
C  35.77200 6.45900 31.13400
C  35.83500 6.34000 27.74000
O  36.16700 6.21600 26.55200
C  34.70700 5.65300 28.23000
N  40.63200 9.23500 27.54200
C  39.79300 8.52600 26.71500
C  40.07700 8.74500 25.24000
C  41.35100 9.62200 25.38600
C  41.73200 9.59600 26.82900
C  40.20600 7.56300 24.30000
C  41.04900 11.09300 25.06000
C  42.31200 11.93200 24.62300
N  42.25600 10.27900 29.70400
C  43.15700 10.53500 28.71200
C  44.26000 11.25400 29.24700
C  43.97600 11.28000 30.63100
C  42.76900 10.60000 30.88500
C  45.42300 11.76600 28.55800
C  44.36200 11.79000 31.96200
O  45.21700 12.53700 32.39500
C  43.34300 11.31100 33.02700
C  43.97200 10.54900 34.08200
O  44.37900 9.35700 33.96600
O  44.00000 11.28700 35.25600
C  44.53900 10.67200 36.49500
H  37.59500 7.57900 32.73300
H  37.92200 7.72200 26.31700
H  43.70200 10.50900 26.78400
H  41.54700 9.28000 34.77600
H  38.54900 9.06600 34.57700
H  39.76800 6.49200 34.03000
H  38.96000 7.01100 35.47600
H  40.70800 7.35500 35.18300
H  39.77400 11.67200 34.26700
H  41.19500 11.63900 35.16200
H  39.55400 9.89200 36.48600
H  38.67700 11.28000 36.22000
H  35.86900 6.99800 32.07600
H  35.95700 5.40900 31.36400
H  34.74000 6.64600 30.83700
H  34.13700 5.20900 27.41500
H  33.98300 6.33200 28.68000
H  35.04000 4.83500 28.87000
H  39.28800 9.35600 24.80100
H  42.23900 9.25200 24.87400
H  39.77900 6.70000 24.81100
H  41.23400 7.36000 23.99900
H  39.59500 7.72600 23.41200
H  40.51600 11.60800 25.85900
H  40.34500 11.13100 24.22800
H  42.05300 12.33800 23.64600
H  43.17200 11.26500 24.67500
H  42.48200 12.77900 25.28900
H  45.30800 12.31000 27.62100
H  46.07300 10.90500 28.40400
H  45.87100 12.45800 29.27000
H  42.89000 12.18700 33.49000
H  43.79500 10.29100 37.19500
H  45.15500 11.34600 37.09100
H  45.13200 9.81400 36.18100
Mg 6.40600 53.82000 40.03100
C  5.50500 50.46900 40.02800
C  9.65200 52.86000 39.42500
C  7.11300 56.91800 39.18400
C  2.96900 54.57200 40.30400
N  7.43400 51.84500 39.54500
C  6.89900 50.64400 39.77400
C  7.99500 49.51000 39.65000
C  9.22600 50.39700 40.03800
C  8.77800 51.80200 39.50700
C  9.62300 50.33900 41.56600
C  8.10000 48.88300 38.23800
C  7.29100 49.44800 37.05300
H  8.11700 49.80400 35.75700
N  8.14800 54.76000 39.29800
C  9.39600 54.22400 39.21600
C  10.35900 55.20000 38.75900
C  9.64700 56.46100 38.71300
C  8.21500 56.10800 39.04000
C  11.78100 54.90300 38.41700
C  10.32700 57.81200 38.49900
O  11.47600 57.94600 38.22400
C  9.43200 59.04900 38.50700
N  5.19300 55.50800 39.84400
C  5.76800 56.62700 39.38400
C  4.73300 57.76300 39.50100
C  3.41000 57.02600 39.80500
C  3.83000 55.61200 39.99200
C  5.15500 58.96700 40.42100
C  2.22700 57.33300 38.77400
C  0.95000 57.81100 39.41200
N  4.57800 52.78100 40.18900
C  3.27800 53.23500 40.39500
C  2.35000 52.10700 40.72000
C  3.19200 51.00900 40.53100
C  4.49500 51.44100 40.23800
C  0.98900 52.17100 41.21300
C  3.17300 49.58500 40.61200
O  2.33300 48.76700 40.96300
C  4.73000 49.17400 40.24700
C  4.70700 48.33000 39.11100
O  4.13300 48.49800 38.00700
O  5.41100 47.18200 39.46800
C  5.57500 46.16400 38.39700
H  10.70600 52.57600 39.46300
H  7.16000 57.99500 39.00800
H  1.95600 54.90800 40.53400
H  7.92300 48.68300 40.35600
H  10.06600 49.94300 39.51200
H  10.71300 50.34600 41.53300
H  9.32500 49.50000 42.19500
H  9.21000 51.20600 42.08100
H  7.76200 47.86400 38.42800
H  9.15800 48.82600 37.98200
H  6.81600 50.38400 37.34800
H  6.59700 48.65000 36.78900
H  11.93100 55.06400 37.34900
H  12.06400 53.93300 38.82600
H  12.33100 55.65300 38.98500
H  10.07400 59.92000 38.64200
H  8.90700 59.09800 39.46000
H  8.78200 59.07200 37.63100
H  4.69900 58.09800 38.46400
H  3.22800 57.25500 40.85600
H  4.26700 59.37900 40.90200
H  5.59600 59.71600 39.76300
H  5.88900 58.66100 41.16600
H  1.98800 56.36100 38.34300
H  2.53400 58.09100 38.05200
H  0.12700 57.70800 38.70500
H  0.91700 58.82200 39.81800
H  0.76100 57.10600 40.22100
H  0.73500 53.20800 40.99700
H  0.97900 52.03200 42.29400
H  0.31200 51.52100 40.65800
H  5.28200 48.69000 41.05300
H  4.55600 45.81600 38.22500
H  6.25600 45.35600 38.66400
H  5.99100 46.69700 37.54300

