158

Mg 44.59600 3.13900 47.32400
C  42.53600 6.08600 46.82400
C  41.99700 1.15800 46.70200
C  46.73200 0.71600 46.96200
C  47.35100 5.52600 47.30400
N  42.51400 3.62500 46.79400
C  41.87000 4.90400 46.59300
C  40.41000 4.69800 46.25200
C  40.14700 3.12600 46.53300
C  41.66000 2.55900 46.70400
C  39.30200 2.84400 47.78600
C  40.28600 5.03600 44.77600
C  39.19200 6.10100 44.48300
H  39.42300 7.04400 43.23500
N  44.38000 1.17200 46.97900
C  43.22000 0.48200 46.83700
C  43.53700 -0.96000 46.65200
C  44.93300 -1.10300 46.67100
C  45.37700 0.25200 46.95700
C  42.50400 -2.07800 46.38100
C  45.70900 -2.42700 46.42800
O  45.10900 -3.50100 46.04500
C  47.22000 -2.62900 46.49500
N  46.77000 3.16900 47.12400
C  47.35800 1.93900 47.08100
C  48.93200 2.08500 46.88100
C  49.08900 3.63700 47.21500
C  47.67000 4.15800 47.19900
C  49.87800 1.09700 47.60400
C  50.10300 4.41400 46.28700
C  51.39900 4.96900 46.85800
N  44.92800 5.35300 47.27200
C  46.08800 6.08900 47.29100
C  45.84700 7.49100 47.12000
C  44.41400 7.51300 47.05200
C  43.91200 6.24400 47.15100
C  46.82100 8.55300 46.94600
C  43.30800 8.34300 46.77100
O  43.24900 9.55200 46.70500
C  42.01700 7.47800 46.62400
C  41.06600 7.91100 47.70100
O  41.21300 7.68400 48.91900
O  40.09400 8.63500 47.20200
C  39.10600 9.30400 48.08400
H  41.14400 0.50000 46.52000
H  47.43700 -0.11600 46.91800
H  48.22700 6.17800 47.29500
H  39.75200 5.31200 46.86700
H  39.62000 2.48600 45.82600
H  38.89700 3.81300 48.07800
H  39.99400 2.49000 48.55100
H  38.52200 2.11500 47.56500
H  39.99900 4.10200 44.29100
H  41.24900 5.35800 44.37900
H  38.85600 6.68700 45.33900
H  38.42300 5.35500 44.28200
H  42.51500 -2.22500 45.30100
H  41.52700 -1.60100 46.45400
H  42.63100 -3.01600 46.92200
H  47.80700 -2.17200 45.69700
H  47.44900 -3.69300 46.54700
H  47.58600 -2.20200 47.42900
H  49.06000 1.81800 45.83200
H  49.35800 3.87400 48.24500
H  50.46200 0.49000 46.91300
H  49.31100 0.47200 48.29400
H  50.58400 1.68200 48.19400
H  49.58100 5.25400 45.83000
H  50.46800 3.75800 45.49600
H  51.31600 6.04600 47.00900
H  52.23000 4.59100 46.26300
H  51.64100 4.39600 47.75300
H  46.63000 9.19700 47.80500
H  46.57300 9.23000 46.12800
H  47.89600 8.37300 46.96800
H  41.69700 7.75500 45.62000
H  38.91400 10.26600 47.60800
H  39.54000 9.56400 49.05000
H  38.14300 8.80400 48.19500
Mg 41.05600 8.54400 28.92800
C  42.64300 10.01600 31.75500
C  38.79700 7.15600 31.03800
C  39.55500 7.09900 26.29500
C  43.59300 9.55800 26.89400
N  40.76800 8.63300 31.17500
C  41.47200 9.37800 32.10300
C  40.86400 9.19700 33.46200
C  39.62500 8.23500 33.23600
C  39.75400 7.97000 31.71500
C  39.42800 6.86400 34.06800
C  40.48300 10.61400 34.11300
C  39.69600 10.46700 35.40800
H  40.30800 11.35000 36.56300
N  39.31000 7.37400 28.72400
C  38.52400 6.94100 29.66200
C  37.38300 6.21300 29.13300
C  37.55400 6.16300 27.73400
C  38.82600 6.95200 27.48100
C  36.27000 5.87700 30.10500
C  36.60300 5.55200 26.75800
O  36.71000 5.83100 25.56600
C  35.43700 4.65200 27.15900
N  41.44700 8.44200 26.88200
C  40.73700 7.68900 26.03700
C  41.26500 7.70100 24.57800
C  42.53000 8.56100 24.74900
C  42.56700 8.84200 26.25400
C  41.60900 6.30900 23.97600
C  42.76100 9.71600 23.79100
C  42.27100 11.12300 24.26700
N  42.78000 9.52600 29.24000
C  43.73300 9.86500 28.27800
C  44.76400 10.59600 29.06300
C  44.37100 10.77700 30.38400
C  43.14500 10.01900 30.46100
C  46.00100 11.15600 28.53300
C  44.77600 11.29000 31.67800
O  45.71500 11.96200 32.04400
C  43.60100 10.79900 32.59800
C  44.13800 9.86400 33.65500
O  44.49200 8.77800 33.47400
O  44.31000 10.59800 34.83400
C  44.91500 9.78800 35.91900
H  38.03000 6.83000 31.74300
H  39.17700 6.59800 25.40100
H  44.40200 9.94700 26.27300
H  41.67500 8.68500 33.98100
H  38.72500 8.85000 33.21500
H  38.46900 6.96100 34.57600
H  40.25000 6.78300 34.77900
H  39.20600 6.00600 33.43300
H  39.82200 11.22100 33.49400
H  41.34500 11.21000 34.41200
H  39.59600 9.42300 35.70500
H  38.67400 10.83200 35.31100
H  35.45100 6.47800 29.71000
H  36.33500 6.21500 31.13900
H  35.98000 4.82700 30.15500
H  34.73800 5.30800 27.67800
H  35.66300 3.80100 27.80200
H  34.95500 4.23100 26.27700
H  40.60100 8.17000 23.85100
H  43.38200 7.88100 24.72700
H  41.49700 5.43700 24.62100
H  42.65300 6.31500 23.66300
H  40.94900 5.99400 23.16800
H  42.59400 9.41500 22.75700
H  43.85000 9.74200 23.73600
H  41.37700 10.98000 24.87400
H  42.03100 11.68200 23.36200
H  43.16800 11.45500 24.78900
H  46.31400 12.12500 28.92400
H  45.66300 11.46600 27.54400
H  46.84500 10.46800 28.56300
H  43.07500 11.57500 33.15400
H  44.14900 9.38100 36.57800
H  45.55500 10.44300 36.50900
H  45.53300 8.98400 35.51900

