158

Mg 16.41600 -1.77200 27.86900
C  15.56100 0.37900 30.40100
C  18.55500 -3.37900 30.25500
C  17.80900 -3.68400 25.34600
C  14.84200 0.20600 25.64600
N  17.00700 -1.51200 30.14400
C  16.35700 -0.67100 30.89800
C  16.79400 -0.77400 32.34000
C  17.89200 -1.87700 32.16100
C  17.83600 -2.30300 30.73500
C  19.37500 -1.58200 32.61200
C  15.45200 -1.12800 33.20100
C  15.57000 -1.06800 34.66200
H  16.82000 -0.36600 35.30000
N  17.87900 -3.41700 27.82900
C  18.58200 -3.91900 28.90600
C  19.29100 -5.11600 28.42900
C  19.04600 -5.29800 27.04600
C  18.19400 -4.12600 26.63800
C  19.93700 -6.09300 29.39400
C  19.43900 -6.28600 26.06100
O  18.92900 -6.28100 24.93300
C  20.34600 -7.46900 26.46300
N  16.54400 -1.63100 25.73700
C  17.00300 -2.66600 24.90600
C  16.86700 -2.17100 23.43200
C  15.78200 -1.01400 23.55900
C  15.69000 -0.77200 25.09600
C  18.19800 -1.78600 22.87100
C  14.42200 -1.38300 22.95500
C  13.97100 -0.50800 21.86800
N  15.36700 -0.03700 27.89800
C  14.75500 0.67900 26.94100
C  13.96000 1.70500 27.47400
C  14.25800 1.68700 28.86500
C  15.10400 0.52500 29.06500
C  13.14000 2.70500 26.72700
C  14.05400 2.36100 30.05900
O  13.47700 3.40300 30.26600
C  14.87400 1.61100 31.17300
C  15.92100 2.52800 31.75400
O  16.88200 3.00800 31.19200
O  15.48300 2.83300 32.98200
C  16.27000 3.58200 33.88600
H  19.23100 -3.83900 30.97800
H  18.21800 -4.24400 24.50200
H  14.27800 0.73200 24.87200
H  17.27700 0.11600 32.74400
H  17.64500 -2.69000 32.84400
H  19.41000 -0.82200 33.39200
H  19.82800 -1.12700 31.73100
H  19.89900 -2.48000 32.93900
H  15.35700 -2.18400 32.94800
H  14.56000 -0.60100 32.86400
H  15.46500 -2.08800 35.03100
H  14.80700 -0.42100 35.09400
H  19.79100 -7.11500 29.04500
H  19.46100 -5.97700 30.36800
H  20.98900 -5.86200 29.56100
H  20.94200 -7.68900 25.57700
H  19.77100 -8.35900 26.72100
H  21.06300 -7.15900 27.22300
H  16.52000 -3.06000 22.90400
H  16.13100 -0.14100 23.00700
H  18.34300 -0.71700 22.71500
H  18.31200 -2.18900 21.86500
H  19.05100 -2.12800 23.45700
H  13.61300 -1.50200 23.67500
H  14.62000 -2.29700 22.39600
H  14.42800 -0.87200 20.94800
H  14.25400 0.52500 22.07300
H  12.88600 -0.54400 21.76400
H  13.00600 2.38200 25.69400
H  13.73000 3.61900 26.78800
H  12.14400 2.77800 27.16400
H  14.13800 1.34300 31.93200
H  17.29200 3.57200 33.50500
H  16.16800 3.19200 34.89900
H  15.89900 4.60600 33.88800
Mg -2.00500 34.02500 27.23200
C  -3.42400 32.13900 29.83200
C  -0.31300 35.85100 29.39100
C  -0.92000 35.93700 24.51300
C  -3.73600 32.07400 24.96400
N  -1.86700 33.92400 29.44200
C  -2.48800 33.13600 30.29700
C  -1.91900 33.31800 31.76100
C  -1.00200 34.59300 31.55700
C  -1.04900 34.85200 30.02300
C  -1.23400 35.88700 32.51600
C  -1.30400 32.03700 32.41200
C  -1.88500 31.56200 33.73100
H  -0.98700 31.69100 34.97600
N  -0.86200 35.63200 26.93300
C  -0.21200 36.23100 27.99900
C  0.67800 37.28000 27.49100
C  0.50300 37.26900 26.09400
C  -0.45400 36.22100 25.76900
C  1.56900 38.14200 28.38600
C  1.21200 38.20900 25.06900
O  0.97200 38.18400 23.85900
C  2.05600 39.34500 25.49700
N  -2.29100 34.00500 25.04400
C  -1.75100 34.88800 24.14200
C  -2.30200 34.79000 22.73400
C  -2.77700 33.31700 22.75500
C  -2.96800 33.07400 24.34600
C  -3.34800 35.97200 22.49500
C  -1.83000 32.27600 22.14200
C  -0.22000 32.32200 22.30900
N  -3.35200 32.55800 27.31400
C  -3.97300 31.82900 26.28700
C  -4.82700 30.81300 26.82500
C  -4.56600 30.90800 28.16700
C  -3.72100 31.96400 28.41700
C  -5.61500 29.76800 26.07000
C  -4.98000 30.31100 29.43500
O  -5.77300 29.39100 29.61200
C  -4.27400 31.14600 30.61000
C  -5.33100 31.80000 31.46400
O  -5.95900 32.82900 31.21800
O  -5.47400 31.12800 32.69200
C  -6.27700 31.77300 33.69600
H  0.41500 36.27100 30.08700
H  -0.64600 36.59700 23.68800
H  -4.16900 31.39900 24.22200
H  -2.88300 33.52800 32.22500
H  -0.00300 34.20600 31.75500
H  -0.34700 36.47300 32.75700
H  -1.61500 35.56500 33.48500
H  -1.84600 36.55700 31.91300
H  -0.23900 32.25500 32.50100
H  -1.49300 31.20100 31.74000
H  -2.27300 30.54300 33.73200
H  -2.71600 32.24800 33.89100
H  2.58500 38.22500 28.00200
H  1.75900 37.70800 29.36800
H  1.13200 39.13700 28.47500
H  1.54200 39.95600 26.23800
H  2.24500 40.04100 24.67900
H  2.98300 38.89100 25.84800
H  -1.39200 34.96400 22.16000
H  -3.75500 33.26200 22.27700
H  -2.92800 36.94800 22.73600
H  -4.19400 35.86600 23.17400
H  -3.64600 35.86400 21.45200
H  -2.07000 32.17000 21.08400
H  -2.13100 31.26600 22.41800
H  0.25300 32.50500 21.34400
H  0.15600 31.36400 22.66700
H  0.18200 33.12100 22.93300
H  -5.27500 29.80600 25.03500
H  -6.68600 29.87900 26.23500
H  -5.37600 28.75900 26.40600
H  -3.77700 30.44700 31.28300
H  -6.90700 31.05700 34.22400
H  -6.92500 32.60100 33.40900
H  -5.71100 32.25200 34.49400

