158

Mg 47.03600 17.08400 28.04100
C  45.00700 16.31000 31.07000
C  49.32600 18.51900 30.00600
C  48.38700 17.94300 25.28000
C  44.19500 15.85700 26.22400
N  47.13400 17.36200 30.30000
C  46.20200 17.04100 31.30100
C  46.86100 17.33400 32.62700
C  47.90600 18.44300 32.25500
C  48.22600 18.02900 30.79700
C  47.51900 19.92300 32.25600
C  47.47400 16.00900 33.27000
C  47.56800 15.92600 34.78200
H  47.77900 17.07200 35.77300
N  48.69800 17.98600 27.73400
C  49.56300 18.52100 28.64000
C  50.71500 19.01200 28.01000
C  50.45600 18.87500 26.62000
C  49.14000 18.19900 26.51000
C  51.94000 19.52600 28.77100
C  51.35500 19.32800 25.40600
O  51.09100 18.98600 24.23100
C  52.51200 20.28600 25.69700
N  46.40300 16.85200 26.00800
C  47.16400 17.40800 25.01400
C  46.61200 17.07100 23.61200
C  45.33500 16.28000 23.89400
C  45.30400 16.29500 25.47000
C  46.54500 18.27000 22.58800
C  45.48000 14.81200 23.29700
C  46.46300 13.85700 23.98400
N  45.04800 16.12300 28.45500
C  44.05400 15.72800 27.62200
C  42.91700 15.12700 28.43100
C  43.27500 15.33800 29.71700
C  44.53600 15.96100 29.73100
C  41.62300 14.51100 27.86200
C  42.78800 15.24100 31.15500
O  41.77900 14.77800 31.59300
C  43.94000 15.78800 32.04500
C  43.33100 16.99200 32.76900
O  42.83600 17.92500 32.21500
O  43.35300 16.88900 34.11800
C  42.53100 17.78500 34.86300
H  50.05600 19.02700 30.64000
H  48.92200 18.25400 24.38000
H  43.36000 15.56600 25.58400
H  46.15600 17.71300 33.36700
H  48.76500 18.38700 32.92500
H  48.24100 20.40200 32.91700
H  46.63500 19.99600 32.88900
H  47.38500 20.40100 31.28600
H  48.52200 15.91800 32.98400
H  46.93100 15.15000 32.87500
H  48.46600 15.33800 34.96900
H  46.77600 15.34000 35.24800
H  52.69500 18.74000 28.78000
H  51.65200 19.65100 29.81500
H  52.28600 20.45800 28.32500
H  53.25300 19.94500 26.42100
H  52.11800 21.26500 25.96700
H  53.08800 20.38200 24.77600
H  47.25600 16.28100 23.22400
H  44.38400 16.72200 23.59800
H  45.49300 18.54500 22.52100
H  46.89900 18.11200 21.56900
H  47.10900 19.16300 22.85800
H  45.82500 14.99300 22.27900
H  44.46100 14.44400 23.17600
H  47.46500 14.28400 23.98100
H  46.55600 12.93100 23.41500
H  46.31900 13.56800 25.02500
H  40.79500 15.02900 28.34500
H  41.70300 13.42600 27.94100
H  41.44600 14.64500 26.79500
H  44.25200 15.07000 32.80300
H  42.51200 17.59400 35.93600
H  41.46700 17.66200 34.65900
H  42.76300 18.81500 34.59400
Mg 42.04100 41.97800 27.42100
C  40.80600 44.04600 30.09300
C  43.00800 39.76200 29.90400
C  43.39000 40.14500 25.01100
C  41.24100 44.49700 25.18500
N  41.95600 41.96100 29.76900
C  41.36700 42.89700 30.59100
C  41.57000 42.55000 32.06100
C  42.40100 41.22900 31.97000
C  42.45100 40.90100 30.46600
C  43.77700 41.32200 32.69200
C  40.24800 42.41000 32.90300
C  40.16700 43.15000 34.24700
H  39.65800 42.24100 35.36200
N  42.97400 40.14800 27.45700
C  43.28300 39.41600 28.58100
C  43.97700 38.24800 28.12500
C  43.86200 38.18900 26.72800
C  43.44500 39.58400 26.34600
C  44.54300 37.25900 29.13200
C  44.07100 37.01600 25.85600
O  43.97000 37.08400 24.63600
C  44.49200 35.57700 26.28600
N  42.29200 42.29500 25.38900
C  42.86900 41.31800 24.60300
C  42.80500 41.75300 23.16200
C  41.87600 42.97800 23.12500
C  41.76300 43.30900 24.64600
C  44.18100 41.97200 22.47600
C  40.47100 42.76400 22.46400
C  39.43400 41.83000 23.05300
N  41.28900 43.94200 27.57700
C  41.01100 44.82700 26.55200
C  40.48800 46.04000 27.11700
C  40.33900 45.74000 28.48800
C  40.85600 44.45900 28.73300
C  39.98200 47.21300 26.45600
C  39.93400 46.32400 29.72400
O  39.49300 47.47000 29.99300
C  40.34300 45.27300 30.83100
C  41.39100 45.91100 31.60900
O  42.54200 46.03400 31.31000
O  40.88700 46.18300 32.88800
C  41.86100 46.90600 33.83600
H  43.46000 39.20100 30.72400
H  43.65500 39.46000 24.20300
H  41.04800 45.26400 24.43300
H  42.18900 43.37300 32.41900
H  41.87300 40.45700 32.52900
H  44.61100 41.18100 32.00500
H  43.79800 40.58500 33.49500
H  43.77100 42.32700 33.11400
H  39.98700 41.35600 32.99000
H  39.41700 42.82000 32.32800
H  39.71800 44.14200 34.20800
H  41.25300 43.22400 34.31600
H  45.08200 37.82400 29.89200
H  45.22500 36.51300 28.72500
H  43.68300 36.73300 29.54700
H  43.80500 35.36800 27.10600
H  45.54300 35.59800 26.57500
H  44.44200 34.93600 25.40500
H  42.37300 40.93700 22.58200
H  42.32800 43.90700 22.78000
H  44.93400 41.77500 23.23900
H  44.42700 42.95700 22.08000
H  44.31000 41.16700 21.75300
H  40.72500 42.32400 21.49900
H  39.87400 43.67300 22.38700
H  38.98100 41.16200 22.32000
H  38.60900 42.42400 23.44700
H  39.86600 41.25500 23.87200
H  38.92100 47.18900 26.20800
H  40.58900 47.56600 25.62300
H  40.22300 48.09400 27.05000
H  39.51000 45.03100 31.49200
H  41.31200 47.77600 34.19800
H  42.79100 47.18800 33.34100
H  42.09100 46.23500 34.66300

