158

Mg 17.07200 -1.45300 28.19600
C  16.45500 0.83800 30.85900
C  19.37000 -3.08500 29.93000
C  18.52300 -2.51600 25.15800
C  15.27200 1.04000 26.12200
N  18.01900 -0.93900 30.06800
C  17.41700 -0.22700 31.12400
C  17.91500 -0.74800 32.44300
C  19.05800 -1.73900 32.05300
C  18.72400 -1.96600 30.59400
C  20.54400 -1.22400 32.36400
C  16.75700 -1.37700 33.32900
C  16.64800 -1.02700 34.84100
H  17.97400 -0.84500 35.62800
N  18.56600 -2.77600 27.64500
C  19.40400 -3.42300 28.54500
C  20.23400 -4.38900 27.88900
C  19.93300 -4.27100 26.49700
C  19.00800 -3.14700 26.33300
C  21.23100 -5.27700 28.62400
C  20.55800 -5.01400 25.37000
O  20.40800 -4.67300 24.21500
C  21.61200 -6.16800 25.51000
N  16.88500 -0.89600 26.00800
C  17.67100 -1.40200 24.99200
C  17.41100 -0.94500 23.63300
C  16.26900 0.10700 23.98600
C  16.15800 0.11400 25.49600
C  18.73500 -0.45900 22.92400
C  14.97200 -0.04900 23.14400
C  13.62400 -0.33700 23.80400
N  15.86000 0.42700 28.40500
C  15.20300 1.21600 27.47400
C  14.53600 2.26800 28.22000
C  14.94500 2.14300 29.54300
C  15.81800 1.05700 29.60500
C  13.83900 3.31900 27.56900
C  14.89100 2.68000 30.86800
O  14.21600 3.69400 31.17500
C  15.77100 1.76300 31.82000
C  16.68900 2.68400 32.57700
O  17.84200 2.90900 32.32100
O  15.97000 3.32200 33.57700
C  16.61200 4.12000 34.57400
H  20.07200 -3.60900 30.58200
H  18.91300 -2.76400 24.16900
H  14.63900 1.66000 25.48200
H  18.39300 0.07400 32.97500
H  18.97600 -2.67300 32.61000
H  20.64600 -0.22400 32.78500
H  21.14300 -1.32700 31.45900
H  21.13100 -1.84800 33.03800
H  16.78600 -2.46600 33.30500
H  15.82100 -1.13800 32.82300
H  16.13000 -1.79500 35.41600
H  15.97000 -0.18500 34.97500
H  21.03000 -6.34100 28.49200
H  21.26400 -5.05100 29.69000
H  22.23300 -5.00000 28.29700
H  21.33100 -6.81700 26.34000
H  22.52700 -5.59400 25.65400
H  21.85500 -6.74600 24.61800
H  16.81400 -1.69700 23.11800
H  16.73300 1.06700 23.76000
H  19.10400 0.51000 23.25900
H  18.39000 -0.31800 21.89900
H  19.55700 -1.17400 22.89500
H  15.15000 -0.70700 22.29400
H  14.86100 0.99700 22.85600
H  13.81500 -0.92300 24.70300
H  13.02400 -0.88200 23.07500
H  13.00000 0.50900 24.09200
H  14.39800 3.89100 26.82800
H  13.52200 4.12500 28.23200
H  12.92100 2.88300 27.17500
H  15.13600 1.26200 32.55100
H  16.58500 3.52400 35.48600
H  16.03900 4.98400 34.91300
H  17.57800 4.57900 34.36600
Mg 5.01400 54.59100 40.90200
C  4.90400 51.08300 40.63600
C  8.08300 54.51100 39.37000
C  4.76100 57.88100 40.58300
C  1.86500 54.52300 42.41600
N  6.23900 52.99300 40.02700
C  6.03900 51.66400 40.00100
C  7.21500 50.92500 39.41800
C  8.30800 52.00700 39.26900
C  7.53800 53.25400 39.59200
C  9.53100 51.82600 40.25900
C  6.82400 50.07400 38.17400
C  5.88300 50.80200 37.17200
H  6.54500 51.03400 35.78800
N  6.28300 56.11400 40.15100
C  7.57500 55.81900 39.57900
C  8.22300 57.08700 39.27400
C  7.31400 58.14300 39.68100
C  6.00500 57.36900 40.14000
C  9.68400 57.10100 38.65600
C  7.58600 59.59400 39.50800
O  8.60800 60.04700 39.08000
C  6.63200 60.56500 40.03500
N  3.50900 55.93500 41.23700
C  3.64500 57.26400 41.10000
C  2.35900 58.00500 41.43300
C  1.34400 56.86900 41.95900
C  2.32800 55.71800 41.88400
C  2.45700 59.06100 42.51000
C  0.12700 56.65500 41.03700
C  -1.09900 56.05200 41.65800
N  3.59800 53.15200 41.47700
C  2.41500 53.23900 42.19600
C  2.01200 51.85600 42.49300
C  2.91300 51.01800 41.87600
C  3.84200 51.87800 41.23800
C  0.79500 51.48400 43.40600
C  3.17900 49.62500 41.67600
O  2.57900 48.58700 42.03800
C  4.53800 49.66300 40.90400
C  4.15500 48.81700 39.76500
O  3.36100 49.04400 38.93800
O  4.93600 47.65100 39.85700
C  4.62200 46.60300 38.88500
H  9.09000 54.53700 38.94900
H  4.60400 58.96000 40.51400
H  1.05300 54.57300 43.14500
H  7.54600 50.28800 40.23700
H  8.78800 52.03700 38.29100
H  10.26700 51.17700 39.78400
H  9.19500 51.36900 41.19000
H  9.90400 52.79800 40.58200
H  6.49500 49.05200 38.35800
H  7.83500 50.05700 37.76800
H  5.67000 51.80400 37.54500
H  4.91700 50.31700 37.02900
H  10.53000 56.98000 39.33200
H  9.94300 58.01500 38.12200
H  9.69100 56.33000 37.88600
H  5.66500 60.67200 39.54400
H  6.98400 61.58600 39.89000
H  6.43300 60.43700 41.09900
H  1.95100 58.53900 40.57600
H  1.01600 56.92100 42.99800
H  1.93400 58.83000 43.43800
H  2.06200 59.97500 42.06700
H  3.46600 59.39400 42.75200
H  0.47700 55.92300 40.30900
H  -0.05700 57.58700 40.50200
H  -1.39500 55.10700 41.20200
H  -1.91600 56.77300 41.62500
H  -0.90400 55.86200 42.71400
H  0.02900 50.86900 42.93400
H  0.26700 52.38300 43.72400
H  1.10900 50.91400 44.28000
H  5.37900 49.23000 41.44600
H  5.28200 45.77500 39.14400
H  4.63700 46.83200 37.82000
H  3.62100 46.19300 39.01600

