158

Mg 9.69600 48.65300 25.59600
C  8.01400 48.79400 28.50400
C  12.55000 50.03600 27.15900
C  11.37300 48.50000 22.73800
C  6.75000 47.99600 23.89000
N  10.08700 49.47100 27.54000
C  9.32400 49.21200 28.66900
C  10.01900 49.62000 29.93700
C  11.22300 50.50400 29.34000
C  11.32800 49.98000 27.88100
C  11.13100 52.05000 29.38400
C  10.44500 48.48600 30.85700
C  9.85600 48.43700 32.28500
H  10.77700 48.98100 33.34900
N  11.71000 49.19400 25.01500
C  12.70900 49.56400 25.88200
C  13.94800 49.61300 25.18800
C  13.69400 49.21800 23.80300
C  12.22900 48.88200 23.76500
C  15.40500 49.97200 25.84300
C  14.59900 49.02300 22.65100
O  14.27100 48.55900 21.56100
C  15.95600 49.48300 22.86800
N  9.04700 48.39300 23.48800
C  10.01400 48.23800 22.56500
C  9.35200 48.07800 21.12900
C  7.80400 47.98500 21.50200
C  7.85600 48.14100 23.01600
C  9.60500 49.25400 20.14800
C  7.22400 46.65700 21.09900
C  6.21100 46.77700 19.90800
N  7.76100 48.34500 26.08000
C  6.65300 48.13800 25.28600
C  5.51300 47.90300 26.11800
C  6.00300 48.13200 27.43700
C  7.36500 48.42500 27.34800
C  4.16200 47.67600 25.57400
C  5.69600 48.10300 28.83000
O  4.67000 47.86000 29.39900
C  6.93200 48.56400 29.61100
C  7.18800 47.43800 30.48900
O  7.86000 46.46900 30.23200
O  6.52600 47.68300 31.63400
C  6.50800 46.62600 32.64900
H  13.41800 50.42800 27.69200
H  11.86500 48.32700 21.77800
H  5.79700 47.86500 23.37300
H  9.42900 50.27900 30.57300
H  12.20900 50.28800 29.75200
H  11.84800 52.44900 30.10200
H  10.18100 52.53700 29.60600
H  11.47600 52.44300 28.42800
H  11.51900 48.64200 30.95100
H  10.33000 47.56200 30.29000
H  9.64000 47.39700 32.53000
H  8.94000 49.01700 32.40200
H  15.38100 50.27400 26.89000
H  15.86100 50.79400 25.29200
H  16.08000 49.11800 25.77900
H  16.42600 49.03700 23.74400
H  15.88000 50.55300 23.05600
H  16.52300 49.22800 21.97200
H  9.78300 47.17000 20.70800
H  7.23200 48.80800 21.07400
H  9.03300 49.18500 19.22200
H  10.65900 49.43000 19.93600
H  9.31800 50.15900 20.68200
H  6.83100 46.00200 21.87700
H  7.96700 46.08900 20.53900
H  6.54500 46.13600 19.09300
H  6.18100 47.76500 19.44800
H  5.18600 46.57600 20.22000
H  3.85900 48.64000 25.16600
H  3.38400 47.48500 26.31300
H  4.21000 46.82500 24.89400
H  6.79700 49.51200 30.13200
H  6.90500 45.69200 32.25000
H  5.48100 46.59400 33.01200
H  7.18200 46.98000 33.42800
Mg -1.42000 34.43100 27.12600
C  -3.12600 32.72000 29.67600
C  -0.18600 36.53400 29.44300
C  -0.25300 36.33600 24.51600
C  -3.04900 32.41900 24.70100
N  -1.69200 34.68100 29.36800
C  -2.36000 33.81000 30.16200
C  -2.03000 34.14600 31.61900
C  -1.25100 35.44000 31.55700
C  -0.98800 35.58300 30.05000
C  -1.92400 36.66400 32.18000
C  -1.27200 32.98900 32.29200
C  -1.84200 32.47400 33.63900
H  -0.90500 32.54800 34.88600
N  -0.38200 36.12600 27.02700
C  0.07800 36.86000 28.05800
C  0.79600 37.99700 27.60700
C  0.70600 37.98900 26.20000
C  -0.01400 36.78100 25.84300
C  1.51100 38.90800 28.57900
C  1.23200 39.06100 25.19500
O  1.02500 39.01300 23.94300
C  2.02500 40.23200 25.55800
N  -1.67500 34.43400 24.86200
C  -1.02000 35.27400 24.04200
C  -1.15900 34.85200 22.56200
C  -2.14200 33.71200 22.60700
C  -2.28300 33.45000 24.11000
C  -1.36900 36.03100 21.53800
C  -1.70400 32.42100 21.74800
C  -0.67000 31.46800 22.41300
N  -2.70400 32.93100 27.06200
C  -3.27300 32.17300 26.05800
C  -4.17200 31.15600 26.62400
C  -4.09000 31.35300 27.94900
C  -3.22000 32.45100 28.23100
C  -4.95700 30.09800 25.85700
C  -4.69900 30.95600 29.26700
O  -5.43800 30.00800 29.46000
C  -4.05000 31.79900 30.38700
C  -5.11200 32.45500 31.21500
O  -5.68600 33.50000 30.92000
O  -5.44300 31.64200 32.29600
C  -6.42300 32.13200 33.30100
H  0.24200 37.09500 30.27600
H  0.29000 36.72000 23.65000
H  -3.60000 31.68200 24.11200
H  -2.98800 34.30000 32.11500
H  -0.27100 35.33700 32.02200
H  -2.83200 36.46700 32.75000
H  -2.17700 37.44000 31.45800
H  -1.16600 37.12400 32.81500
H  -0.21000 33.23000 32.32600
H  -1.31100 32.11900 31.63500
H  -2.15400 31.43100 33.69700
H  -2.79800 32.97900 33.77600
H  1.50400 38.67400 29.64400
H  1.00100 39.85400 28.40000
H  2.59100 38.88000 28.43400
H  1.27200 41.01400 25.65400
H  2.69200 40.42500 24.71800
H  2.64300 40.05800 26.43900
H  -0.13500 34.54700 22.34700
H  -3.07900 34.01800 22.14200
H  -0.56500 36.01300 20.80200
H  -1.31000 36.99800 22.03700
H  -2.37300 35.98200 21.11700
H  -1.38000 32.76100 20.76400
H  -2.62500 31.86700 21.56900
H  0.13700 32.00100 22.91700
H  -0.22200 30.84900 21.63600
H  -1.25300 30.91800 23.15200
H  -5.42000 29.59900 26.70800
H  -4.40600 29.43900 25.18600
H  -5.63900 30.65000 25.21100
H  -3.46900 31.15700 31.05000
H  -6.67700 31.34900 34.01600
H  -7.29000 32.64600 32.88500
H  -5.81600 32.74700 33.96500

