158

Mg 26.63700 0.67800 29.39600
C  28.56100 0.33800 32.17400
C  23.78300 1.17800 31.38800
C  24.66600 0.63300 26.59100
C  29.48100 -0.09500 27.31000
N  26.25700 0.68100 31.55000
C  27.22200 0.69300 32.52900
C  26.61500 0.89400 33.92000
C  25.08800 1.01000 33.60200
C  25.00900 1.02300 32.09300
C  24.25100 -0.02700 34.27600
C  27.19600 2.25200 34.53500
C  28.08700 2.01400 35.74900
H  27.81600 2.87900 37.03000
N  24.58000 0.88900 28.99400
C  23.61900 1.10900 29.96800
C  22.30600 1.30900 29.28300
C  22.53600 1.04100 27.88200
C  23.96200 0.86800 27.79900
C  20.99100 1.54500 30.00200
C  21.52900 1.07800 26.70100
O  21.89300 0.93900 25.52200
C  20.07400 1.29200 26.94500
N  27.03700 0.23700 27.31900
C  25.99800 0.33900 26.40700
C  26.55200 0.35900 24.92800
C  28.17000 0.23100 25.13400
C  28.23100 0.10400 26.70600
C  25.99700 -0.68500 24.10500
C  28.97800 1.56500 24.72500
C  30.03600 1.28600 23.68600
N  28.54800 0.13500 29.64500
C  29.59100 -0.09100 28.70400
C  30.79200 -0.33800 29.50900
C  30.43200 -0.18200 30.85400
C  29.07300 0.10800 30.87000
C  32.14800 -0.69000 28.93900
C  30.91400 -0.34700 32.19500
O  31.91600 -0.86000 32.70800
C  29.71000 0.10400 33.11200
C  29.40000 -0.99600 34.11400
O  28.63500 -1.97600 33.91800
O  30.07400 -0.74700 35.27800
C  30.09000 -1.81700 36.25800
H  22.81700 1.32800 31.87600
H  24.23100 0.69500 25.59200
H  30.42000 -0.34200 26.81100
H  26.82600 0.06100 34.59000
H  24.74000 1.94400 34.04300
H  23.55900 0.42600 34.98500
H  24.94200 -0.73500 34.73400
H  23.64500 -0.53900 33.52800
H  26.47500 2.97100 34.92500
H  27.81400 2.78100 33.80900
H  29.10600 2.31200 35.49900
H  28.05400 0.96400 36.03800
H  20.39900 0.65300 29.79800
H  20.50800 2.39200 29.51600
H  21.02000 1.68600 31.08200
H  19.48700 1.11600 26.04300
H  20.02100 2.36700 27.12200
H  19.73900 0.62200 27.73700
H  26.34400 1.25800 24.34900
H  28.49400 -0.64700 24.57600
H  26.66800 -1.14900 23.38300
H  25.37400 -0.19900 23.35300
H  25.39600 -1.45200 24.59300
H  29.56200 2.03700 25.51600
H  28.32200 2.34800 24.34500
H  31.05000 1.32600 24.08200
H  30.05800 2.05900 22.91700
H  29.86700 0.32100 23.20700
H  32.93700 -0.46700 29.65900
H  32.36400 -0.15900 28.01200
H  32.12400 -1.77200 28.80900
H  29.91200 1.06200 33.58900
H  30.12500 -2.85200 35.91700
H  29.25100 -1.63800 36.93000
H  31.02000 -1.76100 36.82300
Mg 9.61700 49.04200 24.11400
C  7.25100 49.70700 26.46900
C  12.13500 50.20500 26.39400
C  12.06500 48.48200 21.80900
C  7.20300 47.97400 21.89500
N  9.65600 50.05100 26.17700
C  8.51400 50.03400 26.97900
C  8.90600 50.46800 28.43800
C  10.38400 51.04900 28.21000
C  10.78000 50.35300 26.85800
C  10.51800 52.57400 28.24800
C  8.69500 49.31300 29.47500
C  9.38500 49.46200 30.88200
H  8.49000 49.55800 32.05200
N  11.76200 49.24500 24.16900
C  12.55300 49.63200 25.22000
C  13.92600 49.69400 24.81000
C  14.01000 49.27600 23.40500
C  12.55800 48.97300 23.07600
C  15.09900 50.04700 25.65700
C  15.20600 49.04300 22.53300
O  15.05500 48.91200 21.31600
C  16.57300 48.90100 23.05600
N  9.59600 48.37400 22.09900
C  10.73600 48.17100 21.40500
C  10.55000 47.56200 20.05000
C  8.94600 47.42100 20.00500
C  8.49600 47.97000 21.40800
C  11.15200 48.35200 18.94000
C  8.60000 45.90800 19.72300
C  8.44300 44.95100 20.92800
N  7.60300 48.87000 24.07900
C  6.72200 48.45100 23.14500
C  5.36900 48.55600 23.68800
C  5.54400 49.06800 24.98700
C  6.91100 49.21600 25.18600
C  4.11300 48.14800 22.96800
C  4.80000 49.47500 26.17300
O  3.60700 49.46100 26.43800
C  5.86100 49.75300 27.19200
C  5.72500 48.64600 28.20500
O  6.20100 47.50300 28.07500
O  5.12900 49.16700 29.34700
C  4.82600 48.15000 30.28200
H  12.80000 50.66200 27.12900
H  12.81400 48.23200 21.05500
H  6.55900 47.49600 21.15300
H  8.31000 51.29600 28.82200
H  11.02400 50.69500 29.01800
H  9.56200 53.09400 28.18700
H  11.25900 52.91100 27.52300
H  10.94800 52.90200 29.19400
H  9.11600 48.46000 28.94300
H  7.62000 49.26000 29.64200
H  10.02600 50.34400 30.86700
H  10.14100 48.67800 30.93000
H  14.82200 50.14400 26.70600
H  15.47200 51.02800 25.36000
H  15.90200 49.31900 25.53900
H  16.54800 48.01000 23.68300
H  16.84900 49.81900 23.57600
H  17.29100 48.74800 22.25000
H  11.11900 46.63900 20.15800
H  8.42400 47.96200 19.21600
H  11.29000 49.34500 19.36600
H  10.31300 48.34200 18.24400
H  12.09300 48.00900 18.51100
H  9.42500 45.50400 19.13500
H  7.67000 45.77900 19.16900
H  8.50200 45.42500 21.90700
H  9.13000 44.10500 20.92900
H  7.40500 44.62100 20.96900
H  3.47800 47.61200 23.67300
H  4.38300 47.38800 22.23500
H  3.54600 48.97200 22.53500
H  5.70900 50.76400 27.57000
H  4.17800 47.42100 29.79600
H  4.23100 48.56200 31.09700
H  5.74600 47.67800 30.62700

