158

Mg 36.17400 48.91200 26.61800
C  36.56300 46.76700 29.44500
C  35.09100 51.31700 28.72000
C  35.31500 50.55400 23.97300
C  37.12300 46.11000 24.63400
N  35.75700 49.02100 28.80600
C  36.07200 48.06200 29.78100
C  35.92000 48.67900 31.20100
C  34.99700 49.93300 30.90600
C  35.27600 50.14800 29.38200
C  33.46500 49.78200 31.13200
C  37.27200 49.10500 31.83300
C  37.55300 48.61300 33.30500
H  36.43600 48.61900 34.28700
N  35.46000 50.75300 26.38700
C  35.08500 51.60800 27.36500
C  34.81500 52.89500 26.66000
C  34.90300 52.73700 25.29500
C  35.20700 51.30700 25.16600
C  34.57800 54.19000 27.44500
C  34.77900 53.79600 24.20000
O  35.06900 53.56600 23.02200
C  34.06300 55.13400 24.54600
N  36.39000 48.39000 24.62300
C  35.78500 49.26300 23.65300
C  35.94100 48.63900 22.24000
C  36.66300 47.29700 22.41100
C  36.74700 47.26900 23.97800
C  34.63600 48.54000 21.42700
C  38.03000 47.06800 21.68200
C  39.26000 47.72200 22.26900
N  36.83600 46.86100 26.94500
C  37.23400 45.91900 26.06300
C  37.56100 44.67900 26.68700
C  37.38900 44.99500 28.06200
C  36.82500 46.29300 28.11400
C  38.00100 43.43000 25.96500
C  37.40700 44.50600 29.40100
O  37.63000 43.36800 29.75500
C  36.90300 45.57600 30.41400
C  35.70000 45.10500 31.12600
O  34.88200 44.38200 30.65400
O  35.77200 45.35200 32.48900
C  34.63600 44.80000 33.28500
H  34.78500 52.22100 29.25100
H  35.12400 51.04700 23.01800
H  37.25100 45.27000 23.94900
H  35.38600 47.96700 31.83100
H  35.34900 50.85600 31.36700
H  32.87300 50.37300 30.43400
H  33.20900 50.34300 32.03100
H  33.15600 48.73900 31.20700
H  37.38600 50.17200 32.02300
H  37.96300 48.62700 31.13800
H  38.34700 49.24800 33.70000
H  37.97300 47.61300 33.19900
H  35.22700 54.98500 27.07800
H  34.90700 53.97300 28.46200
H  33.50800 54.38700 27.50100
H  33.49700 55.56200 23.71900
H  34.62900 55.88600 25.09600
H  33.33900 54.85600 25.31300
H  36.47100 49.36900 21.62800
H  36.09600 46.39900 22.16300
H  34.20800 47.54500 21.31000
H  34.74300 49.08000 20.48600
H  33.85000 49.06600 21.96900
H  37.99100 47.13400 20.59500
H  38.25800 46.01400 21.84400
H  39.69800 48.37200 21.51100
H  39.92400 46.95400 22.66700
H  39.01600 48.42400 23.06600
H  38.36200 43.70500 24.97400
H  37.18000 42.71300 26.00300
H  38.82700 43.01700 26.54400
H  37.65800 45.91700 31.12200
H  34.52600 45.53900 34.07900
H  34.81500 43.82800 33.74500
H  33.71500 44.74900 32.70400
Mg -2.36200 34.53600 26.60600
C  -4.21300 32.78600 29.20000
C  -1.20700 36.51400 29.03500
C  -0.84500 36.16000 24.17900
C  -4.04500 32.47300 24.30200
N  -2.79800 34.76600 28.95300
C  -3.42200 33.83300 29.75800
C  -3.21900 34.22000 31.20100
C  -2.39700 35.53400 31.08100
C  -2.06100 35.64200 29.57500
C  -3.13100 36.79200 31.61600
C  -2.54700 33.09600 32.03300
C  -3.34200 32.36200 33.15000
H  -3.39300 33.23500 34.39800
N  -1.20700 36.13900 26.56800
C  -0.74300 36.80000 27.70500
C  0.20300 37.82600 27.32700
C  0.33500 37.72500 25.94300
C  -0.62000 36.64800 25.48000
C  0.91100 38.68900 28.35400
C  1.28000 38.46100 25.01400
O  1.26300 38.34400 23.80600
C  2.34500 39.32900 25.57500
N  -2.73000 34.46700 24.51600
C  -1.72600 35.15400 23.78400
C  -1.68400 34.60800 22.35100
C  -2.61900 33.38700 22.36000
C  -3.19700 33.38300 23.77900
C  -1.98500 35.64500 21.28700
C  -1.87300 32.05900 22.06300
C  -2.69500 30.81000 21.61400
N  -4.03400 33.13500 26.69900
C  -4.54700 32.34200 25.63100
C  -5.42900 31.32900 26.17500
C  -5.32900 31.43900 27.56200
C  -4.45900 32.58800 27.83000
C  -6.18500 30.17800 25.44800
C  -5.72300 30.88600 28.80800
O  -6.59100 30.02000 28.99700
C  -5.06700 31.77900 29.91600
C  -6.25700 32.36700 30.59900
O  -6.73600 33.43800 30.29400
O  -6.63400 31.70300 31.68500
C  -7.59800 32.20600 32.61800
H  -0.80800 37.18600 29.79800
H  -0.14700 36.44000 23.38700
H  -4.41200 31.76900 23.55200
H  -4.23100 34.37200 31.57700
H  -1.44000 35.53600 31.60200
H  -4.08800 36.49100 32.04300
H  -3.32500 37.46700 30.78200
H  -2.54700 37.34200 32.35500
H  -1.64800 33.53800 32.46300
H  -2.12800 32.40800 31.29900
H  -2.75100 31.47500 33.38200
H  -4.31900 32.04400 32.78500
H  1.99200 38.68500 28.21000
H  0.65100 38.51600 29.39800
H  0.56900 39.69700 28.11900
H  3.00100 39.62400 24.75600
H  3.02700 38.70700 26.15500
H  1.94200 40.11400 26.21500
H  -0.64000 34.32600 22.21400
H  -3.39300 33.60800 21.62400
H  -1.15700 35.72800 20.58400
H  -2.08100 36.60200 21.79900
H  -2.97500 35.45600 20.87100
H  -1.39900 31.69400 22.97400
H  -1.01600 32.14800 21.39500
H  -2.38700 30.50800 20.61300
H  -3.74700 31.09500 21.59000
H  -2.56200 30.04400 22.37800
H  -5.91100 29.23600 25.92200
H  -5.91300 30.24300 24.39400
H  -7.25600 30.36300 25.53800
H  -4.49500 31.20400 30.64500
H  -7.03200 32.85000 33.29100
H  -8.12000 31.42100 33.16500
H  -8.32400 32.78900 32.05200

