158

Mg 16.60800 -1.36300 28.57300
C  15.37500 0.71700 30.97000
C  18.63500 -2.96200 30.99100
C  17.92000 -3.25700 26.09600
C  14.49300 0.16700 26.17900
N  16.84700 -1.27800 30.78700
C  16.22300 -0.28600 31.53700
C  16.59800 -0.40100 33.02000
C  17.79300 -1.32500 32.95900
C  17.78100 -1.91900 31.48600
C  19.18900 -0.81700 33.46100
C  15.38500 -0.93200 33.81000
C  15.21700 -0.32600 35.21500
H  16.41300 0.41900 35.89000
N  18.07100 -2.77200 28.52000
C  18.72000 -3.37700 29.66400
C  19.48400 -4.51700 29.23100
C  19.22100 -4.71200 27.79800
C  18.40100 -3.53600 27.40600
C  20.24300 -5.50700 30.12100
C  19.69500 -5.80800 26.77900
O  19.31100 -5.92600 25.62800
C  20.43400 -7.04300 27.36200
N  16.35000 -1.39200 26.42000
C  16.99800 -2.27300 25.63400
C  16.59400 -2.31000 24.14100
C  15.42400 -1.20600 24.18500
C  15.39000 -0.77800 25.66900
C  17.77800 -1.93200 23.10500
C  14.05300 -1.45700 23.49900
C  13.93200 -1.08400 22.04100
N  15.16700 0.17300 28.51000
C  14.41500 0.66800 27.49200
C  13.64400 1.79600 28.00200
C  13.97400 1.83300 29.34700
C  14.92300 0.84500 29.66900
C  12.86100 2.73600 27.10000
C  13.71300 2.56400 30.60700
O  12.97500 3.46900 30.91400
C  14.63900 1.83500 31.71600
C  15.58800 2.86200 32.28200
O  16.82800 2.84400 32.19900
O  14.86900 3.66900 33.12600
C  15.72100 4.57100 33.95500
H  19.28100 -3.56500 31.63300
H  18.39800 -3.89900 25.35400
H  13.86000 0.70700 25.47100
H  16.87200 0.60800 33.32900
H  17.69700 -2.14600 33.67000
H  19.12000 0.21200 33.81600
H  19.80900 -0.82700 32.56500
H  19.71400 -1.38800 34.22700
H  15.34300 -2.01600 33.91500
H  14.51000 -0.67800 33.21200
H  14.93100 -1.12900 35.89500
H  14.38900 0.37800 35.14100
H  20.60700 -4.90900 30.95700
H  21.18600 -5.71400 29.61600
H  19.58400 -6.33700 30.37600
H  19.84100 -7.36700 28.21700
H  21.47200 -6.76100 27.53800
H  20.39300 -7.88600 26.67200
H  16.21900 -3.29700 23.87000
H  15.73400 -0.27000 23.72000
H  17.54800 -1.07600 22.47000
H  17.98000 -2.84600 22.54600
H  18.65300 -1.78500 23.73800
H  13.30100 -0.94300 24.09800
H  13.82900 -2.51100 23.66100
H  14.84900 -0.78400 21.53300
H  13.19300 -0.29100 21.92700
H  13.57500 -2.01300 21.59600
H  12.25400 2.14600 26.41300
H  13.57600 3.24600 26.45400
H  12.10100 3.36300 27.56800
H  13.94200 1.59200 32.51800
H  16.43100 5.11700 33.33400
H  16.32400 4.03500 34.68900
H  14.97000 5.25100 34.35800
Mg -5.91300 25.62100 25.65600
C  -4.15500 26.66300 28.51800
C  -7.92300 23.70700 27.66400
C  -7.28300 24.09600 22.84900
C  -3.75100 27.32300 23.62500
N  -5.98800 25.19300 27.86300
C  -5.19800 25.79900 28.79900
C  -5.75500 25.30400 30.16800
C  -6.74400 24.15400 29.85900
C  -6.92600 24.35400 28.37900
C  -6.24000 22.71400 30.10100
C  -6.30900 26.52800 30.99600
C  -5.58100 26.79600 32.38600
H  -4.81700 25.56600 32.96500
N  -7.44500 24.20600 25.29500
C  -8.22600 23.64800 26.30200
C  -9.15700 22.72900 25.74500
C  -9.04200 22.80100 24.32200
C  -7.91200 23.76200 24.07100
C  -10.20000 21.95800 26.58000
C  -9.82400 22.11700 23.27400
O  -9.63900 22.25400 22.05100
C  -10.85700 21.12200 23.64400
N  -5.71400 25.84700 23.56400
C  -6.26800 25.01900 22.56600
C  -5.63400 25.18000 21.23000
C  -4.72400 26.38700 21.40600
C  -4.75100 26.62600 22.97000
C  -4.99600 23.86200 20.61900
C  -5.06200 27.65300 20.53700
C  -4.26700 27.66800 19.17000
N  -4.25400 26.71200 25.94000
C  -3.45400 27.36700 25.01900
C  -2.45100 28.23100 25.71100
C  -2.73500 27.89500 27.08400
C  -3.83200 26.96000 27.18700
C  -1.46100 29.15200 25.10400
C  -2.33500 28.28000 28.46900
O  -1.60100 29.15800 28.81500
C  -3.14800 27.31600 29.48500
C  -2.12500 26.37900 29.95800
O  -1.99500 25.15600 29.58900
O  -1.42200 26.99400 30.98400
C  -0.65500 26.07300 31.79600
H  -8.45700 23.01900 28.32300
H  -7.56500 23.55000 21.94600
H  -3.09500 27.79400 22.89000
H  -4.79900 24.93300 30.53900
H  -7.68200 24.32400 30.38800
H  -5.25600 22.84300 30.55100
H  -6.10900 22.22100 29.13800
H  -6.98000 22.19200 30.70700
H  -7.32100 26.24000 31.28200
H  -6.32200 27.41000 30.35700
H  -6.35200 27.00000 33.12900
H  -4.99200 27.71200 32.37800
H  -11.15000 22.28000 26.15400
H  -10.21100 22.13400 27.65600
H  -9.93800 20.90400 26.48400
H  -10.36300 20.42100 24.31800
H  -10.97200 20.56700 22.71300
H  -11.77500 21.64800 23.90500
H  -6.47100 25.51400 20.61700
H  -3.67700 26.12800 21.24600
H  -3.94300 23.94400 20.35000
H  -5.66200 23.50200 19.83500
H  -5.00500 23.22700 21.50500
H  -4.76200 28.51500 21.13200
H  -6.12600 27.72500 20.31300
H  -4.96200 27.92600 18.37200
H  -3.81400 26.69400 18.98700
H  -3.39500 28.30200 19.33000
H  -1.26400 28.85900 24.07300
H  -0.46800 29.01700 25.53400
H  -1.83500 30.17300 25.03500
H  -3.50100 27.88300 30.34600
H  -1.39200 25.71000 32.51300
H  -0.01800 26.76900 32.34300
H  -0.11000 25.29400 31.26300

