158

Mg 24.26500 -5.95900 45.88700
C  26.38300 -3.48600 44.35000
C  21.68700 -4.73300 43.92900
C  22.48400 -8.55000 46.86000
C  26.99700 -7.08300 47.72900
N  24.07400 -4.25600 44.38400
C  25.07400 -3.37800 43.89800
C  24.46700 -2.40200 42.87400
C  22.92000 -2.67200 42.98100
C  22.87300 -3.98200 43.76100
C  22.09900 -1.62000 43.73700
C  25.02200 -2.64000 41.45100
C  25.51300 -1.41200 40.66200
H  25.36400 -1.41000 39.08600
N  22.33100 -6.63500 45.31600
C  21.47900 -5.96700 44.52300
C  20.24300 -6.75800 44.59900
C  20.34700 -7.73500 45.58400
C  21.74500 -7.71300 45.95200
C  19.00600 -6.31400 43.72100
C  19.22000 -8.66200 46.09300
O  18.14300 -8.57300 45.50800
C  19.31000 -9.59500 47.29400
N  24.77700 -7.73100 46.89900
C  23.81300 -8.61800 47.24500
C  24.45500 -9.70300 48.19000
C  25.69500 -8.91600 48.83700
C  25.84400 -7.90900 47.76800
C  23.58300 -10.35900 49.26000
C  26.94100 -9.74200 49.13200
C  27.76300 -9.27300 50.33300
N  26.31500 -5.38700 46.13800
C  27.31600 -5.96900 46.86900
C  28.55200 -5.17800 46.65800
C  28.19100 -4.26600 45.70500
C  26.83500 -4.42300 45.34200
C  29.80200 -5.46400 47.39700
C  28.72500 -3.21300 44.87000
O  29.89900 -2.89300 44.76900
C  27.58000 -2.71600 43.94600
C  27.40300 -1.27600 44.18800
O  26.92600 -0.80100 45.24200
O  27.68800 -0.50100 43.07400
C  27.42900 0.95800 43.08200
H  20.87000 -4.18800 43.45100
H  21.83600 -9.33800 47.25000
H  27.81400 -7.28900 48.42400
H  24.69700 -1.42100 43.29200
H  22.41200 -2.91700 42.04800
H  22.79100 -0.80000 43.92900
H  21.63100 -1.92400 44.67300
H  21.23400 -1.28700 43.16400
H  24.18300 -2.98800 40.84700
H  25.89000 -3.29600 41.38400
H  26.52400 -1.06000 40.87100
H  24.84100 -0.70400 41.14700
H  18.58500 -7.04100 43.02600
H  19.28600 -5.45900 43.10600
H  18.20500 -5.96700 44.37400
H  19.70000 -10.52200 46.87300
H  18.30800 -9.62000 47.72200
H  19.91100 -9.10900 48.06200
H  24.83700 -10.49700 47.54800
H  25.29900 -8.37200 49.69400
H  24.06400 -10.68500 50.18200
H  23.20100 -11.33300 48.95300
H  22.83700 -9.63000 49.57500
H  27.50600 -9.93700 48.22000
H  26.45100 -10.67000 49.42900
H  28.33400 -10.12400 50.70400
H  27.03100 -8.83900 51.01300
H  28.43500 -8.47300 50.02100
H  30.57900 -4.76100 47.09800
H  30.15700 -6.48800 47.28200
H  29.72200 -5.17100 48.44400
H  27.66900 -2.87600 42.87100
H  28.04400 1.45300 42.33000
H  27.78400 1.37300 44.02600
H  26.35800 1.03000 42.89500
Mg -1.80200 34.84600 27.23600
C  -3.65500 32.68900 29.48000
C  -0.70500 36.47900 29.92000
C  -0.31400 36.91400 25.16900
C  -3.31900 33.24100 24.58800
N  -2.38900 34.77600 29.43400
C  -2.95000 33.70000 30.08800
C  -2.73400 33.85700 31.62300
C  -1.88900 35.16500 31.74300
C  -1.66800 35.56000 30.27100
C  -2.49300 36.20800 32.66700
C  -1.95600 32.58100 32.16800
C  -2.66000 31.76300 33.34700
H  -1.96200 31.75800 34.65300
N  -0.48000 36.36600 27.53200
C  -0.13900 36.90200 28.70900
C  0.94700 37.83500 28.49700
C  1.02800 38.06400 27.09600
C  0.08200 37.10100 26.51500
C  1.69400 38.44900 29.63000
C  1.84100 39.02800 26.31700
O  1.80700 39.03900 25.12500
C  2.75700 40.04100 27.07900
N  -2.00200 35.17000 25.22000
C  -1.23500 36.08100 24.56100
C  -1.44900 36.02800 23.01500
C  -2.25600 34.68700 22.85300
C  -2.55700 34.31400 24.33800
C  -1.90300 37.35600 22.29700
C  -1.51500 33.56100 22.01900
C  -0.48200 32.75100 22.77400
N  -3.32000 33.36200 27.02700
C  -3.73300 32.73900 25.84600
C  -4.37300 31.54800 26.17400
C  -4.48200 31.50100 27.58500
C  -3.77600 32.61200 28.07500
C  -5.00000 30.60000 25.16100
C  -4.97200 30.79300 28.73000
O  -5.68000 29.76800 28.79500
C  -4.46300 31.53200 29.98600
C  -5.55900 31.99800 30.78600
O  -6.20000 33.06300 30.62800
O  -5.79500 31.11100 31.73800
C  -6.74800 31.56600 32.73800
H  -0.16700 36.90400 30.77000
H  0.16500 37.55800 24.42900
H  -3.48400 32.57900 23.73500
H  -3.74100 34.03800 31.99900
H  -0.84300 34.99200 31.99900
H  -3.46300 35.95100 33.09400
H  -2.74200 36.99400 31.95400
H  -1.76900 36.59900 33.38100
H  -1.06100 32.95700 32.66400
H  -1.64900 31.91900 31.35800
H  -2.86800 30.77000 32.94900
H  -3.63800 32.20400 33.54100
H  1.67600 37.79900 30.50400
H  1.20700 39.38500 29.90600
H  2.70300 38.75000 29.34800
H  3.56600 39.54800 27.61900
H  2.18000 40.49900 27.88200
H  3.21900 40.73900 26.38200
H  -0.48600 35.81300 22.55100
H  -3.22200 34.86600 22.38200
H  -1.15900 37.61300 21.54300
H  -1.88700 38.27100 22.88900
H  -2.93400 37.28000 21.95200
H  -0.95700 34.16600 21.30500
H  -2.24000 32.89500 21.55100
H  0.32300 32.76800 22.03900
H  -0.75300 31.70900 22.94500
H  -0.12900 33.20500 23.70000
H  -4.27000 30.04000 24.57600
H  -5.73300 31.22400 24.65000
H  -5.60600 29.95400 25.79700
H  -3.85400 30.80000 30.51500
H  -6.45100 32.44700 33.30700
H  -6.95900 30.73900 33.41600
H  -7.71400 31.92000 32.37900

