158

Mg 54.00600 24.32500 44.82500
C  51.48600 26.39800 43.59400
C  52.70100 21.61400 42.92000
C  56.89100 22.49500 45.11200
C  55.46900 27.09800 46.27000
N  52.41200 24.03400 43.25400
C  51.53100 25.11900 42.91800
C  50.47100 24.52700 41.81600
C  50.65900 22.97000 41.98000
C  52.04000 22.81100 42.72300
C  49.52300 22.25800 42.74300
C  50.63000 25.23600 40.40700
C  50.67500 24.46400 39.08000
H  52.03700 24.44200 38.26700
N  54.62500 22.24900 44.38400
C  53.91900 21.31000 43.59800
C  54.66200 20.06300 43.62600
C  55.87900 20.26600 44.37500
C  55.84000 21.67700 44.66700
C  54.09400 18.76700 42.98400
C  56.88900 19.21000 44.81800
O  56.79300 18.02700 44.45000
C  57.95000 19.67600 45.74700
N  55.88100 24.67600 45.76300
C  56.96700 23.83600 45.57800
C  58.23400 24.45000 46.17100
C  57.75200 25.95500 46.41200
C  56.27600 25.92900 46.15500
C  58.93600 23.73900 47.38100
C  58.56600 26.98200 45.53800
C  58.14800 27.11500 43.98700
N  53.53900 26.28100 45.03300
C  54.13800 27.27600 45.80400
C  53.29100 28.41500 46.00900
C  52.19900 28.13400 45.15700
C  52.49100 26.86000 44.50600
C  53.45000 29.60600 46.85000
C  50.98300 28.64500 44.64800
O  50.40400 29.69300 44.78200
C  50.45000 27.55200 43.58000
C  50.18100 28.14400 42.22800
O  51.04700 28.65200 41.48800
O  48.85800 28.06100 41.93000
C  48.33100 28.65400 40.73700
H  52.20300 20.73500 42.50500
H  57.92200 22.13800 45.09700
H  55.78300 27.84900 46.99700
H  49.48300 24.74800 42.22100
H  50.64300 22.50000 40.99700
H  48.73600 22.92300 43.10000
H  49.96200 21.68400 43.55900
H  49.06800 21.47900 42.13200
H  51.48400 25.90500 40.50900
H  49.75100 25.87200 40.30400
H  49.86300 24.88900 38.49000
H  50.32400 23.43600 39.17100
H  54.48800 18.48000 42.00900
H  53.01000 18.83700 42.89700
H  54.07600 17.93400 43.68600
H  57.57700 20.39100 46.48100
H  58.86700 20.10500 45.34400
H  58.34900 18.83100 46.30800
H  59.01400 24.55000 45.41600
H  57.90900 26.24700 47.45100
H  59.01800 24.43600 48.21500
H  59.92400 23.38200 47.09100
H  58.26600 22.99400 47.81000
H  59.58800 26.62700 45.67200
H  58.52000 27.99300 45.94300
H  59.08700 27.02100 43.44200
H  57.62300 28.02900 43.70900
H  57.55500 26.26800 43.64200
H  53.87800 29.14700 47.74100
H  52.50700 30.08700 47.11300
H  54.21700 30.18200 46.33300
H  49.54100 27.11400 43.99200
H  49.00800 28.73700 39.88700
H  47.84200 29.61700 40.88800
H  47.52500 28.09300 40.26600
Mg 30.23500 58.75100 39.15400
C  27.29000 56.96800 38.36500
C  32.03000 56.08300 38.13000
C  33.02200 60.69600 39.26800
C  28.19900 61.62300 39.52700
N  29.69100 56.80500 38.18200
C  28.44100 56.23500 38.17800
C  28.57900 54.71500 37.99500
C  30.11000 54.45600 38.26100
C  30.67900 55.86700 38.08000
C  30.50500 53.74800 39.64100
C  28.04400 54.27300 36.58900
C  28.73900 55.03300 35.40700
H  27.76200 55.39000 34.21600
N  32.31600 58.38800 38.77900
C  32.82700 57.19100 38.32000
C  34.31100 57.38500 38.27800
C  34.63800 58.67200 38.65700
C  33.30500 59.35500 38.90000
C  35.11400 56.20200 37.78200
C  36.00400 59.26900 38.74700
O  36.97000 58.60700 38.44400
C  36.25900 60.59800 39.33400
N  30.59200 60.84800 39.28300
C  31.83800 61.33400 39.44300
C  31.74400 62.78100 39.80300
C  30.20900 63.10800 39.87200
C  29.61700 61.76900 39.50300
C  32.39400 63.30600 41.16900
C  29.68900 64.31800 39.01500
C  29.13400 65.54400 39.77800
N  28.11800 59.23100 39.18500
C  27.47900 60.43300 39.28200
C  26.07300 60.23600 39.29900
C  25.93400 58.84700 38.89000
C  27.21200 58.29700 38.79200
C  25.05900 61.41300 39.47500
C  24.91700 57.85300 38.60700
O  23.70700 57.90200 38.60200
C  25.80900 56.53800 38.30500
C  25.37600 55.45200 39.21100
O  25.71600 55.44400 40.41500
O  24.56800 54.53600 38.59600
C  24.22200 53.40200 39.41100
H  32.67900 55.20900 38.03900
H  33.91300 61.30700 39.42200
H  27.65000 62.53600 39.76900
H  27.99100 54.23500 38.77800
H  30.46500 53.80200 37.46500
H  29.59600 53.24900 39.97800
H  30.82200 54.49100 40.37300
H  31.18900 52.95500 39.33800
H  26.97200 54.46100 36.51400
H  28.35500 53.23400 36.48400
H  29.63500 54.45700 35.17800
H  29.27200 55.92900 35.72600
H  34.55400 55.61200 37.05700
H  35.36800 55.60200 38.65600
H  36.09200 56.51200 37.41400
H  35.73100 60.64600 40.28600
H  35.90100 61.37600 38.65900
H  37.34000 60.72300 39.39700
H  32.27800 63.35000 39.04200
H  29.93100 63.43700 40.87300
H  32.48500 64.38700 41.06200
H  33.41200 62.92700 41.08400
H  31.87100 63.06700 42.09400
H  28.80100 64.08100 38.42900
H  30.44500 64.64300 38.30000
H  29.70200 66.45000 39.56300
H  29.24600 65.37400 40.84900
H  28.12600 65.67100 39.38400
H  25.26000 62.20200 38.74900
H  25.14000 61.85400 40.46800
H  24.07700 60.94600 39.54900
H  25.49500 56.20500 37.31600
H  25.15600 52.84700 39.49700
H  23.44100 52.81100 38.93400
H  23.73900 53.76200 40.32000

