158

Mg 40.96600 8.58100 29.90400
C  42.97100 9.81000 32.34300
C  38.74800 7.45100 32.21000
C  38.96100 7.69300 27.45100
C  43.43900 9.31300 27.55800
N  40.79200 8.70900 32.05300
C  41.74300 9.28200 32.91100
C  41.30300 9.20800 34.42600
C  40.06100 8.27800 34.25300
C  39.86300 8.05200 32.74800
C  40.28500 6.91800 34.92000
C  41.02000 10.68400 35.04900
C  41.60600 10.81400 36.52200
H  41.13800 11.89600 37.46800
N  39.16500 7.54600 29.78100
C  38.48300 7.10300 30.88700
C  37.27600 6.40900 30.42100
C  37.23000 6.63100 28.99800
C  38.54400 7.23900 28.68900
C  36.29500 5.73900 31.35000
C  36.14700 6.32900 28.02100
O  36.16600 6.60500 26.85700
C  34.96900 5.62700 28.56400
N  41.20700 8.29100 27.74100
C  40.14300 8.12500 26.97400
C  40.41800 8.43400 25.49400
C  41.92700 8.89400 25.48900
C  42.19300 8.88900 27.01500
C  40.09500 7.25900 24.38600
C  42.16000 10.24200 24.76200
C  41.63500 11.52100 25.67300
N  42.91100 9.30000 29.93700
C  43.76200 9.49100 28.90000
C  45.09300 9.94100 29.42900
C  44.74100 10.16400 30.81300
C  43.41400 9.78300 31.01000
C  46.30500 10.45900 28.74900
C  45.31500 10.57800 32.10900
O  46.42200 10.90700 32.45500
C  44.14600 10.45300 33.14700
C  44.53400 9.55000 34.28800
O  44.86300 8.38400 34.21200
O  44.85300 10.30900 35.41300
C  45.82300 9.81200 36.39300
H  38.04900 7.09600 32.97000
H  38.35500 7.61800 26.54600
H  44.20700 9.57400 26.82700
H  42.09800 8.69000 34.96300
H  39.25800 8.83400 34.73500
H  41.32600 6.60800 35.01100
H  39.72300 6.11300 34.44600
H  39.93100 7.03900 35.94400
H  39.94700 10.85600 35.13900
H  41.48800 11.45500 34.43700
H  42.68500 10.92100 36.63500
H  41.46600 9.82900 36.96800
H  35.74200 4.90300 30.92000
H  35.58400 6.48100 31.71400
H  36.75000 5.39400 32.27800
H  34.57800 6.24700 29.37100
H  35.23900 4.60600 28.83100
H  34.26400 5.39300 27.76700
H  39.77700 9.31000 25.39200
H  42.59900 8.13100 25.09700
H  40.98400 6.70100 24.09300
H  39.65800 7.77100 23.52900
H  39.28500 6.62600 24.74900
H  41.51800 10.23300 23.88100
H  43.23400 10.36700 24.61900
H  41.97600 11.68900 26.69500
H  40.54900 11.42600 25.66800
H  41.88600 12.38700 25.06100
H  46.55300 9.71800 27.99000
H  47.14200 10.53600 29.44400
H  46.08800 11.45100 28.35200
H  43.97700 11.43800 33.58100
H  45.42100 9.01100 37.01300
H  46.24100 10.61400 37.00100
H  46.65200 9.50000 35.75800
Mg 36.05200 48.27300 25.08300
C  36.26600 46.49400 28.03500
C  34.93500 50.95900 26.81600
C  35.71300 49.86200 22.08000
C  37.47400 45.64000 23.39100
N  35.57900 48.60900 27.12600
C  35.79700 47.75700 28.14200
C  35.45500 48.47800 29.51800
C  34.94000 49.87700 29.06200
C  35.18000 49.84600 27.55300
C  33.37200 50.11800 29.39000
C  36.68700 48.62900 30.41100
C  36.60800 48.20500 31.91500
H  35.28200 48.05000 32.45100
N  35.33100 50.15900 24.51200
C  34.94200 51.16500 25.36300
C  34.76600 52.31200 24.61700
C  34.80400 52.03900 23.18700
C  35.25000 50.63200 23.22800
C  34.66500 53.60900 25.29000
C  34.63300 53.02900 21.98600
O  34.86900 52.75000 20.78800
C  33.97500 54.44300 22.37000
N  36.31500 47.70500 22.92200
C  36.18300 48.54100 21.95100
C  37.01000 48.13800 20.66300
C  37.58300 46.75900 21.09000
C  37.21400 46.76500 22.59000
C  36.04900 48.16300 19.35500
C  39.07400 46.60800 20.97700
C  39.62800 45.28000 20.32000
N  36.73700 46.45700 25.50400
C  37.17700 45.41500 24.70000
C  37.51000 44.24500 25.50400
C  37.12200 44.61500 26.83300
C  36.64300 45.95000 26.78200
C  38.12100 42.99600 25.00900
C  36.96500 44.09600 28.19600
O  37.23900 43.01500 28.61900
C  36.38400 45.33800 29.04700
C  35.18100 44.98900 29.83400
O  34.03100 44.97000 29.42700
O  35.62700 44.67400 31.07900
C  34.76700 43.81300 31.89500
H  34.53800 51.83000 27.34200
H  35.59500 50.29100 21.08200
H  37.88900 44.75800 22.89800
H  34.66000 47.94200 30.03600
H  35.45000 50.72000 29.52800
H  33.21900 51.04100 29.95000
H  32.90000 49.34200 29.99300
H  32.82300 50.21900 28.45400
H  37.13000 49.62100 30.49800
H  37.47900 47.96500 30.06200
H  37.19500 48.75300 32.65200
H  37.06800 47.22000 31.83700
H  35.23300 53.51000 26.21500
H  33.61300 53.88100 25.37600
H  35.24800 54.38400 24.79200
H  33.13600 54.31500 23.05300
H  33.59800 54.85100 21.43200
H  34.70000 55.16300 22.75000
H  37.82600 48.86000 20.67800
H  37.10200 45.97200 20.50900
H  35.02200 48.14200 19.71800
H  36.10400 47.24300 18.77400
H  36.42800 49.07400 18.89100
H  39.50200 46.82100 21.95700
H  39.42600 47.41200 20.33200
H  39.04500 44.43600 20.69000
H  40.64000 45.04400 20.65000
H  39.65200 45.25500 19.23100
H  37.31300 42.32200 24.72300
H  38.66400 42.46600 25.79200
H  38.72700 43.20900 24.12800
H  37.10900 45.58600 29.82200
H  35.34400 43.53700 32.77800
H  34.33500 42.97200 31.35300
H  33.96400 44.48800 32.19000

