158

Mg 1.79900 -1.25100 44.53000
C  4.95500 -0.04000 43.52800
C  0.42400 1.49300 42.95500
C  -1.29600 -2.68400 44.70900
C  3.20900 -4.12900 45.69600
N  2.63500 0.41100 43.33500
C  3.94300 0.71900 43.08800
C  4.06500 2.07000 42.43800
C  2.67700 2.70500 42.73600
C  1.83000 1.48700 43.01700
C  2.72100 3.77600 43.87100
C  4.48600 2.02900 41.00700
C  5.93800 2.50700 40.72100
H  6.86200 1.75900 39.77100
N  -0.20000 -0.64900 43.82400
C  -0.54300 0.50500 43.26500
C  -1.99300 0.54000 42.99700
C  -2.46200 -0.63100 43.66100
C  -1.32200 -1.38000 44.13200
C  -2.68900 1.70000 42.28900
C  -3.99800 -0.89200 43.77900
O  -4.82100 -0.04400 43.44100
C  -4.50800 -2.03100 44.48700
N  1.06100 -3.23000 44.98600
C  -0.28800 -3.57700 45.12800
C  -0.46200 -5.02800 45.70200
C  0.99100 -5.32100 46.11000
C  1.82900 -4.20700 45.53400
C  -1.53700 -5.19400 46.74900
C  1.51900 -6.72800 45.70900
C  1.58600 -7.77300 46.83300
N  3.73400 -1.95200 44.63700
C  4.12400 -3.09400 45.25400
C  5.63100 -3.08300 45.35400
C  6.02900 -1.84200 44.70400
C  4.81900 -1.28800 44.25300
C  6.51600 -4.24800 45.88100
C  7.11700 -1.02700 44.27700
O  8.33100 -1.16100 44.51100
C  6.46800 0.16700 43.46600
C  6.86800 1.41400 44.23600
O  6.44000 1.74800 45.31000
O  7.81300 2.08300 43.59000
C  8.21200 3.40200 44.25000
H  0.08000 2.44800 42.55300
H  -2.25100 -3.20700 44.80000
H  3.60600 -5.03500 46.15800
H  4.81000 2.67100 42.96000
H  2.22000 3.16400 41.86000
H  3.68000 3.65000 44.37500
H  1.94500 3.55200 44.60400
H  2.73600 4.67400 43.25300
H  3.85700 2.65600 40.37500
H  4.28900 0.99100 40.73600
H  6.56400 2.62700 41.60600
H  5.92100 3.46800 40.20800
H  -3.34800 1.34100 41.49800
H  -2.03600 2.43900 41.82400
H  -3.32300 2.23100 42.99900
H  -5.59500 -1.96500 44.53600
H  -4.21600 -2.01800 45.53700
H  -4.27700 -2.93800 43.93000
H  -0.83200 -5.57400 44.83400
H  1.05900 -5.26200 47.19600
H  -2.12800 -6.04700 46.41400
H  -2.19200 -4.32500 46.80800
H  -1.05200 -5.35300 47.71200
H  2.51800 -6.64900 45.28100
H  0.80800 -7.07500 44.95900
H  2.65000 -7.90500 47.03200
H  1.12200 -8.70800 46.52100
H  1.07300 -7.35600 47.70000
H  7.12100 -4.67000 45.07800
H  5.84700 -5.04900 46.19600
H  7.11500 -3.77000 46.65600
H  6.85100 0.21600 42.44600
H  9.10700 3.90100 43.87700
H  8.35600 3.28000 45.32300
H  7.39000 4.11400 44.18600
Mg 42.07900 40.71300 26.39100
C  41.57600 43.26900 28.80900
C  42.98300 38.61600 28.80500
C  42.71400 38.51300 23.92900
C  41.48500 43.20900 23.81700
N  42.49100 41.03200 28.60800
C  41.99300 42.03600 29.35900
C  42.11000 41.69600 30.86200
C  42.90300 40.34900 30.79000
C  42.75700 39.91800 29.29700
C  44.41000 40.55600 31.27600
C  40.66400 41.43500 31.59500
C  40.60800 42.14000 32.92300
H  39.87200 41.38500 34.02900
N  42.79000 38.76000 26.42100
C  43.12100 37.99700 27.46500
C  43.36900 36.63400 27.04700
C  43.23600 36.63200 25.61900
C  42.91300 38.02100 25.24800
C  43.66100 35.46500 28.03200
C  43.40500 35.44500 24.73100
O  43.16700 35.48500 23.56000
C  43.78100 34.11400 25.23300
N  42.20500 40.82000 24.17100
C  42.39400 39.76100 23.37500
C  42.28200 40.03200 21.89000
C  41.97700 41.55400 21.89200
C  41.79900 41.88800 23.34700
C  43.46500 39.49300 20.99200
C  40.75100 41.89700 20.94500
C  40.78500 41.52400 19.38400
N  41.49300 42.73500 26.26300
C  41.32100 43.56200 25.17400
C  40.97800 44.91600 25.63300
C  40.95200 44.78400 27.08500
C  41.36800 43.47700 27.39800
C  40.52300 46.12600 24.81000
C  40.77400 45.49100 28.37000
O  40.42900 46.70300 28.63500
C  41.01900 44.44000 29.54300
C  41.98100 45.12300 30.45900
O  43.16300 45.23400 30.25400
O  41.35400 45.77700 31.50300
C  42.20100 46.31500 32.55700
H  43.13100 37.97400 29.67700
H  42.91100 37.89100 23.05400
H  41.23000 43.94300 23.05000
H  42.63900 42.49500 31.38100
H  42.55800 39.55600 31.45400
H  44.64900 41.61700 31.35200
H  45.07400 40.03100 30.58800
H  44.49900 40.15500 32.28500
H  40.64700 40.35700 31.75000
H  39.87100 41.81400 30.95100
H  40.16300 43.13400 32.88900
H  41.62900 42.23600 33.29300
H  43.01100 34.62800 27.77700
H  43.67500 35.71700 29.09200
H  44.66000 35.12300 27.75900
H  43.92300 33.46800 24.36700
H  43.01900 33.60200 25.82100
H  44.74600 34.23100 25.72500
H  41.38900 39.50000 21.56300
H  42.92600 41.97100 21.55400
H  44.17700 39.08800 21.71100
H  43.95600 40.31500 20.47200
H  43.11300 38.69900 20.33400
H  40.59700 42.97600 20.91000
H  39.82700 41.45500 21.31900
H  40.24400 40.59900 19.18600
H  41.80600 41.49900 19.00200
H  40.30100 42.32600 18.82600
H  40.74400 46.95500 25.48100
H  39.46500 46.00800 24.57400
H  41.10000 46.11500 23.88500
H  40.08300 44.29200 30.08200
H  42.87700 47.00700 32.05400
H  42.68400 45.48100 33.06500
H  41.66700 47.01000 33.20400

