158

Mg -2.19000 16.57300 26.10100
C  -2.62900 14.30500 28.86200
C  -2.76600 19.11800 28.25800
C  -2.49900 18.62600 23.51000
C  -1.78300 13.91500 24.03500
N  -2.75900 16.62700 28.31800
C  -2.89900 15.62200 29.26800
C  -3.29900 16.15900 30.65600
C  -3.14300 17.74500 30.37100
C  -2.96400 17.84800 28.82800
C  -4.43300 18.46600 30.81400
C  -2.42300 15.71900 31.90400
C  -2.24800 16.60700 33.09000
H  -2.42500 15.96700 34.49300
N  -2.38400 18.62900 25.95400
C  -2.53200 19.53300 26.97200
C  -2.74200 20.87500 26.41100
C  -2.73900 20.74400 25.02600
C  -2.54100 19.24400 24.75900
C  -3.10200 22.12900 27.21700
C  -2.95800 21.79100 23.93700
O  -2.89900 21.59200 22.71200
C  -3.04500 23.11800 24.31900
N  -2.01300 16.33100 24.08000
C  -2.22200 17.27600 23.16700
C  -2.32600 16.75100 21.66600
C  -2.05900 15.21600 21.95300
C  -1.92000 15.16600 23.41800
C  -3.68100 17.05500 20.91100
C  -0.89300 14.55600 21.11500
C  0.60200 14.84800 21.41500
N  -2.07600 14.58000 26.36100
C  -1.93800 13.56500 25.41200
C  -2.00000 12.30200 26.00700
C  -2.14900 12.56200 27.32600
C  -2.28000 13.90200 27.52100
C  -1.68500 11.02600 25.38500
C  -2.31500 11.88900 28.60400
O  -2.36900 10.71600 28.89000
C  -2.60000 13.04900 29.64200
C  -1.42200 12.97700 30.55400
O  -0.33700 13.53300 30.44200
O  -1.69500 12.00900 31.46400
C  -0.69800 11.73000 32.55300
H  -2.97100 19.89600 28.99600
H  -2.75500 19.22300 22.63200
H  -1.77100 13.08700 23.32300
H  -4.31400 15.86600 30.92200
H  -2.32400 18.20100 30.92800
H  -5.09300 17.79400 31.36300
H  -4.87200 19.01400 29.98000
H  -4.13400 19.28900 31.46400
H  -1.48300 15.40900 31.44800
H  -2.88700 14.78300 32.21500
H  -2.93200 17.45500 33.14300
H  -1.26800 17.08300 33.12100
H  -4.09600 22.47600 26.93700
H  -2.30100 22.85800 27.09900
H  -3.19000 21.77900 28.24600
H  -3.94100 23.12800 24.93900
H  -3.05700 23.69700 23.39500
H  -2.14900 23.35300 24.89300
H  -1.51700 17.16300 21.06400
H  -2.96500 14.64600 21.74700
H  -3.45400 17.65300 20.02900
H  -4.23700 17.79400 21.48700
H  -4.23700 16.14100 20.70100
H  -1.02000 14.93100 20.10000
H  -0.92500 13.47100 21.21600
H  0.83800 15.45900 22.28600
H  1.21100 15.32900 20.65000
H  1.00100 13.87300 21.69300
H  -1.41800 10.33400 26.18400
H  -0.85700 11.16000 24.68800
H  -2.47700 10.58000 24.78500
H  -3.56000 12.91200 30.13900
H  -1.22900 12.11100 33.42500
H  0.29900 12.17200 32.57300
H  -0.58100 10.70100 32.89400
Mg 0.86400 42.57900 26.19100
C  3.27800 42.58100 28.77700
C  -1.49100 41.94900 28.53100
C  -1.23700 41.98800 23.61800
C  3.57400 42.85900 23.88600
N  0.91500 42.38300 28.35900
C  1.96900 42.56100 29.21900
C  1.59100 42.59400 30.70900
C  0.11300 42.05700 30.59600
C  -0.20700 42.15900 29.07400
C  -0.33600 40.60600 31.15400
C  1.78700 44.08100 31.27600
C  1.17500 44.25000 32.72100
H  1.18400 43.06200 33.69000
N  -1.17400 42.08600 26.14800
C  -1.96100 41.86900 27.16000
C  -3.31800 41.71100 26.66300
C  -3.23500 41.73700 25.24600
C  -1.86600 41.93400 24.92000
C  -4.43800 41.38800 27.71000
C  -4.33600 41.57100 24.26900
O  -4.17700 41.56900 23.05500
C  -5.78400 41.42300 24.84300
N  1.18200 42.65400 24.13200
C  0.11200 42.29900 23.29400
C  0.57500 42.17300 21.83300
C  2.08300 42.73500 21.91500
C  2.30600 42.80300 23.38400
C  0.38100 40.63700 21.36300
C  2.18700 44.23000 21.39800
C  1.48500 45.35500 22.12900
N  3.03500 42.62000 26.23500
C  3.99400 42.75300 25.23400
C  5.31700 42.90900 25.81400
C  5.07300 42.74600 27.25300
C  3.68700 42.60400 27.38200
C  6.61600 43.12300 25.12500
C  5.66000 42.62400 28.53700
O  6.85000 42.66000 28.80000
C  4.56700 42.55800 29.53000
C  4.88900 41.30700 30.32500
O  4.44100 40.17300 30.16800
O  5.61400 41.74600 31.37300
C  5.75700 40.60700 32.38200
H  -2.27900 41.86800 29.28300
H  -1.83200 41.81300 22.71900
H  4.36200 42.92300 23.13200
H  2.28300 41.89000 31.17300
H  -0.62000 42.73600 31.03200
H  0.30200 40.32500 31.99200
H  -0.32900 40.00000 30.24900
H  -1.35700 40.55200 31.53200
H  1.23600 44.68600 30.55600
H  2.84800 44.32000 31.34700
H  0.22800 44.78600 32.78300
H  1.74400 44.93400 33.35000
H  -5.38300 41.91500 27.57500
H  -4.11800 41.68300 28.70900
H  -4.72500 40.33800 27.67600
H  -6.52700 41.48600 24.04800
H  -6.12700 42.21200 25.51200
H  -5.71900 40.49800 25.41600
H  0.07700 42.79400 21.08800
H  2.78100 41.97500 21.56600
H  1.35300 40.16700 21.20800
H  0.02000 40.65500 20.33500
H  -0.29500 40.04600 21.98000
H  1.75000 44.13300 20.40400
H  3.21000 44.56500 21.22300
H  0.82900 45.03200 22.93800
H  0.84600 45.88600 21.42300
H  2.19000 46.05700 22.57300
H  6.54600 43.97700 24.45100
H  7.11700 42.24300 24.72100
H  7.27800 43.41500 25.94000
H  4.68100 43.37300 30.24500
H  6.43600 41.15000 33.03900
H  6.38000 39.80000 31.99600
H  4.87000 40.28100 32.92400

