158

Mg -0.47800 6.94400 26.60400
C  0.27400 8.82700 29.46000
C  -0.67100 4.15600 28.65500
C  -0.88800 4.89000 23.85600
C  -0.13700 9.73700 24.62700
N  -0.18400 6.52700 28.88100
C  -0.04200 7.46600 29.80300
C  0.07300 6.88000 31.20900
C  -0.23000 5.38800 30.95900
C  -0.32600 5.28800 29.40300
C  0.74500 4.40500 31.61200
C  -0.80200 7.57300 32.31200
C  -0.14800 7.82000 33.77600
H  1.11500 7.01600 34.14100
N  -0.73900 4.81500 26.27700
C  -0.83800 3.92400 27.29300
C  -1.15700 2.65500 26.77400
C  -1.25000 2.77300 25.38900
C  -0.87800 4.18400 25.09400
C  -1.29000 1.37300 27.67100
C  -1.70000 1.79400 24.37100
O  -1.68400 2.07500 23.20100
C  -2.21100 0.43200 24.79000
N  -0.43300 7.20100 24.51800
C  -0.70400 6.29200 23.55700
C  -0.80900 6.94600 22.16100
C  -0.74500 8.51100 22.49400
C  -0.47800 8.48900 24.01500
C  0.36600 6.52400 21.23100
C  -2.05500 9.25500 22.07200
C  -1.88200 10.27900 20.98400
N  0.03300 8.85700 26.88700
C  0.10600 9.94000 26.03400
C  0.60400 11.11600 26.72100
C  0.66000 10.69500 28.05900
C  0.31200 9.34200 28.14400
C  0.83300 12.44800 26.18200
C  1.00200 11.17100 29.35600
O  1.45800 12.21800 29.78100
C  0.56000 10.02900 30.36700
C  1.70300 9.96500 31.35300
O  2.77000 9.50600 31.16000
O  1.28200 10.61900 32.43000
C  2.27900 10.99100 33.38300
H  -0.85600 3.42500 29.44500
H  -1.12000 4.26000 22.99500
H  0.10200 10.66100 24.09800
H  1.12800 6.97900 31.46700
H  -1.24000 5.08000 31.23000
H  1.28900 3.93800 30.79000
H  0.21400 3.70600 32.25700
H  1.46200 4.90200 32.26600
H  -1.80900 7.15700 32.33900
H  -0.98900 8.60800 32.02700
H  -0.90300 7.53400 34.50800
H  0.05300 8.88000 33.93300
H  -2.33000 1.04800 27.65200
H  -0.84500 1.48300 28.66000
H  -0.64200 0.70700 27.10000
H  -1.46000 -0.25500 25.18100
H  -2.73700 -0.03700 23.95900
H  -3.11900 0.60900 25.36500
H  -1.81000 6.62500 21.87300
H  0.07300 8.92000 21.90100
H  0.15800 5.49300 20.94500
H  1.29700 6.71400 21.76500
H  0.44000 7.20100 20.37900
H  -2.50500 9.64900 22.98300
H  -2.88200 8.62400 21.74600
H  -1.04600 9.98400 20.34900
H  -1.66300 11.28700 21.33800
H  -2.72300 10.26200 20.29200
H  1.90600 12.58400 26.04200
H  0.57100 13.21100 26.91400
H  0.18800 12.68000 25.33400
H  -0.30900 10.38600 30.92100
H  3.24800 11.23300 32.94900
H  2.33400 10.16300 34.09000
H  1.87400 11.82400 33.95800
Mg 15.94700 -1.27100 27.49400
C  14.80800 0.58100 30.40700
C  18.08500 -3.02000 29.46200
C  17.15700 -2.61500 24.71100
C  13.91700 1.00400 25.55400
N  16.50200 -1.15400 29.70900
C  15.80900 -0.39500 30.62200
C  16.24400 -0.87700 32.04200
C  17.36000 -1.94700 31.74600
C  17.37900 -2.00200 30.21300
C  18.74000 -1.70300 32.40900
C  15.12400 -1.39900 32.82000
C  15.24700 -1.20100 34.36500
H  16.40600 -0.52800 35.01100
N  17.42100 -2.57700 27.15100
C  18.15800 -3.18500 28.10900
C  18.99500 -4.24000 27.42900
C  18.69300 -4.20900 25.99200
C  17.76700 -3.07200 25.89500
C  19.85400 -5.09800 28.17000
C  19.14800 -5.17100 24.90300
O  18.80600 -4.95700 23.73000
C  19.99700 -6.35200 25.25700
N  15.57000 -0.92500 25.46000
C  16.17800 -1.65300 24.47000
C  15.54800 -1.35300 23.07500
C  14.68600 -0.09300 23.34500
C  14.68100 -0.00000 24.91100
C  16.51300 -1.28000 21.83900
C  13.28200 -0.10200 22.71700
C  13.26600 -0.15100 21.21400
N  14.60500 0.44100 27.85700
C  13.92700 1.26900 26.99700
C  13.17700 2.25700 27.72200
C  13.43400 2.02700 29.08700
C  14.27700 0.94900 29.11500
C  12.46700 3.31500 27.03400
C  13.24900 2.49400 30.46200
O  12.62500 3.49500 30.91600
C  14.13700 1.47400 31.36600
C  15.07800 2.28800 32.28000
O  16.24100 2.58800 32.05900
O  14.36600 2.63600 33.41800
C  14.94500 3.64500 34.36500
H  18.61800 -3.68000 30.15000
H  17.39800 -3.12000 23.77300
H  13.32300 1.64100 24.89600
H  16.61000 -0.00800 32.58800
H  17.04100 -2.84600 32.27400
H  19.08700 -2.51200 33.05200
H  18.54200 -0.85600 33.06500
H  19.45400 -1.33000 31.67400
H  14.88200 -2.38300 32.41800
H  14.19200 -0.85600 32.66200
H  15.14900 -2.17700 34.84100
H  14.37000 -0.63800 34.68300
H  20.67600 -5.63300 27.69400
H  19.32900 -5.93000 28.63900
H  20.28500 -4.54500 29.00500
H  21.04500 -6.08300 25.39400
H  19.95000 -6.99900 24.38100
H  19.58100 -6.90800 26.09700
H  14.84100 -2.16500 22.90700
H  15.19300 0.81500 23.01900
H  17.44900 -1.79400 22.05800
H  16.70700 -0.37800 21.25800
H  15.98500 -1.92000 21.13200
H  12.71600 0.78700 22.99700
H  12.79700 -1.00000 23.09800
H  12.81000 0.70000 20.70800
H  12.74200 -1.05200 20.89700
H  14.27100 -0.21800 20.79700
H  13.12700 3.75200 26.28600
H  12.40400 4.05000 27.83600
H  11.47900 3.03200 26.67100
H  13.31700 0.95500 31.86300
H  14.52100 3.49500 35.35700
H  14.70500 4.66400 34.05900
H  16.00800 3.42600 34.46300

