158

Mg 44.01700 4.00200 47.49500
C  41.77600 6.75700 47.14000
C  41.25400 1.89600 46.80400
C  46.09000 1.48600 47.21600
C  46.62800 6.37300 47.73600
N  41.81400 4.25400 47.04400
C  41.12000 5.46800 46.97600
C  39.61600 5.14100 46.73500
C  39.53600 3.65000 46.92300
C  40.95900 3.21800 46.84700
C  38.75900 3.19200 48.22500
C  39.23600 5.51800 45.26600
C  37.75000 5.99000 45.11100
H  37.22200 5.93900 43.68600
N  43.77200 1.96900 47.13700
C  42.52700 1.27600 46.91300
C  42.71700 -0.10400 46.70000
C  44.19300 -0.21800 46.78500
C  44.76900 1.08000 47.10900
C  41.63500 -1.11700 46.38700
C  44.84300 -1.54100 46.54500
O  44.16100 -2.56100 46.30400
C  46.22500 -1.65900 46.66900
N  46.08700 3.93600 47.28100
C  46.72200 2.76100 47.39200
C  48.25700 2.95200 47.32300
C  48.39700 4.55700 47.59300
C  46.93700 5.00100 47.52900
C  49.11000 2.12300 48.28800
C  49.41800 5.20700 46.64100
C  50.36000 6.20900 47.36500
N  44.25400 6.11700 47.44300
C  45.33000 6.89300 47.64900
C  44.95900 8.29000 47.66800
C  43.58200 8.23400 47.48700
C  43.19100 6.92000 47.44000
C  45.81900 9.45000 47.83700
C  42.38400 9.09000 47.39500
O  42.31700 10.31800 47.60900
C  41.14600 8.13200 47.07200
C  40.19100 8.18600 48.19900
O  40.39300 7.69100 49.32800
O  39.11100 8.89900 47.72000
C  37.96300 9.02800 48.62300
H  40.38300 1.23900 46.76300
H  46.76300 0.62900 47.28300
H  47.46300 7.07100 47.82300
H  39.08800 5.74200 47.47400
H  39.17300 3.06600 46.07700
H  38.55300 4.07500 48.82900
H  39.30700 2.46200 48.82200
H  37.73500 2.83800 48.10600
H  39.27000 4.62400 44.64400
H  39.86700 6.30900 44.86100
H  37.63500 7.05500 45.30900
H  37.03900 5.51400 45.78600
H  40.68100 -0.90000 46.86900
H  41.83600 -2.16500 46.60700
H  41.59700 -0.90500 45.31800
H  46.40000 -1.25500 47.66700
H  46.76200 -1.15700 45.86400
H  46.49700 -2.71400 46.68600
H  48.44700 2.70000 46.28000
H  48.65500 4.58300 48.65200
H  48.45700 1.40900 48.79200
H  49.68600 2.75200 48.96600
H  49.90400 1.56800 47.79000
H  48.88900 5.68300 45.81500
H  50.14500 4.50400 46.23500
H  50.07200 7.25600 47.27800
H  51.37200 6.18700 46.96000
H  50.50600 5.98600 48.42200
H  46.47000 9.57300 46.97200
H  46.32700 9.51300 48.79900
H  45.22400 10.36200 47.88100
H  40.70800 8.37600 46.10400
H  37.12800 8.58500 48.08200
H  37.72000 10.08400 48.73700
H  38.05300 8.54600 49.59700
Mg -2.10600 34.80100 26.41300
C  -3.80900 33.11200 29.09100
C  -1.20900 37.14200 28.86900
C  -0.95600 36.74900 23.92800
C  -3.73500 32.78200 24.24900
N  -2.52900 35.10600 28.67800
C  -3.08400 34.20000 29.52200
C  -2.73500 34.42200 30.99700
C  -2.08400 35.86000 30.90800
C  -1.85600 36.03800 29.40200
C  -2.84300 36.96100 31.59700
C  -1.73400 33.35000 31.67700
C  -2.04700 33.05500 33.16100
H  -0.90400 33.18700 34.15200
N  -1.04900 36.63300 26.40200
C  -0.74300 37.37800 27.47300
C  0.02900 38.50200 27.02700
C  0.09900 38.38700 25.56600
C  -0.63400 37.25500 25.21500
C  0.61900 39.58200 27.97900
C  0.94100 39.26900 24.57100
O  1.05200 38.97900 23.37700
C  1.66500 40.50600 24.97200
N  -2.38400 34.79600 24.41400
C  -1.72700 35.65700 23.56000
C  -2.00900 35.40500 22.08800
C  -2.69000 33.96900 22.24400
C  -2.97500 33.82200 23.74000
C  -2.85000 36.48000 21.35200
C  -1.76300 32.79000 21.64400
C  -0.24400 32.62000 22.00400
N  -3.52600 33.24400 26.58800
C  -4.00000 32.46300 25.58500
C  -4.71100 31.34800 26.22000
C  -4.63100 31.58900 27.58500
C  -3.92900 32.72600 27.73100
C  -5.54100 30.30900 25.51100
C  -5.07900 31.07000 28.87700
O  -5.78500 30.09000 29.09800
C  -4.44600 31.97900 29.95700
C  -5.53000 32.45100 30.86900
O  -6.58300 32.86600 30.41900
O  -5.22000 32.37400 32.25400
C  -6.34600 32.63000 33.18800
H  -0.82300 37.81500 29.63800
H  -0.54400 37.27200 23.06200
H  -4.07400 32.10000 23.46700
H  -3.73500 34.44700 31.42900
H  -1.12600 35.87000 31.42700
H  -3.81600 36.70800 32.01700
H  -2.99300 37.70700 30.81600
H  -2.19500 37.38200 32.36600
H  -0.72200 33.74500 31.58600
H  -1.76900 32.43300 31.08800
H  -2.55700 32.09200 33.16900
H  -2.83500 33.73800 33.48000
H  1.65600 39.78500 27.71100
H  0.59700 39.39800 29.05300
H  -0.00200 40.39600 27.60600
H  1.00600 41.07500 25.62700
H  1.90400 41.13900 24.11700
H  2.65000 40.32100 25.40100
H  -1.05400 35.19500 21.60500
H  -3.65300 33.80800 21.76000
H  -3.11300 37.35400 21.94900
H  -3.77100 36.13700 20.88000
H  -2.16600 36.80500 20.56800
H  -1.83600 32.89300 20.56100
H  -2.25500 31.87900 21.98500
H  -0.21200 31.92300 22.84100
H  0.24900 33.52200 22.36400
H  0.28800 32.29400 21.11000
H  -5.35900 30.22700 24.43900
H  -6.56600 30.55700 25.78700
H  -5.27600 29.29500 25.80900
H  -3.64100 31.44700 30.46300
H  -7.08200 33.31200 32.76100
H  -5.89500 32.99000 34.11200
H  -6.92100 31.74200 33.45200

