158

Mg 25.89000 0.97400 29.14000
C  27.66400 0.64000 32.06000
C  22.93600 1.31400 30.88200
C  24.24200 1.43400 26.19100
C  28.79800 0.20000 27.37900
N  25.36400 0.79400 31.19900
C  26.32600 0.85400 32.24400
C  25.62000 1.05700 33.62000
C  24.10400 0.88200 33.18100
C  24.09500 1.00300 31.65200
C  23.22800 -0.27600 33.70200
C  25.97900 2.46700 34.17900
C  26.95100 2.40700 35.36200
H  26.49700 3.30200 36.51700
N  23.89900 1.24200 28.61700
C  22.88500 1.41200 29.46500
C  21.70800 1.65600 28.72200
C  22.01100 1.93100 27.39300
C  23.45500 1.52200 27.34600
C  20.43000 1.66700 29.44500
C  21.17200 2.39600 26.22500
O  21.58600 2.62500 25.10300
C  19.74300 2.68300 26.50100
N  26.46000 0.70800 27.08600
C  25.59400 1.16100 26.08200
C  26.33300 1.27500 24.74300
C  27.80600 1.05600 25.16700
C  27.71400 0.59900 26.65900
C  25.78100 0.38300 23.64400
C  28.68100 2.39100 24.92500
C  29.20200 2.50300 23.49400
N  27.82500 0.36900 29.56300
C  28.84600 0.01600 28.76400
C  30.02500 -0.31600 29.53300
C  29.60900 -0.05600 30.88200
C  28.24200 0.34800 30.81400
C  31.33400 -0.72200 29.04600
C  30.03600 0.05000 32.23900
O  31.16700 -0.18000 32.69400
C  28.76300 0.45100 33.12900
C  28.45800 -0.63000 34.07300
O  27.78600 -1.66500 33.85400
O  28.93800 -0.26700 35.24000
C  28.60000 -1.13100 36.41300
H  22.07300 1.64400 31.46400
H  23.81400 1.81200 25.26000
H  29.74700 0.19800 26.83800
H  25.94500 0.24100 34.26400
H  23.58800 1.81900 33.39000
H  23.92300 -0.93500 34.22200
H  22.82800 -0.73600 32.79900
H  22.37100 -0.10500 34.35300
H  25.09800 3.02200 34.50100
H  26.35300 3.10000 33.37500
H  27.89400 2.80100 34.98400
H  27.16600 1.40100 35.72200
H  20.12600 2.68100 29.70400
H  20.48200 0.95400 30.26800
H  19.64700 1.24500 28.81500
H  19.18600 1.80100 26.81700
H  19.23900 3.04700 25.60600
H  19.70400 3.51300 27.20700
H  26.27200 2.30600 24.39400
H  28.31500 0.23000 24.67200
H  24.73500 0.14500 23.83800
H  26.25900 -0.55900 23.37300
H  26.01900 0.99200 22.77200
H  29.57200 2.28600 25.54400
H  28.09500 3.25600 25.23600
H  30.27800 2.33400 23.44400
H  28.93400 3.47800 23.08900
H  28.83700 1.71900 22.83100
H  32.10000 -0.02100 29.37700
H  31.41200 -0.60900 27.96500
H  31.54600 -1.76800 29.26700
H  29.13500 1.33200 33.65100
H  28.70700 -2.18000 36.13700
H  27.65700 -0.93900 36.92400
H  29.32900 -0.87900 37.18300
Mg 29.90800 58.30800 39.69000
C  27.30200 56.02200 38.97300
C  32.11600 55.96900 38.57300
C  32.31200 60.71400 40.01300
C  27.39200 60.67100 40.25300
N  29.71600 56.27000 39.03600
C  28.60400 55.57700 38.71000
C  28.99400 54.24600 38.10200
C  30.46100 54.07500 38.47900
C  30.82300 55.50300 38.73300
C  30.79700 53.04600 39.64500
C  28.70100 54.22000 36.62500
C  27.65800 53.30200 36.05800
H  26.83600 54.00100 34.96700
N  31.95900 58.32100 39.55000
C  32.66700 57.28900 38.95300
C  34.04100 57.65800 38.84400
C  34.16100 58.93300 39.38900
C  32.77600 59.40000 39.65400
C  35.12900 56.73000 38.12400
C  35.52100 59.68400 39.54300
O  36.60300 59.25300 39.13300
C  35.60000 61.02700 40.19100
N  29.83600 60.35900 40.18400
C  30.97600 61.16900 40.20400
C  30.54300 62.60900 40.42600
C  29.00700 62.59000 40.48800
C  28.74500 61.10600 40.22600
C  31.25400 63.32800 41.56800
C  28.20600 63.48200 39.52200
C  26.82600 63.99800 40.10000
N  27.70000 58.41800 39.56900
C  26.87900 59.40500 39.88100
C  25.49000 58.91400 39.80800
C  25.66500 57.63000 39.38300
C  27.01100 57.32300 39.31500
C  24.26300 59.64200 40.03900
C  24.84700 56.41600 39.07000
O  23.60700 56.29300 39.10300
C  25.91600 55.40000 38.67800
C  25.61500 54.09100 39.32500
O  25.96800 53.80900 40.46100
O  24.85800 53.32900 38.45300
C  24.36000 52.12700 39.07200
H  32.83700 55.27100 38.14200
H  33.04800 61.52000 40.02000
H  26.61500 61.42300 40.40500
H  28.45900 53.46100 38.63800
H  30.93900 53.70100 37.57300
H  30.09900 52.23200 39.84200
H  30.92200 53.62000 40.56300
H  31.73100 52.55800 39.36600
H  29.62300 54.07800 36.06100
H  28.38700 55.26000 36.52600
H  26.89500 52.94500 36.74900
H  28.19000 52.46500 35.60800
H  35.73800 56.24300 38.88600
H  35.76300 57.37000 37.51200
H  34.85400 55.93800 37.42800
H  35.10600 61.75700 39.54900
H  36.58500 61.26200 40.59200
H  35.02000 60.91600 41.10700
H  30.80100 63.22900 39.56800
H  28.80300 62.81100 41.53600
H  31.88200 62.58500 42.05900
H  30.54100 63.83200 42.22100
H  31.83200 64.13400 41.11400
H  27.90900 62.90900 38.64400
H  28.69900 64.39200 39.18200
H  26.09700 63.59800 39.39500
H  26.71800 65.08300 40.10300
H  26.56500 63.62900 41.09200
H  24.39900 60.72100 39.96200
H  23.92900 59.39400 41.04600
H  23.54800 59.42200 39.24600
H  25.68500 55.20500 37.63000
H  25.00100 51.75800 39.87200
H  24.10600 51.31900 38.38600
H  23.46000 52.34200 39.64700

