158

Mg 24.99800 1.13100 28.61000
C  27.14500 0.54000 31.39400
C  22.29800 0.88000 30.79300
C  22.85600 0.96800 25.93600
C  27.68900 0.45600 26.52500
N  24.79700 0.72000 30.77100
C  25.77700 0.64900 31.70700
C  25.26300 0.92900 33.12700
C  23.67700 0.90100 32.86900
C  23.55300 0.79700 31.36400
C  23.04900 -0.31400 33.55600
C  25.76500 2.31700 33.66500
C  25.26100 2.71600 35.06000
H  26.22200 2.72400 36.29700
N  22.83700 1.14600 28.41100
C  21.90100 1.02500 29.41300
C  20.61900 1.13200 28.82300
C  20.76100 1.19200 27.42500
C  22.22300 1.03700 27.18000
C  19.31000 1.19300 29.56800
C  19.63000 1.27500 26.32700
O  19.85800 1.76600 25.18700
C  18.25800 0.89500 26.67800
N  25.22000 0.82700 26.49400
C  24.19000 0.88900 25.61400
C  24.69000 0.99700 24.16500
C  26.30900 0.85100 24.33600
C  26.42500 0.72000 25.89400
C  23.95200 0.08200 23.19300
C  27.03100 2.09700 23.79500
C  26.74700 3.44900 24.50700
N  27.07700 0.68400 28.81600
C  28.02000 0.34900 27.88000
C  29.25600 0.04300 28.55200
C  29.01300 0.17200 29.96000
C  27.61800 0.50000 30.04900
C  30.51000 -0.30300 27.82400
C  29.55300 -0.01600 31.33000
O  30.68100 -0.36300 31.74200
C  28.34000 0.42900 32.22800
C  28.19400 -0.50400 33.33900
O  27.31000 -1.38300 33.43600
O  29.22000 -0.19500 34.29100
C  29.16700 -0.96200 35.50400
H  21.52800 0.97300 31.56200
H  22.23500 0.99000 25.03800
H  28.50200 0.27400 25.81900
H  25.55400 0.13500 33.81400
H  23.21500 1.80800 33.26000
H  22.47500 -0.92300 32.85700
H  22.34000 -0.00100 34.32200
H  23.73700 -1.06900 33.93500
H  25.63900 3.14700 32.97000
H  26.83500 2.52500 33.64700
H  24.57200 1.91700 35.33300
H  24.88000 3.72700 34.91100
H  18.59800 0.40100 29.33300
H  18.99000 2.20000 29.30000
H  19.28000 1.12000 30.65500
H  18.39000 -0.07400 27.15900
H  17.72100 0.68200 25.75400
H  17.92600 1.70100 27.33300
H  24.56100 2.00200 23.76400
H  26.67400 -0.05200 23.84800
H  23.62900 0.67600 22.33800
H  23.24600 -0.57300 23.70300
H  24.70900 -0.54300 22.71900
H  26.77300 2.21200 22.74200
H  28.11100 2.01700 23.92100
H  25.94500 3.37100 25.24000
H  26.29300 4.10300 23.76300
H  27.67000 3.80000 24.96900
H  30.46900 -0.07900 26.75800
H  30.62600 -1.38500 27.88500
H  31.40200 0.02200 28.35800
H  28.65200 1.37400 32.67200
H  28.54500 -0.41100 36.20900
H  30.19100 -1.10400 35.84800
H  28.83800 -1.99700 35.40300
Mg 0.85400 42.72800 26.42400
C  1.98900 43.42500 29.65000
C  -2.13500 41.52000 27.81400
C  -0.12300 41.99100 23.32200
C  3.88700 43.63500 25.16300
N  -0.04000 42.63000 28.59600
C  0.61800 43.04400 29.69500
C  -0.32300 42.91500 30.92100
C  -1.52500 42.17000 30.35500
C  -1.15700 41.97000 28.81700
C  -2.01100 40.76900 31.05100
C  -0.69900 44.24300 31.77900
C  0.01100 44.39700 33.07600
H  -0.61200 43.73500 34.46100
N  -0.82900 41.92600 25.71700
C  -1.96200 41.53800 26.41300
C  -2.93900 41.05800 25.52300
C  -2.39400 41.25400 24.21100
C  -1.06800 41.82700 24.37000
C  -4.41300 40.55900 25.93400
C  -3.05600 40.85800 22.88100
O  -2.75400 41.18600 21.79100
C  -4.33400 39.95500 22.89900
N  1.84600 42.59600 24.51500
C  1.16700 42.39900 23.36200
C  1.96700 42.64100 22.11500
C  3.16800 43.37800 22.76900
C  2.94300 43.20700 24.21900
C  2.37600 41.31300 21.35000
C  3.24600 44.83400 22.22700
C  3.26100 45.07200 20.72900
N  2.63100 43.28700 27.21800
C  3.79300 43.57300 26.55000
C  4.79600 43.99700 27.52300
C  4.08400 43.95000 28.73600
C  2.77500 43.48400 28.49800
C  6.15700 44.51900 27.32600
C  4.29100 44.17900 30.16000
O  5.26000 44.56800 30.82900
C  2.93800 43.75300 30.84900
C  3.08500 42.57000 31.79300
O  3.15500 41.43000 31.34800
O  3.26400 43.00500 33.04500
C  3.57300 41.93000 34.02200
H  -3.06900 41.06900 28.15800
H  -0.55900 41.91300 22.32400
H  4.72500 44.24400 24.81700
H  0.00200 42.22500 31.70100
H  -2.45600 42.70400 30.54600
H  -2.02600 39.93700 30.34600
H  -3.00800 40.88600 31.47600
H  -1.41100 40.44500 31.90200
H  -1.78000 44.31500 31.90500
H  -0.43100 45.13200 31.20800
H  -0.00100 45.47800 33.21600
H  1.06500 44.13200 32.99400
H  -5.18500 40.94600 25.26800
H  -4.74400 40.90700 26.91300
H  -4.45100 39.47000 25.94800
H  -5.23600 40.39100 23.32900
H  -4.01400 38.96900 23.23700
H  -4.51100 39.72800 21.84800
H  1.37400 43.30100 21.48300
H  4.14200 42.97100 22.49600
H  1.99000 40.46100 21.90900
H  3.41700 41.13500 21.08000
H  1.82600 41.29300 20.40900
H  4.16600 45.29000 22.59200
H  2.47700 45.47900 22.65300
H  4.08000 45.78300 20.62400
H  2.41800 45.64900 20.35000
H  3.64600 44.22600 20.16000
H  6.41700 45.24900 28.09200
H  6.11200 45.02900 26.36400
H  6.92300 43.74600 27.26100
H  2.43300 44.50300 31.45700
H  3.21000 40.97400 33.64700
H  3.05800 42.03300 34.97800
H  4.65400 41.89800 34.15400

