158

Mg 2.35300 -1.07200 43.88500
C  5.77600 -0.39200 43.33000
C  1.51800 1.51400 41.97600
C  -0.78400 -2.27200 43.99400
C  3.38300 -4.00500 45.68900
N  3.55900 0.26500 42.58500
C  4.91400 0.50300 42.65200
C  5.31000 1.67000 41.70700
C  3.94600 2.39900 41.47400
C  2.91200 1.40100 42.08000
C  3.83500 3.79000 42.25300
C  5.96100 1.22100 40.40400
C  7.32700 1.75400 40.12800
H  7.43500 2.23300 38.67200
N  0.58200 -0.40200 43.18500
C  0.43700 0.71000 42.41600
C  -0.96200 0.95500 42.14300
C  -1.69000 -0.10700 42.70300
C  -0.65500 -0.96000 43.35700
C  -1.41700 2.09700 41.35500
C  -3.25200 -0.26000 42.75800
O  -3.97500 0.61800 42.32600
C  -3.79700 -1.48400 43.45600
N  1.40400 -2.82700 45.04400
C  0.11200 -3.11800 44.66300
C  -0.29100 -4.48500 45.14100
C  1.00800 -5.11000 45.66300
C  1.99100 -3.93500 45.49000
C  -1.51300 -4.48200 46.10500
C  1.55800 -6.43500 44.97700
C  1.90900 -7.56100 45.90700
N  4.24200 -2.02900 44.46100
C  4.46200 -3.16000 45.24300
C  5.94900 -3.34400 45.36700
C  6.49300 -2.23900 44.71200
C  5.42000 -1.48000 44.16800
C  6.62700 -4.51700 46.03400
C  7.73700 -1.53100 44.40300
O  8.91500 -1.90800 44.63800
C  7.28600 -0.23100 43.56800
C  7.68900 0.92300 44.31400
O  6.98800 1.65800 45.03500
O  9.09600 1.04000 44.23600
C  9.71800 2.03800 45.15200
H  1.26100 2.42700 41.43600
H  -1.72700 -2.81700 43.90900
H  3.58500 -4.90600 46.27100
H  5.98100 2.35800 42.22100
H  3.80600 2.57500 40.40800
H  3.12300 3.66800 43.06900
H  3.42400 4.49500 41.53100
H  4.80100 4.18100 42.57100
H  5.35800 1.38900 39.51100
H  6.02900 0.13300 40.40300
H  8.02700 0.92200 40.19800
H  7.56900 2.55100 40.83100
H  -2.46200 2.13100 41.04700
H  -0.71500 2.38100 40.57100
H  -1.31300 2.93900 42.04000
H  -4.85000 -1.31900 43.68300
H  -3.31900 -1.70000 44.41200
H  -3.61100 -2.41100 42.91400
H  -0.61300 -5.00100 44.23600
H  0.92700 -5.31700 46.73000
H  -1.31900 -4.81200 47.12600
H  -2.38500 -4.97400 45.67500
H  -1.79200 -3.45600 46.34900
H  2.44200 -6.13800 44.41400
H  0.82500 -6.74700 44.23300
H  2.98800 -7.70700 45.85100
H  1.48600 -8.52600 45.62700
H  1.72100 -7.44700 46.97400
H  7.39100 -3.96000 46.57600
H  7.09700 -5.25700 45.38600
H  5.99900 -5.03400 46.75900
H  7.85900 -0.31300 42.64400
H  9.58300 1.69500 46.17700
H  9.35100 3.06400 45.11000
H  10.78900 2.03200 44.95200
Mg 35.49000 0.79400 29.91800
C  33.28100 2.15700 32.18700
C  37.92000 1.15500 32.39100
C  37.78800 -0.36900 27.77100
C  33.16600 0.91300 27.41700
N  35.57800 1.52000 32.03700
C  34.48500 1.92400 32.76500
C  34.82800 2.11800 34.23400
C  36.37000 2.14900 34.14700
C  36.66100 1.65800 32.72100
C  37.04600 3.40000 34.53500
C  34.15700 0.92800 34.89500
C  33.49700 1.30200 36.18500
H  34.24400 2.22100 37.15500
N  37.55400 0.47400 29.97600
C  38.37900 0.67500 31.10000
C  39.67100 0.14700 30.84700
C  39.70000 -0.19600 29.44000
C  38.31600 -0.04500 28.96300
C  40.73100 -0.22200 31.85800
C  40.83100 -0.73800 28.57100
O  40.63500 -1.13400 27.44200
C  42.27800 -0.85900 29.15900
N  35.45200 0.32800 27.89300
C  36.53500 -0.25800 27.22500
C  36.20100 -0.51500 25.76100
C  34.66900 -0.28600 25.71100
C  34.39500 0.30700 27.15200
C  37.06100 0.46800 24.89400
C  33.69500 -1.37300 25.27900
C  33.31300 -2.39900 26.30300
N  33.58200 1.41800 29.70600
C  32.69400 1.34500 28.67200
C  31.50100 1.99500 29.11500
C  31.61400 2.24500 30.53300
C  32.95800 1.93700 30.85200
C  30.31300 2.42800 28.20300
C  30.94800 2.88100 31.66100
O  29.83400 3.47300 31.73500
C  31.99900 2.67300 32.87700
C  32.22600 4.00900 33.54500
O  32.79800 5.00500 33.08200
O  31.50800 4.02600 34.69600
C  31.63800 5.25900 35.46100
H  38.67500 1.29700 33.16700
H  38.49800 -0.64200 26.98700
H  32.43600 0.90800 26.60500
H  34.41300 3.05500 34.60600
H  36.71700 1.32200 34.76700
H  37.75600 3.22200 35.34200
H  36.27400 4.02300 34.98600
H  37.34000 3.90600 33.61500
H  34.86900 0.17100 35.22500
H  33.54200 0.29300 34.25700
H  33.25600 0.33700 36.63200
H  32.50900 1.69700 35.94600
H  40.64700 -1.28800 32.06900
H  40.76800 0.38300 32.76400
H  41.73300 0.01300 31.50000
H  42.53400 0.11100 29.58500
H  42.87200 -1.11100 28.28000
H  42.34300 -1.76900 29.75600
H  36.44300 -1.56900 25.62300
H  34.48600 0.57900 25.07400
H  38.13900 0.45000 25.05500
H  36.67300 1.47900 25.01600
H  36.78000 0.21300 23.87200
H  34.02300 -1.88800 24.37600
H  32.75900 -0.88600 25.00300
H  33.79300 -2.26900 27.27300
H  33.48100 -3.39100 25.88400
H  32.24300 -2.29700 26.48500
H  29.69700 3.12300 28.77400
H  29.86400 1.52100 27.79900
H  30.81900 2.90200 27.36300
H  31.69000 1.93200 33.61500
H  32.68000 5.22700 35.77800
H  30.96200 5.22600 36.31600
H  31.40000 6.11600 34.83100

