158

Mg 25.75000 1.49400 29.59600
C  27.70600 1.31700 32.69900
C  23.01200 1.75500 31.72100
C  23.93000 1.23700 26.92200
C  28.65100 0.34100 27.91700
N  25.37600 1.52200 32.06100
C  26.37000 1.59200 33.02000
C  25.68100 1.69700 34.43200
C  24.14900 1.78500 34.06200
C  24.14900 1.77200 32.49300
C  23.25400 0.71300 34.64800
C  26.15900 2.93700 35.21300
C  26.85400 2.67100 36.59100
H  26.36300 3.51300 37.76500
N  23.68100 1.49800 29.33900
C  22.69100 1.62200 30.30300
C  21.41500 1.71700 29.65900
C  21.69800 1.43300 28.27300
C  23.14100 1.39700 28.11900
C  20.12600 1.93600 30.40100
C  20.73000 1.03900 27.18200
O  21.11800 0.69300 26.05200
C  19.32300 0.98400 27.57300
N  26.21200 0.96700 27.71000
C  25.31000 1.11500 26.72100
C  25.91600 0.79700 25.32800
C  27.40900 0.59600 25.69800
C  27.40800 0.61900 27.20600
C  25.25200 -0.45800 24.65300
C  28.22100 1.76200 25.14000
C  28.11900 3.11400 25.92300
N  27.86000 1.11100 30.10700
C  28.85700 0.56100 29.27900
C  30.10100 0.44700 30.09300
C  29.70000 0.79500 31.43700
C  28.24600 1.05600 31.36400
C  31.44500 -0.06700 29.52900
C  30.15800 0.95500 32.78300
O  31.28100 0.81300 33.21700
C  28.86700 1.24600 33.69400
C  28.78000 0.19900 34.72100
O  28.15200 -0.87400 34.66500
O  29.43700 0.59500 35.85300
C  29.44000 -0.34000 36.99000
H  22.10000 1.74900 32.32200
H  23.38200 1.23200 25.97700
H  29.33800 -0.02000 27.14800
H  25.97100 0.77700 34.94000
H  23.66000 2.69800 34.40100
H  22.70000 0.20100 33.86200
H  22.50600 1.29300 35.18700
H  23.62500 -0.07200 35.30600
H  25.23200 3.46200 35.44400
H  26.89500 3.47300 34.61300
H  27.91900 2.85800 36.72700
H  26.65000 1.61400 36.75900
H  19.67500 2.85200 30.01900
H  20.30700 2.13700 31.45700
H  19.37800 1.14500 30.45000
H  19.21700 0.30200 28.41700
H  18.71400 0.54300 26.78400
H  18.96600 1.95100 27.92700
H  25.73600 1.60200 24.61600
H  27.79700 -0.38900 25.43600
H  24.50300 -0.98700 25.24200
H  25.98800 -1.20400 24.35200
H  24.74100 -0.11200 23.75400
H  27.94600 2.03700 24.12100
H  29.26700 1.45600 25.16100
H  29.14700 3.37100 26.17900
H  27.67100 3.03100 26.91300
H  27.55100 3.81700 25.31400
H  31.88700 0.61200 28.80000
H  31.25100 -1.06200 29.12900
H  32.06100 -0.24100 30.41100
H  29.04500 2.24000 34.10500
H  28.57600 -0.21900 37.64400
H  30.37400 -0.10000 37.49700
H  29.50500 -1.39100 36.70600
Mg 0.86600 43.18000 26.12600
C  2.75500 43.10600 29.08900
C  -1.67900 41.67000 27.79300
C  -0.49400 42.68000 23.11300
C  3.90800 44.27200 24.45600
N  0.54700 42.50300 28.22000
C  1.38100 42.73900 29.26000
C  0.57300 42.65000 30.61400
C  -0.79900 41.98300 30.26600
C  -0.62500 42.05200 28.69700
C  -1.08900 40.60100 30.89300
C  0.43400 44.03200 31.49400
C  1.17700 44.11100 32.78600
H  1.21400 42.92200 33.79100
N  -0.87100 42.50900 25.57000
C  -1.79300 41.87700 26.37500
C  -2.90900 41.45700 25.57800
C  -2.64900 41.83600 24.24500
C  -1.28000 42.33900 24.24600
C  -4.00800 40.58900 26.14400
C  -3.43100 41.55700 23.03400
O  -2.98900 41.70900 21.88600
C  -4.82900 40.96500 22.97100
N  1.53700 43.56400 24.09200
C  0.75100 43.21600 23.04700
C  1.54000 43.40000 21.79400
C  2.88900 44.14800 22.19200
C  2.78900 44.00600 23.70600
C  1.68600 42.05300 20.89400
C  3.11300 45.59800 21.75900
C  2.00900 46.61500 22.11900
N  2.92800 43.48600 26.66200
C  4.02800 43.94700 25.83800
C  5.19900 44.10600 26.62100
C  4.76300 43.78700 27.91700
C  3.34300 43.44600 27.89400
C  6.50400 44.59900 26.19800
C  5.21600 43.66300 29.26400
O  6.31400 43.73900 29.73900
C  3.91400 43.27000 30.09100
C  4.33300 42.10400 30.94800
O  4.10000 40.87400 30.73500
O  4.94300 42.64700 32.04100
C  5.59100 41.70800 33.00000
H  -2.45600 41.13300 28.34100
H  -0.90900 42.35900 22.15600
H  4.79900 44.57400 23.90200
H  1.00600 41.90200 31.27700
H  -1.57300 42.69300 30.55900
H  -1.86600 40.86000 31.61300
H  -0.25700 40.25700 31.50900
H  -1.42600 39.78700 30.25100
H  -0.58400 44.17500 31.85700
H  0.82100 44.90500 30.96800
H  0.89000 45.02500 33.30500
H  2.23800 44.12900 32.53400
H  -3.64000 39.57700 26.31500
H  -4.89400 40.52500 25.51200
H  -4.24700 40.88700 27.16500
H  -5.55300 41.53000 23.55700
H  -4.78500 39.96000 23.39000
H  -5.29100 40.91700 21.98500
H  0.95500 44.09100 21.18600
H  3.72400 43.50100 21.92200
H  2.67800 41.82700 20.50300
H  1.06200 42.22100 20.01600
H  1.26800 41.18800 21.40800
H  3.26900 45.57600 20.68100
H  4.03100 45.93200 22.24200
H  2.32500 47.51200 22.65200
H  1.28300 46.15200 22.78700
H  1.58500 46.92400 21.16300
H  7.22700 43.78700 26.11800
H  6.94300 45.16100 27.02300
H  6.51500 45.17900 25.27600
H  3.70400 44.10800 30.75500
H  6.65900 41.90400 33.09800
H  5.58300 40.66200 32.69300
H  4.98700 41.80100 33.90300

