158

Mg 8.39700 3.56200 28.22200
C  9.93100 1.93600 30.88800
C  6.40900 5.28900 30.34000
C  6.67100 4.54400 25.59800
C  9.97200 1.05200 26.15600
N  8.18900 3.57800 30.30400
C  9.01400 2.95800 31.21000
C  8.81900 3.47100 32.64200
C  7.40400 4.18400 32.48900
C  7.34300 4.44900 30.99800
C  6.20600 3.24500 32.90300
C  10.00900 4.37900 33.20700
C  10.65300 3.91300 34.50800
H  10.89300 4.86100 35.71300
N  6.84700 4.88800 27.96500
C  6.16200 5.49000 28.96100
C  5.16100 6.32800 28.37300
C  5.24500 6.20100 26.98700
C  6.24100 5.14800 26.79900
C  4.04900 7.11600 29.11100
C  4.41100 6.81800 25.85400
O  4.53700 6.57400 24.68900
C  3.35900 7.77400 26.15800
N  8.38900 2.94700 26.18100
C  7.62100 3.57500 25.29600
C  7.68700 2.86900 23.88600
C  8.93100 1.93900 24.03600
C  9.22300 2.04300 25.55500
C  6.25500 2.25500 23.43900
C  10.30900 2.43700 23.41300
C  11.21300 1.32000 22.71800
N  9.64700 1.78900 28.43400
C  10.21100 0.91600 27.53800
C  11.05800 -0.03000 28.21800
C  11.04000 0.33800 29.54100
C  10.11000 1.37300 29.60500
C  11.91400 -1.15400 27.52700
C  11.62500 0.10500 30.86700
O  12.50300 -0.64500 31.25800
C  10.83300 1.17800 31.77700
C  10.12000 0.33300 32.72900
O  9.06100 -0.32400 32.56700
O  10.86600 0.33900 33.91400
C  10.38200 -0.40400 35.12300
H  5.81700 5.93800 30.98900
H  6.01100 4.83700 24.77900
H  10.40600 0.28200 25.51500
H  8.78200 2.59700 33.29300
H  7.41800 5.10200 33.07700
H  6.49900 2.21000 33.08000
H  5.50100 3.22000 32.07300
H  5.73100 3.72300 33.76000
H  9.64800 5.39800 33.34500
H  10.74400 4.47500 32.40800
H  11.67000 3.61800 34.25000
H  10.15700 3.06100 34.97300
H  3.09800 6.78300 28.69500
H  4.26700 8.16200 28.89500
H  3.91900 7.02100 30.18900
H  2.61400 7.30800 26.80200
H  2.97300 8.12400 25.20100
H  3.67500 8.51100 26.89700
H  7.93900 3.61400 23.13100
H  8.82800 0.92700 23.64500
H  5.51100 2.47500 24.20400
H  6.53900 1.21000 23.31400
H  5.93600 2.73500 22.51300
H  10.89200 3.07400 24.07800
H  10.04400 3.09400 22.58400
H  10.97900 1.32200 21.65300
H  11.04000 0.37000 23.22300
H  12.23500 1.55400 23.01700
H  12.89200 -1.14100 28.00800
H  12.05300 -1.01500 26.45500
H  11.54200 -2.16200 27.71500
H  11.46100 1.84400 32.36800
H  10.34400 0.37700 35.88200
H  11.16600 -1.11600 35.37800
H  9.46900 -0.96300 34.91700
Mg 1.56500 42.26300 26.05300
C  2.61300 42.35500 29.39100
C  -1.41800 41.05300 26.96800
C  0.72500 41.85500 22.70400
C  4.69300 43.55200 25.08000
N  0.77200 41.75300 27.98400
C  1.25600 42.01600 29.27500
C  0.25800 41.60500 30.33500
C  -0.88000 40.90000 29.49000
C  -0.51500 41.25900 28.08600
C  -1.17000 39.37200 29.62900
C  -0.15100 42.84500 31.16800
C  -0.34300 42.62400 32.73200
H  -1.00200 41.25500 33.07300
N  -0.18400 41.70100 25.05000
C  -1.38400 41.24000 25.57200
C  -2.36700 41.07900 24.50300
C  -1.74300 41.22700 23.26500
C  -0.30300 41.54200 23.61100
C  -3.82600 40.69900 24.89000
C  -2.28100 40.99300 21.85000
O  -1.60000 41.12200 20.85000
C  -3.79900 40.71700 21.72500
N  2.67400 42.40500 24.22000
C  2.02100 42.34900 22.99800
C  2.87200 42.99400 21.88300
C  3.87800 43.83700 22.66200
C  3.68000 43.33200 24.14400
C  3.46000 41.95400 20.86400
C  3.61600 45.40200 22.57100
C  3.96300 45.82900 21.09100
N  3.40000 42.76100 26.97600
C  4.62600 43.23700 26.46000
C  5.60400 43.31100 27.50400
C  4.91300 42.96500 28.68900
C  3.52800 42.64400 28.34500
C  7.06000 43.73300 27.40200
C  4.96500 42.77800 30.12600
O  5.98700 42.75900 30.86000
C  3.51500 42.54200 30.60600
C  3.56200 41.39700 31.56300
O  4.01000 40.22300 31.33800
O  2.81300 41.67200 32.68900
C  2.74700 40.56900 33.69100
H  -2.36000 40.64800 27.34300
H  0.48000 41.61600 21.66700
H  5.49400 44.23900 24.79800
H  0.76200 40.89700 30.99300
H  -1.80000 41.42600 29.74500
H  -1.02300 38.88000 28.66800
H  -2.18800 39.24700 29.99900
H  -0.51700 38.89200 30.35800
H  -0.98000 43.38800 30.71400
H  0.74300 43.46600 31.11400
H  -1.01400 43.44900 32.97300
H  0.59500 42.73200 33.27600
H  -4.01400 40.79500 25.96000
H  -4.05800 39.67400 24.60000
H  -4.56600 41.35100 24.42600
H  -3.93000 39.80200 22.30200
H  -3.92900 40.38700 20.69500
H  -4.40400 41.57000 22.03400
H  2.12000 43.59100 21.36700
H  4.87900 43.60800 22.29800
H  4.49000 41.85100 21.20500
H  3.23000 42.34300 19.87200
H  2.90300 41.02200 20.96200
H  4.29500 45.98500 23.19300
H  2.60500 45.63300 22.90600
H  4.32300 45.01500 20.46200
H  4.75300 46.56700 20.94800
H  3.04300 46.34200 20.81100
H  7.50300 43.37200 26.47400
H  7.51300 43.24500 28.26500
H  7.08200 44.81900 27.49300
H  3.27000 43.49400 31.07600
H  2.26200 40.99700 34.56800
H  3.74500 40.19500 33.92100
H  2.23300 39.72100 33.24000

