158

Mg 40.50600 9.09800 29.33500
C  42.36400 10.25900 32.15900
C  38.19300 7.75400 31.62100
C  38.87200 7.74600 26.71900
C  43.29000 9.98800 27.30300
N  40.34500 9.01500 31.65500
C  41.19100 9.59900 32.58900
C  40.74800 9.29100 34.06600
C  39.41700 8.49800 33.87400
C  39.26400 8.39600 32.28900
C  39.32900 7.08300 34.53600
C  40.50800 10.61100 34.91400
C  41.37000 10.78500 36.17600
H  40.84000 11.83600 37.16800
N  38.79100 7.89500 29.19500
C  37.97500 7.44300 30.23300
C  36.85500 6.64800 29.72900
C  36.97800 6.65200 28.24700
C  38.18500 7.49800 27.95800
C  35.66700 6.20000 30.55700
C  36.07200 5.93800 27.24900
O  36.35300 5.93700 26.04300
C  34.86100 5.17200 27.79600
N  41.12800 8.70100 27.32400
C  40.17500 8.21700 26.40900
C  40.45400 8.65700 24.96200
C  41.80200 9.47200 25.15700
C  42.18900 9.33000 26.65900
C  40.56700 7.54200 23.87300
C  41.54500 11.04700 24.77300
C  42.71500 11.74600 24.03200
N  42.41400 10.08100 29.60900
C  43.44100 10.25600 28.69800
C  44.46700 11.02400 29.34300
C  44.11400 11.00800 30.68500
C  42.83100 10.40600 30.80800
C  45.62200 11.67100 28.69600
C  44.56500 11.44500 32.03300
O  45.65100 11.98600 32.29400
C  43.45900 10.92800 33.02200
C  44.04900 9.99400 33.98500
O  44.22600 8.77000 33.77300
O  44.50100 10.67300 35.03300
C  45.07500 9.85700 36.10400
H  37.43800 7.34200 32.29400
H  38.32800 7.54700 25.79300
H  44.11900 10.41200 26.73300
H  41.48000 8.62200 34.51800
H  38.49700 8.96600 34.22200
H  38.70300 6.41600 33.94300
H  38.88800 7.23300 35.52200
H  40.31800 6.62500 34.57700
H  39.46900 10.79400 35.18800
H  40.62500 11.45700 34.23600
H  42.35700 11.13700 35.87700
H  41.35200 9.83700 36.71400
H  34.76600 6.77500 30.34200
H  35.84200 6.42800 31.60900
H  35.44700 5.14900 30.36900
H  35.20600 4.40400 28.48800
H  34.26100 4.86200 26.94000
H  34.12400 5.81700 28.27500
H  39.66700 9.38000 24.75100
H  42.69300 9.02000 24.72100
H  41.44800 7.57200 23.23100
H  39.75800 7.61900 23.14700
H  40.47900 6.58400 24.38500
H  41.28800 11.50000 25.73100
H  40.68600 11.17600 24.11400
H  42.25500 12.31400 23.22300
H  43.35200 10.92400 23.70400
H  43.31200 12.33200 24.73000
H  46.24200 10.93100 28.19100
H  46.12500 12.44000 29.28200
H  45.05000 12.28200 27.99600
H  43.00000 11.80300 33.48300
H  44.20300 9.40300 36.57400
H  45.65500 10.41900 36.83600
H  45.57000 9.01600 35.61800
Mg 5.29100 53.92100 41.11200
C  4.97000 50.30800 40.60800
C  8.47700 53.66800 40.02100
C  5.13300 57.17600 40.84700
C  1.70300 53.82000 41.82200
N  6.51900 52.17500 40.28200
C  6.26300 50.86900 40.16900
C  7.48200 50.05600 39.80600
C  8.64900 51.14800 39.96200
C  7.82900 52.42800 40.14100
C  9.68800 50.89400 41.08400
C  7.47300 49.35500 38.35800
C  7.58900 50.15700 37.02100
H  6.55900 49.96800 35.85900
N  6.59600 55.26000 40.39000
C  7.88800 54.95500 40.05300
C  8.54000 56.20900 39.79500
C  7.64200 57.27000 40.05400
C  6.37800 56.62100 40.45100
C  10.02100 56.29100 39.62400
C  7.90900 58.82600 39.89600
O  9.00000 59.15700 39.51200
C  6.86900 60.00300 40.12400
N  3.64000 55.29400 41.34900
C  3.90100 56.58900 41.19100
C  2.67000 57.44400 41.55100
C  1.47800 56.36000 41.57400
C  2.33000 55.06700 41.54400
C  2.77800 58.23300 42.91700
C  0.51000 56.52300 40.30800
C  -1.01300 56.29200 40.45700
N  3.68700 52.45600 41.38600
C  2.30500 52.58600 41.67600
C  1.72000 51.27100 41.94200
C  2.74500 50.37400 41.44100
C  3.88500 51.10300 41.13300
C  0.22800 50.90400 42.45100
C  2.98800 48.97200 41.20800
O  2.21800 48.01600 41.28100
C  4.49400 48.81700 40.67200
C  4.53600 48.04900 39.39900
O  4.06000 48.37500 38.32200
O  5.15100 46.82700 39.52200
C  5.11600 45.91300 38.40600
H  9.56600 53.62700 39.95100
H  5.18800 58.26400 40.91400
H  0.63700 53.73100 42.04000
H  7.67900 49.16000 40.39300
H  9.21600 51.21400 39.03300
H  9.81100 49.82200 41.24000
H  9.37800 51.50100 41.93500
H  10.64600 51.33200 40.80400
H  6.54300 48.79100 38.28500
H  8.32700 48.67800 38.35100
H  8.59100 49.97300 36.63400
H  7.54900 51.23600 37.17400
H  10.34200 55.40900 39.06900
H  10.52000 56.47800 40.57400
H  10.29600 56.96900 38.81600
H  6.56900 59.99000 41.17200
H  5.97300 59.80400 39.53700
H  7.29600 60.86800 39.61600
H  2.59200 58.18700 40.75800
H  0.93900 56.40500 42.52000
H  2.36300 59.22600 42.74200
H  3.83100 58.36900 43.16300
H  2.19700 57.75300 43.70500
H  0.87300 55.79500 39.58200
H  0.63500 57.41400 39.69300
H  -1.40800 56.40300 41.46700
H  -1.45000 55.39900 40.01000
H  -1.44700 57.07100 39.82900
H  -0.44800 51.12900 41.62600
H  0.08600 51.45700 43.37900
H  0.09100 49.89400 42.83700
H  5.08800 48.25400 41.39300
H  4.68100 45.00100 38.81600
H  6.17300 45.82600 38.15300
H  4.41100 46.20100 37.62700

