158

Mg 9.18800 48.29500 25.66000
C  6.95200 49.00000 28.18800
C  11.79900 49.63600 27.41800
C  11.01300 47.71900 22.92500
C  6.20600 47.66300 23.64000
N  9.31600 49.41800 27.56600
C  8.28900 49.40500 28.47100
C  8.83300 49.85500 29.88100
C  10.26500 50.44200 29.51900
C  10.51300 49.73100 28.10500
C  10.51000 51.96800 29.70700
C  8.97900 48.62300 30.82900
C  8.40400 48.84500 32.26900
H  8.33200 47.56200 33.05900
N  11.17000 48.49200 25.25500
C  12.08700 48.96000 26.20600
C  13.42900 48.89100 25.60500
C  13.28100 48.25200 24.26800
C  11.80000 48.14200 24.07300
C  14.70300 49.23000 26.35900
C  14.33200 47.86200 23.33100
O  14.12500 47.49000 22.16700
C  15.74300 47.96300 23.68900
N  8.64600 47.92000 23.46900
C  9.62800 47.66300 22.63500
C  9.03800 47.25300 21.23000
C  7.54700 47.12500 21.47400
C  7.45600 47.62400 22.93200
C  9.46600 48.12700 20.00000
C  6.90700 45.67700 21.26400
C  5.93800 45.55100 20.11900
N  6.99700 48.23900 25.85600
C  5.97900 47.94000 25.03400
C  4.71900 47.89800 25.74200
C  5.05800 48.32800 27.03800
C  6.45600 48.51100 26.99200
C  3.30900 47.71400 25.16100
C  4.49800 48.60500 28.29300
O  3.34700 48.53600 28.71500
C  5.68700 48.98800 29.20600
C  5.77700 47.87300 30.14200
O  6.39200 46.87000 29.83200
O  5.13100 48.22200 31.25400
C  4.73400 47.07000 32.13200
H  12.64000 49.98700 28.01800
H  11.69500 47.42900 22.12300
H  5.30800 47.41500 23.07000
H  8.25200 50.57900 30.45200
H  11.03800 50.14200 30.22700
H  9.68800 52.40300 30.27500
H  10.56600 52.38000 28.69900
H  11.43100 52.23300 30.22600
H  10.02200 48.36700 31.01700
H  8.50300 47.75400 30.37500
H  7.39800 49.25400 32.17400
H  8.93900 49.68800 32.70600
H  15.32700 48.34200 26.46000
H  14.57500 49.58200 27.38300
H  15.28300 49.97100 25.80800
H  16.02300 48.93100 24.10300
H  16.41300 47.68800 22.87500
H  15.79700 47.23700 24.50100
H  9.41800 46.26300 20.97600
H  7.01700 47.87700 20.88900
H  8.71400 48.45400 19.28200
H  10.06200 47.45100 19.38600
H  10.11600 48.96500 20.25300
H  6.22400 45.48500 22.09100
H  7.62500 44.86100 21.18500
H  5.12800 44.93500 20.50900
H  6.43000 44.94900 19.35500
H  5.59300 46.50300 19.71600
H  2.78500 46.88500 25.63500
H  3.36900 47.51800 24.09000
H  2.82200 48.68600 25.24800
H  5.56100 49.96600 29.67100
H  4.97500 47.16100 33.19100
H  5.00100 46.08700 31.74400
H  3.65900 46.95800 31.99600
Mg -2.66300 35.04200 26.85200
C  -4.52300 33.47400 29.21300
C  -1.83100 37.50700 29.09600
C  -0.64400 36.44900 24.52400
C  -3.93400 32.98000 24.41800
N  -3.20300 35.45200 28.88200
C  -3.91200 34.60200 29.69500
C  -3.85700 35.10400 31.16300
C  -3.42300 36.58200 30.98200
C  -2.73900 36.53400 29.53900
C  -4.57600 37.58500 30.95900
C  -2.88100 34.28900 32.11000
C  -3.41000 33.70100 33.38600
H  -2.52500 33.59000 34.67100
N  -1.39100 36.74300 26.82300
C  -1.13000 37.59200 27.85400
C  -0.04900 38.44000 27.50100
C  0.33000 38.15200 26.17600
C  -0.53700 37.07200 25.76500
C  0.38700 39.51100 28.47600
C  1.31900 38.78700 25.20700
O  1.57000 38.21700 24.16800
C  1.96200 40.07500 25.55400
N  -2.38200 34.83400 24.70100
C  -1.39500 35.47100 24.06000
C  -1.18600 34.87600 22.62100
C  -2.30100 33.72200 22.58800
C  -2.92400 33.86800 24.01000
C  -1.36700 35.94800 21.48800
C  -1.73000 32.33600 22.19800
C  -2.70900 31.38100 21.46000
N  -4.09200 33.63000 26.75900
C  -4.54500 32.88100 25.68600
C  -5.49900 31.89600 26.18900
C  -5.45300 32.04900 27.58400
C  -4.58900 33.12100 27.83500
C  -6.14000 30.76700 25.43400
C  -5.91300 31.51400 28.83500
O  -6.51700 30.46500 29.07400
C  -5.31500 32.44800 29.97400
C  -6.45800 33.11600 30.69900
O  -7.20700 33.93300 30.23500
O  -6.64700 32.52200 31.91500
C  -7.49100 33.31400 32.78400
H  -1.42600 38.12200 29.90300
H  -0.00700 36.76300 23.69400
H  -4.31200 32.32100 23.63400
H  -4.91900 34.99500 31.38100
H  -2.67200 36.90600 31.70200
H  -5.43600 37.00500 31.29400
H  -4.68600 37.91300 29.92600
H  -4.57800 38.32300 31.76100
H  -2.00500 34.91700 32.27300
H  -2.54500 33.43100 31.52900
H  -3.76500 32.71400 33.09000
H  -4.34400 34.17400 33.69000
H  0.85600 39.23500 29.42000
H  -0.41000 40.18000 28.80000
H  1.01300 40.25600 27.98400
H  2.41800 40.40900 24.62200
H  2.67100 39.79500 26.33400
H  1.20000 40.76600 25.91500
H  -0.18300 34.44900 22.58900
H  -3.04600 33.98100 21.83400
H  -2.13500 36.56900 21.94800
H  -1.75800 35.46600 20.59200
H  -0.44800 36.47600 21.23200
H  -1.59600 31.78000 23.12600
H  -0.70000 32.35300 21.84300
H  -2.15900 30.90700 20.64800
H  -3.49200 32.05500 21.11100
H  -3.06300 30.58400 22.11300
H  -5.76500 30.81700 24.41200
H  -7.21700 30.69900 25.59100
H  -5.60400 29.95400 25.92300
H  -4.64800 31.88200 30.62400
H  -7.24100 34.37100 32.86900
H  -7.60100 32.87400 33.77500
H  -8.47700 33.31300 32.32000

