158

Mg 47.66900 25.10800 28.61200
C  48.64400 27.31000 30.98700
C  46.23800 23.11900 30.99800
C  46.65400 22.97000 26.11300
C  49.57800 26.97300 26.06600
N  47.71100 25.06100 30.78900
C  47.87100 26.28500 31.55500
C  47.42000 26.01800 32.95400
C  46.66200 24.55300 32.94200
C  46.97200 24.17200 31.49300
C  47.27400 23.53200 34.00900
C  46.42500 27.17400 33.55000
C  47.06400 28.00900 34.68300
H  46.11100 28.31000 35.91100
N  46.64600 23.24400 28.56600
C  46.12100 22.62500 29.67100
C  45.50700 21.37300 29.23000
C  45.49500 21.37300 27.80200
C  46.35700 22.52700 27.39800
C  45.10500 20.37000 30.24000
C  44.82100 20.31300 26.88200
O  44.96900 20.36000 25.63200
C  43.82600 19.30400 27.48200
N  48.11500 24.97700 26.36300
C  47.51900 23.97900 25.57900
C  48.01700 24.09500 24.18400
C  48.58100 25.56300 24.10700
C  48.81700 25.84800 25.54600
C  49.13400 23.05100 23.86500
C  47.65900 26.63500 23.43600
C  48.09000 26.91900 21.96700
N  48.94600 26.63000 28.48200
C  49.60400 27.36000 27.43000
C  50.18500 28.58400 27.98700
C  49.77700 28.60000 29.32800
C  49.09700 27.40100 29.62300
C  51.10900 29.52000 27.25100
C  49.89900 29.44600 30.54900
O  50.55100 30.48700 30.79300
C  49.07200 28.67800 31.67300
C  50.04100 28.44600 32.80100
O  50.76900 27.49200 32.92800
O  49.85800 29.44100 33.74700
C  50.59400 29.18700 35.02500
H  45.75200 22.45200 31.71300
H  46.47400 22.18800 25.37200
H  50.16300 27.59400 25.38500
H  48.38000 25.97400 33.46800
H  45.59400 24.77100 32.96400
H  46.46700 23.13200 34.62300
H  47.96700 24.04600 34.67500
H  47.74500 22.71500 33.46300
H  45.47000 26.80200 33.92200
H  46.13100 27.75000 32.67200
H  47.37000 28.92500 34.17900
H  48.01700 27.56300 34.96800
H  45.42100 19.37200 29.93700
H  44.02700 20.33900 30.39300
H  45.49900 20.59100 31.23200
H  43.16400 18.97800 26.68100
H  43.26000 19.56400 28.37700
H  44.44200 18.43600 27.71800
H  47.27700 23.97200 23.39400
H  49.52800 25.58700 23.56900
H  50.11500 23.52500 23.85600
H  48.89700 22.47600 22.97000
H  49.38700 22.44000 24.73100
H  47.86400 27.46600 24.11100
H  46.64500 26.26600 23.59200
H  48.37300 27.94900 21.74600
H  47.24200 26.65500 21.33500
H  49.01500 26.42300 21.67400
H  51.96000 28.93000 26.91100
H  51.42300 30.36700 27.86000
H  50.63100 29.89400 26.34600
H  48.19200 29.20500 32.04000
H  50.44500 30.07600 35.63700
H  51.65800 28.98100 34.90900
H  50.20600 28.35600 35.61500
Mg 42.23900 41.51800 27.04700
C  41.19200 43.82300 29.46900
C  43.33400 39.43500 29.55500
C  43.42100 39.48200 24.72700
C  41.76100 44.00400 24.66600
N  42.19900 41.69000 29.31900
C  41.71100 42.66300 30.09500
C  41.89700 42.30300 31.57600
C  42.80400 40.99000 31.53500
C  42.73000 40.58100 30.01800
C  44.32000 40.99600 31.96400
C  40.48100 42.17400 32.17400
C  40.27200 42.95700 33.52300
H  39.70000 42.23400 34.70600
N  43.11400 39.65800 27.12700
C  43.45000 38.94300 28.20200
C  43.87200 37.65100 27.82000
C  44.01200 37.67600 26.39600
C  43.56500 39.03500 26.00300
C  44.29000 36.57400 28.74800
C  44.55700 36.54800 25.36600
O  44.57900 36.71000 24.10700
C  44.93200 35.24900 25.86000
N  42.48600 41.64400 25.06600
C  42.88900 40.66300 24.30000
C  42.70600 40.89600 22.78000
C  42.31900 42.42800 22.71300
C  42.12500 42.72400 24.27100
C  43.84100 40.53400 21.73000
C  41.13800 42.79000 21.73200
C  39.80400 43.04700 22.35500
N  41.53900 43.53000 27.00100
C  41.47700 44.47900 25.98700
C  40.83400 45.65100 26.42100
C  40.70400 45.46200 27.78700
C  41.23600 44.18500 28.10500
C  40.29200 46.76000 25.56700
C  40.31600 46.04300 29.08200
O  39.81000 47.16300 29.29500
C  40.71200 45.07000 30.22700
C  41.65000 45.72600 31.12100
O  42.72600 46.18100 30.81900
O  41.00300 45.82100 32.33500
C  41.58800 46.66900 33.29000
H  43.71100 38.84700 30.39400
H  43.85600 38.87600 23.93000
H  41.67100 44.79600 23.92000
H  42.56400 43.06200 31.98600
H  42.33600 40.19200 32.11200
H  44.39700 42.01400 32.34600
H  45.05100 40.98400 31.15500
H  44.52700 40.16700 32.64000
H  40.35400 41.11600 32.40500
H  39.73000 42.37500 31.41000
H  39.47200 43.67600 33.34200
H  41.14900 43.48500 33.90000
H  45.37500 36.61200 28.84900
H  43.86800 35.63500 28.39200
H  43.85700 36.66000 29.74400
H  45.31400 34.69700 25.00100
H  43.98500 34.75800 26.08300
H  45.54700 35.20400 26.75900
H  41.81100 40.36600 22.45300
H  43.20600 42.94700 22.35100
H  43.38600 40.33300 20.76000
H  44.15900 39.53500 22.02900
H  44.65500 41.24400 21.58500
H  40.92600 42.02600 20.98400
H  41.42300 43.69400 21.19400
H  39.56600 42.48200 23.25600
H  39.05800 42.84800 21.58500
H  39.60600 44.10800 22.50200
H  40.02600 46.43800 24.56100
H  41.03500 47.55600 25.51500
H  39.41100 47.15900 26.06900
H  39.74600 45.07600 30.73300
H  42.00200 46.05800 34.09200
H  40.74000 47.21200 33.70700
H  42.29500 47.42600 32.95200

