158

Mg 35.38700 2.67200 29.23600
C  33.44700 3.99200 31.79200
C  38.00800 2.66700 31.28700
C  37.21800 1.79100 26.73000
C  32.63400 3.24700 27.04400
N  35.73000 3.53600 31.20900
C  34.77100 3.74800 32.15600
C  35.16100 3.57800 33.56300
C  36.72700 3.49300 33.39500
C  36.85200 3.14500 31.86200
C  37.58300 4.74600 33.68300
C  34.44700 2.50700 34.40900
C  34.08500 2.89700 35.82400
H  35.06200 3.83900 36.63500
N  37.38900 2.16900 29.01400
C  38.28000 2.23600 30.02400
C  39.57400 1.76900 29.56400
C  39.38500 1.49300 28.17300
C  37.96100 1.74900 27.89800
C  40.81500 1.74600 30.45600
C  40.41800 1.20000 27.05000
O  40.00500 1.07800 25.88700
C  41.92300 1.04400 27.35900
N  34.96400 2.49900 27.16700
C  35.94900 2.23200 26.38900
C  35.44600 2.25000 24.92700
C  33.93300 2.38500 25.06900
C  33.80000 2.74400 26.50400
C  36.18700 3.31900 23.97600
C  33.02100 1.19800 24.49300
C  32.71100 0.03300 25.42200
N  33.41000 3.30300 29.38600
C  32.39500 3.39600 28.41000
C  31.13500 3.92100 29.09200
C  31.55700 4.20900 30.39800
C  32.88400 3.78400 30.49000
C  29.83300 4.17200 28.52200
C  31.03800 4.66100 31.66400
O  29.96900 5.08300 32.01500
C  32.21100 4.44800 32.70400
C  32.39000 5.63600 33.57700
O  32.92500 6.64600 33.19100
O  31.74100 5.54500 34.82200
C  31.64800 6.74400 35.65300
H  38.78400 2.40900 32.01100
H  37.77900 1.45700 25.85500
H  31.83700 3.52100 26.35000
H  34.93300 4.50600 34.08800
H  37.09000 2.70600 34.05600
H  36.86800 5.47000 34.07200
H  37.94000 5.17000 32.74400
H  38.42100 4.42500 34.30100
H  35.22700 1.75400 34.52600
H  33.57900 2.04800 33.93500
H  34.10100 1.95000 36.36300
H  33.11100 3.36600 35.96100
H  41.16100 0.71300 30.44100
H  40.60400 2.10000 31.46500
H  41.57900 2.34900 29.96700
H  42.08200 0.11200 27.90200
H  42.23100 1.80000 28.08100
H  42.37500 1.17200 26.37500
H  35.73700 1.30500 24.46800
H  33.64100 3.25600 24.48300
H  36.94000 3.92700 24.47800
H  35.41700 3.98700 23.59000
H  36.65300 2.74400 23.17600
H  33.54900 0.69400 23.68300
H  32.12600 1.53500 23.97100
H  32.71100 -0.91000 24.87500
H  31.72600 0.10200 25.88400
H  33.48800 -0.13000 26.16900
H  29.86000 4.01400 27.44300
H  29.54900 5.22400 28.51300
H  29.09800 3.53200 29.00900
H  31.91500 3.59900 33.32100
H  32.20800 6.58300 36.57300
H  30.65400 7.01900 36.00500
H  32.15200 7.54300 35.10900
Mg 16.60700 51.96200 26.08600
C  18.65300 50.44800 28.73900
C  14.33900 52.59200 28.51000
C  14.76900 53.33600 23.73100
C  19.00000 50.73500 23.76100
N  16.52600 51.53300 28.33900
C  17.49000 51.00300 29.24500
C  17.01400 51.04500 30.71600
C  15.53900 51.59800 30.57000
C  15.41500 51.94400 29.05900
C  14.44700 50.58800 30.89900
C  17.91800 51.87800 31.70500
C  18.07500 51.28100 33.10500
H  17.14600 51.89300 34.17700
N  14.82000 52.86800 26.12300
C  14.01500 53.06100 27.21300
C  12.86300 53.81900 26.78200
C  13.00300 54.14600 25.40400
C  14.23400 53.47000 25.03600
C  11.83200 54.32900 27.75400
C  12.17900 55.02900 24.45800
O  12.43900 55.17600 23.28700
C  10.94900 55.72600 24.94400
N  16.92800 51.98400 24.10600
C  15.98100 52.76100 23.32300
C  16.48400 52.82900 21.85600
C  17.91400 52.06900 21.88500
C  17.98300 51.62200 23.35800
C  15.51100 52.25400 20.80700
C  19.11700 52.99100 21.52300
C  19.78700 53.93900 22.49100
N  18.39100 50.67000 26.19600
C  19.22200 50.24200 25.10300
C  20.33200 49.46500 25.72800
C  20.14800 49.54500 27.13900
C  19.00700 50.32900 27.32400
C  21.65800 49.12100 24.97300
C  20.72600 49.15700 28.42100
O  21.69900 48.46300 28.67200
C  19.74300 49.75300 29.55000
C  19.19600 48.65700 30.42400
O  18.30000 47.88400 30.13500
O  19.95200 48.52900 31.57600
C  19.88500 47.44000 32.58000
H  13.65700 52.88400 29.31100
H  14.26600 53.83100 22.89800
H  19.71100 50.33200 23.03600
H  16.90200 50.03800 31.11900
H  15.38100 52.48200 31.18900
H  14.12000 50.07000 29.99800
H  13.64300 51.20600 31.29800
H  14.75100 49.90200 31.68900
H  17.43500 52.85200 31.78200
H  18.91100 51.91600 31.25700
H  19.06100 51.44500 33.53800
H  18.09600 50.19100 33.08100
H  10.85300 53.89800 27.54500
H  11.61800 55.39700 27.72300
H  12.01700 54.04400 28.79000
H  10.37200 56.30300 24.22200
H  11.24200 56.41600 25.73400
H  10.41900 54.86200 25.34700
H  16.67600 53.87000 21.59500
H  17.97000 51.27300 21.14200
H  14.46700 52.45100 21.05200
H  15.68900 51.17900 20.80200
H  15.79200 52.70800 19.85700
H  18.65700 53.62100 20.76100
H  19.85500 52.31400 21.09200
H  20.87600 53.89900 22.46200
H  19.54600 53.81400 23.54700
H  19.53900 54.95400 22.18100
H  22.55700 49.19100 25.58500
H  21.67200 49.78100 24.10600
H  21.61100 48.12500 24.53300
H  20.20800 50.42700 30.27000
H  20.20200 46.48400 32.16300
H  18.85300 47.40500 32.92700
H  20.60100 47.70000 33.36000

