158

Mg 1.23500 -1.24000 44.40100
C  4.49400 -0.30600 43.71400
C  0.12100 1.78200 43.31400
C  -1.88000 -2.54200 44.39000
C  2.46500 -4.50000 45.02000
N  2.20400 0.48300 43.52600
C  3.49800 0.66200 43.34000
C  3.79500 1.97200 42.60900
C  2.49400 2.68900 42.91400
C  1.52200 1.59500 43.27600
C  2.44800 3.76200 44.04300
C  4.03800 1.77000 41.07700
C  5.09900 2.72300 40.56200
H  4.92500 3.11900 39.06000
N  -0.67700 -0.47600 43.82100
C  -0.92300 0.82100 43.49900
C  -2.36600 1.00300 43.41300
C  -2.94100 -0.32500 43.62800
C  -1.86400 -1.20600 43.95500
C  -3.03000 2.34000 43.04600
C  -4.36600 -0.60500 43.47300
O  -5.16600 0.34200 43.43600
C  -5.03800 -2.01300 43.41000
N  0.44000 -3.30700 44.69700
C  -0.91800 -3.52900 44.62600
C  -1.27700 -5.02500 45.04400
C  0.15100 -5.62700 45.24600
C  1.08800 -4.44900 44.96000
C  -2.26600 -5.25100 46.26300
C  0.50300 -6.75400 44.22800
C  1.46700 -7.88500 44.80200
N  3.11500 -2.20800 44.54900
C  3.47000 -3.51600 44.90200
C  4.92600 -3.57300 45.12400
C  5.36600 -2.31000 44.57100
C  4.22000 -1.55300 44.30200
C  5.72800 -4.68500 45.50100
C  6.55200 -1.50900 44.20200
O  7.74400 -1.77000 44.29400
C  5.97400 -0.15400 43.59100
C  6.49700 0.99100 44.42000
O  6.28800 1.07500 45.61200
O  7.12200 1.95900 43.69200
C  7.63300 3.07100 44.49100
H  -0.12200 2.79200 42.97900
H  -2.84700 -3.04200 44.47200
H  2.83800 -5.46200 45.38000
H  4.55200 2.59100 43.09100
H  2.19500 3.25800 42.03400
H  3.40500 4.00900 44.50200
H  1.94300 3.32000 44.90100
H  1.78100 4.57000 43.74000
H  3.18400 1.85900 40.40600
H  4.42600 0.76000 40.94300
H  6.02000 2.14300 40.50200
H  5.32400 3.65000 41.08900
H  -3.96700 2.52200 43.57300
H  -3.22000 2.29100 41.97400
H  -2.24800 3.06500 43.27000
H  -6.07500 -1.96800 43.07600
H  -5.03500 -2.55700 44.35500
H  -4.39000 -2.68100 42.84300
H  -1.73400 -5.44500 44.14900
H  0.30800 -5.94700 46.27600
H  -2.60500 -4.26500 46.58000
H  -1.87200 -5.79100 47.12400
H  -3.14700 -5.79300 45.91900
H  0.97200 -6.36000 43.32700
H  -0.39700 -7.23800 43.84900
H  1.68600 -7.72500 45.85700
H  2.38500 -7.81500 44.22000
H  1.04700 -8.87900 44.64400
H  5.17800 -5.44800 46.05100
H  6.52900 -4.20300 46.06200
H  6.09600 -5.20600 44.61700
H  6.32300 -0.10800 42.55900
H  6.89300 3.79600 44.82900
H  8.40000 3.61400 43.93900
H  8.03600 2.69200 45.43000
Mg 7.46500 2.80300 28.09900
C  8.80700 1.32200 30.95700
C  5.26000 4.52100 30.09400
C  6.06400 3.97200 25.27900
C  9.62500 0.90900 26.14500
N  7.02900 2.76700 30.25600
C  7.82800 2.29100 31.25800
C  7.38100 2.68600 32.67100
C  6.15700 3.61500 32.37000
C  6.13100 3.67800 30.79500
C  4.87500 3.22300 33.00700
C  8.49400 3.33900 33.50400
C  8.48700 2.80700 34.99200
H  8.78400 3.92100 35.99900
N  5.94700 4.20500 27.76800
C  5.14300 4.76400 28.68200
C  4.25400 5.70400 28.09600
C  4.59100 5.66000 26.67900
C  5.54700 4.52200 26.49000
C  3.35500 6.56600 28.85100
C  4.18900 6.49700 25.52800
O  4.60100 6.44000 24.37100
C  3.14900 7.58800 25.93600
N  7.75500 2.45100 25.94300
C  7.02100 3.01600 25.07900
C  7.39100 2.67200 23.64000
C  8.59000 1.72000 23.87000
C  8.64600 1.69700 25.39300
C  6.20400 1.96400 22.82500
C  9.99300 2.18600 23.26800
C  10.70300 3.31800 23.89600
N  8.85200 1.30700 28.41200
C  9.66700 0.68100 27.54300
C  10.55700 -0.28300 28.19300
C  10.33400 -0.01100 29.56100
C  9.25600 0.93800 29.63600
C  11.62400 -1.15200 27.57800
C  10.73900 -0.37300 30.90600
O  11.64200 -1.05900 31.34500
C  9.77100 0.55200 31.88400
C  9.02800 -0.34100 32.82000
O  8.10400 -0.98400 32.50000
O  9.67300 -0.36800 34.05400
C  9.27900 -1.34000 35.08200
H  4.65500 5.12600 30.77300
H  5.52300 4.18100 24.35400
H  10.34200 0.31800 25.57200
H  7.04100 1.78800 33.18700
H  6.41000 4.61100 32.73200
H  4.68200 3.95600 33.79000
H  4.97000 2.26700 33.52200
H  3.99900 3.32900 32.36700
H  8.34200 4.41300 33.39800
H  9.52000 3.23700 33.14900
H  9.19500 2.00700 35.21000
H  7.45100 2.53900 35.19500
H  3.79100 7.56400 28.80800
H  3.22600 6.35000 29.91200
H  2.34400 6.57500 28.44300
H  2.25200 7.11000 26.33100
H  2.91900 8.09000 24.99600
H  3.54800 8.38000 26.57000
H  7.81100 3.53700 23.12700
H  8.41600 0.69100 23.55800
H  5.25100 2.12000 23.33000
H  6.31900 0.89700 22.63600
H  6.10300 2.39900 21.83100
H  9.80000 2.55400 22.26100
H  10.67500 1.35800 23.07400
H  10.25800 3.72100 24.80600
H  10.68500 4.11200 23.15000
H  11.72600 3.06400 24.17300
H  11.12800 -2.10500 27.39300
H  12.44200 -1.34900 28.27100
H  11.96400 -0.79000 26.60700
H  10.39500 1.21700 32.48000
H  8.64700 -2.12400 34.66500
H  8.70200 -0.82400 35.84900
H  10.21800 -1.64400 35.54500

