158

Mg 47.00600 17.21500 29.08400
C  44.76300 16.44300 31.74900
C  48.93300 18.90300 31.40700
C  48.92500 18.06600 26.59200
C  44.72100 15.61800 26.91800
N  46.80100 17.62200 31.31000
C  45.90100 17.08300 32.21000
C  46.37900 17.24800 33.64100
C  47.46300 18.35100 33.54100
C  47.79600 18.31300 32.02000
C  46.90100 19.77200 33.81200
C  46.68900 15.83200 34.29800
C  47.07900 15.89300 35.75300
H  46.82100 17.21700 36.44100
N  48.67400 18.42100 28.98900
C  49.43800 18.91600 30.06800
C  50.65200 19.51400 29.61500
C  50.65700 19.26100 28.15600
C  49.39000 18.50800 27.84300
C  51.68700 20.13800 30.47600
C  51.71900 19.59600 27.18400
O  51.61000 19.30600 25.99800
C  52.93000 20.34300 27.68900
N  46.96100 16.65100 27.09500
C  47.90200 17.20000 26.23500
C  47.53800 16.84000 24.72300
C  46.25100 15.84600 24.96800
C  45.98900 15.99200 26.43800
C  47.06600 18.19600 23.96500
C  46.60100 14.34400 24.50400
C  46.42600 14.00300 22.99600
N  45.12100 16.30400 29.14500
C  44.32400 15.71100 28.23300
C  43.02400 15.21300 28.83200
C  43.22300 15.52900 30.15700
C  44.46400 16.17000 30.36200
C  41.81600 14.47100 28.19700
C  42.57500 15.29200 31.40300
O  41.54400 14.65300 31.59100
C  43.51800 15.90300 32.51300
C  42.86100 16.93500 33.31900
O  42.35200 17.97900 32.91600
O  42.88800 16.53500 34.68200
C  42.42300 17.32400 35.81900
H  49.56100 19.36500 32.17100
H  49.40000 18.39900 25.66700
H  43.96400 15.19100 26.25700
H  45.54100 17.68200 34.18500
H  48.41500 18.13900 34.02700
H  46.12100 19.72800 34.57300
H  46.47200 20.20000 32.90700
H  47.72500 20.41700 34.11700
H  47.46300 15.35100 33.70000
H  45.76800 15.25100 34.27200
H  48.12600 15.58900 35.77800
H  46.55500 15.13900 36.34000
H  52.62200 19.57800 30.45900
H  51.29600 20.21100 31.49100
H  51.80700 21.16400 30.12600
H  52.74300 21.30800 28.16000
H  53.53700 20.46700 26.79200
H  53.40500 19.67500 28.40700
H  48.40700 16.38300 24.24900
H  45.42600 16.26800 24.39400
H  46.35100 17.98500 23.16900
H  48.00400 18.55500 23.54100
H  46.68600 19.00400 24.59000
H  46.19300 13.53600 25.11100
H  47.68300 14.34000 24.63600
H  47.19100 13.24800 22.81500
H  46.81700 14.80300 22.36600
H  45.37000 13.75900 22.87900
H  41.74300 14.75300 27.14700
H  40.88100 14.90400 28.55300
H  41.69900 13.39100 28.27900
H  43.69600 15.02400 33.13200
H  43.13300 17.18800 36.63500
H  41.42800 17.06000 36.17800
H  42.49000 18.36100 35.49100
Mg -11.62400 38.10700 41.39200
C  -9.36400 35.45700 40.32800
C  -9.50600 40.29800 39.64600
C  -13.78300 40.59500 41.74600
C  -13.81300 35.70700 42.45300
N  -9.63500 37.86700 40.06500
C  -8.97300 36.74100 39.81100
C  -7.58600 37.03800 39.08500
C  -7.55400 38.57800 38.98900
C  -8.98700 38.95700 39.54700
C  -6.42600 39.25900 39.75100
C  -7.49300 36.25700 37.70900
C  -5.96700 35.89600 37.36500
H  -5.58500 35.90500 35.85200
N  -11.63500 40.16800 40.85500
C  -10.69000 40.90000 40.19400
C  -11.08000 42.23100 40.04500
C  -12.37100 42.35900 40.67100
C  -12.67900 41.01700 41.12400
C  -10.34200 43.38900 39.38400
C  -13.26800 43.66500 40.60100
O  -12.78600 44.75300 40.19000
C  -14.71700 43.62600 41.05100
N  -13.61000 38.02300 41.75600
C  -14.20800 39.28600 42.09300
C  -15.53700 39.02300 42.91400
C  -15.60200 37.43000 42.86500
C  -14.26400 37.03200 42.36100
C  -15.77300 39.68800 44.27100
C  -16.78400 36.89300 42.00600
C  -18.16500 37.18100 42.37800
N  -11.64300 35.97500 41.43000
C  -12.56600 35.21800 41.96300
C  -12.00000 33.86100 42.15500
C  -10.78000 33.90100 41.51100
C  -10.60800 35.21100 41.07000
C  -12.58500 32.87100 42.98300
C  -9.53100 33.21800 41.21900
O  -9.13900 32.09800 41.42700
C  -8.65100 34.14600 40.31500
C  -7.23700 34.17100 40.72900
O  -6.41000 33.49900 40.08900
O  -7.01200 35.18000 41.67300
C  -5.64900 35.24700 42.21800
H  -8.82300 40.97100 39.12400
H  -14.52200 41.27800 42.16900
H  -14.40600 34.93000 42.94200
H  -6.76300 36.69700 39.71400
H  -7.56400 38.93600 37.96000
H  -5.79400 38.54900 40.28500
H  -6.84100 39.86700 40.55500
H  -5.83000 39.92000 39.12200
H  -7.75500 36.98100 36.93800
H  -8.15400 35.39200 37.66600
H  -5.66900 34.87600 37.60800
H  -5.24000 36.40000 38.00200
H  -10.96300 43.73400 38.55800
H  -9.46000 42.97700 38.89300
H  -10.00800 44.25900 39.95000
H  -14.95500 43.34700 42.07700
H  -15.35800 43.02100 40.41000
H  -15.29400 44.53600 40.89100
H  -16.27300 39.49600 42.26400
H  -15.79000 37.10000 43.88700
H  -16.43800 39.07100 44.87600
H  -16.24300 40.66300 44.14100
H  -14.73800 39.82100 44.58700
H  -16.72800 35.81400 41.86200
H  -16.66800 37.44400 41.07200
H  -18.77100 36.27600 42.41000
H  -18.54700 37.70100 41.50000
H  -18.22300 37.75700 43.30100
H  -12.00500 31.94900 42.94100
H  -13.57200 32.63200 42.58700
H  -12.63900 33.17700 44.02700
H  -8.62600 33.73700 39.30500
H  -5.81000 35.55700 43.25100
H  -5.17800 36.07900 41.69600
H  -5.05700 34.33200 42.19500

