158

Mg 44.44600 4.01400 48.03100
C  42.27800 6.73800 47.45900
C  41.88000 1.84600 47.92200
C  46.84100 1.43400 48.02200
C  47.13400 6.20900 47.73000
N  42.34500 4.27000 47.63600
C  41.66700 5.48100 47.45500
C  40.18000 5.17300 47.35200
C  40.00200 3.62000 47.76000
C  41.52300 3.21300 47.80700
C  39.10900 3.38600 48.99500
C  39.41400 5.58400 46.05300
C  38.42000 6.79100 46.13500
H  37.64900 6.99200 44.80700
N  44.37700 1.93600 47.88600
C  43.16300 1.24900 47.93200
C  43.46300 -0.16800 47.93900
C  44.88400 -0.28900 48.05700
C  45.44800 1.06500 48.01000
C  42.42500 -1.24600 47.79100
C  45.60100 -1.69800 48.24600
O  44.99400 -2.74700 48.29500
C  47.05100 -1.81900 48.32100
N  46.63900 3.80300 47.82100
C  47.37400 2.70000 48.00100
C  48.93600 2.90300 48.01700
C  49.01600 4.50600 47.99500
C  47.51800 4.87100 47.79400
C  49.61500 2.27600 49.28800
C  49.86300 5.07900 46.83500
C  50.73100 6.27600 47.23800
N  44.65800 6.02200 47.65300
C  45.82800 6.74100 47.61000
C  45.47600 8.13500 47.38200
C  44.10200 8.20700 47.36300
C  43.67500 6.91300 47.52200
C  46.43400 9.34900 47.25000
C  42.91400 9.06400 47.33600
O  42.77700 10.29300 47.15000
C  41.74100 8.11800 47.42100
C  40.96800 8.48500 48.63000
O  41.00100 7.85600 49.65100
O  40.32700 9.65400 48.41200
C  39.44500 10.22100 49.46800
H  40.95000 1.27500 47.96100
H  47.62000 0.67500 48.11900
H  47.99700 6.87600 47.67800
H  39.69400 5.67500 48.18900
H  39.46900 3.06100 46.99200
H  38.55500 4.25500 49.35100
H  39.71700 3.03400 49.82800
H  38.41300 2.62000 48.65400
H  38.97700 4.73500 45.52700
H  40.26300 6.04000 45.54300
H  39.00700 7.70700 46.06600
H  37.73600 6.78700 46.98300
H  41.51500 -0.92300 47.28500
H  42.20100 -1.68800 48.76100
H  42.80000 -2.01200 47.11300
H  47.14400 -2.90300 48.25500
H  47.46300 -1.63400 49.31300
H  47.68300 -1.50200 47.49100
H  49.34000 2.34600 47.17200
H  49.20900 4.95300 48.97000
H  50.14700 2.98100 49.92800
H  50.35100 1.60400 48.84700
H  48.83100 1.72300 49.80500
H  49.19900 5.28500 45.99600
H  50.53700 4.30500 46.46600
H  51.66400 6.18700 46.68200
H  51.06400 6.27100 48.27600
H  50.30700 7.25600 47.01600
H  46.61000 9.91500 48.16400
H  46.07900 10.09000 46.53400
H  47.40900 9.06600 46.85500
H  41.19200 8.28200 46.49400
H  38.39300 9.94200 49.40900
H  39.43500 11.31100 49.44400
H  39.71800 9.99600 50.49900
Mg -10.35700 38.33900 40.61000
C  -8.21800 35.61600 39.89800
C  -8.01200 40.38600 39.01100
C  -12.47500 40.96200 40.68500
C  -12.79300 36.18200 41.45800
N  -8.41800 37.88200 39.37000
C  -7.68300 36.76400 39.39000
C  -6.42500 36.93400 38.49300
C  -6.25600 38.52700 38.64200
C  -7.67700 38.99500 39.02200
C  -5.03200 39.08100 39.38000
C  -6.63900 36.50100 36.95700
C  -5.64700 35.67200 36.21100
H  -5.32100 36.13400 34.81900
N  -10.19400 40.42100 40.09000
C  -9.14300 41.02500 39.46500
C  -9.36200 42.44500 39.57800
C  -10.63600 42.67800 40.14100
C  -11.17600 41.35900 40.40200
C  -8.49200 43.43000 39.12000
C  -11.37400 44.06700 40.21900
O  -10.78700 45.05300 39.78800
C  -12.70000 44.20400 40.71100
N  -12.32700 38.56000 40.97200
C  -13.00200 39.71500 40.97000
C  -14.49100 39.58100 41.27000
C  -14.56900 38.05300 41.54200
C  -13.16400 37.56500 41.23200
C  -15.00300 40.52400 42.36800
C  -15.67500 37.35600 40.66300
C  -16.78500 36.69900 41.49800
N  -10.54000 36.27400 40.71400
C  -11.54400 35.54500 41.11800
C  -11.09600 34.17400 41.32300
C  -9.79500 34.12700 40.81100
C  -9.51600 35.43300 40.39300
C  -11.82800 33.12300 42.04000
C  -8.62500 33.35800 40.55500
O  -8.48000 32.15700 40.59100
C  -7.62900 34.24700 39.80900
C  -6.25800 34.14000 40.43700
O  -5.34300 33.49600 39.89200
O  -6.12200 35.04300 41.50400
C  -4.97300 34.87100 42.43900
H  -7.19700 40.97000 38.57900
H  -13.17500 41.79400 40.57800
H  -13.63000 35.63700 41.90100
H  -5.54800 36.42400 38.88900
H  -6.16400 38.87400 37.61300
H  -4.31000 39.23100 38.57800
H  -4.63500 38.38400 40.11700
H  -5.21000 40.03000 39.88600
H  -6.94100 37.38900 36.40300
H  -7.51900 35.86000 36.90000
H  -5.99800 34.64000 36.22800
H  -4.64900 35.59500 36.64200
H  -8.76900 43.92700 38.19100
H  -7.46700 43.06900 39.03600
H  -8.26800 44.19700 39.86100
H  -12.84100 45.22900 41.05200
H  -12.76400 43.62200 41.63100
H  -13.48000 44.00800 39.97600
H  -15.11700 39.74800 40.39400
H  -14.87200 37.90100 42.57800
H  -15.71300 41.22500 41.92900
H  -14.16000 40.92500 42.93000
H  -15.50500 39.92900 43.13100
H  -15.22900 36.47200 40.20900
H  -16.14700 38.04800 39.96500
H  -16.57900 35.62900 41.51900
H  -17.77200 36.93200 41.09900
H  -16.80100 36.96600 42.55500
H  -11.86600 32.18700 41.48300
H  -12.84500 33.47900 42.20500
H  -11.39700 33.02000 43.03500
H  -7.62000 33.82100 38.80600
H  -5.29800 34.81500 43.47800
H  -4.34700 35.75200 42.29400
H  -4.31400 34.00300 42.40500

