158

Mg 24.22100 -4.78700 45.48100
C  26.34400 -2.47000 44.02800
C  21.75600 -3.65500 43.45000
C  22.40600 -7.56300 46.08600
C  26.92100 -6.27800 47.04200
N  24.14400 -3.32700 43.82600
C  25.04000 -2.40800 43.53800
C  24.66000 -1.53900 42.32200
C  23.05100 -1.76600 42.37600
C  22.94100 -2.97600 43.33600
C  22.16700 -0.55800 42.82500
C  25.34000 -2.12200 41.04500
C  26.14800 -1.15500 40.20200
H  25.74400 -1.21500 38.66800
N  22.25300 -5.42200 45.02400
C  21.40800 -4.81300 44.13500
C  20.12300 -5.53400 44.05500
C  20.28200 -6.63100 44.90400
C  21.68700 -6.55800 45.42400
C  18.95700 -4.99200 43.33100
C  19.21400 -7.61000 45.19900
O  18.13900 -7.64100 44.70300
C  19.40300 -8.67700 46.28600
N  24.69100 -6.75200 46.42600
C  23.69700 -7.64000 46.59900
C  24.24800 -8.91600 47.32900
C  25.64100 -8.41500 47.84200
C  25.79700 -7.12700 47.01000
C  23.40600 -9.37300 48.54300
C  26.83500 -9.36000 47.62500
C  27.90300 -9.49300 48.72300
N  26.22800 -4.43500 45.59800
C  27.19600 -5.04200 46.35800
C  28.43300 -4.25800 46.26500
C  28.16800 -3.21200 45.39700
C  26.82300 -3.38700 45.02900
C  29.61100 -4.48300 47.12200
C  28.60500 -1.95800 44.78200
O  29.64300 -1.39500 44.92100
C  27.46600 -1.63700 43.73800
C  27.10400 -0.25800 44.02500
O  26.43000 0.14300 44.99400
O  27.58900 0.54600 43.02000
C  27.39500 1.96700 43.17200
H  20.96100 -3.23600 42.83100
H  21.87900 -8.51700 46.01600
H  27.73200 -6.72500 47.62000
H  24.75800 -0.46100 42.45300
H  22.73200 -2.12600 41.39800
H  21.37900 -0.42100 42.08500
H  22.70900 0.38000 42.70800
H  21.76200 -0.64100 43.83300
H  24.59800 -2.63700 40.43600
H  25.94900 -2.98800 41.30300
H  27.18200 -1.43500 40.40200
H  26.08200 -0.16500 40.65200
H  19.36200 -4.47000 42.46300
H  18.47000 -4.21500 43.91900
H  18.23800 -5.76300 43.05700
H  19.92600 -9.58000 45.97200
H  18.41200 -8.97300 46.63000
H  19.90400 -8.34000 47.19300
H  24.23900 -9.71900 46.59200
H  25.52500 -8.04100 48.86000
H  23.78400 -9.16000 49.54300
H  23.44200 -10.45500 48.42000
H  22.38900 -9.04900 48.32100
H  27.31500 -9.07100 46.68900
H  26.46500 -10.36300 47.41500
H  28.91000 -9.40700 48.31400
H  27.90700 -10.53800 49.03200
H  27.80500 -8.79900 49.55800
H  30.12000 -5.20300 46.48200
H  29.25700 -4.79700 48.10400
H  30.27100 -3.61700 47.18200
H  27.79900 -1.82600 42.71700
H  27.28100 2.33000 42.15100
H  28.21000 2.52100 43.63800
H  26.53900 2.24800 43.78600
Mg -12.20900 40.01600 41.98200
C  -10.81000 36.90200 41.20000
C  -9.61000 41.56300 40.10300
C  -13.87800 42.97100 42.19800
C  -14.99900 38.37500 43.26600
N  -10.48600 39.25700 40.70000
C  -10.07800 37.95000 40.65600
C  -8.71800 37.89200 39.87600
C  -8.34200 39.34900 39.65200
C  -9.52300 40.11900 40.17700
C  -6.96400 39.75900 40.23300
C  -8.70400 36.92900 38.69900
C  -7.63900 35.82500 38.63900
H  -7.07800 35.33800 37.28300
N  -11.82500 42.04300 41.24700
C  -10.67900 42.38000 40.54800
C  -10.67400 43.82800 40.39800
C  -11.87100 44.30500 40.98500
C  -12.62400 43.11600 41.53600
C  -9.57800 44.65700 39.75400
C  -12.37100 45.66200 41.12200
O  -11.57800 46.61300 40.81600
C  -13.62400 46.01300 41.73800
N  -14.30300 40.53100 42.48300
C  -14.71000 41.82600 42.54100
C  -16.15300 41.93800 42.98500
C  -16.56500 40.39500 43.29200
C  -15.17600 39.70200 42.94500
C  -16.54600 42.92000 44.19200
C  -17.72800 39.81700 42.41100
C  -19.07900 39.69600 43.09500
N  -12.80700 38.07000 42.25600
C  -13.89400 37.57300 42.89200
C  -13.71300 36.09600 43.07900
C  -12.43900 35.81300 42.38600
C  -12.02700 37.00200 41.85900
C  -14.57500 35.18600 43.86700
C  -11.54700 34.74400 42.16200
O  -11.63300 33.60900 42.56800
C  -10.42700 35.39500 41.19300
C  -9.17700 35.04200 41.84700
O  -8.59800 33.95600 41.73100
O  -8.59300 36.08300 42.41600
C  -7.37900 35.90800 43.18700
H  -8.63000 41.87700 39.73700
H  -14.43600 43.82100 42.59600
H  -15.81800 37.84300 43.75500
H  -7.97000 37.47000 40.54700
H  -8.39800 39.66700 38.61100
H  -6.74900 38.99900 40.98400
H  -6.87800 40.69800 40.77900
H  -6.09800 39.73400 39.57100
H  -8.37500 37.41700 37.78200
H  -9.70000 36.51200 38.55200
H  -8.20400 34.98700 39.04700
H  -6.83100 35.91700 39.36500
H  -9.89700 45.06700 38.79500
H  -8.78800 43.97700 39.43500
H  -9.05100 45.39300 40.36100
H  -14.40400 45.62800 41.08100
H  -13.65300 47.10100 41.79200
H  -13.60200 45.71800 42.78700
H  -16.74600 42.18100 42.10300
H  -16.88500 40.23400 44.32200
H  -17.08000 43.80200 43.84100
H  -15.64400 43.16500 44.75300
H  -17.19300 42.41200 44.90700
H  -17.47000 38.80600 42.09800
H  -17.85000 40.38300 41.48800
H  -19.48200 38.68400 43.05700
H  -19.86400 40.17800 42.51300
H  -19.02700 40.12100 44.09700
H  -14.30600 34.15900 43.62300
H  -15.57100 35.28900 43.43600
H  -14.42800 35.48500 44.90500
H  -10.41800 34.87400 40.23600
H  -6.86400 36.86800 43.14700
H  -6.66300 35.23600 42.71400
H  -7.44900 35.67300 44.24900

