158

Mg 1.85000 -2.11900 44.30900
C  5.07000 -1.15600 43.39400
C  0.50900 0.46300 42.41400
C  -1.20100 -3.46400 44.75600
C  3.22600 -4.84200 46.03500
N  2.72400 -0.65500 42.85700
C  4.09600 -0.41200 42.72700
C  4.31000 0.82100 41.85300
C  2.83100 1.49700 41.68700
C  1.95500 0.39300 42.34900
C  2.67300 2.92900 42.39800
C  5.06700 0.63600 40.55700
C  4.66000 -0.58100 39.63400
H  4.34900 -0.39200 38.19900
N  -0.08500 -1.55400 43.78200
C  -0.37100 -0.50900 42.94200
C  -1.88500 -0.39900 42.89300
C  -2.41300 -1.47100 43.62200
C  -1.21300 -2.21100 44.07500
C  -2.51500 0.81600 42.29200
C  -3.89600 -1.58100 44.02800
O  -4.64100 -0.68300 43.68000
C  -4.46200 -2.72100 44.77100
N  1.13300 -4.00600 45.11200
C  -0.20100 -4.29700 45.16700
C  -0.43100 -5.66700 45.72000
C  0.96400 -5.99000 46.38700
C  1.88000 -4.91600 45.70300
C  -1.64700 -5.80100 46.71600
C  1.42700 -7.50400 46.25700
C  1.45200 -8.33800 47.50900
N  3.73300 -2.87800 44.67400
C  4.12200 -3.91600 45.44100
C  5.60800 -3.88500 45.66400
C  5.98100 -2.78000 44.80700
C  4.81000 -2.25600 44.22200
C  6.38500 -4.79100 46.47000
C  7.15600 -2.05700 44.30300
O  8.31500 -2.10300 44.49700
C  6.58700 -1.03000 43.29300
C  7.04300 0.34800 43.66200
O  7.92600 0.95700 43.03200
O  6.31200 0.83800 44.79600
C  6.85500 2.02800 45.46300
H  0.03600 1.29800 41.89400
H  -2.19000 -3.89600 44.92100
H  3.69000 -5.63100 46.63100
H  4.95800 1.54000 42.35400
H  2.58800 1.55500 40.62600
H  3.37200 3.10600 43.21500
H  1.68900 2.98100 42.86400
H  2.83500 3.72100 41.66800
H  6.12900 0.44400 40.71000
H  5.01500 1.55800 39.97800
H  3.90000 -1.13100 40.19000
H  5.40800 -1.36800 39.73000
H  -3.49500 0.50600 41.92800
H  -1.95300 1.09300 41.40000
H  -2.53000 1.57000 43.08000
H  -5.48300 -2.48100 45.06700
H  -3.88900 -2.72400 45.69900
H  -4.40500 -3.66200 44.22300
H  -0.49800 -6.33900 44.86500
H  0.85300 -5.69700 47.43100
H  -2.05500 -4.84900 47.05500
H  -1.22300 -6.37400 47.54100
H  -2.47900 -6.32100 46.24100
H  2.47100 -7.66800 45.99200
H  0.72900 -7.99500 45.57700
H  2.35000 -8.05600 48.05900
H  1.46700 -9.39500 47.24300
H  0.60500 -8.22000 48.18500
H  7.28300 -4.33000 46.88000
H  6.65900 -5.64200 45.84600
H  5.88900 -5.28300 47.30700
H  6.91000 -1.28400 42.28300
H  7.87000 2.22800 45.11900
H  6.83100 2.01800 46.55200
H  6.26500 2.92700 45.28700
Mg 46.83600 16.65300 27.40900
C  45.01000 16.51000 30.41100
C  49.18900 18.43000 28.99600
C  48.32100 16.94500 24.40700
C  44.21800 15.00900 25.81500
N  46.91700 17.62000 29.51600
C  46.19700 17.22000 30.62200
C  46.88400 17.65400 31.91900
C  48.19100 18.50800 31.36500
C  48.14600 18.15300 29.91300
C  48.15700 19.98500 31.64100
C  47.33500 16.45700 32.73300
C  47.06300 16.56500 34.20700
H  47.05200 18.00700 34.82100
N  48.48400 17.64100 26.76900
C  49.39900 18.33400 27.58200
C  50.50600 18.75400 26.72100
C  50.21300 18.33800 25.40500
C  48.96700 17.63400 25.53400
C  51.64900 19.59800 27.29700
C  50.98400 18.62400 24.09500
O  50.70700 18.26500 22.96400
C  52.18400 19.48700 24.26200
N  46.37600 15.94200 25.36800
C  47.20400 16.14300 24.33700
C  46.67300 15.49000 23.01100
C  45.26300 14.88100 23.52500
C  45.30200 15.18800 25.03700
C  46.46600 16.66400 21.96100
C  45.01300 13.39500 23.09100
C  44.23500 13.26500 21.79600
N  45.05800 15.80300 28.00600
C  44.01400 15.27500 27.22100
C  42.85100 14.91000 28.02100
C  43.24000 15.44000 29.31400
C  44.56100 15.95700 29.17600
C  41.72400 14.08700 27.59800
C  42.82500 15.54600 30.72200
O  41.77500 15.14100 31.22200
C  44.05100 16.12000 31.46600
C  43.56300 17.20800 32.32100
O  43.16000 18.31400 31.99300
O  43.54300 16.68300 33.60300
C  42.68000 17.48900 34.46000
H  49.96100 18.92700 29.58600
H  48.86300 17.08100 23.46800
H  43.31200 14.63200 25.33600
H  46.29400 18.33600 32.53100
H  49.11700 18.13600 31.80300
H  49.05200 20.20600 32.22100
H  47.28500 20.27200 32.22900
H  48.17900 20.50300 30.68200
H  48.39900 16.22200 32.71100
H  46.81600 15.60400 32.29400
H  47.82100 15.98700 34.73600
H  46.18500 15.93800 34.36700
H  52.60900 19.12800 27.08500
H  51.66200 19.62800 28.38600
H  51.66000 20.60500 26.88100
H  51.88900 20.38300 24.80900
H  52.51000 19.92900 23.32000
H  52.99800 18.95900 24.75900
H  47.44200 14.79500 22.67400
H  44.45600 15.43300 23.04400
H  46.47700 17.63500 22.45600
H  45.46500 16.50600 21.55900
H  47.16300 16.59100 21.12600
H  44.45300 12.97100 23.92500
H  45.97800 12.89000 23.07100
H  44.90700 12.73300 21.12300
H  44.07800 14.21400 21.28400
H  43.29200 12.74200 21.95400
H  41.98200 13.07300 27.29500
H  41.29500 14.54400 26.70600
H  41.05700 14.08300 28.46000
H  44.56600 15.40100 32.10300
H  42.94500 18.54300 34.37200
H  42.63000 17.05400 35.45800
H  41.70800 17.45200 33.96700

