158

Mg -11.35400 37.65100 42.73300
C  -9.01900 35.05700 42.00400
C  -9.06700 39.83300 41.64000
C  -13.71200 40.00600 43.00500
C  -13.64800 35.17400 43.75000
N  -9.31400 37.40000 41.78300
C  -8.51300 36.31000 41.63500
C  -7.15100 36.64600 40.98600
C  -7.18600 38.23100 41.02000
C  -8.63500 38.53400 41.47200
C  -6.06400 38.99600 41.71200
C  -6.76400 35.95200 39.65900
C  -5.29900 35.63800 39.48700
H  -4.96300 34.72100 38.32800
N  -11.30200 39.62200 42.57800
C  -10.26100 40.35800 42.14400
C  -10.54600 41.74500 42.34400
C  -11.90500 41.91600 42.69500
C  -12.40200 40.49300 42.71500
C  -9.58500 42.79200 42.27000
C  -12.56300 43.26800 43.05900
O  -11.94800 44.30200 43.06900
C  -13.97600 43.24600 43.52800
N  -13.42000 37.54100 43.13400
C  -14.12400 38.68800 43.27100
C  -15.62600 38.37600 43.69000
C  -15.64700 36.79400 43.93600
C  -14.15900 36.44100 43.59600
C  -16.23400 39.16200 44.94900
C  -16.68900 36.01100 43.11500
C  -16.40600 35.62100 41.62400
N  -11.43300 35.51300 42.78400
C  -12.36100 34.68300 43.38500
C  -11.77800 33.31200 43.51600
C  -10.46800 33.44200 42.96300
C  -10.27500 34.75000 42.60700
C  -12.46900 32.19500 44.27300
C  -9.25300 32.78700 42.65400
O  -8.96900 31.66000 42.92700
C  -8.30700 33.73600 41.89600
C  -7.08600 33.68800 42.73200
O  -6.06800 33.06900 42.46700
O  -7.19700 34.39200 43.89800
C  -6.08700 34.18800 44.89500
H  -8.30400 40.55000 41.32700
H  -14.50500 40.72900 43.20900
H  -14.37700 34.45300 44.12700
H  -6.32600 36.36100 41.63900
H  -7.19000 38.60300 39.99500
H  -5.78300 39.68100 40.91300
H  -5.24700 38.30200 41.90800
H  -6.30000 39.41800 42.68900
H  -6.93100 36.70800 38.89200
H  -7.46800 35.14200 39.47000
H  -5.02500 35.01600 40.33900
H  -4.67000 36.52600 39.41800
H  -9.93400 43.40300 41.43700
H  -8.58100 42.36900 42.24500
H  -9.54100 43.24600 43.26000
H  -14.33200 44.24000 43.80100
H  -14.06300 42.66800 44.44800
H  -14.50400 42.85200 42.66000
H  -16.22100 38.55000 42.79300
H  -15.70600 36.53000 44.99100
H  -17.12600 39.62000 44.52300
H  -15.56400 39.90800 45.37700
H  -16.58500 38.52900 45.76400
H  -17.52800 36.70700 43.14600
H  -16.90800 35.12000 43.70300
H  -17.00900 34.73600 41.42100
H  -15.37100 35.29800 41.52100
H  -16.59500 36.49700 41.00300
H  -13.17300 32.59300 45.00400
H  -11.65800 31.63100 44.73500
H  -13.06500 31.53900 43.63900
H  -8.02400 33.39900 40.89800
H  -5.11200 34.54300 44.56100
H  -6.12400 33.24000 45.43200
H  -6.34000 34.88700 45.69200
Mg 1.89500 41.57900 26.56100
C  3.99800 41.86100 29.28600
C  -0.55700 40.57400 28.63500
C  -0.01100 40.98500 23.76700
C  4.41400 42.70400 24.47800
N  1.63200 41.69600 28.78300
C  2.65900 41.66200 29.67400
C  2.15000 41.79100 31.10600
C  0.70900 41.20200 30.86100
C  0.53100 41.11800 29.34500
C  0.42300 39.88600 31.66200
C  2.25500 43.22200 31.81000
C  2.49200 43.17000 33.37000
H  2.05300 41.86400 34.13000
N  -0.00500 40.86300 26.22600
C  -0.81800 40.39300 27.19800
C  -1.91300 39.69000 26.64700
C  -1.87400 39.90100 25.25600
C  -0.62400 40.61200 24.99000
C  -3.02400 39.00900 27.50500
C  -2.81700 39.51100 24.19700
O  -2.45500 39.56000 22.95900
C  -4.18400 38.96500 24.53500
N  2.24500 41.62800 24.29400
C  1.27900 41.34700 23.36100
C  1.67100 41.68100 21.90700
C  3.10800 42.33900 22.17000
C  3.30900 42.27000 23.71500
C  1.81500 40.38400 20.96400
C  3.30300 43.76600 21.67300
C  2.23500 44.81800 21.99800
N  3.87100 42.10300 26.81600
C  4.77800 42.61500 25.85200
C  6.05200 42.73300 26.54300
C  5.77300 42.47600 27.90100
C  4.47500 42.12500 27.98000
C  7.36200 42.93600 25.88400
C  6.42800 42.30800 29.18000
O  7.57100 42.35200 29.53300
C  5.22300 42.09000 30.15200
C  5.52400 40.99300 31.14600
O  5.94300 39.86900 30.86600
O  5.29900 41.31000 32.44400
C  5.43900 40.20400 33.40400
H  -1.37200 40.31900 29.31500
H  -0.52800 40.84500 22.81500
H  5.20900 43.09200 23.83800
H  2.69800 41.12300 31.77100
H  -0.00900 41.96900 31.15400
H  -0.34500 40.00900 32.42500
H  1.27100 39.69800 32.32200
H  0.29100 39.07300 30.94800
H  1.29300 43.73100 31.76700
H  2.97000 43.80700 31.23100
H  1.87200 43.94400 33.82300
H  3.53400 43.43900 33.54300
H  -3.65200 38.24300 27.05000
H  -3.54900 39.87600 27.90700
H  -2.37400 38.55800 28.25400
H  -4.61100 39.47900 25.39600
H  -3.93800 37.91600 24.69300
H  -4.92500 39.05900 23.74100
H  0.86700 42.34300 21.58300
H  3.91300 41.71300 21.78700
H  1.03700 40.32700 20.20200
H  1.83100 39.49700 21.59700
H  2.80200 40.39900 20.50200
H  3.34300 43.66900 20.58800
H  4.29400 44.05300 22.02300
H  2.82000 45.66400 22.36100
H  1.55300 44.48500 22.78000
H  1.61100 45.25700 21.22000
H  8.08200 42.17700 26.18900
H  7.68200 43.96200 26.06500
H  7.28500 42.80000 24.80500
H  5.10400 42.96600 30.79000
H  4.66800 39.44400 33.27900
H  5.23800 40.70300 34.35200
H  6.46800 39.84300 33.38300

