158

Mg 8.48300 48.10300 26.29300
C  6.15200 48.15700 28.96300
C  10.93800 48.66200 28.60500
C  10.71100 48.38300 23.78100
C  5.84000 47.59500 24.05300
N  8.53500 48.20600 28.58800
C  7.43800 48.16000 29.44500
C  7.94500 48.13100 30.86000
C  9.44300 48.66600 30.71500
C  9.72600 48.49000 29.21800
C  9.62800 50.10800 31.19800
C  7.84000 46.71700 31.62000
C  7.34000 46.90400 33.03200
H  8.02700 46.28800 34.31400
N  10.55700 48.45600 26.16500
C  11.39100 48.77100 27.25800
C  12.68900 49.15800 26.77100
C  12.66700 48.91700 25.38400
C  11.28200 48.53600 25.03200
C  13.77500 49.54800 27.73000
C  13.77300 48.94500 24.33700
O  13.61400 48.65800 23.12500
C  15.18700 49.18200 24.81700
N  8.33200 48.05000 24.19700
C  9.42100 48.13500 23.31200
C  9.01200 47.71800 21.86600
C  7.43400 47.48100 22.02000
C  7.17600 47.67400 23.52600
C  9.44900 48.70200 20.75500
C  6.96300 46.12300 21.46300
C  5.66900 46.12100 20.66300
N  6.46000 48.00600 26.35700
C  5.51500 47.82400 25.35000
C  4.22400 47.84000 25.89300
C  4.36900 47.96100 27.31000
C  5.78600 48.00800 27.56700
C  2.89800 47.65300 25.28100
C  3.63300 47.99500 28.62800
O  2.44700 47.85900 28.89300
C  4.80000 48.46900 29.67200
C  4.46900 47.84700 30.94500
O  4.55800 46.64900 31.18800
O  4.17600 48.69300 31.89700
C  3.77700 48.26300 33.20800
H  11.71200 48.90100 29.33800
H  11.38400 48.32700 22.92300
H  5.07600 47.20000 23.38100
H  7.48100 48.91300 31.46100
H  10.16200 48.16600 31.36400
H  8.72700 50.55500 31.61800
H  9.99500 50.76000 30.40500
H  10.37400 50.15300 31.99200
H  8.84200 46.28900 31.65600
H  7.11600 46.14400 31.04000
H  6.37400 46.40600 32.94300
H  7.27000 47.95300 33.32000
H  13.68700 48.81100 28.52800
H  13.47300 50.55900 28.00200
H  14.78400 49.49200 27.32100
H  15.42900 48.31200 25.42800
H  15.21400 50.16600 25.28400
H  15.92200 49.28100 24.01700
H  9.41100 46.72400 21.66400
H  6.86200 48.24200 21.49000
H  10.33100 49.29400 20.99900
H  8.63600 49.41300 20.60600
H  9.68400 48.21300 19.81000
H  6.69900 45.50800 22.32400
H  7.77800 45.74400 20.84700
H  5.29600 45.17000 20.28200
H  5.84300 46.79300 19.82300
H  4.86600 46.52200 21.28200
H  2.55200 48.66000 25.05000
H  2.19100 47.12700 25.92300
H  3.02400 47.23600 24.28200
H  4.83700 49.55800 29.69100
H  3.24300 49.14900 33.55000
H  4.69900 48.19700 33.78500
H  3.18600 47.35000 33.28700
Mg -0.15900 44.03500 26.56900
C  1.98300 43.84900 29.24700
C  -2.92200 43.35500 28.89500
C  -2.50800 43.58400 24.02000
C  2.35300 44.17500 24.30300
N  -0.44100 43.59300 28.81900
C  0.63800 43.65900 29.71000
C  0.07400 43.42600 31.10500
C  -1.41100 43.05800 30.89900
C  -1.58700 43.43400 29.42200
C  -1.88500 41.60700 31.25200
C  0.31900 44.68600 31.95600
C  0.29300 44.55300 33.49400
H  -0.02600 43.22300 34.08500
N  -2.39500 43.55400 26.53300
C  -3.27400 43.32600 27.50900
C  -4.60500 42.98800 27.06500
C  -4.54800 43.34600 25.65400
C  -3.08400 43.50600 25.34000
C  -5.70900 42.56300 27.96100
C  -5.66400 43.52700 24.63300
O  -5.44300 43.59600 23.43900
C  -7.05700 43.57400 25.22800
N  -0.04200 43.76600 24.40600
C  -1.14100 43.74100 23.58600
C  -0.70900 43.73000 22.18100
C  0.72400 44.24300 22.22000
C  1.08300 44.04500 23.70400
C  -0.90900 42.30300 21.64800
C  0.99700 45.65100 21.82000
C  1.61900 45.72800 20.37500
N  1.74600 44.10000 26.69200
C  2.74400 44.23600 25.70100
C  4.01500 44.34600 26.30300
C  3.78400 44.15400 27.72000
C  2.37600 44.03300 27.88600
C  5.32600 44.31700 25.58600
C  4.48200 44.08000 29.01300
O  5.68300 44.08500 29.32400
C  3.29100 43.81300 30.01800
C  3.48300 42.58100 30.68300
O  3.65400 41.53900 30.07900
O  3.69900 42.76300 32.01300
C  4.24500 41.59500 32.73200
H  -3.67100 43.14900 29.66300
H  -3.11500 43.48800 23.11700
H  3.13300 44.39800 23.57200
H  0.61000 42.57900 31.53400
H  -2.00200 43.77900 31.46400
H  -2.08500 41.02700 30.35100
H  -2.86300 41.60500 31.73400
H  -1.07300 41.20900 31.86000
H  -0.49800 45.37900 31.75800
H  1.24500 45.16500 31.63800
H  -0.35100 45.30100 33.95500
H  1.28700 44.85300 33.82700
H  -5.39500 42.30400 28.97200
H  -6.34900 41.81900 27.48700
H  -6.37100 43.41900 28.09300
H  -7.30500 44.55200 25.64000
H  -7.32200 42.73200 25.86800
H  -7.74000 43.49000 24.38300
H  -1.40500 44.42800 21.71600
H  1.36400 43.54400 21.68100
H  -1.92900 42.14200 21.29800
H  -0.62400 41.56500 22.39700
H  -0.25500 42.24300 20.77800
H  1.59900 46.15600 22.57500
H  0.05000 46.19000 21.85700
H  1.24400 46.66600 19.96700
H  1.35200 44.87900 19.74600
H  2.66200 46.00000 20.53300
H  5.06100 44.67400 24.59100
H  5.68000 43.28700 25.57400
H  6.02800 44.96400 26.11200
H  3.24800 44.61600 30.75300
H  5.31800 41.70100 32.57300
H  3.93400 40.56800 32.54000
H  4.03800 41.90400 33.75700

