158

Mg 2.20700 -1.66000 44.68400
C  5.47400 -0.85200 44.25300
C  1.46800 0.80800 42.37600
C  -0.88500 -2.75200 44.60100
C  3.19900 -4.52300 46.63900
N  3.40000 -0.27200 43.25600
C  4.71500 -0.08900 43.42100
C  5.24500 0.98700 42.41000
C  3.91400 1.61800 41.83500
C  2.87300 0.74100 42.60600
C  3.76100 3.12400 41.98000
C  6.23000 0.48700 41.29500
C  7.42500 1.44900 41.09600
H  7.63200 1.91300 39.65300
N  0.56700 -1.06000 43.70400
C  0.43400 0.02400 42.86100
C  -1.02800 0.28000 42.56900
C  -1.65500 -0.86200 43.02700
C  -0.69100 -1.59200 43.86100
C  -1.47500 1.41700 41.67500
C  -3.15200 -1.18200 42.70800
O  -3.81400 -0.62000 41.86400
C  -3.84800 -2.26500 43.42700
N  1.29000 -3.53600 45.42900
C  -0.05100 -3.62500 45.34300
C  -0.61600 -4.90500 46.05700
C  0.77500 -5.53700 46.63100
C  1.81800 -4.48300 46.21500
C  -1.58900 -4.51800 47.23300
C  1.09900 -6.90400 45.94900
C  1.23400 -8.18600 46.85500
N  3.93300 -2.54400 45.35300
C  4.19200 -3.68000 46.17000
C  5.62900 -3.84300 46.32500
C  6.19800 -2.67600 45.66300
C  5.10700 -1.91200 45.11300
C  6.37000 -4.90000 47.17500
C  7.40100 -1.87700 45.32800
O  8.57100 -2.15300 45.51200
C  6.97400 -0.66300 44.51300
C  7.19300 0.67400 45.21800
O  6.68600 1.12900 46.23500
O  7.87700 1.45600 44.41100
C  8.14600 2.84300 44.80900
H  1.19200 1.55800 41.63100
H  -1.92300 -3.06900 44.72100
H  3.52000 -5.45000 47.11900
H  5.69500 1.76000 43.03300
H  3.83300 1.46000 40.76000
H  3.57600 3.46400 40.96100
H  4.68600 3.59100 42.31600
H  2.90800 3.38500 42.60600
H  5.64800 0.43700 40.37400
H  6.44900 -0.53900 41.59000
H  8.27500 0.77900 41.23000
H  7.39400 2.27700 41.80400
H  -2.54800 1.54200 41.52800
H  -0.98200 1.19300 40.73000
H  -0.90900 2.27600 42.03600
H  -3.79100 -2.18000 44.51200
H  -3.50200 -3.25200 43.12100
H  -4.91300 -2.12100 43.24400
H  -1.06900 -5.58000 45.33100
H  0.82400 -5.57000 47.71900
H  -1.05200 -4.23900 48.14000
H  -2.14400 -5.43100 47.44700
H  -2.27800 -3.68900 47.07400
H  2.07800 -6.75900 45.49200
H  0.37100 -7.13000 45.16900
H  2.27800 -8.48600 46.93900
H  0.86900 -9.08700 46.36100
H  0.78800 -8.05200 47.84000
H  5.75300 -5.02300 48.06500
H  7.43500 -4.81600 47.39200
H  6.35000 -5.77600 46.52700
H  7.50800 -0.57500 43.56700
H  7.24800 3.38200 45.10900
H  8.61200 3.48600 44.06300
H  8.85400 2.85300 45.63800
Mg 43.58500 4.33000 46.69600
C  41.73900 7.41000 46.65000
C  40.58800 2.65600 46.60300
C  45.22500 1.62800 45.83200
C  46.61200 6.23700 46.36300
N  41.49500 5.01500 46.62200
C  40.95200 6.27100 46.64300
C  39.39500 6.27500 46.68200
C  39.11300 4.72600 46.78200
C  40.48100 4.05000 46.71900
C  38.20100 4.15600 47.93900
C  38.69400 6.94100 45.44000
C  39.20700 6.55100 44.08500
H  40.00500 7.56100 43.24200
N  42.99800 2.32700 46.57400
C  41.71300 1.81700 46.47100
C  41.73400 0.41100 46.22000
C  43.06900 0.00500 46.13300
C  43.84900 1.31000 46.13100
C  40.49900 -0.45400 46.18900
C  43.57500 -1.38600 45.96700
O  42.76700 -2.36000 45.88200
C  45.05800 -1.61100 46.16400
N  45.60100 4.03200 46.23700
C  46.05000 2.75200 46.03600
C  47.49900 2.66100 45.78700
C  48.03600 3.97900 46.29400
C  46.73100 4.81600 46.32300
C  48.24500 1.40800 46.32500
C  49.16800 4.65100 45.41300
C  50.18800 5.40300 46.23400
N  44.16300 6.39600 46.48800
C  45.41300 7.00000 46.43800
C  45.20400 8.46700 46.39500
C  43.80100 8.64600 46.58400
C  43.19300 7.35100 46.57700
C  46.27500 9.51700 46.35800
C  42.79000 9.62700 46.86000
O  42.90300 10.85200 47.06200
C  41.42600 8.87800 46.85300
C  40.65800 9.07100 48.14900
O  41.01500 8.77400 49.25300
O  39.47500 9.71700 47.96100
C  38.53300 9.74600 49.07200
H  39.61100 2.17500 46.52900
H  45.82200 0.80400 45.43600
H  47.50300 6.84200 46.54400
H  39.16600 6.81900 47.59800
H  38.63900 4.35200 45.87400
H  38.68900 3.49800 48.65900
H  37.43000 3.54800 47.46600
H  37.71700 4.92600 48.53900
H  38.77500 8.02400 45.53100
H  37.63900 6.66800 45.47000
H  38.32000 6.36800 43.47900
H  39.77200 5.62600 44.20200
H  40.82400 -1.47600 46.38300
H  40.17300 -0.49400 45.14900
H  39.74000 -0.25800 46.94600
H  45.46800 -0.85000 46.82900
H  45.59000 -1.66800 45.21400
H  45.10900 -2.54800 46.71800
H  47.68900 2.68000 44.71300
H  48.29100 3.77800 47.33500
H  47.75800 0.97600 47.20000
H  49.21700 1.73300 46.69500
H  48.45300 0.64400 45.57500
H  48.70200 5.38200 44.75200
H  49.75000 3.94200 44.82400
H  51.15100 4.89200 46.25000
H  49.85900 5.46700 47.27200
H  50.40600 6.41800 45.90300
H  45.87900 10.43300 45.92000
H  47.11700 9.21400 45.73600
H  46.61100 9.72700 47.37300
H  40.74800 9.31700 46.12100
H  38.64600 10.66300 49.65000
H  38.48600 8.89700 49.75500
H  37.53700 9.80500 48.63200

