158

Mg 35.84300 50.04900 25.56400
C  35.48600 48.49800 28.63000
C  35.12900 53.13000 27.04700
C  35.49800 51.64000 22.46400
C  36.39000 47.07400 23.97700
N  35.18200 50.63900 27.52400
C  35.20800 49.88600 28.67500
C  35.05800 50.66900 29.99800
C  34.90600 52.10600 29.43400
C  35.08400 51.97000 27.90600
C  33.53800 52.81100 29.90200
C  36.16300 50.54400 31.14400
C  35.72600 49.92600 32.44000
H  34.29600 50.21200 33.11500
N  35.39500 52.15300 24.88100
C  35.16200 53.21900 25.64700
C  34.86600 54.36900 24.84700
C  34.94800 53.94800 23.52300
C  35.28100 52.58900 23.56800
C  34.51800 55.76500 25.32900
C  34.84900 54.74100 22.18500
O  34.91100 54.16700 21.09800
C  34.84000 56.22400 22.23400
N  35.81900 49.36900 23.46100
C  35.74600 50.26200 22.40800
C  36.04800 49.57100 21.06000
C  36.40200 48.07700 21.57400
C  36.19700 48.16100 23.11200
C  34.77500 49.54900 20.09500
C  37.80800 47.53700 21.03400
C  38.95000 48.03200 21.96900
N  35.87900 48.14600 26.17700
C  36.24200 47.09700 25.40300
C  36.31500 45.93000 26.33500
C  35.93800 46.43500 27.62900
C  35.74300 47.78300 27.43200
C  36.79500 44.58500 25.93800
C  35.88800 46.11400 29.01700
O  36.02400 45.02400 29.69900
C  35.56200 47.46100 29.75400
C  34.24100 47.10000 30.34400
O  33.20000 47.61900 29.96800
O  34.34900 46.38600 31.54500
C  33.17100 46.02400 32.28100
H  34.94400 54.03100 27.63500
H  35.47700 51.96300 21.42100
H  36.76400 46.14300 23.54700
H  34.10500 50.37600 30.43700
H  35.76000 52.69300 29.77000
H  33.78900 53.85800 30.07300
H  33.10100 52.38100 30.80200
H  32.78200 52.76100 29.11800
H  36.73700 51.46700 31.22600
H  36.85500 49.82400 30.71000
H  36.36200 50.38900 33.19500
H  36.01100 48.87500 32.40900
H  34.35800 55.78500 26.40700
H  33.66900 56.15600 24.76800
H  35.54300 56.12400 25.24000
H  35.46800 56.65300 23.01400
H  33.87600 56.67300 22.47200
H  35.23000 56.48800 21.25100
H  36.92300 49.97900 20.55200
H  35.62300 47.38500 21.25400
H  33.98900 50.24000 20.40000
H  34.22900 48.60900 20.17100
H  35.02900 49.80600 19.06600
H  38.06700 47.79700 20.00800
H  37.70300 46.46800 21.22100
H  39.23300 47.19200 22.60400
H  38.59200 48.74400 22.71300
H  39.70600 48.64100 21.47400
H  36.01800 43.99300 25.45300
H  37.09600 44.12400 26.87900
H  37.63700 44.59100 25.24600
H  36.44400 47.49700 30.39400
H  32.87300 45.00400 32.03700
H  32.33300 46.66800 32.01100
H  33.45700 45.98500 33.33200
Mg 15.96400 51.52800 25.95800
C  18.07900 50.47800 28.57600
C  13.60900 52.39800 28.27900
C  14.14300 52.70600 23.44000
C  18.48100 50.40000 23.72700
N  15.93500 51.51400 28.22000
C  16.89900 51.10200 29.06800
C  16.48900 51.39300 30.45900
C  14.93100 51.59800 30.33000
C  14.77400 51.90600 28.88400
C  14.12100 50.41500 30.82200
C  17.23300 52.61000 31.10800
C  16.84500 53.17400 32.44500
H  16.11400 52.19400 33.41000
N  14.10700 52.49200 25.85800
C  13.28200 52.75700 26.88100
C  12.07700 53.40400 26.37800
C  12.15500 53.52100 24.95200
C  13.56600 52.90700 24.71400
C  11.01100 53.79800 27.33600
C  11.23400 54.09800 23.90000
O  11.44900 53.93700 22.68900
C  9.99900 54.85300 24.31600
N  16.35100 51.50500 23.82500
C  15.32700 52.07800 23.00900
C  15.71000 51.93700 21.49600
C  17.21000 51.40600 21.58300
C  17.40800 51.09400 23.06100
C  14.71200 51.03700 20.71000
C  18.43000 52.27900 21.06800
C  19.33800 51.59300 19.99300
N  17.83700 50.49100 26.04800
C  18.72600 50.13600 25.09600
C  19.83100 49.42800 25.63200
C  19.61800 49.49300 27.03100
C  18.44300 50.27900 27.19700
C  20.97700 48.84000 24.95400
C  20.19300 49.25400 28.32300
O  21.27000 48.75000 28.62000
C  19.18600 49.95700 29.35700
C  18.75200 48.96900 30.40200
O  17.99400 47.96000 30.29100
O  19.30400 49.40400 31.53400
C  18.79100 48.79000 32.75900
H  12.87900 52.60800 29.06400
H  13.78600 53.32800 22.61700
H  19.26400 49.98000 23.09300
H  16.59600 50.47700 31.04100
H  14.65400 52.50000 30.87800
H  13.42200 50.72800 31.59800
H  14.60700 49.53500 31.24300
H  13.58800 50.06300 29.93900
H  17.13100 53.39300 30.35600
H  18.27400 52.31100 31.22800
H  16.08600 53.94100 32.29200
H  17.68900 53.64400 32.95100
H  10.58700 54.74400 27.00000
H  11.39700 53.90100 28.35000
H  10.25100 53.01800 27.34500
H  10.46600 55.76200 24.69600
H  9.42800 54.19200 24.96900
H  9.49200 55.13100 23.39200
H  15.66900 52.95700 21.11500
H  17.21200 50.43000 21.09900
H  15.18500 50.23400 20.14500
H  14.24500 51.64000 19.93100
H  13.95000 50.58400 21.34500
H  19.04800 52.48500 21.94200
H  18.10200 53.24300 20.68000
H  19.25600 52.15400 19.06200
H  19.04200 50.56200 19.79600
H  20.37700 51.44900 20.29000
H  21.77800 48.50900 25.61500
H  21.50500 49.53600 24.30100
H  20.51200 47.98500 24.46300
H  19.76900 50.69700 29.90500
H  19.38300 49.00800 33.64800
H  18.85900 47.70400 32.69400
H  17.71400 48.95900 32.79200

