158

Mg 1.23400 7.62600 25.40600
C  1.73000 9.50300 28.29400
C  1.78500 4.78300 27.40900
C  0.89300 5.88400 22.60000
C  1.50700 10.61500 23.60600
N  1.82300 7.21900 27.56700
C  1.74300 8.15700 28.53400
C  1.76000 7.47100 29.92100
C  2.14800 5.94300 29.63300
C  1.94200 5.96900 28.11200
C  3.53300 5.54400 30.04300
C  0.33700 7.66800 30.62900
C  0.38900 7.87500 32.21500
H  1.67700 7.58400 32.96200
N  1.31400 5.61100 25.03700
C  1.42700 4.56200 26.07200
C  1.25900 3.29100 25.35800
C  1.01700 3.60900 23.96800
C  0.98800 5.08800 23.79600
C  1.29300 1.92300 26.03600
C  0.77300 2.58400 22.83700
O  0.33800 2.96300 21.74600
C  1.17600 1.13100 23.01000
N  1.15700 8.20600 23.39800
C  0.95400 7.25400 22.43200
C  1.01400 7.90800 21.02400
C  0.81900 9.46900 21.30000
C  1.26800 9.45700 22.82700
C  2.32000 7.71400 20.15700
C  -0.65900 9.96000 21.02800
C  -0.77800 11.14300 20.02800
N  1.53100 9.66500 25.82200
C  1.59800 10.74100 24.96400
C  1.79800 11.96600 25.75500
C  1.81700 11.47700 27.08000
C  1.57900 10.10700 27.05300
C  2.09300 13.35600 25.22200
C  2.11900 11.94300 28.41500
O  2.51700 13.05600 28.75300
C  1.91900 10.68800 29.27600
C  3.07900 10.56900 30.14600
O  4.13200 9.97300 29.98600
O  2.76200 11.22500 31.34000
C  3.69300 11.16500 32.45300
H  1.97100 3.89100 28.01000
H  0.72200 5.27100 21.71300
H  1.39400 11.59000 23.12700
H  2.51900 7.88400 30.58500
H  1.43800 5.24000 30.06800
H  4.10600 6.17800 30.71900
H  4.12100 5.28600 29.16200
H  3.32800 4.57700 30.50200
H  -0.24500 6.75500 30.50400
H  -0.23600 8.51700 30.25600
H  -0.45700 7.35400 32.66500
H  0.29200 8.94700 32.38300
H  1.99700 1.17400 25.67300
H  0.32600 1.44600 25.87500
H  1.39700 2.05900 27.11300
H  1.10800 0.48000 22.13800
H  0.45000 0.70100 23.70100
H  2.16400 0.99400 23.44900
H  0.20500 7.56300 20.38000
H  1.50300 10.11100 20.74400
H  2.77000 8.64200 19.80300
H  2.27100 6.90900 19.42300
H  3.01700 7.22400 20.83700
H  -1.18400 10.30000 21.92000
H  -1.29400 9.19600 20.58000
H  -1.61000 11.00200 19.33800
H  0.07900 11.27900 19.36800
H  -0.93500 12.05300 20.60800
H  1.73400 13.46900 24.19900
H  3.16100 13.57200 25.26900
H  1.61800 14.05600 25.90900
H  1.04100 10.89800 29.88700
H  3.25300 11.37300 33.42800
H  4.52700 11.84400 32.27400
H  4.06800 10.14200 32.41600
Mg 46.48900 24.84300 28.57900
C  46.97300 26.88700 31.41100
C  45.12500 22.53400 30.69100
C  46.67000 22.70900 26.05200
C  47.78000 27.36500 26.54800
N  46.29500 24.73500 30.84300
C  46.43000 25.67500 31.72100
C  45.96400 25.30500 33.19800
C  45.41800 23.82500 32.87900
C  45.61300 23.73900 31.35500
C  46.12100 22.67000 33.63900
C  44.90200 26.31100 33.78300
C  45.05600 26.94600 35.16700
H  44.05100 26.71900 36.26500
N  45.90200 22.85300 28.39500
C  45.31600 22.11000 29.36000
C  44.92500 20.87300 28.65900
C  45.61900 20.76700 27.41000
C  46.07900 22.18000 27.23000
C  44.16800 19.78400 29.37300
C  45.62900 19.53300 26.41300
O  46.04600 19.61900 25.27200
C  45.08200 18.21000 26.84300
N  47.18300 25.08000 26.57800
C  47.12500 23.97500 25.69000
C  47.82600 24.37400 24.32900
C  47.87800 25.94400 24.43800
C  47.53800 26.15300 25.91600
C  49.18400 23.71400 24.03600
C  46.99300 26.72800 23.38300
C  45.45200 26.71300 23.41600
N  47.20100 26.74300 28.85400
C  47.70700 27.68000 27.93000
C  48.06500 28.88600 28.52700
C  47.83000 28.60900 29.94600
C  47.31200 27.30200 30.09700
C  48.67300 30.03100 27.85900
C  47.91700 29.23000 31.21800
O  48.24500 30.38800 31.53300
C  47.52500 28.02300 32.28500
C  48.75300 27.70100 32.99900
O  49.73200 27.09000 32.49500
O  48.62000 27.78400 34.39200
C  49.70900 27.17600 35.19300
H  44.70900 21.75600 31.33400
H  46.74400 21.86400 25.36300
H  48.31500 28.07100 25.90900
H  46.91700 25.32900 33.72500
H  44.36700 23.65800 33.11700
H  45.49200 22.25400 34.42600
H  47.00700 23.12700 34.08200
H  46.41600 21.91700 32.90800
H  43.89000 25.90500 33.77000
H  44.86300 27.17200 33.11600
H  45.34800 27.98900 35.03800
H  45.92400 26.42700 35.57200
H  43.45700 19.35300 28.66900
H  43.50500 20.14000 30.16100
H  44.78000 18.97600 29.77500
H  45.36600 17.79000 27.80800
H  45.53000 17.45400 26.19800
H  43.99500 18.20100 26.77000
H  47.10400 24.12100 23.55200
H  48.91200 26.29000 24.41600
H  49.86800 24.25300 23.37900
H  49.05800 22.71100 23.62900
H  49.75300 23.62800 24.96100
H  47.42900 26.45000 22.42400
H  47.29500 27.77400 23.32900
H  45.12600 25.99100 24.16400
H  45.23200 26.44000 22.38400
H  45.03800 27.68900 23.66500
H  49.50500 29.72600 27.22400
H  49.05700 30.70500 28.62500
H  47.95200 30.65800 27.33400
H  46.73100 28.37100 32.94500
H  49.68900 27.60400 36.19500
H  50.68500 27.31800 34.72700
H  49.35700 26.14500 35.16700

