158

Mg 25.45400 -8.07900 47.79300
C  28.28000 -5.88300 47.05700
C  23.83400 -6.48000 45.19800
C  23.28800 -10.55100 47.68600
C  27.68500 -10.01000 49.74100
N  26.08700 -6.43600 46.28700
C  27.25600 -5.72600 46.13100
C  27.15400 -4.83500 44.92300
C  25.64400 -4.97200 44.52700
C  25.11500 -6.09000 45.36300
C  24.85900 -3.63100 44.59400
C  28.05000 -5.12200 43.71100
C  28.70200 -3.86900 43.09300
H  28.19600 -3.38100 41.74300
N  23.66500 -8.31300 46.82000
C  23.12900 -7.48800 45.83900
C  21.77800 -7.93100 45.50300
C  21.59400 -9.08300 46.29400
C  22.84700 -9.38200 47.00600
C  20.90800 -7.28600 44.48600
C  20.18000 -9.85100 46.48900
O  19.24200 -9.54400 45.81500
C  19.95200 -10.89900 47.49400
N  25.63500 -10.11000 48.46500
C  24.49500 -10.91700 48.39700
C  24.66600 -12.07200 49.33400
C  26.11000 -11.96700 49.86500
C  26.47400 -10.61000 49.36700
C  23.59600 -12.22600 50.43200
C  27.11200 -13.15300 49.28900
C  27.67500 -13.97400 50.43200
N  27.47900 -7.93400 48.44000
C  28.23100 -8.77600 49.22600
C  29.52500 -8.38900 49.26700
C  29.51700 -7.15800 48.56200
C  28.25300 -6.94000 48.03900
C  30.65000 -9.11800 49.82300
C  30.46100 -6.12100 48.13100
O  31.61700 -5.87300 48.47700
C  29.66300 -5.25000 47.09000
C  29.59900 -3.78100 47.41300
O  29.85300 -3.30800 48.51200
O  29.37000 -3.13800 46.26700
C  29.65600 -1.65700 46.29300
H  23.25800 -5.97700 44.41800
H  22.54200 -11.33900 47.81100
H  28.21300 -10.65900 50.44200
H  27.36500 -3.82800 45.28300
H  25.54000 -5.39000 43.52600
H  23.84600 -3.77400 44.21800
H  25.27900 -2.88900 43.91400
H  24.82900 -3.24400 45.61300
H  27.44200 -5.56700 42.92300
H  28.79500 -5.90400 43.85600
H  29.73800 -4.17300 42.94800
H  28.61200 -3.02400 43.77500
H  21.14100 -7.48400 43.44000
H  21.06800 -6.21100 44.40700
H  19.87500 -7.51200 44.75100
H  20.32000 -10.61900 48.48200
H  20.56200 -11.71600 47.10900
H  18.93000 -11.26600 47.58800
H  24.56400 -12.90600 48.64000
H  26.12000 -11.95400 50.95500
H  23.36800 -13.29200 50.41700
H  22.67000 -11.68000 50.25200
H  24.04700 -11.85100 51.35100
H  27.95300 -12.68900 48.77400
H  26.70900 -13.73900 48.46300
H  28.71100 -13.75800 50.69600
H  27.75000 -15.04900 50.26600
H  27.12100 -13.83300 51.36000
H  30.77500 -9.96000 49.14300
H  30.36200 -9.69500 50.70200
H  31.64100 -8.66900 49.88700
H  30.20400 -5.32700 46.14700
H  29.99400 -1.22500 47.23500
H  28.76900 -1.13100 45.93800
H  30.42900 -1.48200 45.54400
Mg -9.52200 40.72400 42.79100
C  -8.44800 37.44700 41.64800
C  -7.05100 41.89800 40.62800
C  -10.63800 43.69200 43.30600
C  -12.35600 39.18800 44.10200
N  -7.95900 39.75600 41.32500
C  -7.59400 38.42200 41.17000
C  -6.46500 38.25700 40.16500
C  -5.94400 39.72600 39.98600
C  -7.06000 40.51900 40.71200
C  -4.48200 40.00900 40.53100
C  -6.67500 37.45300 38.81200
C  -5.68600 36.41000 38.48600
H  -4.76100 36.55200 37.32800
N  -8.86400 42.64100 42.14600
C  -7.84900 42.87800 41.19800
C  -7.72700 44.29900 41.16400
C  -8.65000 44.87800 42.09400
C  -9.45600 43.78000 42.51100
C  -6.60400 44.97400 40.47200
C  -8.73400 46.35800 42.48800
O  -7.90400 47.11500 42.11200
C  -9.84000 46.87800 43.33000
N  -11.23200 41.31700 43.54900
C  -11.39100 42.63600 43.75200
C  -12.71800 42.96100 44.50400
C  -13.25900 41.51700 44.84700
C  -12.29000 40.61000 44.08500
C  -12.61400 44.01700 45.67900
C  -14.73500 41.17400 44.72800
C  -15.46900 40.55500 45.94400
N  -10.26800 38.70900 43.04500
C  -11.45700 38.26600 43.58100
C  -11.52400 36.81900 43.52000
C  -10.33300 36.48900 42.81700
C  -9.63200 37.64600 42.47500
C  -12.68300 35.97100 44.00800
C  -9.59800 35.33800 42.30700
O  -10.05400 34.21000 42.25300
C  -8.37800 35.92800 41.50600
C  -7.15600 35.33700 42.20800
O  -6.92300 35.37600 43.40200
O  -6.35700 34.82300 41.28000
C  -4.97700 34.44400 41.70400
H  -6.22200 42.29200 40.03600
H  -11.03300 44.63500 43.69100
H  -13.23400 38.63500 44.44400
H  -5.72600 37.74600 40.78300
H  -5.89000 40.00700 38.93400
H  -4.59300 40.76700 41.30600
H  -3.76600 40.31600 39.76900
H  -4.04900 39.11500 40.98100
H  -6.65600 38.21000 38.02800
H  -7.71600 37.13000 38.78900
H  -6.16100 35.43500 38.37300
H  -5.07100 36.31500 39.38100
H  -6.81600 45.94800 40.03200
H  -5.98600 44.41400 39.77100
H  -5.86200 45.11600 41.25800
H  -9.77300 46.31500 44.26200
H  -10.81400 46.78000 42.85200
H  -9.68400 47.94600 43.48100
H  -13.39600 43.38100 43.76100
H  -13.01200 41.49500 45.90900
H  -13.25300 44.85700 45.40700
H  -11.55100 44.25000 45.73500
H  -12.88200 43.51200 46.60600
H  -14.86600 40.51000 43.87400
H  -15.12500 42.16200 44.48200
H  -15.82200 39.53600 45.78500
H  -16.35300 41.18500 46.03500
H  -14.88900 40.61800 46.86500
H  -12.92200 36.30500 45.01800
H  -12.46100 34.90700 43.93300
H  -13.56600 36.13600 43.39100
H  -8.49200 35.54800 40.49100
H  -4.47100 35.29200 42.16500
H  -4.38200 34.11000 40.85400
H  -4.89500 33.58600 42.37100

