158

Mg 24.37400 -5.60100 46.14700
C  26.56800 -3.27900 44.68600
C  21.96000 -4.48000 44.23800
C  22.89600 -8.42000 47.03400
C  27.35400 -6.84200 47.88900
N  24.38700 -4.25500 44.27800
C  25.37600 -3.32900 43.95700
C  24.76900 -2.28700 42.97600
C  23.27800 -2.50500 43.05000
C  23.18600 -3.83100 43.91800
C  22.37000 -1.42100 43.55600
C  25.39600 -2.42100 41.54800
C  25.38700 -1.13400 40.62900
H  24.39800 -1.14600 39.48000
N  22.68200 -6.26100 45.82700
C  21.76300 -5.68400 45.01500
C  20.57600 -6.57800 45.02200
C  20.78200 -7.70800 45.82300
C  22.18700 -7.54800 46.26900
C  19.30700 -6.10800 44.24300
C  19.81000 -8.75200 46.07300
O  18.70600 -8.64400 45.54100
C  20.07800 -9.94900 46.81300
N  25.07000 -7.36700 47.28800
C  24.19100 -8.39300 47.53700
C  24.88300 -9.58300 48.21900
C  26.11600 -8.89300 48.81600
C  26.25400 -7.67700 47.83300
C  23.97200 -10.28800 49.29100
C  27.39200 -9.73000 48.83700
C  28.31500 -9.56900 50.10000
N  26.57900 -5.08100 46.39000
C  27.58900 -5.65200 47.13300
C  28.77500 -4.86900 47.08100
C  28.39600 -3.83200 46.14200
C  27.05500 -4.09200 45.70600
C  30.02100 -5.26000 47.75200
C  28.89100 -2.78700 45.36100
O  30.02600 -2.34400 45.26900
C  27.77300 -2.41900 44.36900
C  27.43200 -0.99800 44.35400
O  26.71100 -0.43900 45.14900
O  27.95400 -0.33300 43.30300
C  27.65100 1.09700 43.21200
H  21.09900 -4.07500 43.70300
H  22.39400 -9.34100 47.33800
H  28.16300 -7.32600 48.44100
H  25.09800 -1.32800 43.37600
H  22.90700 -2.73500 42.05100
H  23.06400 -0.88800 44.20600
H  21.53700 -1.76400 44.17000
H  22.05300 -0.77500 42.73700
H  24.78700 -3.15500 41.02000
H  26.38600 -2.86400 41.65500
H  26.38700 -0.95200 40.23500
H  25.14500 -0.22900 41.18500
H  19.12000 -6.71100 43.35400
H  19.46800 -5.12000 43.81200
H  18.35600 -5.96300 44.75700
H  19.17800 -10.42900 47.19800
H  20.54600 -9.64900 47.75100
H  20.60700 -10.76000 46.31200
H  25.17200 -10.29400 47.44500
H  25.95700 -8.50000 49.82000
H  23.85000 -11.35300 49.09300
H  22.99500 -9.81200 49.37500
H  24.50800 -10.28100 50.24000
H  27.92300 -9.39100 47.94700
H  27.12000 -10.78300 48.76400
H  27.72300 -9.41400 51.00300
H  29.02400 -8.75900 49.93100
H  28.81400 -10.52300 50.27300
H  30.15800 -4.78700 48.72500
H  30.83800 -4.93100 47.10900
H  30.07700 -6.32900 47.95500
H  28.24000 -2.65200 43.41100
H  26.82600 1.20700 42.50700
H  28.50400 1.60800 42.76400
H  27.51900 1.60300 44.16800
Mg 47.29400 16.23700 28.68800
C  45.03600 16.21400 31.27600
C  49.29900 18.30300 30.51400
C  49.13700 16.56500 25.91600
C  44.69600 14.83100 26.65000
N  47.16100 17.07600 30.66000
C  46.27100 16.73800 31.63200
C  46.69200 17.19900 33.02700
C  47.84500 18.23800 32.70400
C  48.09300 17.87300 31.17700
C  47.46200 19.77600 32.98400
C  47.06600 15.93800 33.89500
C  46.44700 15.97100 35.28200
H  46.35100 17.32100 36.10700
N  49.07800 17.20100 28.30400
C  49.75300 17.99000 29.17600
C  51.04700 18.36300 28.57400
C  51.03400 17.91700 27.20700
C  49.69600 17.21200 27.06400
C  52.07300 19.07000 29.44000
C  52.07300 18.09400 26.11300
O  51.90500 17.58800 25.01400
C  53.41800 18.85700 26.31200
N  46.99000 15.75900 26.59900
C  47.92700 15.89100 25.67200
C  47.57600 15.37100 24.27200
C  46.19700 14.65400 24.66100
C  45.88800 15.15500 26.09200
C  47.54800 16.60200 23.27600
C  46.48700 13.13100 24.62100
C  46.62700 12.42500 23.24200
N  45.28800 15.62100 28.78500
C  44.39100 14.98100 27.94800
C  43.16700 14.62500 28.72000
C  43.37100 15.17700 29.98700
C  44.65100 15.76700 29.98100
C  42.05000 13.83800 28.08100
C  42.74500 15.33700 31.28000
O  41.68100 14.92200 31.64100
C  43.84900 15.87400 32.18900
C  43.28300 16.86600 33.08000
O  42.78300 17.88100 32.69600
O  43.32300 16.37500 34.36000
C  42.40300 17.08500 35.23900
H  50.01500 18.82400 31.15400
H  49.75900 16.63900 25.02200
H  43.94200 14.29700 26.06900
H  45.82500 17.69100 33.46800
H  48.76700 18.06600 33.25900
H  46.42700 19.83700 33.32200
H  47.64500 20.21900 32.00400
H  48.23500 20.21600 33.61300
H  48.13400 15.83000 34.08000
H  46.74600 15.03200 33.37900
H  47.12800 15.33100 35.84300
H  45.44300 15.55200 35.21400
H  51.67400 19.98900 29.86800
H  52.97800 19.46100 28.97500
H  52.39800 18.47500 30.29300
H  54.04000 18.41200 27.08900
H  53.17600 19.79000 26.82000
H  53.97900 19.15300 25.42500
H  48.35700 14.64700 24.03800
H  45.44200 14.95200 23.93400
H  47.83500 17.54300 23.74400
H  46.53500 16.79600 22.92400
H  48.25700 16.41400 22.46900
H  45.56000 12.72700 25.02900
H  47.32900 12.93700 25.28500
H  47.68400 12.17600 23.14900
H  46.25400 13.03300 22.41800
H  46.09200 11.48700 23.09700
H  42.40100 12.84300 27.80800
H  41.72400 14.25500 27.12800
H  41.21700 13.83100 28.78300
H  44.23000 14.98500 32.69200
H  41.34900 16.97400 34.98400
H  42.68600 18.13700 35.22800
H  42.45500 16.67400 36.24800

