158

Mg 16.97300 51.19800 26.31100
C  18.80800 50.40500 29.16800
C  14.44500 52.30100 28.35600
C  14.97300 51.82900 23.64500
C  19.31900 49.93800 24.36000
N  16.62800 51.16300 28.50500
C  17.60500 51.02600 29.48000
C  17.12500 51.39900 30.87100
C  15.66300 51.80200 30.60000
C  15.54600 51.77300 29.03800
C  14.59300 51.00600 31.32200
C  18.02200 52.50200 31.54300
C  18.36000 52.12900 33.04400
H  17.40100 51.23400 33.84300
N  14.92300 52.02000 26.03300
C  14.09300 52.40300 27.02200
C  12.83500 52.81300 26.49500
C  13.02500 52.72900 25.03800
C  14.35000 52.16700 24.83800
C  11.59100 53.13600 27.32500
C  12.01800 53.15100 23.92400
O  12.33200 53.01500 22.78500
C  10.64800 53.66200 24.30600
N  17.15700 51.02100 24.23100
C  16.22900 51.28300 23.30300
C  16.63600 50.85000 21.94100
C  18.11400 50.38700 22.09000
C  18.29000 50.49300 23.67000
C  15.62800 49.89100 21.26900
C  19.28900 51.16400 21.35800
C  20.07900 50.44200 20.29800
N  18.75000 50.31600 26.62200
C  19.61500 49.86400 25.71200
C  20.70900 49.32500 26.41200
C  20.50500 49.58400 27.76800
C  19.24600 50.17800 27.88200
C  21.91900 48.67800 25.74200
C  21.01100 49.35400 29.12000
O  21.95700 48.66700 29.51400
C  19.92100 49.93300 30.10800
C  19.56300 48.76600 31.08000
O  18.60300 48.04200 31.04200
O  20.32600 48.85500 32.15400
C  20.16400 47.86200 33.24600
H  13.72600 52.56700 29.13400
H  14.38100 52.08000 22.76200
H  20.07600 49.44900 23.74300
H  17.25000 50.46600 31.42000
H  15.52600 52.84900 30.87000
H  13.99200 51.72600 31.87800
H  15.07200 50.20000 31.87700
H  13.79900 50.61300 30.68800
H  17.42100 53.40900 31.60000
H  18.92400 52.72200 30.97300
H  18.26200 53.09200 33.54300
H  19.38400 51.76200 33.12100
H  11.38200 54.19300 27.15700
H  11.79400 53.05300 28.39300
H  10.77600 52.48600 27.00900
H  10.05100 53.77100 23.40100
H  10.84500 54.51900 24.95000
H  10.09200 52.88500 24.83100
H  16.56300 51.73200 21.30600
H  18.10600 49.32200 21.85600
H  16.07400 48.95800 20.92300
H  15.08800 50.40000 20.47000
H  14.90900 49.60700 22.03700
H  19.97700 51.48600 22.14000
H  18.81200 52.05000 20.94100
H  19.69700 49.43500 20.13000
H  21.10000 50.34700 20.67000
H  20.08700 51.06300 19.40300
H  21.87300 48.64000 24.65400
H  22.22400 47.76500 26.25300
H  22.75800 49.36400 25.86000
H  20.33100 50.84000 30.55100
H  20.93100 48.04600 33.99800
H  20.44200 46.86500 32.90700
H  19.18100 48.07000 33.66900
Mg -10.94100 39.94800 41.46200
C  -9.96400 36.66000 40.71500
C  -7.82900 41.08800 40.34700
C  -12.20900 43.05600 41.28500
C  -14.29900 38.72400 41.66100
N  -9.16900 38.93900 40.67000
C  -8.95700 37.55500 40.46300
C  -7.58100 37.31700 39.82800
C  -6.82900 38.68700 40.04300
C  -8.01000 39.63400 40.38200
C  -5.71000 38.80300 41.14000
C  -7.63900 36.78100 38.32400
C  -6.59600 35.72100 37.88200
H  -5.65200 36.18600 36.79900
N  -10.04700 41.83300 40.93000
C  -8.75600 42.12700 40.54800
C  -8.69300 43.55300 40.27400
C  -9.96100 44.11600 40.48500
C  -10.81600 42.97600 40.93000
C  -7.40600 44.24500 39.67300
C  -10.31400 45.53100 40.21100
O  -9.49300 46.28100 39.76300
C  -11.78300 45.95900 40.25700
N  -13.05900 40.73700 41.62000
C  -13.20200 42.12200 41.54800
C  -14.75100 42.44000 41.63400
C  -15.38900 41.06400 41.73700
C  -14.24300 40.09400 41.66000
C  -15.24900 43.60600 42.67600
C  -16.56900 40.73900 40.81400
C  -17.96800 40.66600 41.45900
N  -11.84400 38.11900 41.58000
C  -13.17700 37.80700 41.67700
C  -13.37400 36.43000 41.72800
C  -12.10300 35.87300 41.43200
C  -11.20400 36.97200 41.23500
C  -14.56300 35.74300 42.01000
C  -11.33400 34.71600 41.18300
O  -11.69000 33.53500 41.27800
C  -9.96800 35.17300 40.71800
C  -8.91000 34.64900 41.58800
O  -8.68900 34.87200 42.80700
O  -8.06500 33.91000 40.85200
C  -6.72300 33.69800 41.36500
H  -6.81800 41.36700 40.04600
H  -12.63400 44.05600 41.40200
H  -15.31100 38.31600 41.65100
H  -7.03100 36.55900 40.38700
H  -6.45400 38.97400 39.06000
H  -4.90500 39.44600 40.78700
H  -5.28100 37.80500 41.22900
H  -5.99000 39.08200 42.15600
H  -7.44100 37.63000 37.67000
H  -8.59400 36.34700 38.02700
H  -7.18100 34.88700 37.49400
H  -6.01700 35.34600 38.72600
H  -6.77600 43.40900 39.36800
H  -6.95300 44.82400 40.47700
H  -7.59400 44.90500 38.82600
H  -12.08700 46.09600 41.29500
H  -12.41800 45.25200 39.72300
H  -11.79600 46.93900 39.77900
H  -14.94700 42.81300 40.62900
H  -15.58000 40.90100 42.79800
H  -15.73800 43.07900 43.49600
H  -15.89800 44.23200 42.06400
H  -14.42400 44.05300 43.23000
H  -16.44100 39.80700 40.26400
H  -16.69200 41.54500 40.09000
H  -18.22500 39.60800 41.51300
H  -18.76700 41.28900 41.05600
H  -17.89100 40.97800 42.50100
H  -15.02600 36.24200 42.86100
H  -14.46100 34.69400 42.28600
H  -15.19100 35.82700 41.12300
H  -9.90300 34.74400 39.71800
H  -5.95000 34.35700 40.96800
H  -6.34900 32.74200 40.99800
H  -6.53300 33.62500 42.43600

