158

Mg 40.77200 8.88500 29.84700
C  42.60300 10.46300 32.40100
C  38.68900 7.51500 32.29400
C  38.89800 7.78500 27.39400
C  43.32900 9.69100 27.64700
N  40.66300 9.10300 32.11700
C  41.44900 9.81400 32.91700
C  41.08800 9.65800 34.34700
C  39.85500 8.62600 34.37900
C  39.70600 8.31800 32.86700
C  40.14800 7.29900 35.05000
C  40.50900 11.02400 34.82200
C  39.95000 11.00500 36.30700
H  40.51600 12.00600 37.28700
N  39.03000 7.73500 29.82400
C  38.36200 7.24200 30.92200
C  37.22200 6.49100 30.43100
C  37.17400 6.73500 28.99400
C  38.32400 7.42900 28.65900
C  36.21900 5.72700 31.26500
C  36.05200 6.33900 27.92700
O  36.19100 6.44000 26.72800
C  34.74700 5.72600 28.39700
N  41.08200 8.70800 27.81900
C  40.09400 8.28600 26.97900
C  40.63600 8.31100 25.53300
C  42.08400 8.80400 25.64700
C  42.14700 9.08300 27.13700
C  40.56100 6.85400 24.84200
C  42.33200 9.99500 24.74300
C  41.64300 11.35800 25.00300
N  42.49200 9.95400 29.94500
C  43.38800 10.29200 28.93500
C  44.49600 11.06900 29.52500
C  44.18000 11.23000 30.87500
C  42.99200 10.51600 31.08200
C  45.81600 11.45200 28.96000
C  44.63600 11.78700 32.14300
O  45.69500 12.34400 32.39400
C  43.61100 11.40400 33.19300
C  44.34200 10.75300 34.26100
O  45.10600 9.79700 34.17900
O  43.91900 11.37100 35.44000
C  44.08500 10.62000 36.62000
H  38.05600 6.97100 32.99700
H  38.28800 7.39000 26.57800
H  44.18600 9.80600 26.98000
H  41.96800 9.45000 34.95500
H  38.87000 8.93600 34.72900
H  40.04700 6.53200 34.28200
H  39.33100 7.37500 35.76700
H  41.12800 7.36000 35.52200
H  39.72500 11.27100 34.10600
H  41.35300 11.69200 34.65000
H  40.22300 10.02900 36.70700
H  38.87600 11.18500 36.25900
H  36.10500 4.78200 30.73500
H  35.30500 6.29000 31.45800
H  36.49200 5.56100 32.30700
H  34.23800 5.27000 27.54800
H  34.22600 6.38300 29.09300
H  35.07900 4.84700 28.94900
H  40.10500 8.97100 24.84600
H  42.71600 7.96600 25.35500
H  40.65100 6.12300 25.64600
H  41.37200 6.59900 24.15900
H  39.62600 6.88300 24.28300
H  42.23100 9.60100 23.73200
H  43.38200 10.28000 24.68500
H  40.76300 11.05000 25.56800
H  41.20400 11.76000 24.09000
H  42.34800 12.12100 25.33300
H  45.47600 12.13900 28.18500
H  46.40200 10.61300 28.58700
H  46.38700 11.94600 29.74600
H  43.20100 12.37800 33.45800
H  43.81100 11.25600 37.46200
H  45.14800 10.38700 36.55700
H  43.35900 9.82700 36.43900
Mg 17.23100 52.32700 26.27800
C  18.99200 50.95700 29.11000
C  14.97800 53.60700 28.53300
C  15.60800 53.59700 23.70200
C  19.43400 50.62200 24.22300
N  17.03800 52.20000 28.57800
C  17.98500 51.77000 29.48300
C  17.51800 52.26700 30.87500
C  16.04500 52.81100 30.70900
C  15.98100 52.84900 29.18700
C  15.06800 51.82400 31.29900
C  18.38400 53.42000 31.47500
C  18.40700 53.39600 33.03100
H  17.34800 52.59100 33.78900
N  15.47500 53.46300 26.17800
C  14.70800 53.89300 27.15100
C  13.65200 54.74900 26.67400
C  13.80300 54.77700 25.21400
C  15.00800 53.99600 24.96100
C  12.61500 55.53500 27.50100
C  12.96000 55.43700 24.15500
O  13.33700 55.48700 22.95800
C  11.61400 56.08800 24.53800
N  17.48600 52.08100 24.25200
C  16.69100 52.79400 23.39000
C  17.11900 52.53100 21.96300
C  18.38800 51.70000 22.17000
C  18.49800 51.51200 23.63400
C  16.04300 51.80900 21.11800
C  19.58600 52.35500 21.56700
C  20.14200 53.60000 22.32400
N  18.84100 51.02700 26.49200
C  19.64000 50.46500 25.59600
C  20.60300 49.61300 26.18600
C  20.46300 49.86600 27.60200
C  19.35700 50.65700 27.72900
C  21.59400 48.80200 25.48100
C  21.00300 49.58400 28.91700
O  22.00800 48.91600 29.18600
C  20.13300 50.34300 29.94400
C  19.68500 49.38900 30.93900
O  18.93500 48.43100 30.61600
O  20.11100 49.68100 32.23300
C  19.81700 48.67400 33.28800
H  14.23500 53.97700 29.24300
H  15.04700 53.88800 22.81100
H  20.04600 50.08100 23.49800
H  17.60600 51.34900 31.45700
H  15.70700 53.72200 31.20300
H  14.76300 51.08200 30.56100
H  14.23500 52.40500 31.69700
H  15.44600 51.21600 32.12100
H  18.00700 54.33200 31.01100
H  19.41600 53.20600 31.19700
H  18.36200 54.44200 33.33600
H  19.36900 52.95100 33.28300
H  12.60300 56.58800 27.22200
H  13.11600 55.48100 28.46800
H  11.62300 55.09200 27.60100
H  11.17700 55.43700 25.29500
H  10.82800 56.14400 23.78400
H  11.74200 57.12300 24.85700
H  17.45600 53.48800 21.56400
H  18.17000 50.78500 21.61800
H  16.56100 51.33300 20.28600
H  15.33200 52.54000 20.73300
H  15.59800 50.98600 21.67600
H  19.41400 52.50500 20.50100
H  20.42300 51.66500 21.67400
H  20.19500 54.34600 21.53200
H  21.10300 53.52200 22.83400
H  19.31600 53.85000 22.98900
H  22.41900 49.41800 25.12300
H  21.11800 48.10700 24.79000
H  22.20300 48.30900 26.23900
H  20.84400 51.05900 30.35700
H  20.46800 47.80000 33.31400
H  18.78000 48.34200 33.23100
H  19.80800 49.03400 34.31600

