158

Mg 17.19800 -1.04500 28.23400
C  15.84700 0.83500 30.86000
C  18.96900 -2.83400 30.45800
C  18.89700 -2.27800 25.73300
C  15.56100 1.22800 25.94900
N  17.55000 -0.77300 30.37500
C  16.79600 -0.09500 31.30100
C  17.06100 -0.57600 32.70700
C  18.26500 -1.48200 32.54200
C  18.25700 -1.73600 31.04500
C  19.56200 -0.94100 33.14000
C  15.85800 -1.25400 33.39200
C  15.53400 -1.09700 34.86700
H  16.51400 -0.28800 35.73700
N  18.63600 -2.49000 28.06900
C  19.21600 -3.21100 29.08000
C  20.04400 -4.26900 28.56400
C  19.95900 -4.23600 27.11000
C  19.08000 -3.00700 26.90700
C  20.71000 -5.27900 29.47400
C  20.42400 -5.12100 26.05900
O  20.12500 -5.06200 24.85500
C  21.31600 -6.28900 26.50700
N  17.42100 -0.35300 26.15000
C  18.17200 -1.13800 25.37300
C  18.04900 -0.65700 23.92000
C  16.85400 0.33100 23.90500
C  16.51800 0.36700 25.38800
C  19.37900 -0.19100 23.22100
C  15.55800 -0.06300 23.05200
C  15.46400 0.32000 21.60100
N  15.95400 0.61500 28.34600
C  15.47500 1.44300 27.35300
C  14.54900 2.38900 27.98900
C  14.67000 2.16000 29.33000
C  15.57800 1.16300 29.50000
C  13.62800 3.33100 27.25800
C  14.20900 2.55100 30.59400
O  13.56400 3.54300 30.85100
C  14.86000 1.63300 31.65100
C  15.55100 2.48400 32.64700
O  16.59900 3.11700 32.45000
O  14.67600 2.53300 33.72800
C  15.07600 3.55700 34.71800
H  19.62400 -3.37000 31.14900
H  19.44500 -2.78500 24.93500
H  14.93000 1.87600 25.33700
H  17.38300 0.32600 33.22800
H  18.09600 -2.47800 32.95000
H  20.37800 -0.95500 32.41800
H  19.84000 -1.61000 33.95400
H  19.53100 0.08200 33.51400
H  15.58900 -2.28800 33.17900
H  14.96200 -0.81700 32.95300
H  15.25400 -2.09600 35.20300
H  14.59100 -0.55400 34.92800
H  21.77100 -5.04500 29.56300
H  20.63800 -6.29000 29.07200
H  20.19100 -5.29100 30.43200
H  21.89900 -6.67800 25.67200
H  20.74600 -7.13600 26.89000
H  22.14000 -5.92100 27.11800
H  17.73300 -1.47100 23.26900
H  17.22600 1.28000 23.52000
H  20.22800 -0.42200 23.86500
H  19.32900 0.88900 23.08500
H  19.56400 -0.69300 22.27200
H  14.63500 0.32300 23.48400
H  15.48300 -1.12700 23.27500
H  15.76400 -0.57300 21.05300
H  16.10600 1.13900 21.27500
H  14.43700 0.60100 21.36400
H  13.51800 3.25200 26.17600
H  14.04800 4.33100 27.37300
H  12.64800 3.38300 27.73200
H  14.06000 1.03000 32.08100
H  15.69100 3.00200 35.42700
H  14.16100 3.89600 35.20400
H  15.54500 4.41800 34.24100
Mg 17.54000 52.71000 26.73900
C  19.27000 51.29400 29.39700
C  15.01700 53.63800 28.94500
C  15.75800 53.74500 24.14200
C  19.89200 51.21300 24.46300
N  17.20400 52.57400 28.84600
C  18.13500 52.07500 29.76900
C  17.65400 52.37700 31.19500
C  16.13500 52.69500 30.94900
C  16.13900 53.01800 29.50200
C  15.10400 51.67300 31.43100
C  18.55700 53.54700 31.80300
C  18.53600 53.61900 33.40400
H  17.52100 52.66800 34.14600
N  15.68800 53.60100 26.61200
C  14.85400 54.03900 27.62500
C  13.77500 54.72100 27.14800
C  14.03400 54.83900 25.71200
C  15.22700 54.05200 25.39800
C  12.55200 55.09000 27.90900
C  13.16700 55.46300 24.60300
O  13.19100 55.09500 23.44600
C  12.02800 56.45400 25.05700
N  17.58800 52.15000 24.55600
C  16.83800 52.89800 23.72800
C  17.29600 52.76000 22.28700
C  18.58000 51.86100 22.40400
C  18.71900 51.74000 23.86500
C  16.23000 52.10100 21.35100
C  19.78300 52.38600 21.63300
C  20.42700 53.69400 22.19500
N  19.17300 51.37200 26.86300
C  20.05600 50.94100 25.84700
C  21.12100 50.26300 26.56400
C  20.87600 50.36600 27.97100
C  19.65500 51.06600 28.05500
C  22.23700 49.58400 25.95200
C  21.38300 50.11000 29.27400
O  22.47900 49.70100 29.66400
C  20.39300 50.70900 30.25700
C  19.86900 49.74600 31.14800
O  19.19300 48.79300 30.82700
O  20.33300 49.93800 32.41500
C  20.08900 48.81100 33.35100
H  14.27400 53.90000 29.70100
H  15.34900 54.32700 23.31400
H  20.60800 50.78200 23.76100
H  17.77800 51.40900 31.68200
H  15.81800 53.58200 31.49700
H  15.57700 50.84000 31.95100
H  14.65800 51.12200 30.60300
H  14.31800 52.07400 32.07100
H  18.21500 54.50200 31.40300
H  19.53900 53.28700 31.40800
H  18.40500 54.68400 33.59900
H  19.52700 53.23600 33.64700
H  12.55200 56.17700 27.98800
H  12.64400 54.85100 28.96800
H  11.59100 54.73900 27.53200
H  12.45900 56.99800 25.89700
H  11.09400 55.92500 25.24300
H  11.99900 57.16400 24.23100
H  17.57600 53.76400 21.96700
H  18.36800 50.87400 21.99300
H  16.54400 51.15000 20.92100
H  15.95900 52.64600 20.44600
H  15.32300 52.05500 21.95300
H  19.31500 52.75700 20.72100
H  20.50800 51.63400 21.32200
H  20.09500 53.79900 23.22800
H  20.14400 54.51400 21.53600
H  21.50300 53.51800 22.17800
H  23.01300 49.79500 26.68800
H  22.50700 50.10000 25.03000
H  22.19500 48.51300 25.75800
H  21.03600 51.50500 30.63500
H  20.49000 49.04300 34.33700
H  20.41300 47.81600 33.04600
H  19.00200 48.82700 33.43300

