158

Mg 49.52300 45.47000 42.37600
C  45.96100 45.69600 41.51500
C  49.17600 42.16900 41.43800
C  52.70900 45.44000 42.09400
C  49.46600 48.93600 42.78900
N  47.70500 44.06500 41.49400
C  46.40900 44.40400 41.22100
C  45.75400 43.20400 40.55000
C  46.69100 42.10400 41.04600
C  47.90800 42.81700 41.30000
C  46.27000 41.27000 42.26700
C  45.60000 43.41600 39.04200
C  44.59600 42.52100 38.27500
H  44.97100 41.74700 36.96200
N  50.78400 43.96800 41.95400
C  50.50500 42.65700 41.60100
C  51.75900 41.93200 41.61700
C  52.83300 42.88000 41.65300
C  52.13600 44.17200 41.92600
C  51.77500 40.45300 41.65600
C  54.34800 42.61800 41.63900
O  54.82800 41.50300 41.39900
C  55.30300 43.81600 41.95000
N  50.89900 46.98800 42.47300
C  52.26200 46.72200 42.49200
C  53.10500 48.03800 42.65100
C  51.99200 49.14800 42.84300
C  50.66300 48.32600 42.74600
C  54.18800 47.98200 43.80800
C  52.13000 50.25700 41.65600
C  51.87000 51.68600 42.15400
N  48.10900 47.06600 42.27700
C  48.26700 48.38600 42.54800
C  46.95400 49.01600 42.48700
C  46.03400 48.06200 42.03200
C  46.75200 46.86000 41.90300
C  46.65800 50.49600 42.68100
C  44.64200 47.82700 41.66000
O  43.74000 48.68100 41.63800
C  44.59400 46.29300 41.21200
C  43.55900 45.48700 41.80500
O  42.81700 44.71300 41.21200
O  43.37200 45.83100 43.07800
C  42.12900 45.37200 43.84500
H  49.11400 41.09100 41.27200
H  53.79400 45.53400 42.02200
H  49.35600 50.02200 42.81500
H  44.73300 42.94200 40.82900
H  47.00700 41.39900 40.27700
H  47.12200 41.09400 42.92300
H  46.06300 40.30200 41.81100
H  45.31800 41.61000 42.67800
H  46.58900 43.44500 38.58500
H  45.12900 44.39400 38.94400
H  43.77800 43.19000 38.00600
H  44.07900 41.88000 38.98900
H  51.47700 40.05800 42.62700
H  52.69000 40.00300 41.27200
H  51.08400 40.05400 40.91400
H  56.28800 43.37100 42.08600
H  54.90600 44.15100 42.90800
H  55.41000 44.50300 41.11100
H  53.67100 48.27900 41.75100
H  51.98400 49.55400 43.85500
H  55.18400 48.18500 43.41500
H  54.35500 47.02500 44.30400
H  53.93100 48.56300 44.69400
H  51.30600 49.98700 40.99600
H  53.05000 50.29600 41.07300
H  51.09700 52.07800 41.49300
H  52.78300 52.28000 42.20600
H  51.66500 51.72000 43.22400
H  47.50500 50.92100 43.21900
H  45.82000 50.52600 43.37700
H  46.40100 51.12600 41.83000
H  44.39300 46.29900 40.14000
H  41.21000 45.75500 43.40300
H  42.15200 45.72300 44.87700
H  42.01900 44.29800 43.69000
Mg 16.71300 51.95900 27.02000
C  18.77300 50.78400 29.49600
C  14.24800 52.61800 29.39400
C  14.72400 53.19300 24.55200
C  19.16500 51.18400 24.59600
N  16.56700 51.70300 29.20900
C  17.57400 51.30200 30.03500
C  17.18200 51.45700 31.48100
C  15.67900 51.84400 31.48500
C  15.43900 51.99700 29.95000
C  14.68400 50.74500 31.99900
C  18.11300 52.57200 32.16000
C  18.61200 52.44600 33.62200
H  17.70800 51.63800 34.52800
N  14.77500 52.84500 26.99200
C  13.98900 53.11400 28.10600
C  12.78100 53.76000 27.62800
C  12.86200 53.93400 26.22500
C  14.19500 53.32600 25.83100
C  11.69100 54.22000 28.62200
C  11.89300 54.66000 25.28200
O  12.09600 54.78200 24.13900
C  10.61500 55.22200 25.83300
N  16.83700 51.97500 24.85500
C  15.94100 52.66200 24.09700
C  16.38700 52.58900 22.58200
C  17.92300 52.44700 22.73500
C  18.04000 51.82600 24.13200
C  15.72400 51.40700 21.77800
C  18.87300 53.70200 22.66300
C  19.36800 54.08100 21.21100
N  18.45900 50.99600 26.94700
C  19.40700 50.76500 25.95100
C  20.49300 49.94700 26.45000
C  20.30900 50.01700 27.80800
C  19.08400 50.65800 28.10200
C  21.60900 49.33000 25.65400
C  20.88300 49.60700 29.06300
O  21.78700 48.77100 29.28400
C  19.97900 50.13800 30.26500
C  19.74500 48.98000 31.12300
O  19.28100 47.89500 30.69000
O  19.91500 49.42900 32.42700
C  19.52400 48.39400 33.37700
H  13.57300 52.89700 30.20500
H  14.07500 53.55000 23.74900
H  19.92500 51.16400 23.81300
H  17.26500 50.52600 32.04200
H  15.43500 52.73100 32.07000
H  14.18900 50.34900 31.11200
H  13.92600 51.19700 32.63900
H  15.26300 49.94700 32.46300
H  17.61800 53.53900 32.07200
H  18.93600 52.69400 31.45600
H  18.69300 53.38200 34.17500
H  19.62900 52.07600 33.75700
H  10.70400 53.88900 28.29700
H  11.78200 55.30100 28.51700
H  12.02800 53.89500 29.60600
H  9.95800 54.56600 26.40400
H  9.94300 55.52100 25.02700
H  10.69500 56.13200 26.42600
H  16.13300 53.53600 22.10600
H  18.33700 51.77100 21.98700
H  14.72900 51.32300 22.21500
H  16.22000 50.44100 21.86800
H  15.57000 51.70600 20.74100
H  19.71600 53.55300 23.33800
H  18.26500 54.53700 23.01300
H  19.01100 55.09500 21.02900
H  19.02400 53.40900 20.42400
H  20.44300 54.11900 21.38900
H  21.64100 49.85400 24.69900
H  21.51100 48.24500 25.64200
H  22.57900 49.46700 26.13200
H  20.46300 50.89600 30.88200
H  18.44300 48.26200 33.33500
H  19.67800 48.77000 34.38800
H  19.96600 47.40800 33.23700

