158

Mg 25.06400 -8.05600 47.35300
C  27.43000 -5.80600 46.06100
C  22.90600 -7.11200 44.90000
C  23.36900 -10.83600 48.01100
C  27.92400 -9.56700 49.18500
N  25.29700 -6.80300 45.34200
C  26.23600 -5.75900 45.26100
C  25.84200 -4.75400 44.16200
C  24.34300 -5.13600 43.97600
C  24.15900 -6.43700 44.75900
C  23.32400 -4.01100 44.36300
C  26.63900 -4.87900 42.82700
C  27.73200 -3.78300 42.64900
H  27.83400 -3.21200 41.23400
N  23.25100 -8.77200 46.79600
C  22.52100 -8.19500 45.79400
C  21.27900 -8.85500 45.77600
C  21.37000 -9.90700 46.76000
C  22.73600 -9.86700 47.27200
C  20.09500 -8.37400 44.88400
C  20.37400 -10.89100 47.16300
O  19.33100 -10.93300 46.53300
C  20.37500 -11.75200 48.46300
N  25.59000 -9.93000 48.47500
C  24.64200 -10.88500 48.58400
C  25.20500 -12.22000 49.24500
C  26.48900 -11.63700 49.86400
C  26.69000 -10.26100 49.19000
C  24.30600 -12.92900 50.25600
C  27.70100 -12.54900 49.82600
C  28.53900 -12.68700 51.19000
N  27.16600 -7.80600 47.69600
C  28.18100 -8.37400 48.50600
C  29.44300 -7.58900 48.38500
C  29.12400 -6.61100 47.44800
C  27.77700 -6.77000 47.07500
C  30.71400 -7.80600 49.29100
C  29.77600 -5.48000 46.85400
O  30.85600 -4.99400 47.10300
C  28.65000 -4.81000 46.02200
C  28.30800 -3.43200 46.61800
O  27.54300 -3.27900 47.58500
O  28.95800 -2.43000 45.90800
C  28.44700 -1.04100 46.04700
H  22.25800 -6.71900 44.11300
H  22.80400 -11.75400 48.18400
H  28.78000 -10.02700 49.68300
H  25.98900 -3.77800 44.62500
H  24.19200 -5.36900 42.92200
H  22.41600 -4.03200 43.76000
H  23.93200 -3.10800 44.29500
H  23.01900 -4.10000 45.40500
H  25.99100 -4.92600 41.95200
H  27.07200 -5.87100 42.95100
H  28.69600 -4.23600 42.87900
H  27.58800 -2.91900 43.29800
H  20.13200 -7.30400 44.67800
H  19.17100 -8.57800 45.42500
H  20.04200 -8.96600 43.97100
H  20.88900 -12.68800 48.24400
H  19.32200 -11.81400 48.74000
H  20.99100 -11.20600 49.17800
H  25.52100 -12.86600 48.42600
H  26.20500 -11.37600 50.88400
H  24.46800 -12.58500 51.27800
H  24.33700 -14.01700 50.18800
H  23.27100 -12.66600 50.03700
H  28.35300 -12.31100 48.98500
H  27.32900 -13.54200 49.57300
H  29.46600 -12.12000 51.10000
H  28.70300 -13.74600 51.39000
H  27.90000 -12.27000 51.96800
H  30.48400 -8.34600 50.20900
H  31.13500 -6.84800 49.59500
H  31.49700 -8.26700 48.68800
H  28.91500 -4.50000 45.01100
H  28.79200 -0.50900 46.93300
H  27.35800 -1.01900 46.09300
H  28.79500 -0.52100 45.15400
Mg 30.04400 59.85200 40.05800
C  27.14000 58.25800 39.17300
C  31.84400 56.93500 39.79500
C  32.81600 61.73200 40.32500
C  28.17800 62.79600 40.61900
N  29.53500 57.80700 39.50900
C  28.28600 57.39200 39.07800
C  28.42600 55.95500 38.52400
C  29.76900 55.48200 39.13200
C  30.45800 56.81700 39.58700
C  29.74300 54.52100 40.44700
C  28.35900 56.06100 36.87900
C  27.25300 55.29900 36.19600
H  26.58300 55.99400 35.03800
N  32.08600 59.37800 39.98600
C  32.60700 58.09200 39.98400
C  34.03400 58.19600 40.02600
C  34.39200 59.56600 40.29200
C  33.08000 60.30300 40.22300
C  34.93000 57.04700 39.71200
C  35.79000 60.09500 40.47700
O  36.75400 59.32400 40.60800
C  36.09500 61.51200 40.57500
N  30.46300 62.04600 40.16300
C  31.71200 62.53700 40.31600
C  31.69600 64.05400 40.66900
C  30.21000 64.37000 40.95400
C  29.53700 62.98200 40.53100
C  32.68700 64.60400 41.68500
C  29.72700 65.64300 40.17000
C  28.84300 66.58200 40.97600
N  28.09700 60.44300 39.98700
C  27.47600 61.63100 40.28200
C  26.06000 61.41200 40.22400
C  25.88100 60.08300 39.75600
C  27.15500 59.57500 39.65800
C  24.97400 62.40600 40.50600
C  24.89700 59.10300 39.21600
O  23.69200 59.03800 39.11500
C  25.73100 57.77300 38.82600
C  25.10700 56.62200 39.59700
O  25.34300 56.28500 40.74800
O  24.29000 55.99600 38.71600
C  23.37900 54.99400 39.30600
H  32.26700 55.93400 39.69000
H  33.75100 62.26500 40.51000
H  27.69400 63.72700 40.92200
H  27.53700 55.37200 38.76600
H  30.42700 55.06400 38.37100
H  30.57800 53.98200 40.89400
H  28.97300 53.75500 40.36100
H  29.37300 55.08400 41.30400
H  29.29600 55.66100 36.49300
H  28.25600 57.10700 36.59000
H  26.43200 55.18600 36.90400
H  27.51300 54.28700 35.88400
H  34.41500 56.12600 39.43900
H  35.56100 56.75500 40.55100
H  35.63500 57.31100 38.92300
H  37.14200 61.63300 40.85500
H  35.56900 62.03500 41.37300
H  35.93900 61.99300 39.60900
H  32.02700 64.59100 39.78100
H  29.97100 64.48800 42.01000
H  32.14000 65.12800 42.46900
H  33.38100 65.29700 41.20900
H  33.14800 63.74400 42.17100
H  29.26300 65.28300 39.25200
H  30.59700 66.14200 39.74300
H  28.58800 66.27600 41.99100
H  27.86100 66.66600 40.51100
H  29.26700 67.57900 40.85200
H  25.21500 62.82700 41.48200
H  23.99400 61.92900 40.51500
H  24.94600 63.12500 39.68800
H  25.62400 57.51200 37.77300
H  22.71000 55.36800 40.08100
H  23.95000 54.22200 39.82100
H  22.87700 54.64800 38.40200

