158

Mg 54.30700 23.65700 43.73800
C  51.48300 25.72600 43.26900
C  52.33700 20.98800 42.73400
C  57.16200 22.10100 43.25600
C  56.20400 26.71100 44.23000
N  52.16000 23.40000 42.91800
C  51.16500 24.44800 42.91400
C  49.88100 23.87500 42.38000
C  50.19800 22.33400 42.60500
C  51.66300 22.20200 42.78000
C  49.52600 21.73100 43.80100
C  49.67900 24.18800 40.83500
C  48.24100 24.22500 40.31300
H  47.84400 24.79000 38.91900
N  54.73100 21.79700 43.23700
C  53.77300 20.77800 42.92500
C  54.48900 19.51400 42.68300
C  55.88700 19.76300 42.89500
C  56.03500 21.28400 43.15900
C  53.83700 18.24900 42.17000
C  57.00000 18.70800 42.78200
O  56.81100 17.52000 42.54800
C  58.44600 19.06800 43.08400
N  56.37700 24.29900 43.80700
C  57.39200 23.38600 43.57600
C  58.81800 23.98300 43.89200
C  58.50700 25.48000 44.06400
C  56.95200 25.55400 44.04600
C  59.43500 23.42800 45.12600
C  58.97700 26.35700 42.86800
C  58.74500 25.99200 41.39500
N  53.91000 25.73000 43.89100
C  54.74600 26.78600 44.21200
C  53.97000 27.97700 44.43100
C  52.67000 27.54100 44.08500
C  52.74000 26.22500 43.69400
C  54.39500 29.29100 45.02800
C  51.25100 28.04700 44.09000
O  50.73200 29.11100 44.51200
C  50.46600 26.96100 43.42700
C  50.07900 27.52200 42.12600
O  50.85300 27.93400 41.26200
O  48.67600 27.51300 41.92300
C  48.22900 28.00500 40.60800
H  51.75600 20.07800 42.56900
H  58.00000 21.44900 43.00100
H  56.72500 27.59300 44.60700
H  49.02000 24.18400 42.97300
H  49.96400 21.81200 41.67700
H  48.79600 22.43100 44.20700
H  50.27300 21.48700 44.55700
H  48.99500 20.79300 43.64200
H  50.12500 23.43500 40.18500
H  50.05700 25.20100 40.69700
H  47.70700 24.70600 41.13300
H  47.87500 23.20600 40.43900
H  53.04100 18.31300 41.42800
H  53.42000 17.71800 43.02600
H  54.37500 17.42000 41.71000
H  58.92300 19.74800 42.37800
H  59.09600 18.19800 43.16600
H  58.43200 19.56800 44.05200
H  59.47000 23.74100 43.05300
H  58.68400 25.77600 45.09800
H  60.47500 23.18600 44.90500
H  58.99400 22.45500 45.34300
H  59.28100 24.05400 46.00500
H  60.03900 26.43900 43.10200
H  58.60600 27.36000 43.08000
H  57.93700 25.27300 41.26300
H  59.70700 25.68000 40.99100
H  58.41800 26.90400 40.89500
H  55.22000 29.05200 45.69800
H  53.53300 29.68200 45.56900
H  54.74400 30.09400 44.37800
H  49.56500 26.73300 43.99700
H  48.39700 29.07400 40.48000
H  47.14400 27.90800 40.60600
H  48.69900 27.46600 39.78400
Mg 46.80300 16.06700 27.95200
C  44.97400 15.62700 30.88500
C  49.27300 17.48000 29.76900
C  48.21000 17.12000 25.02700
C  43.99200 14.83300 26.19200
N  46.87800 16.82000 30.06500
C  46.17700 16.31000 31.11600
C  46.71500 16.69900 32.47000
C  47.93000 17.56000 31.95600
C  48.13900 17.16100 30.50700
C  47.70400 19.09200 31.89800
C  47.16300 15.43100 33.23600
C  46.94300 15.38200 34.78000
H  46.79500 16.59800 35.59600
N  48.55300 17.00000 27.53600
C  49.41900 17.51200 28.38200
C  50.53700 18.11700 27.72100
C  50.25900 18.04100 26.35300
C  48.95700 17.39900 26.21500
C  51.62900 18.87200 28.41900
C  51.04700 18.59400 25.14800
O  50.56400 18.62500 24.01100
C  52.45900 18.98300 25.40300
N  46.24400 15.89700 25.95000
C  47.01900 16.45800 24.90000
C  46.27400 16.27900 23.52600
C  45.17300 15.30800 23.93500
C  45.13200 15.32800 25.46400
C  45.81200 17.53400 22.75200
C  45.18500 13.77200 23.44300
C  43.73700 13.28300 23.12200
N  44.86600 15.33200 28.38700
C  43.86500 14.82800 27.57500
C  42.74300 14.34300 28.37400
C  43.15100 14.69400 29.71400
C  44.46300 15.27700 29.63800
C  41.40600 13.87200 27.89800
C  42.73200 14.67900 31.09600
O  41.64600 14.30700 31.53400
C  43.88600 15.31300 31.91400
C  43.35600 16.52700 32.60700
O  43.30800 17.63400 32.16200
O  42.85900 16.03400 33.84600
C  42.67500 17.10900 34.85300
H  49.97900 18.00400 30.41800
H  48.63000 17.39000 24.05600
H  43.17800 14.46000 25.56600
H  46.18100 17.45800 33.04100
H  48.84000 17.41500 32.53900
H  46.76600 19.29100 32.41500
H  47.52700 19.49900 30.90300
H  48.50400 19.69200 32.33000
H  48.22800 15.36300 33.01600
H  46.75800 14.53300 32.76900
H  47.71000 14.72700 35.19400
H  46.06900 14.73800 34.88200
H  52.54000 18.46400 27.98100
H  51.68100 18.61000 29.47600
H  51.66500 19.95800 28.32900
H  52.57700 19.88300 26.00700
H  52.88700 19.16900 24.41800
H  52.94000 18.09900 25.82300
H  46.99400 15.82000 22.84900
H  44.26700 15.78200 23.55600
H  46.11400 18.43000 23.29500
H  44.76500 17.51500 22.45100
H  46.42300 17.47700 21.85100
H  45.65300 13.04800 24.11000
H  45.79300 13.53900 22.56800
H  43.42400 12.54900 23.86400
H  43.61000 12.85200 22.12900
H  43.02700 14.10300 23.23600
H  41.05300 13.11200 28.59600
H  41.51300 13.39400 26.92500
H  40.74100 14.71700 27.72000
H  44.16400 14.63100 32.71700
H  43.23200 17.98700 34.52700
H  42.96100 16.90800 35.88500
H  41.61100 17.32800 34.76000

