158

Mg 2.37100 -1.55600 44.97200
C  5.80600 -1.15000 44.06200
C  1.65500 1.07600 42.82800
C  -0.78900 -2.48900 44.93400
C  3.25800 -4.69900 46.35200
N  3.59000 -0.18000 43.71900
C  5.00600 -0.19600 43.49300
C  5.34300 0.80900 42.43900
C  4.06100 1.71400 42.37000
C  3.03000 0.81400 43.03100
C  4.18400 3.10200 43.08900
C  5.82100 0.12000 41.11200
C  5.02000 -0.18000 39.83000
H  5.17100 0.79500 38.61900
N  0.60900 -0.70000 44.16600
C  0.53100 0.38000 43.34400
C  -0.87700 0.64100 43.06000
C  -1.72000 -0.34500 43.73200
C  -0.64500 -1.24600 44.30500
C  -1.32100 1.83700 42.26000
C  -3.27700 -0.35500 43.69600
O  -3.98100 0.56600 43.21500
C  -3.90100 -1.56400 44.23300
N  1.34900 -3.33300 45.41600
C  0.04000 -3.44800 45.43600
C  -0.58000 -4.76500 45.97000
C  0.77100 -5.45800 46.49800
C  1.86700 -4.48000 46.07200
C  -1.51300 -4.55600 47.13400
C  1.04200 -6.87700 45.92600
C  0.72800 -7.96500 46.92800
N  4.15800 -2.69200 45.30800
C  4.32300 -3.88800 45.95400
C  5.79900 -4.22300 46.01000
C  6.37000 -3.08100 45.33200
C  5.32000 -2.21400 44.94100
C  6.46000 -5.47600 46.55500
C  7.62000 -2.56400 44.90200
O  8.75800 -2.93300 45.11800
C  7.34100 -1.23200 44.12200
C  8.07300 -0.13000 44.87200
O  7.89800 0.21200 45.98700
O  8.78000 0.63500 43.93000
C  9.46600 1.79600 44.56600
H  1.45600 2.06600 42.41400
H  -1.73800 -3.00600 44.78300
H  3.46600 -5.66200 46.82300
H  6.12400 1.37700 42.94500
H  3.79100 1.85400 41.32300
H  5.20400 3.44500 43.26400
H  3.57800 3.19700 43.99000
H  3.66000 3.66200 42.31600
H  6.13600 -0.89900 41.33500
H  6.63900 0.75400 40.76900
H  3.98400 -0.18700 40.16900
H  5.21100 -1.21400 39.53900
H  -1.68700 1.70500 41.24200
H  -0.48900 2.54200 42.25200
H  -2.03200 2.35500 42.90300
H  -3.49400 -2.40900 43.67800
H  -4.98200 -1.41900 44.22300
H  -3.65300 -1.67700 45.28900
H  -1.08900 -5.40500 45.24900
H  0.76800 -5.45200 47.58800
H  -0.98800 -4.34400 48.06500
H  -2.12000 -5.44800 47.29200
H  -2.18800 -3.71700 46.96800
H  2.06100 -6.87100 45.54000
H  0.28500 -6.98200 45.14900
H  0.40800 -7.54000 47.88000
H  1.58100 -8.62600 47.07800
H  -0.05400 -8.60000 46.51300
H  7.21600 -5.83600 45.85800
H  5.67100 -6.21600 46.69200
H  6.92300 -5.33000 47.53000
H  7.86000 -1.35000 43.17100
H  8.87400 2.44600 45.21100
H  9.93500 2.36000 43.75900
H  10.19600 1.51500 45.32500
Mg 8.01500 2.49100 27.25600
C  9.50800 1.19000 30.16700
C  6.11200 4.58100 29.31100
C  6.02300 3.53400 24.70100
C  9.40900 0.15100 25.34000
N  7.93800 2.91300 29.48600
C  8.62400 2.23700 30.48400
C  8.38200 2.90600 31.91000
C  7.13800 3.88700 31.60400
C  7.03700 3.75500 30.01600
C  5.79000 3.56100 32.26900
C  9.65200 3.57600 32.62000
C  9.43700 3.99700 33.99400
H  10.22900 3.52100 35.16000
N  6.40300 3.87000 27.00500
C  5.82400 4.69700 27.95900
C  4.85800 5.65000 27.32300
C  4.91800 5.35500 25.94100
C  5.84700 4.21800 25.81700
C  4.13200 6.67500 28.14100
C  4.09300 5.99900 24.85700
O  4.27700 5.62700 23.66000
C  3.04800 7.13000 25.15600
N  7.77800 2.00200 25.20300
C  6.88100 2.50800 24.36300
C  7.03900 1.79400 22.92200
C  8.22100 0.81200 23.16900
C  8.52200 0.97500 24.60200
C  5.80400 0.89800 22.58500
C  9.44500 1.02500 22.32100
C  10.07000 -0.20300 21.59300
N  9.25400 1.08700 27.58400
C  9.78900 0.21900 26.73500
C  10.81000 -0.58800 27.44300
C  10.65800 -0.34000 28.83600
C  9.78500 0.73800 28.84100
C  11.62500 -1.71400 26.82800
C  10.93700 -0.78300 30.17900
O  11.74000 -1.65400 30.63900
C  10.37800 0.33800 31.12900
C  9.69300 -0.27600 32.26500
O  8.73000 -1.08100 32.21000
O  10.53400 -0.09700 33.41000
C  10.07200 -0.69800 34.70100
H  5.51300 5.28500 29.89200
H  5.41100 3.75400 23.82300
H  9.94000 -0.52900 24.67000
H  8.21300 2.01400 32.51300
H  7.46500 4.86800 31.95000
H  5.02000 3.51500 31.49800
H  5.70000 4.45900 32.88000
H  5.75800 2.62200 32.82200
H  10.08600 4.33900 31.97400
H  10.49600 2.88600 32.62900
H  8.38100 3.97300 34.26300
H  9.58200 5.07600 33.94500
H  3.05600 6.57400 28.00200
H  4.58900 7.65200 27.98400
H  4.17300 6.53900 29.22100
H  2.08700 6.66500 25.37900
H  2.89700 7.82300 24.32900
H  3.35800 7.73400 26.00900
H  7.24700 2.57600 22.19100
H  7.93100 -0.23700 23.21500
H  5.01900 1.01100 23.33200
H  6.02800 -0.12800 22.29300
H  5.43400 1.13400 21.58700
H  10.19800 1.43000 22.99700
H  9.26900 1.73600 21.51400
H  10.17800 0.05700 20.54000
H  9.42500 -1.07700 21.49900
H  10.96200 -0.56100 22.10700
H  12.16000 -1.44400 25.91800
H  10.94000 -2.51100 26.53800
H  12.26000 -2.18700 27.57700
H  11.21500 0.89700 31.54900
H  9.38900 -1.53200 34.53700
H  9.58300 0.02200 35.35700
H  10.86700 -1.03000 35.36900

