158

Mg 45.15200 3.61500 47.40400
C  43.14500 6.43700 46.67100
C  42.25700 1.67600 46.83000
C  47.10500 0.90500 47.39300
C  47.88900 5.75200 47.36300
N  43.05600 3.99600 46.72600
C  42.51700 5.21200 46.56900
C  40.99200 5.13000 46.47200
C  40.65600 3.65700 46.79400
C  42.04600 3.06100 46.76700
C  40.04800 3.40900 48.17400
C  40.45800 5.52500 45.11700
C  39.50800 6.72300 44.98400
H  39.83700 7.71000 43.88300
N  44.77300 1.61900 47.03300
C  43.55000 1.06200 46.84900
C  43.70500 -0.33700 46.78400
C  45.08000 -0.60400 47.05700
C  45.76100 0.67000 47.18900
C  42.58800 -1.29000 46.65000
C  45.69300 -2.00800 47.31300
O  44.91300 -2.97200 47.39400
C  47.13100 -2.24800 47.56000
N  47.21300 3.35600 47.04400
C  47.80600 2.15200 47.43400
C  49.30700 2.35000 47.69400
C  49.48600 3.89700 47.48100
C  48.10100 4.37500 47.26300
C  49.73900 1.74300 49.08400
C  50.42200 4.30000 46.30300
C  51.65100 5.09800 46.79400
N  45.48300 5.67500 47.22000
C  46.64900 6.40800 47.24100
C  46.34000 7.83000 47.21400
C  44.97400 7.90800 47.00600
C  44.49300 6.55200 46.91900
C  47.30500 8.95600 47.09900
C  43.87400 8.85400 46.81600
O  43.77800 10.12300 46.81700
C  42.59900 7.84600 46.70800
C  41.70000 8.14600 47.86400
O  41.65100 7.59000 48.93400
O  40.72500 9.01300 47.40700
C  39.65400 9.29900 48.37700
H  41.36800 1.06300 46.66500
H  47.84800 0.12700 47.57900
H  48.79200 6.28300 47.67200
H  40.50700 5.78300 47.19700
H  39.94800 3.09000 46.19100
H  40.77000 2.89000 48.80500
H  39.27700 2.67700 47.93400
H  39.54700 4.25200 48.65000
H  40.20600 4.60900 44.58200
H  41.31700 5.70500 44.47100
H  39.51800 7.31100 45.90200
H  38.48800 6.34800 44.90700
H  41.59400 -0.93900 46.37400
H  42.62100 -1.85400 47.58200
H  42.78700 -2.09200 45.93900
H  47.26700 -3.32000 47.69800
H  47.44200 -1.65400 48.41900
H  47.76400 -1.81300 46.78700
H  49.80100 1.86900 46.85000
H  49.75800 4.27300 48.46800
H  49.97600 0.69200 48.91600
H  48.84900 1.89100 49.69600
H  50.57100 2.31000 49.50100
H  49.81900 4.88900 45.61200
H  50.64900 3.38200 45.76000
H  52.57800 4.52800 46.72600
H  51.55700 5.54800 47.78200
H  51.60900 5.89900 46.05600
H  46.88900 9.82700 47.60500
H  47.58900 9.10800 46.05800
H  48.20000 8.67300 47.65200
H  42.09000 8.07000 45.77100
H  39.74000 10.31600 48.76000
H  39.55200 8.59700 49.20500
H  38.71100 9.38700 47.83700
Mg 10.07500 47.83200 26.40600
C  7.95500 48.05600 29.21400
C  12.57700 49.27100 28.25300
C  11.89100 47.50200 23.76900
C  7.09800 47.00000 24.53000
N  10.29900 48.47600 28.47100
C  9.30400 48.41000 29.50000
C  9.86100 48.91600 30.86700
C  11.12600 49.66400 30.38500
C  11.38100 49.12100 28.93700
C  11.13600 51.18800 30.58600
C  10.09200 47.83400 31.87900
C  9.44400 48.05300 33.25700
H  9.46300 46.94100 34.35900
N  11.99200 48.24700 26.07800
C  12.89300 48.83300 26.90800
C  14.22700 48.88100 26.32500
C  14.10600 48.32300 25.07800
C  12.59800 47.99500 24.90000
C  15.46000 49.43300 27.14600
C  15.11800 48.13300 23.92900
O  14.84600 47.45400 22.95400
C  16.50000 48.80200 23.89200
N  9.53700 47.35900 24.34100
C  10.54500 47.27600 23.44500
C  10.04300 47.01200 21.99000
C  8.50200 46.65200 22.28600
C  8.30000 47.00100 23.75800
C  10.20400 48.23200 21.06500
C  8.13800 45.18700 21.98000
C  8.69300 44.12100 22.95200
N  8.01200 47.62500 26.75800
C  6.93100 47.31500 25.94900
C  5.65100 47.30300 26.68000
C  6.05500 47.49900 27.98200
C  7.45800 47.71100 27.96200
C  4.20800 47.13200 26.19400
C  5.55300 47.69900 29.29100
O  4.40600 47.86300 29.67800
C  6.85200 47.89400 30.14000
C  6.96800 46.58100 30.93700
O  7.42800 45.52500 30.44800
O  6.45100 46.68800 32.20600
C  6.00100 45.48200 32.86400
H  13.27400 49.78200 28.92000
H  12.48000 47.29100 22.87500
H  6.15400 46.69300 24.07600
H  9.08800 49.64900 31.09700
H  11.97900 49.38800 31.00600
H  10.12000 51.58200 30.56100
H  11.86600 51.70900 29.96600
H  11.46500 51.46000 31.58900
H  11.16500 47.75300 32.05500
H  9.82300 46.86800 31.45100
H  8.46900 48.53900 33.27500
H  10.10600 48.80100 33.69400
H  15.23400 49.39200 28.21200
H  15.54000 50.48600 26.87800
H  16.30000 48.80200 26.85500
H  16.33700 49.87900 23.90900
H  17.06500 48.46300 23.02400
H  17.08200 48.58900 24.78900
H  10.58500 46.14600 21.61000
H  7.83900 47.25000 21.66000
H  9.26100 48.49900 20.58900
H  11.03100 48.10800 20.36600
H  10.34200 49.03100 21.79400
H  8.59500 45.06500 20.99800
H  7.06700 45.03700 21.83900
H  9.26500 44.52800 23.78600
H  9.39600 43.46900 22.43400
H  7.91800 43.46400 23.34600
H  3.81400 46.42300 26.92300
H  4.12200 46.81900 25.15400
H  3.70300 48.07800 26.38600
H  6.60300 48.66000 30.87500
H  6.25600 45.36100 33.91700
H  6.29200 44.60600 32.28300
H  4.91800 45.40900 32.77200

