158

Mg 0.58600 7.79400 25.23800
C  0.97800 9.51500 28.28400
C  0.73400 4.82400 27.00600
C  0.40100 6.07500 22.43300
C  0.68500 10.78300 23.61000
N  0.97000 7.24000 27.37300
C  0.96800 8.08700 28.50800
C  0.99700 7.39200 29.90300
C  1.09600 5.85500 29.38300
C  0.91000 5.97100 27.84100
C  2.39400 5.21400 29.76300
C  -0.21300 7.78500 30.77600
C  0.06000 7.74900 32.32200
H  1.37000 7.18400 32.97100
N  0.43600 5.73000 24.83100
C  0.64900 4.67700 25.63000
C  0.66700 3.49500 24.84900
C  0.24100 3.82800 23.51600
C  0.33700 5.27000 23.58400
C  0.99600 2.24500 25.49600
C  -0.06400 2.92600 22.27400
O  -0.20600 3.38200 21.14400
C  -0.01300 1.42200 22.50900
N  0.45800 8.35600 23.25700
C  0.40200 7.47000 22.26000
C  0.50700 8.09400 20.92100
C  0.46500 9.61800 21.26800
C  0.55800 9.64300 22.79700
C  1.81100 7.72000 20.06700
C  -0.89100 10.25900 20.75400
C  -1.01600 11.78200 20.65200
N  0.69100 9.77100 25.74900
C  0.78300 10.89000 25.00400
C  0.86100 12.10500 25.80200
C  0.95400 11.57400 27.14800
C  0.85000 10.14400 27.01500
C  0.94700 13.58100 25.27700
C  1.20800 11.92800 28.53700
O  1.53500 13.02400 29.01200
C  1.00900 10.65500 29.34000
C  2.17700 10.42600 30.24900
O  3.27400 9.97200 29.85600
O  2.04600 11.00200 31.49900
C  3.23000 11.12400 32.34200
H  0.87400 3.93300 27.62200
H  0.41900 5.57800 21.46100
H  0.78600 11.65200 22.95600
H  1.94000 7.75500 30.31100
H  0.24900 5.31300 29.80300
H  2.96700 5.76300 30.51000
H  3.09800 5.12800 28.93500
H  2.29000 4.21300 30.18300
H  -1.04300 7.07900 30.78400
H  -0.59100 8.79000 30.58800
H  -0.67300 7.08900 32.78600
H  -0.11800 8.74400 32.72800
H  0.58500 1.34000 25.04900
H  0.73800 2.24000 26.55500
H  2.08300 2.30600 25.55300
H  -0.87000 1.13400 23.11800
H  0.94300 1.23300 22.99700
H  -0.09500 1.11700 21.46600
H  -0.38500 7.86100 20.33800
H  1.29300 10.28200 21.01900
H  1.71800 6.73500 19.60800
H  2.68100 7.60800 20.71300
H  1.99600 8.45700 19.28600
H  -1.57500 10.07000 21.58100
H  -1.22300 9.75400 19.84800
H  -1.60000 11.93800 19.74600
H  -0.09200 12.35500 20.56900
H  -1.57700 12.15300 21.51000
H  0.14500 14.21000 25.66400
H  0.95000 13.61100 24.18800
H  1.86400 14.12400 25.50600
H  0.05400 10.83900 29.83200
H  3.71900 10.16800 32.52800
H  2.92000 11.57700 33.28300
H  3.94100 11.84100 31.93100
Mg -5.38600 24.84900 26.64300
C  -3.60500 26.28500 29.40200
C  -6.51100 22.60700 28.97600
C  -6.55200 23.37800 24.11700
C  -3.74700 27.24000 24.49300
N  -5.31900 24.74600 29.05600
C  -4.50000 25.34900 29.87600
C  -5.01100 25.15000 31.30900
C  -5.59900 23.66800 31.12700
C  -5.86200 23.65800 29.66700
C  -4.49700 22.59200 31.45400
C  -5.98100 26.23500 31.87300
C  -5.71400 26.75600 33.22300
H  -5.45000 25.69000 34.24400
N  -6.41400 23.25900 26.55100
C  -6.72200 22.37300 27.60000
C  -7.36400 21.21600 27.07000
C  -7.38300 21.38700 25.60200
C  -6.81400 22.70600 25.33100
C  -7.83600 20.14000 27.92700
C  -7.91000 20.44500 24.52100
O  -7.88600 20.70000 23.28800
C  -8.52100 19.22600 24.98000
N  -5.30800 25.35800 24.58400
C  -5.86900 24.55300 23.70600
C  -5.71600 24.95100 22.24700
C  -4.87500 26.28700 22.41500
C  -4.67800 26.37600 23.95900
C  -5.07800 23.79900 21.38100
C  -5.33300 27.51400 21.69000
C  -4.30100 28.33500 20.80100
N  -4.10200 26.45400 26.87600
C  -3.44700 27.26100 25.88700
C  -2.44900 28.16400 26.57400
C  -2.48100 27.75900 27.89600
C  -3.47200 26.74300 28.08900
C  -1.62400 29.39300 26.06600
C  -1.89200 28.03500 29.22200
O  -0.99600 28.80800 29.57300
C  -2.74100 27.21800 30.17700
C  -1.92500 26.50800 31.23500
O  -1.08100 25.62000 30.95200
O  -2.12600 26.99600 32.43600
C  -1.25900 26.60300 33.51900
H  -6.91200 21.97600 29.77200
H  -6.99600 22.98700 23.19800
H  -3.29800 28.00400 23.85500
H  -4.15000 25.03300 31.96600
H  -6.63400 23.51400 31.43300
H  -4.84600 21.64700 31.03800
H  -4.36300 22.41700 32.52100
H  -3.52900 22.90900 31.06500
H  -6.96600 25.77500 31.79600
H  -5.88900 27.05300 31.15900
H  -6.61400 27.26800 33.56200
H  -4.89900 27.47700 33.16100
H  -7.21500 20.09600 28.82100
H  -7.69900 19.18300 27.42400
H  -8.92200 20.22700 27.89300
H  -7.69000 18.60500 25.31300
H  -9.02200 18.81400 24.10400
H  -9.22800 19.38200 25.79500
H  -6.74100 25.09500 21.90500
H  -3.87000 26.12000 22.02600
H  -4.38700 24.13000 20.60500
H  -5.98200 23.39300 20.92700
H  -4.72200 23.04700 22.08500
H  -5.58300 28.22200 22.48000
H  -6.18500 27.16400 21.10800
H  -3.30600 27.91300 20.65600
H  -4.18600 29.31300 21.26800
H  -4.64700 28.60700 19.80500
H  -1.77100 30.31800 26.62400
H  -1.78800 29.57600 25.00400
H  -0.54900 29.22000 26.10700
H  -3.39500 27.90200 30.71700
H  -0.29400 26.20100 33.21000
H  -1.75900 25.87600 34.16000
H  -1.25500 27.57600 34.01100

