158

Mg -0.68400 7.64900 25.39400
C  0.49700 9.21300 28.30600
C  -0.98400 4.67400 27.05600
C  -1.21400 6.08600 22.40900
C  -0.02500 10.54400 23.66800
N  -0.17100 6.97100 27.40300
C  0.04200 7.88100 28.41300
C  -0.11500 7.17800 29.74300
C  -0.47700 5.61100 29.40500
C  -0.61800 5.76000 27.87600
C  0.65300 4.57100 29.74500
C  -1.06000 7.72900 30.83900
C  -0.32600 7.71000 32.27400
H  0.75900 6.59800 32.50400
N  -1.03300 5.64300 24.77700
C  -1.16000 4.52000 25.62700
C  -1.50800 3.30300 24.93900
C  -1.46300 3.67700 23.58000
C  -1.24600 5.17600 23.53100
C  -1.72500 1.98700 25.68800
C  -1.69000 2.86500 22.34200
O  -1.58300 3.35200 21.24900
C  -2.01500 1.43400 22.36400
N  -0.58500 8.24500 23.30100
C  -1.02000 7.47800 22.32000
C  -1.20100 8.27400 21.04100
C  -1.01200 9.75000 21.46000
C  -0.50400 9.53000 22.90600
C  -0.12600 7.85800 19.86100
C  -2.29800 10.69700 21.51600
C  -2.49000 11.59600 20.33000
N  0.12000 9.53500 25.87400
C  0.35800 10.60700 25.06800
C  0.90100 11.70600 25.85300
C  0.86500 11.15200 27.19900
C  0.41600 9.87700 27.13400
C  1.19900 13.11900 25.41900
C  1.23200 11.49200 28.53900
O  1.70500 12.51200 29.01400
C  0.93800 10.15800 29.33800
C  2.18000 9.62600 30.01600
O  3.08100 9.17300 29.36300
O  2.16400 9.89200 31.37200
C  3.43100 9.72100 32.10300
H  -0.95300 3.71100 27.57000
H  -1.51100 5.67300 21.44200
H  -0.02200 11.50400 23.14700
H  0.90600 7.09700 30.11600
H  -1.41400 5.30700 29.87300
H  1.48800 4.90400 30.36200
H  1.11400 4.30500 28.79300
H  0.12000 3.72000 30.16800
H  -1.98100 7.14500 30.83200
H  -1.16100 8.78300 30.58100
H  -1.01500 7.61100 33.11300
H  0.05900 8.71600 32.44800
H  -1.92400 2.28400 26.71800
H  -0.79800 1.43600 25.53100
H  -2.54200 1.41000 25.25600
H  -1.41900 0.91700 23.11700
H  -1.76000 0.95900 21.41700
H  -3.08400 1.36200 22.56300
H  -2.18900 8.10700 20.61200
H  -0.24600 10.27700 20.89100
H  0.75900 7.35600 20.25100
H  0.15300 8.72700 19.26600
H  -0.58700 7.15700 19.16500
H  -2.28400 11.30200 22.42200
H  -3.18300 10.06500 21.58900
H  -3.26400 11.14100 19.71100
H  -1.61100 11.62700 19.68700
H  -2.80400 12.57200 20.70100
H  0.24700 13.60500 25.20500
H  1.99400 13.13100 24.67400
H  1.59400 13.74600 26.21800
H  0.14700 10.32800 30.06800
H  3.63600 10.72000 32.48700
H  4.26000 9.41800 31.46300
H  3.46600 9.02800 32.94400
Mg 31.23600 58.78400 41.29700
C  28.22100 57.41500 40.01000
C  32.88000 56.10600 39.97000
C  33.99400 60.50800 41.82800
C  29.25100 61.73900 42.02400
N  30.63100 57.06900 39.94300
C  29.31800 56.64900 39.63100
C  29.37600 55.23500 39.00800
C  30.86700 54.75700 39.33200
C  31.55400 56.06700 39.79000
C  30.98200 53.62200 40.37500
C  28.96800 55.38900 37.49900
C  27.63900 54.74400 36.98900
H  27.50400 54.48900 35.49900
N  33.15300 58.33500 41.05100
C  33.59400 57.17600 40.43800
C  35.02100 57.23700 40.46400
C  35.44100 58.50000 40.97400
C  34.14800 59.17500 41.25800
C  35.80800 56.08600 39.83300
C  36.87000 59.00800 41.16700
O  37.76100 58.19200 40.95000
C  37.20100 60.28000 41.74600
N  31.59800 60.85700 41.91400
C  32.86500 61.29100 42.13200
C  32.84100 62.81200 42.37800
C  31.32600 63.18100 42.63000
C  30.67300 61.84500 42.19100
C  33.74200 63.36000 43.44600
C  30.80800 64.36600 41.79900
C  29.87800 65.33500 42.55200
N  29.18100 59.53000 41.17300
C  28.51400 60.66800 41.52800
C  27.09800 60.54700 41.33900
C  26.94800 59.28700 40.85200
C  28.22300 58.66100 40.70400
C  26.00700 61.49200 41.78100
C  25.95500 58.42100 40.39400
O  24.73400 58.55600 40.31100
C  26.69000 57.10400 39.85800
C  26.29500 55.88800 40.53300
O  26.87600 55.30900 41.48300
O  25.16300 55.32500 40.01100
C  24.61000 54.01200 40.54300
H  33.45100 55.29500 39.51500
H  34.88400 61.13800 41.89200
H  28.67400 62.59400 42.38400
H  28.62200 54.67100 39.55700
H  31.31500 54.37900 38.41300
H  30.07300 53.36500 40.91900
H  31.82600 53.82500 41.03400
H  31.31100 52.78200 39.76300
H  29.81300 55.35700 36.81100
H  28.74900 56.45000 37.37900
H  26.95400 55.57000 37.17500
H  27.20000 53.92400 37.55800
H  35.62200 56.00300 38.76200
H  35.44200 55.18300 40.32100
H  36.83900 56.21800 40.16100
H  36.70600 60.48000 42.69600
H  36.84600 61.05900 41.07100
H  38.24400 60.39400 42.04100
H  33.12700 63.33000 41.46300
H  30.99100 63.32700 43.65700
H  34.11700 62.61400 44.14600
H  33.22200 64.08800 44.06800
H  34.56400 63.82400 42.90000
H  30.25900 64.01200 40.92700
H  31.66600 64.89900 41.38900
H  28.91500 64.82400 42.56400
H  29.72300 66.30400 42.07800
H  30.32800 65.53400 43.52500
H  25.83400 62.19800 40.96900
H  26.32900 61.93400 42.72400
H  25.08900 60.96800 42.04600
H  26.47400 56.90800 38.80800
H  23.91300 54.13700 41.37200
H  25.36500 53.28700 40.84700
H  24.08200 53.54600 39.71100

