158

Mg 17.39600 -0.64200 27.58800
C  16.39500 1.01300 30.41900
C  19.61800 -2.50000 29.54800
C  19.08000 -1.85800 24.86400
C  15.69000 1.54700 25.61100
N  17.94900 -0.70800 29.77700
C  17.42600 0.08900 30.75700
C  18.11400 -0.19300 32.12400
C  19.18900 -1.32900 31.68700
C  18.94700 -1.51900 30.21800
C  20.63700 -0.95600 31.98100
C  17.18900 -0.69800 33.16100
C  16.96800 0.17200 34.41900
H  18.18100 0.66700 35.17100
N  19.01600 -2.06500 27.22500
C  19.73300 -2.80600 28.16400
C  20.48000 -3.89100 27.50400
C  20.18500 -3.80400 26.08900
C  19.37600 -2.57800 26.00600
C  21.26900 -4.96100 28.23400
C  20.57000 -4.69300 24.99900
O  20.18300 -4.58600 23.84500
C  21.49000 -5.89800 25.30500
N  17.38100 -0.20200 25.48900
C  18.15400 -0.86100 24.60200
C  17.90300 -0.23800 23.18200
C  16.65200 0.60500 23.50800
C  16.61000 0.78000 24.93500
C  19.14900 0.53600 22.58100
C  15.31500 0.01200 22.91000
C  14.35400 -0.95500 23.78200
N  16.11700 0.85000 27.88700
C  15.43200 1.66300 27.01300
C  14.63500 2.66100 27.72800
C  14.95900 2.35900 29.07400
C  15.88900 1.27200 29.14900
C  13.72600 3.66900 27.18400
C  14.71400 2.79700 30.43000
O  13.92300 3.67200 30.83200
C  15.72600 2.01200 31.32500
C  16.65800 2.89900 32.04700
O  17.83800 3.06600 31.74800
O  16.09000 3.50600 33.13000
C  16.85400 4.44600 33.92800
H  20.24500 -3.14300 30.17000
H  19.43600 -2.26100 23.91400
H  15.08200 2.08600 24.88200
H  18.63600 0.69500 32.48000
H  18.94400 -2.30400 32.10900
H  21.02700 -1.68400 32.69200
H  20.62000 -0.00200 32.50900
H  21.23100 -0.88600 31.07100
H  17.53300 -1.67000 33.51300
H  16.20600 -0.71000 32.68900
H  16.34700 -0.34500 35.15000
H  16.39600 1.04500 34.10400
H  22.16800 -5.14300 27.64400
H  20.78100 -5.91100 28.44900
H  21.60000 -4.52500 29.17700
H  21.20400 -6.55100 26.12900
H  22.47900 -5.47100 25.46800
H  21.55200 -6.48000 24.38500
H  17.55900 -1.02500 22.51100
H  16.79000 1.58700 23.05600
H  19.98500 0.63700 23.27200
H  18.96800 1.49200 22.08900
H  19.46800 -0.13700 21.78500
H  15.40800 -0.55200 21.98300
H  14.62900 0.81300 22.63500
H  13.64700 -0.39600 24.39500
H  14.90500 -1.53000 24.52600
H  13.70900 -1.58600 23.17200
H  13.76900 3.51900 26.10600
H  14.10100 4.66800 27.41000
H  12.79300 3.39800 27.67900
H  15.21100 1.41200 32.07600
H  16.76400 5.44600 33.50200
H  17.86700 4.06800 34.07000
H  16.44400 4.35700 34.93400
Mg 40.66100 40.70900 26.41000
C  39.93800 42.91800 28.88800
C  42.09000 38.61800 28.72400
C  41.24300 38.42200 23.87500
C  39.89600 43.18300 23.98400
N  41.21000 40.84000 28.59900
C  40.54000 41.78300 29.39800
C  40.78500 41.39900 30.86000
C  41.78500 40.13200 30.76500
C  41.73700 39.82400 29.27300
C  43.19200 40.40100 31.34600
C  39.46800 41.09200 31.64300
C  39.21100 42.01100 32.88200
H  38.75900 41.33200 34.22700
N  41.45900 38.70300 26.34100
C  41.89600 38.03700 27.41100
C  42.32300 36.66900 26.99500
C  42.00500 36.62700 25.61200
C  41.51200 37.94200 25.20000
C  42.90300 35.64600 28.04000
C  42.20700 35.43000 24.59400
O  41.95900 35.44800 23.42000
C  42.96600 34.20000 25.10500
N  40.63000 40.75300 24.23800
C  40.95500 39.68400 23.42900
C  40.79500 40.04900 21.94500
C  40.31800 41.56600 21.96600
C  40.38300 41.89500 23.47800
C  41.98200 39.85800 21.01200
C  38.98000 41.78800 21.27400
C  37.73400 41.81200 22.18700
N  40.00400 42.58600 26.37200
C  39.71500 43.47100 25.36400
C  39.16300 44.68000 25.97700
C  39.25900 44.51700 27.33400
C  39.79800 43.20300 27.56200
C  38.70100 45.91500 25.22100
C  39.13500 45.15800 28.64900
O  38.62100 46.21600 29.02600
C  39.48000 44.10500 29.70500
C  40.54000 44.66300 30.58900
O  41.75500 44.77100 30.36800
O  39.86900 45.09900 31.72400
C  40.63900 46.05000 32.59700
H  42.60400 38.00800 29.47000
H  41.29800 37.63600 23.11900
H  39.51000 43.97100 23.33400
H  41.28600 42.29000 31.23700
H  41.51400 39.24700 31.34000
H  43.19100 41.32300 31.92700
H  43.92000 40.49200 30.54000
H  43.40500 39.53800 31.97600
H  39.49400 40.06600 32.00900
H  38.58700 41.20700 31.01100
H  38.37300 42.59900 32.50800
H  40.09000 42.61900 33.09700
H  42.24000 34.86500 28.41300
H  43.21600 36.16700 28.94500
H  43.77400 35.21300 27.54700
H  42.37300 33.79700 25.92600
H  44.00100 34.46100 25.32500
H  43.07000 33.52300 24.25600
H  39.98800 39.39500 21.61500
H  41.06000 42.17400 21.44900
H  42.92400 40.05200 21.52600
H  41.92600 40.54400 20.16700
H  42.05400 38.81600 20.70100
H  38.88000 41.08000 20.45200
H  39.03300 42.79000 20.84700
H  37.16300 42.73700 22.10400
H  37.86800 41.65500 23.25800
H  37.19000 40.94400 21.81800
H  37.61800 46.01100 25.30400
H  38.99100 45.94200 24.17100
H  39.07500 46.81800 25.70200
H  38.54300 43.92300 30.23300
H  41.12000 45.38900 33.31800
H  39.96200 46.74100 33.10000
H  41.40600 46.59100 32.04300

