158

Mg 25.47400 -0.20400 28.59500
C  27.53100 -0.22200 31.47900
C  22.79100 0.18600 30.74400
C  23.54000 -0.09700 25.92100
C  28.30500 -0.54900 26.60700
N  25.18400 -0.15000 30.85700
C  26.21400 -0.06800 31.82000
C  25.68200 0.08700 33.26000
C  24.14100 0.15600 33.00300
C  24.00100 0.07800 31.44200
C  23.34200 -0.93900 33.66900
C  26.20900 1.35600 34.06200
C  25.55500 1.60000 35.44400
H  26.45200 1.96500 36.61400
N  23.36900 -0.13800 28.42200
C  22.43400 -0.00300 29.42700
C  21.11900 0.08200 28.75900
C  21.32800 0.01800 27.37000
C  22.76900 -0.09800 27.19200
C  19.82100 0.33600 29.53400
C  20.35800 0.02600 26.19300
O  20.75600 -0.07800 25.05100
C  18.86700 0.24300 26.37400
N  25.83500 -0.46700 26.52400
C  24.86500 -0.26300 25.62500
C  25.53400 -0.06800 24.21100
C  27.05300 -0.11100 24.47700
C  27.07400 -0.50800 25.91900
C  24.98500 -1.09200 23.20300
C  27.76900 1.20400 24.28200
C  29.12200 1.33000 23.56700
N  27.50600 -0.45200 28.94900
C  28.57100 -0.58100 28.05400
C  29.78700 -0.75000 28.84300
C  29.42200 -0.60600 30.15100
C  27.98800 -0.42400 30.19000
C  31.18600 -0.90700 28.34200
C  29.95300 -0.54700 31.46100
O  31.09200 -0.61700 31.85700
C  28.73500 -0.27500 32.43900
C  28.61800 -1.14300 33.63300
O  28.46700 -2.35300 33.59600
O  28.97100 -0.51800 34.80900
C  28.81200 -1.28600 36.04400
H  21.91800 0.38800 31.36900
H  23.08900 0.02300 24.93400
H  29.29300 -0.45000 26.15500
H  25.93400 -0.86900 33.71800
H  23.78000 1.16400 33.20600
H  23.84500 -1.30200 34.56500
H  23.10800 -1.75100 32.98100
H  22.37900 -0.48300 33.90200
H  25.94600 2.21400 33.44400
H  27.29800 1.36400 34.10000
H  24.98400 0.72400 35.75300
H  24.78200 2.35700 35.31400
H  19.53100 1.38300 29.45300
H  19.72600 -0.02500 30.55800
H  19.03700 -0.22300 29.02200
H  18.42100 -0.42900 27.10700
H  18.42200 0.02700 25.40200
H  18.72200 1.24800 26.76900
H  25.25400 0.90700 23.81300
H  27.49600 -0.80400 23.76200
H  24.49800 -1.84600 23.82200
H  25.72900 -1.55300 22.55300
H  24.26900 -0.63100 22.52300
H  27.83600 1.74700 25.22500
H  27.11900 1.89100 23.74100
H  28.92100 1.66300 22.54900
H  29.57600 0.34500 23.46600
H  29.80700 2.00400 24.08200
H  31.21000 -0.57100 27.30500
H  31.59700 -1.91400 28.40100
H  31.75000 -0.27300 29.02700
H  28.91500 0.71400 32.86000
H  28.13000 -2.12900 35.93900
H  28.30500 -0.61100 36.73300
H  29.72800 -1.58000 36.55600
Mg 46.40800 24.58100 28.25100
C  46.92700 26.95300 30.73000
C  45.38100 22.33600 30.52600
C  46.50500 22.21800 25.93700
C  47.85400 26.87500 26.08200
N  46.29000 24.69500 30.40600
C  46.40000 25.79200 31.19400
C  46.01000 25.45900 32.63100
C  45.55700 23.96900 32.64100
C  45.80200 23.63200 31.11900
C  46.39400 23.12600 33.64700
C  45.01300 26.44500 33.30600
C  45.52500 27.07500 34.59400
H  44.60200 27.35300 35.78500
N  45.97400 22.54900 28.19800
C  45.45100 21.88400 29.24000
C  45.19100 20.54500 28.80700
C  45.53600 20.46700 27.42200
C  45.94500 21.81400 27.12100
C  44.68900 19.45100 29.70300
C  45.34100 19.30900 26.36000
O  45.45300 19.39600 25.16600
C  44.75400 17.96800 26.83200
N  47.27300 24.50800 26.40300
C  47.11800 23.42100 25.58400
C  47.70700 23.59400 24.19500
C  48.16500 25.13400 24.25800
C  47.70700 25.56900 25.65800
C  48.74800 22.64800 23.51800
C  47.67600 26.01200 23.05900
C  46.18800 26.51300 23.12200
N  47.19000 26.55600 28.27900
C  47.65800 27.37100 27.29800
C  48.03700 28.60700 27.86200
C  47.73400 28.54000 29.13800
C  47.31100 27.23600 29.41100
C  48.72100 29.74100 27.15300
C  47.80400 29.26400 30.46700
O  48.14600 30.46700 30.77600
C  47.25600 28.26500 31.51300
C  48.36000 28.05700 32.52300
O  49.46700 27.58200 32.17700
O  47.99900 28.40500 33.79000
C  48.97500 28.06800 34.85900
H  44.90900 21.67500 31.25500
H  46.27400 21.52400 25.12600
H  48.23300 27.61700 25.37600
H  46.96600 25.56400 33.14500
H  44.51200 23.88700 32.94000
H  45.78700 22.54400 34.34000
H  47.17300 23.69700 34.15200
H  46.89900 22.29900 33.14800
H  44.08200 25.92500 33.53100
H  44.89300 27.28000 32.61500
H  45.89500 28.03000 34.22400
H  46.45000 26.65200 34.98600
H  43.98500 18.77600 29.21600
H  44.33600 19.76800 30.68400
H  45.60700 18.87400 29.81600
H  45.47800 17.66700 27.58900
H  44.77500 17.25100 26.01200
H  43.74000 17.92400 27.23200
H  46.84300 23.58200 23.53000
H  49.25300 25.19200 24.30200
H  48.68600 21.73000 24.10200
H  49.73900 23.10100 23.49200
H  48.44500 22.52600 22.47800
H  47.68700 25.33100 22.20800
H  48.35300 26.86600 23.02100
H  45.73900 26.30900 24.09400
H  45.70300 26.14600 22.21700
H  46.18900 27.60100 23.05800
H  48.57300 30.63000 27.76700
H  48.12400 29.95400 26.26700
H  49.73700 29.47100 26.86600
H  46.39200 28.79900 31.90700
H  49.55900 27.16900 34.66100
H  48.34000 27.78200 35.69700
H  49.69100 28.85100 35.10800

