158

Mg 24.93000 1.75500 29.38100
C  26.97800 1.60500 32.21200
C  22.14200 2.09400 31.57500
C  22.97500 1.80800 26.65000
C  27.78700 1.16500 27.37600
N  24.59700 1.67900 31.64200
C  25.63000 1.81400 32.57000
C  25.04500 2.04300 33.98900
C  23.52700 2.25700 33.72200
C  23.37800 2.01200 32.21500
C  22.60600 1.35000 34.58700
C  25.77700 3.11200 34.89800
C  25.92300 2.71000 36.39700
H  25.82600 3.91100 37.40100
N  22.80500 1.72900 29.17000
C  21.86000 1.89100 30.15200
C  20.54600 1.81900 29.51700
C  20.82200 1.76200 28.07400
C  22.24800 1.71800 27.91100
C  19.27100 1.77600 30.30700
C  19.87500 1.60500 26.91200
O  20.15700 1.70800 25.70700
C  18.42900 1.34900 27.23700
N  25.24500 1.43300 27.35400
C  24.31100 1.79500 26.38000
C  24.96400 1.76700 24.93700
C  26.48900 1.66900 25.31200
C  26.52900 1.41400 26.76700
C  24.51800 0.60500 24.04700
C  27.33000 2.95500 24.82600
C  27.23600 4.19200 25.62500
N  26.95600 1.39000 29.67100
C  28.00500 1.12700 28.78300
C  29.17800 0.86700 29.54300
C  28.79700 1.01400 30.91400
C  27.46000 1.27900 30.92000
C  30.51300 0.62000 29.02600
C  29.39100 0.96400 32.23500
O  30.53300 0.81900 32.62000
C  28.20100 1.42900 33.12100
C  27.96700 0.41000 34.19600
O  27.12900 -0.48300 34.08400
O  28.72600 0.66500 35.30200
C  28.50400 -0.25900 36.42500
H  21.24600 2.15300 32.19700
H  22.43200 1.95900 25.71500
H  28.59200 0.94600 26.67200
H  25.16000 1.12100 34.55900
H  23.32400 3.29900 33.96800
H  22.17900 0.53400 34.00300
H  21.81900 1.93900 35.05800
H  23.21100 0.97000 35.41000
H  25.25000 4.06500 34.87000
H  26.72500 3.30200 34.39400
H  26.95900 2.45200 36.61900
H  25.16200 1.97000 36.64100
H  18.69700 2.67900 30.09600
H  19.26500 1.83200 31.39600
H  18.82900 0.83500 29.98000
H  18.34600 0.49100 27.90500
H  17.84500 1.02500 26.37600
H  17.91300 2.21900 27.64200
H  24.80100 2.76000 24.51700
H  26.92600 0.77700 24.86200
H  25.23300 -0.19500 23.85300
H  24.27600 1.03200 23.07400
H  23.55500 0.21300 24.37600
H  26.99500 3.12100 23.80200
H  28.38900 2.72800 24.70100
H  26.98000 4.01100 26.66900
H  26.49100 4.82700 25.14700
H  28.18800 4.71900 25.54900
H  30.89400 1.41300 28.38200
H  30.48400 -0.26000 28.38400
H  31.15700 0.53300 29.90100
H  28.42200 2.42000 33.51800
H  29.04800 -1.16800 36.17200
H  27.45300 -0.54500 36.46600
H  28.78600 0.19800 37.37400
Mg 35.54500 48.47500 25.31300
C  36.02300 46.48700 28.20100
C  34.43800 50.95100 27.28600
C  34.62000 49.94700 22.52100
C  36.90900 45.78100 23.35000
N  35.27100 48.68100 27.52600
C  35.57200 47.80000 28.51200
C  35.23900 48.39900 29.94700
C  34.77100 49.80200 29.57500
C  34.80600 49.81100 27.99300
C  33.41800 50.20400 30.20500
C  36.50500 48.48000 30.90700
C  36.26000 48.37200 32.41600
H  34.85300 48.64800 32.87500
N  34.80700 50.29600 24.91600
C  34.34400 51.17800 25.86600
C  33.85000 52.37400 25.15200
C  33.90600 52.11800 23.74700
C  34.43900 50.74200 23.65300
C  33.62500 53.66700 25.84800
C  33.70600 52.97200 22.51400
O  33.95900 52.63700 21.34000
C  33.21700 54.42800 22.61400
N  35.76100 47.95000 23.19600
C  35.22400 48.76200 22.24100
C  35.61700 48.18100 20.82700
C  36.62100 46.98300 21.11000
C  36.45500 46.86700 22.65500
C  34.34400 47.95000 19.99200
C  38.10800 47.13700 20.66900
C  38.93300 48.23800 21.35700
N  36.30900 46.53400 25.64500
C  36.75300 45.51000 24.77500
C  36.93000 44.29700 25.47000
C  36.61800 44.62200 26.83600
C  36.32300 46.02200 26.86400
C  37.34900 43.01500 24.79900
C  36.52600 44.00900 28.18700
O  36.57000 42.87700 28.57400
C  36.21300 45.28200 29.14700
C  35.07200 44.83000 29.95700
O  33.93200 44.82100 29.55900
O  35.36600 44.53300 31.20600
C  34.33300 44.42500 32.18500
H  34.21600 51.76700 27.97700
H  34.29600 50.29200 21.53600
H  37.42500 45.05300 22.72200
H  34.37700 47.89100 30.38000
H  35.50700 50.49900 29.97900
H  33.47000 51.18000 30.69000
H  33.01300 49.41700 30.84100
H  32.67300 50.32500 29.41900
H  37.08300 49.34300 30.57600
H  37.09000 47.58100 30.71300
H  36.97100 49.09600 32.81200
H  36.65900 47.40200 32.71400
H  34.16800 54.46700 25.34500
H  34.22100 53.52100 26.74900
H  32.58300 53.94700 25.99800
H  34.11300 55.04800 22.62000
H  32.56100 54.55300 23.47600
H  32.48400 54.57500 21.82100
H  36.05100 49.04200 20.31800
H  36.17400 46.09100 20.67100
H  33.85200 48.90400 19.80300
H  33.70400 47.25400 20.53400
H  34.79100 47.62100 19.05400
H  37.91100 47.51600 19.66600
H  38.65300 46.20400 20.53000
H  39.92200 47.88600 21.65300
H  38.43600 48.54000 22.27900
H  39.17000 49.08100 20.70900
H  36.60300 42.57600 24.13600
H  37.61300 42.45300 25.69500
H  38.30500 43.16400 24.29800
H  37.07800 45.50700 29.77100
H  33.45700 43.90300 31.80100
H  34.06000 45.43400 32.49500
H  34.74100 43.84800 33.01500

