158

Mg 36.41800 2.33600 29.88300
C  34.31900 3.46000 32.52400
C  38.97600 2.03900 32.18600
C  38.52100 1.95800 27.36500
C  33.74200 2.74500 27.73400
N  36.57500 2.82300 32.07400
C  35.65500 3.14600 32.94100
C  36.12800 3.16400 34.38700
C  37.54100 2.56400 34.23700
C  37.69200 2.36000 32.74400
C  38.78400 3.27500 34.92200
C  35.21200 2.46600 35.43400
C  34.72100 3.27000 36.73300
H  35.48300 4.44100 37.33200
N  38.51900 2.01900 29.82200
C  39.37800 1.86100 30.86300
C  40.66300 1.50000 30.29600
C  40.56900 1.47000 28.88300
C  39.16100 1.88800 28.66700
C  41.81000 1.19500 31.14500
C  41.67300 1.14500 27.82000
O  41.50500 1.36300 26.63900
C  42.98500 0.32200 28.28200
N  36.17400 2.24500 27.82300
C  37.22200 2.13900 26.93900
C  36.72500 2.15500 25.42000
C  35.13900 2.02900 25.64000
C  34.96600 2.35800 27.17400
C  37.13000 3.46000 24.68700
C  34.46800 0.67500 25.29500
C  32.91300 0.56900 25.33800
N  34.40100 2.98200 29.99900
C  33.44700 3.11900 29.01900
C  32.20700 3.63000 29.52500
C  32.51700 3.74300 30.91800
C  33.83400 3.40000 31.16800
C  31.06500 3.88700 28.75300
C  31.96100 4.17700 32.18700
O  30.85800 4.65300 32.37700
C  33.11800 3.96000 33.27200
C  33.31200 5.27100 34.02700
O  34.39700 5.91800 34.14200
O  32.16700 5.62100 34.74100
C  32.30200 6.85400 35.51200
H  39.62700 1.64900 32.97100
H  39.17900 1.75400 26.51700
H  32.83800 2.65500 27.12800
H  36.23400 4.23300 34.57700
H  37.47700 1.52600 34.56400
H  39.31800 2.53100 35.51200
H  38.43300 4.07600 35.57200
H  39.47100 3.85500 34.30600
H  35.74400 1.59400 35.81500
H  34.30200 2.09500 34.96300
H  34.80600 2.47100 37.47000
H  33.65200 3.46700 36.64400
H  41.65200 1.19600 32.22400
H  42.70200 1.77200 30.90000
H  41.91300 0.11200 31.08000
H  43.52800 0.90700 29.02300
H  43.65900 0.16900 27.43900
H  42.79200 -0.59300 28.84200
H  37.17700 1.28300 24.94800
H  34.59500 2.72500 25.00100
H  37.44700 4.22300 25.39700
H  36.39100 3.81200 23.96800
H  37.99800 3.11600 24.12400
H  35.01900 -0.09500 25.83500
H  34.71900 0.47700 24.25300
H  32.69000 -0.08800 26.17800
H  32.41900 0.12900 24.47200
H  32.48400 1.55400 25.52500
H  30.63900 2.93700 28.43000
H  31.17100 4.63900 27.97200
H  30.33000 4.24000 29.47600
H  32.66900 3.17400 33.87900
H  32.44000 7.71000 34.85200
H  33.15800 6.70900 36.17000
H  31.43700 7.08600 36.13500
Mg 41.21300 9.04500 30.08500
C  43.13600 10.35700 32.71400
C  38.81400 7.96900 32.29500
C  39.35900 7.91700 27.47600
C  43.76400 10.02300 27.85300
N  40.99800 9.22100 32.26800
C  41.86700 9.86300 33.18300
C  41.31600 9.81700 34.64800
C  40.07100 8.78800 34.48000
C  39.94300 8.66400 32.93500
C  40.32200 7.45100 35.18800
C  41.04000 11.18800 35.24300
C  40.36100 11.23400 36.68800
H  41.05300 12.17400 37.65300
N  39.29600 8.05400 29.89900
C  38.47900 7.72800 30.95500
C  37.30600 7.13000 30.39700
C  37.38000 7.15200 28.95500
C  38.69000 7.75900 28.74100
C  36.25700 6.53400 31.33900
C  36.37600 6.67900 27.86100
O  36.66800 6.59800 26.68600
C  34.91500 6.24600 28.24900
N  41.57500 8.87700 27.99900
C  40.62100 8.46300 27.17800
C  41.00200 8.51800 25.75400
C  42.46000 9.13200 25.84400
C  42.63000 9.39000 27.31300
C  40.91900 7.29400 24.80600
C  42.72800 10.37100 24.92400
C  42.34200 11.74200 25.50300
N  43.06100 9.93600 30.19700
C  44.00600 10.22400 29.21400
C  45.08000 10.95500 29.78000
C  44.80500 11.05700 31.13600
C  43.56900 10.35900 31.37900
C  46.24000 11.54000 29.10400
C  45.15400 11.68300 32.43800
O  46.06800 12.50700 32.63700
C  44.09200 11.25000 33.52300
C  44.73400 10.48800 34.62900
O  45.36300 9.49800 34.55000
O  44.41500 11.13800 35.77700
C  44.61700 10.34500 37.05900
H  37.97400 7.78400 32.96900
H  38.79100 7.70200 26.56800
H  44.53100 10.45900 27.20900
H  42.08400 9.30800 35.23200
H  39.10500 9.14600 34.83600
H  39.75900 7.34400 36.11500
H  41.38300 7.37100 35.42400
H  40.06600 6.60700 34.54700
H  40.46900 11.86600 34.60800
H  42.00300 11.67200 35.40300
H  40.34300 10.27400 37.20500
H  39.35200 11.63500 36.59500
H  36.10600 5.50700 31.00600
H  35.32100 7.05800 31.14700
H  36.50400 6.34600 32.38300
H  34.27500 6.35700 27.37400
H  34.61600 6.73300 29.17800
H  35.13500 5.20100 28.46700
H  40.40200 9.30000 25.28800
H  43.31000 8.55600 25.47900
H  40.85900 6.36000 25.36500
H  41.81500 7.34500 24.18700
H  40.11600 7.35000 24.07100
H  42.24300 10.24800 23.95500
H  43.81200 10.42400 24.82200
H  41.47500 11.60000 26.14800
H  42.05900 12.39600 24.67900
H  43.16900 12.09200 26.12100
H  45.93700 12.23200 28.31900
H  46.80400 10.71400 28.67100
H  46.92300 12.04500 29.78700
H  43.65200 12.21200 33.78800
H  44.26900 9.31500 36.98100
H  44.20500 10.80300 37.95900
H  45.67800 10.42300 37.29800

