158

Mg 43.22400 4.02900 47.22800
C  41.05200 6.68000 47.25900
C  40.40900 1.85500 47.29900
C  45.30300 1.40900 46.95300
C  45.88800 6.19300 46.91000
N  41.01500 4.27500 47.43900
C  40.40200 5.47000 47.33900
C  38.82700 5.25800 47.24600
C  38.61700 3.70200 47.34500
C  40.09300 3.22000 47.53000
C  37.65400 3.22100 48.47700
C  38.08900 5.84700 46.01500
C  38.75900 5.49800 44.62400
H  38.30900 6.30400 43.28500
N  42.89900 1.97100 47.13300
C  41.69100 1.26600 47.11800
C  41.97800 -0.07700 46.90000
C  43.39700 -0.26800 46.80200
C  43.92300 1.09400 46.98700
C  40.85800 -1.12000 46.73600
C  44.12000 -1.58500 46.56900
O  43.52900 -2.64000 46.38400
C  45.53800 -1.70200 46.48500
N  45.29600 3.76000 46.75900
C  45.95000 2.62500 46.86800
C  47.45800 2.79400 46.64600
C  47.61500 4.35700 46.79100
C  46.16400 4.82000 46.73900
C  48.34700 1.82600 47.44700
C  48.51400 5.08300 45.74900
C  49.64600 4.20600 45.15100
N  43.53400 6.10600 47.01700
C  44.62300 6.88800 46.97200
C  44.31100 8.34300 46.91100
C  42.92700 8.25700 47.06600
C  42.49900 6.87500 47.17600
C  45.21400 9.57500 46.90900
C  41.75600 9.10800 47.29400
O  41.63200 10.33100 47.34600
C  40.47500 8.11800 47.28000
C  39.61700 8.51100 48.44900
O  39.77600 8.03200 49.56600
O  38.51200 9.23100 48.09000
C  37.40300 9.32600 49.09000
H  39.48800 1.26900 47.24900
H  46.07700 0.66000 46.76900
H  46.80400 6.78300 46.83200
H  38.30300 5.63300 48.12500
H  38.27200 3.22700 46.42600
H  38.03600 2.38000 49.05500
H  36.72900 2.93800 47.97500
H  37.35100 3.98200 49.19700
H  37.97400 6.93000 46.06100
H  37.13100 5.32800 46.04500
H  38.61700 4.42600 44.48400
H  39.83100 5.61300 44.78000
H  40.67200 -1.23100 45.66800
H  39.97800 -0.72800 47.24500
H  41.12600 -2.05000 47.23800
H  46.04500 -1.70100 47.45000
H  45.94600 -1.00500 45.75300
H  45.75000 -2.67000 46.03200
H  47.64400 2.59700 45.59000
H  47.97500 4.72300 47.75200
H  48.84300 1.13200 46.76700
H  47.78100 1.23000 48.16200
H  49.06000 2.43300 48.00500
H  49.07700 5.87500 46.24300
H  47.96300 5.44300 44.88000
H  50.53200 4.84100 45.13100
H  49.29100 3.82300 44.19500
H  49.93000 3.43500 45.86700
H  45.32000 10.03200 47.89300
H  44.74800 10.33300 46.28100
H  46.13500 9.21600 46.45000
H  40.04900 8.18900 46.27900
H  37.47300 10.30100 49.57200
H  37.49800 8.62100 49.91600
H  36.43300 9.26800 48.59700
Mg 35.15200 2.13000 29.52300
C  32.94500 3.28800 31.98800
C  37.74000 2.37800 31.81000
C  37.26400 1.40800 26.97700
C  32.53400 2.50300 27.05300
N  35.26100 2.91500 31.67700
C  34.22400 3.02200 32.47300
C  34.67900 3.20400 33.91900
C  36.25200 3.18100 33.83700
C  36.45800 2.79900 32.31200
C  36.93600 4.49400 34.24800
C  34.03100 2.05500 34.76300
C  33.25800 2.51900 35.95500
H  33.97500 3.55800 36.84800
N  37.17200 1.86800 29.42300
C  38.07000 1.97300 30.50600
C  39.37700 1.74800 30.07400
C  39.29000 1.48800 28.61700
C  37.84900 1.52500 28.28500
C  40.60800 1.75100 30.96100
C  40.34000 1.30200 27.57700
O  40.07800 1.03800 26.43500
C  41.76900 1.22600 27.96200
N  34.95200 2.11400 27.31600
C  35.94200 1.66100 26.53500
C  35.39100 1.29000 25.10600
C  33.91600 1.30700 25.21400
C  33.79700 2.03000 26.60500
C  35.89000 2.27600 24.05000
C  33.21000 -0.04900 25.13000
C  33.42000 -0.91500 23.88400
N  33.14300 2.74800 29.49800
C  32.22400 2.87200 28.42200
C  31.02400 3.41500 28.96600
C  31.25900 3.69500 30.29600
C  32.56800 3.20600 30.58800
C  29.79100 3.59900 28.18900
C  30.67500 4.16500 31.56800
O  29.51400 4.53600 31.72700
C  31.73700 3.93200 32.68400
C  32.03200 5.35400 33.07000
O  32.93600 6.07800 32.59300
O  31.15900 5.76600 33.97700
C  31.40100 7.02300 34.56500
H  38.53800 2.36200 32.55600
H  37.83900 0.88000 26.21300
H  31.77100 2.36800 26.28300
H  34.28200 4.17700 34.20800
H  36.66000 2.42600 34.51000
H  37.81700 4.73000 33.65100
H  37.29800 4.51200 35.27600
H  36.15100 5.24600 34.17100
H  34.84000 1.41100 35.10800
H  33.37400 1.48900 34.10300
H  33.07900 1.68600 36.63400
H  32.30100 2.92700 35.63100
H  41.36500 1.10500 30.51800
H  40.47200 1.33200 31.95800
H  40.77400 2.82800 30.98100
H  41.84400 0.22200 28.37800
H  42.13500 1.91600 28.72300
H  42.39600 1.34200 27.07800
H  35.82800 0.32400 24.85800
H  33.48000 1.97700 24.47400
H  36.19700 3.19800 24.54400
H  35.13600 2.49300 23.29400
H  36.75000 1.96400 23.45800
H  32.15200 0.21100 25.13500
H  33.48900 -0.59500 26.03100
H  33.68700 -1.90500 24.25600
H  34.21800 -0.74800 23.16100
H  32.47600 -0.95200 23.34000
H  29.99700 3.27400 27.17000
H  29.40000 4.61500 28.24400
H  28.97600 2.93800 28.48300
H  31.19900 3.35600 33.43600
H  31.43900 7.86900 33.87900
H  32.41100 6.95800 34.96800
H  30.78000 7.31900 35.41000

