158

Mg 16.97600 -1.59400 28.57200
C  15.82200 0.59800 31.10000
C  18.91900 -3.18200 30.96100
C  18.51800 -3.31400 26.09800
C  15.48000 0.61100 26.25500
N  17.13200 -1.47800 30.83600
C  16.61800 -0.43500 31.60900
C  17.14000 -0.55700 33.05600
C  18.33000 -1.68100 32.91800
C  18.12700 -2.07100 31.43700
C  19.70900 -1.12100 33.29800
C  15.92600 -1.07900 33.87400
C  15.72800 -0.38300 35.23500
H  16.84300 0.25400 35.98800
N  18.29300 -3.16000 28.61700
C  18.95100 -3.72600 29.68600
C  19.56700 -4.94800 29.20000
C  19.61200 -4.92000 27.81900
C  18.80200 -3.74500 27.43200
C  20.15900 -6.01800 30.09300
C  20.20700 -5.93800 26.85100
O  20.12000 -5.85100 25.68600
C  21.12200 -7.00200 27.37900
N  17.16900 -1.23100 26.46200
C  17.80300 -2.20100 25.66500
C  17.53600 -1.89500 24.21600
C  16.40400 -0.81200 24.27400
C  16.31600 -0.42900 25.72300
C  18.94200 -1.48600 23.57300
C  15.04500 -1.25800 23.63900
C  14.38600 -0.22000 22.66000
N  15.72300 0.12000 28.63100
C  15.21000 0.89600 27.57700
C  14.34200 1.95100 28.12400
C  14.52200 1.83300 29.49600
C  15.45600 0.76500 29.73700
C  13.61500 3.06300 27.35800
C  14.17400 2.45400 30.79100
O  13.44400 3.34100 31.10900
C  15.14800 1.73100 31.85500
C  16.07300 2.78900 32.48600
O  17.00700 3.33100 31.84200
O  15.68700 3.15300 33.77400
C  16.48200 4.19800 34.40200
H  19.55200 -3.53100 31.78000
H  19.03000 -3.81700 25.27400
H  14.89100 1.19300 25.54400
H  17.53200 0.41000 33.37000
H  18.09700 -2.55800 33.52000
H  19.70800 -0.15100 33.79400
H  20.37700 -1.14600 32.43700
H  20.22700 -1.81600 33.96000
H  15.87800 -2.15000 34.07200
H  15.03100 -0.87400 33.28600
H  15.47200 -1.26500 35.82100
H  14.80300 0.18800 35.31100
H  21.20100 -6.07300 30.40600
H  19.68900 -6.94100 29.75200
H  19.69600 -5.81000 31.05800
H  21.99600 -6.62800 27.91300
H  21.42500 -7.60300 26.52200
H  20.51400 -7.68500 27.97100
H  17.14500 -2.79900 23.74900
H  16.62000 0.14500 23.79800
H  19.00000 -0.40500 23.44400
H  19.07100 -1.97300 22.60600
H  19.80900 -1.74500 24.18100
H  14.48400 -1.50200 24.54200
H  15.09400 -2.20000 23.09200
H  15.20200 0.38300 22.26100
H  13.69900 0.36800 23.26700
H  13.82400 -0.65500 21.83300
H  13.83900 3.16500 26.29700
H  13.91900 4.05300 27.69900
H  12.58200 2.79400 27.58100
H  14.49300 1.43700 32.67500
H  16.47400 5.00500 33.67000
H  17.46400 3.74900 34.54900
H  16.03600 4.48100 35.35600
Mg 47.30600 25.35100 28.06200
C  48.26200 27.55000 30.48600
C  46.46400 23.11400 30.66800
C  46.84000 22.90800 25.81400
C  48.58500 27.40500 25.61600
N  47.06800 25.44900 30.26100
C  47.70700 26.43000 31.07300
C  47.45000 26.27600 32.53200
C  46.93800 24.73400 32.56800
C  46.86600 24.36600 31.02800
C  47.77300 23.66100 33.29900
C  46.46100 27.31500 33.12400
C  45.57300 26.98500 34.34000
H  45.53400 27.95200 35.54300
N  46.53700 23.29200 28.17300
C  46.34800 22.56700 29.33300
C  46.07900 21.18800 28.99600
C  46.00800 21.16700 27.63600
C  46.42900 22.46800 27.12200
C  45.89900 20.06400 30.06100
C  45.49700 20.12300 26.66500
O  45.58400 20.07700 25.42900
C  44.85300 18.98200 27.29200
N  47.55000 25.20000 26.00400
C  47.29300 24.13300 25.30900
C  47.78400 24.28100 23.83800
C  48.06700 25.79300 23.66100
C  48.21300 26.13500 25.18100
C  48.95300 23.42700 23.27400
C  46.83200 26.53300 23.08400
C  47.17800 27.81800 22.45900
N  48.19500 27.09800 28.01400
C  48.64500 27.79200 26.95600
C  49.16400 29.10000 27.41600
C  49.04400 29.01400 28.79200
C  48.48500 27.75900 29.10600
C  49.77700 30.17500 26.59300
C  49.27000 29.74800 30.06200
O  49.72700 30.85100 30.32400
C  48.66800 28.81200 31.15300
C  49.64200 28.68300 32.25800
O  50.62200 27.94200 32.23100
O  49.34900 29.59000 33.28800
C  50.30200 29.51700 34.43800
H  46.36500 22.37300 31.46300
H  46.79400 22.13300 25.04600
H  48.95300 28.04700 24.81300
H  48.42600 26.34700 33.01200
H  45.93100 24.65700 32.97800
H  47.08400 22.94800 33.75100
H  48.33400 24.08100 34.13500
H  48.44300 23.19800 32.57600
H  45.91000 27.67600 32.25500
H  47.12900 28.08200 33.51700
H  46.00800 26.07500 34.75300
H  44.62100 26.73900 33.86800
H  46.46000 19.23300 29.63400
H  44.83200 19.87900 30.18700
H  46.29800 20.27700 31.05200
H  45.58900 18.28800 27.69800
H  44.18900 18.54900 26.54300
H  44.24200 19.39900 28.09200
H  46.90900 24.01600 23.24500
H  48.96500 25.95300 23.06300
H  49.88000 23.89000 23.61200
H  48.80800 23.26000 22.20700
H  48.92300 22.58800 23.96800
H  46.03900 26.61800 23.82700
H  46.44600 25.96200 22.23900
H  46.50600 28.60500 22.80000
H  47.10200 27.79200 21.37100
H  48.18000 28.22600 22.59000
H  50.73600 29.77000 26.27200
H  49.92000 31.03200 27.25200
H  49.30900 30.47200 25.65400
H  47.80500 29.27700 31.63100
H  50.20200 28.48900 34.78700
H  49.84200 30.19000 35.16100
H  51.35800 29.75600 34.31800

