158

Mg 6.20000 54.00600 40.34600
C  5.95500 50.45300 40.29900
C  9.53500 53.60500 39.32300
C  6.29200 57.23700 39.64100
C  2.75500 54.16900 40.96800
N  7.56300 52.21600 39.90800
C  7.22000 50.91000 39.99100
C  8.44200 50.06400 39.59100
C  9.61600 51.05900 39.55700
C  8.86400 52.39600 39.61300
C  10.80200 50.93900 40.59600
C  8.32300 49.15100 38.35800
C  7.81900 49.78400 37.07000
H  6.69300 49.02800 36.35800
N  7.72500 55.29200 39.64100
C  8.99500 54.92400 39.41100
C  9.79400 56.11400 39.12500
C  8.96400 57.23100 39.29300
C  7.60000 56.63900 39.48400
C  11.28900 56.12900 38.87000
C  9.41300 58.76400 39.17700
O  10.55600 59.02900 38.92800
C  8.38400 59.81700 39.34500
N  4.74300 55.43300 40.10800
C  5.02100 56.74300 39.91900
C  3.86000 57.64400 40.23200
C  2.66100 56.68200 40.43600
C  3.42900 55.35400 40.54600
C  4.13100 58.41800 41.53100
C  1.50900 56.82900 39.38400
C  0.11700 57.13900 39.84700
N  4.59800 52.64200 40.62800
C  3.26200 52.88700 41.01000
C  2.66900 51.60700 41.25200
C  3.64400 50.64500 41.06100
C  4.79400 51.31400 40.58300
C  1.33600 51.44100 41.82300
C  3.94000 49.31500 41.25500
O  3.36100 48.42600 41.84600
C  5.32900 49.07800 40.66800
C  5.09100 48.23100 39.50500
O  4.27700 48.37700 38.60500
O  5.86500 47.11000 39.61100
C  5.55100 45.92100 38.89100
H  10.61400 53.52700 39.17800
H  6.39600 58.30300 39.42800
H  1.72600 54.40900 41.24500
H  8.57400 49.38600 40.43400
H  9.99900 51.05600 38.53700
H  11.77400 50.95200 40.10400
H  10.69900 50.08900 41.27100
H  10.77900 51.76100 41.31000
H  7.96900 48.15700 38.63100
H  9.36900 48.97900 38.10300
H  8.54400 49.75000 36.25600
H  7.49700 50.80200 37.29200
H  11.47400 56.58200 37.89500
H  11.66700 55.10800 38.90400
H  11.74000 56.72600 39.66300
H  8.00600 59.77200 40.36600
H  7.56400 59.75800 38.63000
H  8.85400 60.78700 39.18500
H  3.72000 58.34200 39.40600
H  2.16000 56.87200 41.38500
H  3.48000 58.26100 42.39100
H  4.03300 59.47900 41.30000
H  5.17400 58.24500 41.79500
H  1.41900 55.81300 39.00000
H  1.77000 57.47000 38.54200
H  -0.59400 56.39800 39.48300
H  -0.20400 58.09900 39.44200
H  -0.10100 57.07600 40.91300
H  0.72100 51.15300 40.97100
H  1.12600 52.34100 42.40100
H  1.26100 50.61400 42.52900
H  5.86900 48.48700 41.40700
H  5.76500 45.91100 37.82200
H  4.50000 45.63400 38.91700
H  5.98600 45.09600 39.45500
Mg -1.90200 34.59500 27.09300
C  -3.61600 32.69300 29.53400
C  -0.59200 36.55600 29.61000
C  -0.56900 36.52700 24.72000
C  -3.79100 32.98100 24.65100
N  -2.19000 34.66100 29.31500
C  -2.78600 33.71800 30.06100
C  -2.43600 33.94800 31.54300
C  -1.54400 35.21200 31.51800
C  -1.45600 35.55700 30.02300
C  -2.07800 36.44700 32.28000
C  -1.86000 32.74500 32.35400
C  -2.78800 32.14100 33.45200
H  -2.10100 32.01600 34.91100
N  -0.72500 36.22200 27.10500
C  -0.28200 36.85800 28.23300
C  0.65200 37.87000 27.78800
C  0.75200 37.88700 26.38900
C  -0.19700 36.81000 26.01100
C  1.28900 38.81300 28.73800
C  1.64600 38.74500 25.40000
O  1.54200 38.71600 24.18900
C  2.64000 39.72300 25.89100
N  -2.13800 34.73600 24.97100
C  -1.41700 35.59600 24.17700
C  -1.59500 35.23500 22.74200
C  -2.52300 34.04900 22.77900
C  -2.82300 33.83300 24.26500
C  -2.19200 36.49300 22.02700
C  -1.83100 32.79200 22.14600
C  -0.63400 32.17500 22.84600
N  -3.36300 33.06000 27.02700
C  -4.01000 32.47500 25.99500
C  -4.83100 31.39600 26.50600
C  -4.66300 31.40700 27.85400
C  -3.79300 32.49300 28.18200
C  -5.77400 30.49200 25.73200
C  -5.17300 30.80900 29.16300
O  -6.07500 30.01100 29.42100
C  -4.44900 31.62700 30.29500
C  -5.47200 32.33200 31.15800
O  -5.93100 33.42100 30.95000
O  -5.85500 31.55800 32.30300
C  -6.32100 32.37600 33.39300
H  0.05800 37.04400 30.34000
H  -0.06000 37.16300 23.99300
H  -4.39700 32.47400 23.89700
H  -3.34600 34.25100 32.06000
H  -0.50500 35.02800 31.79200
H  -2.94300 36.25500 32.91600
H  -2.25800 37.30000 31.62600
H  -1.28400 36.79700 32.93900
H  -0.90600 32.94400 32.84200
H  -1.55900 32.01100 31.60600
H  -3.10000 31.12600 33.20700
H  -3.53600 32.93000 33.53300
H  0.76900 38.91600 29.69100
H  1.35700 39.79800 28.27600
H  2.31800 38.57600 29.00800
H  3.06400 39.07600 26.65900
H  2.14800 40.62000 26.27000
H  3.37600 40.01000 25.14100
H  -0.63300 34.83500 22.42100
H  -3.45800 34.23400 22.25200
H  -3.17700 36.75200 22.41500
H  -2.41400 36.34600 20.97000
H  -1.59900 37.40500 22.08900
H  -1.59500 33.02300 21.10700
H  -2.65200 32.07600 22.11300
H  -0.48600 32.57800 23.84800
H  0.20500 32.28200 22.15700
H  -0.84300 31.11800 23.01300
H  -5.19900 29.88500 25.03300
H  -6.54500 31.12500 25.29200
H  -6.29900 29.82100 26.41100
H  -3.82100 31.01400 30.94200
H  -5.55900 32.65800 34.12000
H  -6.96800 31.67900 33.92600
H  -6.95000 33.21500 33.09200

