158

Mg 36.12100 49.34200 24.99800
C  36.51900 47.47600 28.04100
C  35.29200 52.09600 26.93100
C  35.57900 51.19600 22.16500
C  37.03200 46.51700 23.15900
N  35.73700 49.62300 27.28300
C  36.07900 48.81100 28.29400
C  36.01500 49.60500 29.62500
C  35.59000 51.03000 29.20000
C  35.53000 50.92800 27.68400
C  34.20000 51.46500 29.83000
C  37.37000 49.52400 30.43400
C  37.28000 48.82000 31.81100
H  35.94200 48.87000 32.51900
N  35.54300 51.39600 24.63200
C  35.27200 52.31500 25.54300
C  34.97600 53.56200 24.90100
C  35.08700 53.33600 23.51200
C  35.39200 51.89600 23.35200
C  34.68900 54.81200 25.65300
C  34.95900 54.33100 22.35400
O  35.15600 54.03200 21.15400
C  34.62700 55.86300 22.70300
N  36.12100 48.78000 23.03800
C  36.02800 49.79700 22.01400
C  36.18800 49.16300 20.57600
C  36.72700 47.73900 20.98800
C  36.66500 47.62400 22.46200
C  34.97200 49.11200 19.62000
C  37.97900 47.25700 20.30100
C  39.21300 47.84300 20.95900
N  36.70100 47.43800 25.42100
C  37.06600 46.36000 24.58100
C  37.49700 45.20400 25.35400
C  37.15400 45.56000 26.68800
C  36.79600 46.97300 26.73100
C  38.09200 43.89500 24.66000
C  37.11400 45.06000 28.11800
O  37.43600 44.01500 28.67500
C  36.77700 46.32400 29.00500
C  35.52900 46.01100 29.85400
O  34.44300 46.57600 29.69400
O  35.82900 45.13700 30.85500
C  34.70200 44.58000 31.61100
H  35.08800 52.91500 27.62300
H  35.53300 51.81800 21.26900
H  37.47100 45.78000 22.48200
H  35.25800 49.10600 30.23100
H  36.39200 51.76600 29.25500
H  34.17300 52.51300 30.12600
H  34.01100 50.96500 30.78000
H  33.29000 51.17300 29.30500
H  37.80400 50.52200 30.50100
H  38.14400 49.03000 29.84600
H  38.10900 49.15400 32.43500
H  37.38500 47.75100 31.62500
H  35.54500 55.46900 25.80100
H  34.15700 54.63300 26.58700
H  33.92500 55.43000 25.18100
H  35.40000 56.21800 23.38400
H  33.65500 55.93800 23.19100
H  34.71900 56.36600 21.74000
H  36.95000 49.71100 20.02100
H  36.00200 47.01500 20.61700
H  33.99900 49.11800 20.11200
H  35.01200 48.16500 19.08100
H  35.02300 49.90400 18.87300
H  38.07000 47.67400 19.29700
H  37.96700 46.17000 20.22900
H  39.91400 48.33100 20.28200
H  39.67400 46.91400 21.29500
H  39.04000 48.43300 21.85900
H  37.44500 43.48500 23.88400
H  38.35400 43.18700 25.44600
H  39.09700 44.11000 24.29600
H  37.68600 46.58300 29.54700
H  34.26700 43.78200 31.01000
H  33.95200 45.32800 31.86900
H  35.04100 44.27100 32.60000
Mg -13.20400 16.09100 42.74500
C  -10.36400 14.20100 41.94700
C  -11.85200 18.65100 40.77600
C  -16.23200 17.61400 42.47900
C  -14.81300 13.04800 43.51800
N  -11.34000 16.36500 41.38000
C  -10.33100 15.46000 41.32300
C  -9.13100 16.04900 40.46200
C  -9.58300 17.55400 40.21200
C  -10.99700 17.53800 40.81800
C  -8.62200 18.60100 40.83300
C  -8.70300 15.30100 39.18600
C  -7.23000 15.03500 38.95200
H  -6.45100 15.85000 37.87800
N  -13.87600 17.96600 41.93600
C  -13.13000 18.87900 41.31200
C  -13.87400 20.12500 41.25100
C  -15.15100 19.83300 41.80500
C  -15.18000 18.41000 42.02500
C  -13.22600 21.39400 40.74300
C  -16.20600 20.82100 42.14200
O  -16.18700 22.02600 41.68900
C  -17.41200 20.56400 42.88900
N  -15.22900 15.38300 42.97300
C  -16.26300 16.31400 43.00100
C  -17.62700 15.59700 43.40100
C  -17.16100 14.19200 43.74400
C  -15.64300 14.15600 43.41600
C  -18.63000 16.35800 44.28300
C  -17.98000 12.96000 43.12300
C  -19.47800 13.09700 42.75800
N  -12.61900 14.07000 42.94800
C  -13.40200 12.95100 43.31900
C  -12.48900 11.84400 43.47300
C  -11.26100 12.29800 43.08400
C  -11.45800 13.59700 42.54900
C  -12.90900 10.44000 43.75100
C  -9.85800 11.96700 42.87300
O  -9.17400 10.97200 43.08300
C  -9.21600 13.22000 42.09700
C  -8.03000 13.75900 42.82700
O  -8.04200 14.54200 43.72500
O  -6.87400 13.17200 42.34900
C  -5.63800 13.70600 43.01300
H  -11.27900 19.46900 40.33400
H  -17.23200 18.05000 42.43900
H  -15.22300 12.12700 43.93700
H  -8.31400 15.92700 41.17300
H  -9.70400 17.84200 39.16800
H  -9.02400 19.02500 41.75300
H  -8.62700 19.39200 40.08300
H  -7.62700 18.18900 40.99900
H  -8.97200 15.96600 38.36600
H  -9.27900 14.37800 39.13000
H  -7.15200 13.97500 38.70900
H  -6.76400 15.20800 39.92200
H  -13.50700 21.55300 39.70200
H  -12.14000 21.32900 40.80900
H  -13.48000 22.20500 41.42600
H  -17.86300 21.43500 43.36500
H  -17.33500 19.84200 43.70100
H  -18.14000 20.21700 42.15500
H  -18.07900 15.54500 42.41000
H  -17.16900 14.15700 44.83300
H  -18.97000 15.76500 45.13100
H  -19.52100 16.50100 43.67200
H  -18.27600 17.32200 44.64900
H  -18.03900 12.15600 43.85600
H  -17.45400 12.61500 42.23300
H  -20.03700 12.20900 43.05500
H  -19.64600 13.31600 41.70300
H  -19.83200 13.97300 43.30200
H  -13.43100 10.40000 44.70700
H  -12.14000 9.68500 43.91400
H  -13.52400 10.09200 42.92200
H  -8.80800 12.97200 41.11700
H  -4.94700 14.13600 42.28800
H  -5.23100 12.90900 43.63500
H  -5.80300 14.60600 43.60500

