158

Mg 1.93400 -1.21100 44.99200
C  5.30300 -0.39600 44.48300
C  1.08200 1.32300 42.61700
C  -1.15500 -2.44800 44.66800
C  2.97500 -4.08500 46.72200
N  3.13300 0.17200 43.60000
C  4.48500 0.37900 43.67800
C  4.86100 1.48700 42.72000
C  3.49600 2.11200 42.27700
C  2.44200 1.19700 42.88800
C  3.15100 3.50900 42.93000
C  5.70700 0.92200 41.44600
C  7.11100 1.56600 41.45500
H  7.58900 2.24300 40.19300
N  0.16200 -0.56900 43.94700
C  0.07400 0.46700 43.04200
C  -1.37500 0.63700 42.72100
C  -2.07800 -0.49100 43.29400
C  -0.97700 -1.21000 44.01500
C  -1.98200 1.69500 41.85300
C  -3.56800 -0.72400 43.12300
O  -4.15500 -0.15900 42.22100
C  -4.38900 -1.68200 43.96800
N  1.04400 -2.98400 45.61200
C  -0.29300 -3.23600 45.43800
C  -0.67300 -4.65800 46.05800
C  0.69000 -5.11500 46.73100
C  1.60800 -4.00200 46.37200
C  -1.93100 -4.67800 47.02900
C  1.20300 -6.49400 46.13900
C  2.03800 -7.31600 47.18600
N  3.72200 -2.09000 45.62700
C  4.01300 -3.22600 46.35600
C  5.43800 -3.24000 46.57600
C  5.99500 -2.14000 45.89900
C  4.89700 -1.49700 45.26700
C  6.18600 -4.26100 47.23600
C  7.24200 -1.43300 45.58200
O  8.43900 -1.56600 45.92800
C  6.78200 -0.28600 44.62400
C  7.25600 1.03600 45.16300
O  6.75900 1.55100 46.14200
O  8.30900 1.54100 44.38400
C  8.46000 3.00100 44.54500
H  0.74100 2.07300 41.90000
H  -2.17000 -2.83400 44.55900
H  3.27800 -4.90800 47.37200
H  5.49200 2.08600 43.37700
H  3.33600 1.97300 41.20800
H  3.10400 4.19800 42.08700
H  3.87800 3.90100 43.64100
H  2.23800 3.67900 43.49900
H  5.20200 1.25200 40.53800
H  5.85700 -0.15100 41.56100
H  7.92700 0.93500 41.81000
H  7.16900 2.38900 42.16700
H  -2.25300 1.35000 40.85500
H  -1.25200 2.47700 41.64400
H  -2.91100 2.11000 42.24200
H  -5.37600 -1.24600 44.12000
H  -3.90300 -1.86100 44.92700
H  -4.42800 -2.60600 43.39000
H  -0.89300 -5.34000 45.23700
H  0.64400 -5.18700 47.81800
H  -1.65100 -5.08900 48.00000
H  -2.82100 -5.16600 46.63300
H  -2.10300 -3.61600 47.20000
H  1.80600 -6.35000 45.24200
H  0.38400 -7.17000 45.89500
H  1.29500 -8.08400 47.40500
H  2.24300 -6.74700 48.09200
H  2.95600 -7.81800 46.88100
H  7.21800 -3.96000 47.41500
H  6.15500 -5.23900 46.75500
H  5.74400 -4.60300 48.17200
H  7.24200 -0.43200 43.64700
H  9.18000 3.13000 45.35400
H  7.56200 3.54200 44.84700
H  8.80400 3.48000 43.62900
Mg 40.78000 8.41500 28.30900
C  42.34600 9.85900 31.03700
C  38.64500 6.91600 30.55800
C  39.03900 7.24700 25.59300
C  43.07900 9.63700 26.22500
N  40.46800 8.56900 30.62700
C  41.16700 9.24100 31.46400
C  40.74100 8.95000 32.91600
C  39.69200 7.84700 32.72000
C  39.61000 7.69300 31.19200
C  39.82000 6.52200 33.50400
C  40.31600 10.27500 33.66800
C  41.17500 10.71800 34.91400
H  40.51600 11.74700 35.85600
N  39.20100 7.22600 28.11100
C  38.41600 6.75600 29.17400
C  37.27900 5.96600 28.67500
C  37.33600 5.99100 27.25600
C  38.58200 6.85400 26.91500
C  36.17100 5.37600 29.56300
C  36.42200 5.48600 26.09400
O  36.69700 5.50400 24.89600
C  35.09300 4.84000 26.45400
N  41.14600 8.24100 26.11200
C  40.15800 7.97500 25.26200
C  40.49400 8.25500 23.82700
C  41.89400 8.91700 23.97200
C  42.04700 8.99400 25.50100
C  40.45500 7.04300 22.85400
C  42.08300 10.26000 23.14200
C  41.57400 11.57100 23.73900
N  42.47900 9.39300 28.52500
C  43.33200 9.82700 27.60500
C  44.48400 10.51100 28.20400
C  44.06500 10.62000 29.57800
C  42.85200 9.91600 29.69800
C  45.55300 11.10400 27.50000
C  44.43000 11.13100 30.89000
O  45.36500 11.78400 31.16500
C  43.31800 10.54600 31.88600
C  44.03900 9.66800 32.88700
O  44.08800 8.43600 32.78800
O  44.40500 10.43600 33.96500
C  44.87600 9.67400 35.09900
H  37.95600 6.53600 31.31500
H  38.35900 6.96100 24.78800
H  43.89000 10.04500 25.62000
H  41.56700 8.59900 33.53500
H  38.71800 8.19700 33.06000
H  38.85200 6.34900 33.97400
H  40.67400 6.56900 34.18000
H  39.94800 5.67200 32.83300
H  39.27000 10.26900 33.97300
H  40.44400 11.09800 32.96500
H  42.08900 11.16900 34.52600
H  41.50600 9.81400 35.42600
H  36.15800 5.48800 30.64700
H  35.90600 4.33900 29.35800
H  35.37500 6.02300 29.19300
H  35.05000 4.32700 27.41400
H  34.72700 4.15500 25.68900
H  34.33700 5.62500 26.50400
H  39.73800 8.88100 23.35300
H  42.57100 8.17300 23.55200
H  41.40200 7.08600 22.31500
H  39.72300 7.08400 22.04700
H  40.30300 6.06300 23.30800
H  41.63900 10.17900 22.15000
H  43.14900 10.38200 22.94900
H  42.42000 12.24700 23.85900
H  41.00100 11.51100 24.66500
H  40.80000 12.07400 23.15900
H  45.14600 11.87900 26.85100
H  45.98300 10.37500 26.81400
H  46.26300 11.41100 28.26800
H  42.75400 11.34200 32.37300
H  45.79700 9.20200 34.75600
H  44.14400 8.91800 35.38500
H  45.21600 10.16500 36.01200

