158

Mg 25.60200 51.70900 26.55300
C  23.17100 52.53900 29.03500
C  27.72600 50.69500 29.14100
C  28.08400 51.24600 24.41100
C  23.53700 52.94400 24.03800
N  25.49100 51.77400 28.85900
C  24.35600 52.00500 29.56900
C  24.66200 51.60300 30.98500
C  26.13100 51.06500 31.02100
C  26.51800 51.18100 29.57400
C  27.10800 51.72200 32.10800
C  23.67000 50.60100 31.58000
C  22.98700 51.06500 32.83400
H  23.14200 50.25600 34.11600
N  27.63900 51.08300 26.74100
C  28.28300 50.68200 27.89400
C  29.66700 50.35900 27.55100
C  29.80400 50.38200 26.12600
C  28.47000 50.92800 25.72100
C  30.55000 49.66900 28.58700
C  31.01000 49.97900 25.26200
O  31.12100 50.06000 24.00800
C  32.32200 49.40200 25.93600
N  25.75300 52.00800 24.52000
C  26.87600 51.76500 23.94500
C  26.66000 51.89400 22.43500
C  25.23600 52.42600 22.29400
C  24.76100 52.41700 23.67700
C  27.70300 52.82100 21.66000
C  24.36500 51.55000 21.35800
C  23.36100 52.30100 20.48200
N  23.76000 52.53600 26.48800
C  23.06200 53.06700 25.37000
C  21.74300 53.51200 25.88800
C  21.79400 53.33500 27.29100
C  22.97100 52.71600 27.60600
C  20.63800 53.98400 25.06800
C  20.97200 53.42100 28.45000
O  19.80600 53.75200 28.51000
C  21.82400 52.90400 29.62100
C  22.10000 54.01700 30.53300
O  22.56200 55.10300 30.22200
O  21.51300 53.64900 31.71800
C  21.26500 54.87200 32.54900
H  28.40700 50.32700 29.91100
H  28.80400 51.18300 23.59200
H  22.91400 53.41000 23.27200
H  24.63700 52.53200 31.55500
H  26.24100 49.98500 30.92400
H  27.55500 50.93300 32.71300
H  26.51800 52.44100 32.67800
H  27.85500 52.27000 31.53400
H  24.18000 49.66500 31.81000
H  22.94500 50.47400 30.77600
H  21.91700 51.05900 32.62700
H  23.21500 52.11200 33.03100
H  30.59100 48.58600 28.47000
H  30.39500 49.91500 29.63700
H  31.54700 50.02500 28.33000
H  32.05300 48.55500 26.56600
H  32.81000 50.20500 26.48800
H  33.06700 49.05600 25.21800
H  26.73100 50.87600 22.05100
H  25.25500 53.45700 21.94100
H  27.13000 53.55100 21.08800
H  28.41300 52.28300 21.03300
H  28.31500 53.38200 22.36600
H  23.94200 50.77700 22.00000
H  25.01000 51.04300 20.64100
H  23.48400 52.07800 19.42200
H  23.37700 53.37200 20.68600
H  22.36900 51.95100 20.76700
H  19.78800 53.63100 25.65100
H  20.68000 53.55300 24.06800
H  20.44600 55.05300 24.97500
H  21.36100 52.03400 30.08600
H  21.45100 55.84900 32.10300
H  21.70300 54.84700 33.54600
H  20.21800 54.88600 32.84900
Mg 6.62900 53.44400 41.46400
C  6.38600 49.95700 41.63900
C  9.89600 52.91500 40.28000
C  6.67000 56.59200 40.41500
C  3.17400 53.62600 42.21700
N  7.89400 51.61100 40.87500
C  7.57900 50.30300 41.11400
C  8.72400 49.37100 40.73900
C  9.97200 50.35400 40.70100
C  9.25300 51.70700 40.62700
C  11.06100 50.12900 41.82700
C  8.54900 48.46200 39.50600
C  7.89300 49.05500 38.24300
H  6.78900 48.26600 37.52800
N  8.06300 54.59600 40.57700
C  9.32400 54.19500 40.19500
C  10.05000 55.45600 39.73300
C  9.16100 56.56700 39.77900
C  7.92700 55.98600 40.28300
C  11.51500 55.45200 39.22300
C  9.42600 58.03000 39.39000
O  10.47700 58.42000 38.89800
C  8.43000 59.09500 39.45100
N  5.00300 54.78200 41.12400
C  5.40400 56.08300 40.85600
C  4.19100 57.00200 41.03600
C  3.09100 56.10200 41.68300
C  3.71300 54.77000 41.66300
C  4.45900 58.27300 41.87500
C  1.72300 55.92300 40.88500
C  0.42700 56.29000 41.62100
N  5.07900 52.16700 42.03600
C  3.73200 52.34400 42.38600
C  3.23700 51.07800 42.91900
C  4.27800 50.15200 42.68500
C  5.35200 50.83700 42.05700
C  1.91700 50.94700 43.56900
C  4.62200 48.74900 42.82900
O  4.02900 47.86100 43.39300
C  5.92200 48.58700 42.03400
C  5.53300 47.65000 40.92700
O  4.78100 47.97600 40.00300
O  5.89200 46.36700 41.25900
C  5.64500 45.28900 40.26300
H  10.95600 52.80200 40.04300
H  6.54400 57.66000 40.22400
H  2.16700 53.69300 42.63500
H  8.83600 48.65400 41.55300
H  10.47200 50.20600 39.74400
H  11.24200 50.98200 42.48100
H  11.93600 49.86400 41.23500
H  10.93900 49.20700 42.39500
H  8.09800 47.53600 39.86300
H  9.53900 48.15400 39.17000
H  8.69700 48.97700 37.51100
H  7.60800 50.10200 38.34900
H  12.23100 54.94400 39.86900
H  12.00700 56.42100 39.30100
H  11.69300 55.10900 38.20400
H  8.19000 59.35300 40.48300
H  7.54000 58.69000 38.97100
H  8.78700 59.94800 38.87400
H  3.82300 57.39300 40.08700
H  2.81000 56.37200 42.70100
H  4.13900 59.17400 41.35100
H  5.53500 58.27500 42.05000
H  3.95000 58.33600 42.83600
H  1.59500 54.94400 40.42400
H  1.80500 56.61200 40.04400
H  0.49000 56.21900 42.70700
H  -0.26800 55.48300 41.38800
H  0.14500 57.30500 41.33900
H  1.23000 50.74300 42.74700
H  1.56200 51.90900 43.93800
H  1.87400 50.11600 44.27300
H  6.75200 48.06200 42.50600
H  4.62000 45.37100 39.90300
H  5.76100 44.33500 40.77800
H  6.36100 45.46600 39.46000

