158

Mg 17.07500 -1.92000 28.12000
C  16.13600 0.50000 30.51500
C  18.89700 -3.56700 30.49800
C  18.68500 -3.60800 25.55900
C  15.88900 0.43500 25.69800
N  17.49800 -1.51000 30.22900
C  16.95500 -0.56500 31.07000
C  17.50600 -0.71500 32.54600
C  18.47600 -1.90200 32.42100
C  18.25000 -2.40000 30.96500
C  19.88400 -1.62100 32.86200
C  16.32400 -1.01800 33.60900
C  16.63900 -0.27700 34.99400
H  18.03600 -0.22000 35.52300
N  18.37900 -3.60400 28.06200
C  19.01600 -4.17200 29.19300
C  19.71200 -5.32600 28.69700
C  19.72700 -5.33100 27.27200
C  18.93000 -4.13600 26.87700
C  20.30900 -6.43000 29.58800
C  20.51900 -6.17000 26.34100
O  20.42100 -6.03200 25.13400
C  21.40500 -7.28400 26.70000
N  17.37300 -1.56100 25.94800
C  17.97900 -2.47400 25.11300
C  17.82800 -2.09600 23.65800
C  16.90000 -0.77100 23.70200
C  16.68700 -0.64300 25.21900
C  19.09800 -2.01000 22.82600
C  15.41900 -0.94000 23.02600
C  14.29500 -1.75500 23.79100
N  15.90800 -0.10500 28.09600
C  15.52700 0.73700 27.02100
C  14.64500 1.72000 27.52200
C  14.87800 1.66700 28.91700
C  15.76200 0.59400 29.17700
C  13.91500 2.71700 26.63200
C  14.64900 2.38700 30.09200
O  14.09900 3.51500 30.26600
C  15.35300 1.58300 31.27200
C  16.22000 2.51800 32.19300
O  17.41500 2.62700 31.99300
O  15.51800 3.07000 33.27700
C  16.29500 4.00400 34.12700
H  19.36400 -4.02600 31.37200
H  19.08200 -4.26100 24.77900
H  15.48900 1.07700 24.91100
H  17.97100 0.25700 32.71300
H  18.05600 -2.74300 32.97300
H  20.16100 -0.63500 33.23600
H  20.38400 -1.65200 31.89400
H  20.24300 -2.37200 33.56400
H  16.21300 -2.07800 33.84000
H  15.33200 -0.77600 33.22800
H  15.98200 -0.74900 35.72400
H  16.36700 0.75100 34.75300
H  21.34500 -6.63100 29.31500
H  19.81800 -7.37900 29.37100
H  20.19200 -6.27200 30.66000
H  21.87100 -7.81000 25.86700
H  20.95100 -8.11000 27.24800
H  22.17100 -6.94300 27.39700
H  17.36800 -2.92900 23.12800
H  17.35900 0.11200 23.25600
H  19.93800 -2.53300 23.28400
H  19.37900 -0.97200 22.65100
H  18.88200 -2.41700 21.83800
H  15.50500 -1.40000 22.04200
H  14.90800 0.00100 22.82300
H  13.57800 -1.09300 24.27500
H  14.65800 -2.47700 24.52200
H  13.65000 -2.32500 23.12100
H  13.24300 3.22400 27.32600
H  13.32800 2.18600 25.88200
H  14.58500 3.45400 26.19100
H  14.47400 1.14000 31.74200
H  16.94200 4.60800 33.49100
H  16.86600 3.36400 34.79900
H  15.58500 4.62800 34.67100
Mg 6.50700 53.66200 41.82100
C  5.53800 50.19400 41.50400
C  9.17600 52.94100 39.91100
C  6.67200 56.96300 41.03700
C  3.32600 54.27900 43.05700
N  7.27900 51.72800 40.94100
C  6.72600 50.51800 40.83900
C  7.68400 49.49000 40.27900
C  8.95500 50.35500 40.01300
C  8.46000 51.78800 40.31400
C  10.27500 49.93900 40.71400
C  7.16700 48.79700 38.98400
C  6.22200 49.59900 38.05500
H  5.41800 48.82200 36.97400
N  7.88100 54.83000 40.89700
C  8.96100 54.33600 40.14000
C  9.76000 55.38700 39.63600
C  9.12800 56.60500 40.08500
C  7.77200 56.14800 40.66200
C  11.06500 55.33300 38.84700
C  9.68900 58.02100 40.06900
O  10.85400 58.15000 39.62000
C  9.04400 59.27300 40.70000
N  5.09300 55.33300 41.76900
C  5.42100 56.66100 41.57900
C  4.35700 57.70300 41.97000
C  3.37300 56.80400 42.67200
C  3.98900 55.38100 42.58700
C  4.86800 58.87700 42.81300
C  1.90400 56.84500 42.12500
C  0.71000 56.85700 43.15100
N  4.84100 52.51300 42.40800
C  3.65200 52.93100 42.90800
C  2.87500 51.75200 43.23100
C  3.61400 50.66300 42.73700
C  4.75900 51.14300 42.19100
C  1.53500 51.81100 43.92700
C  3.57500 49.19600 42.55700
O  2.70700 48.41100 42.85700
C  4.94800 48.83300 41.82800
C  4.59400 47.89800 40.70400
O  3.84400 48.15600 39.74800
O  5.29300 46.75300 40.91900
C  4.81600 45.62200 40.15600
H  9.96200 52.68700 39.19700
H  6.86100 57.99900 40.75000
H  2.33800 54.44100 43.49300
H  7.85800 48.66900 40.97400
H  9.25000 50.38600 38.96400
H  9.95700 49.42600 41.62100
H  10.85400 50.82300 40.98100
H  10.87600 49.29100 40.07700
H  6.75300 47.81700 39.22300
H  8.05100 48.61700 38.37200
H  6.86600 50.17800 37.39300
H  5.52000 50.18700 38.64700
H  11.20500 54.41800 38.27100
H  11.97600 55.37900 39.44300
H  11.00500 56.01600 37.99900
H  8.51400 58.89300 41.57400
H  8.39600 59.78800 39.99100
H  9.77000 60.02900 40.99700
H  3.94400 58.15200 41.06600
H  3.29300 57.02300 43.73700
H  4.42400 58.82600 43.80700
H  4.78700 59.80700 42.24900
H  5.94500 58.72000 42.88200
H  1.86700 56.02300 41.41000
H  1.84200 57.66600 41.41100
H  1.12000 56.43100 44.06700
H  -0.00700 56.11100 42.80700
H  0.24800 57.83800 43.25700
H  0.93200 52.65100 43.58200
H  1.69800 51.96900 44.99300
H  1.23100 50.80200 43.65100
H  5.58200 48.39200 42.59800
H  5.45100 44.76000 40.35700
H  4.82500 45.89000 39.09900
H  3.77900 45.48500 40.46300

