158

Mg -1.47700 16.95300 26.29200
C  -2.03700 14.62900 28.88400
C  -1.81600 19.48600 28.52200
C  -1.07400 19.12100 23.69900
C  -1.72100 14.33000 23.96900
N  -1.79300 16.99900 28.46100
C  -1.99600 15.95400 29.30900
C  -2.25300 16.45500 30.71800
C  -2.13400 18.01200 30.58100
C  -2.02600 18.18900 29.07800
C  -3.32300 18.86500 31.25100
C  -1.21200 15.67000 31.69400
C  -0.57000 16.57400 32.79000
H  -0.59500 15.83600 34.13700
N  -1.41200 19.07000 26.17000
C  -1.57700 19.87200 27.16000
C  -1.46300 21.24500 26.67800
C  -1.31300 21.15200 25.28400
C  -1.18300 19.74500 24.96400
C  -1.66800 22.39200 27.60400
C  -1.24900 22.29500 24.20300
O  -1.10400 22.06000 23.03500
C  -1.29300 23.82000 24.62800
N  -1.35400 16.72700 24.09500
C  -1.15200 17.78900 23.29500
C  -1.04500 17.34000 21.82700
C  -1.06100 15.74200 21.94200
C  -1.43600 15.59300 23.39900
C  -2.21800 17.85700 20.87400
C  0.21200 14.93300 21.47400
C  0.25400 14.85200 19.91000
N  -1.75600 14.86400 26.36600
C  -1.83900 13.93500 25.34200
C  -2.03900 12.58800 25.88900
C  -2.19800 12.84100 27.27400
C  -1.94800 14.19000 27.51200
C  -2.03100 11.23700 25.06800
C  -2.43900 12.22100 28.55600
O  -2.60400 11.04900 28.77400
C  -2.48700 13.32700 29.64200
C  -1.77800 12.74300 30.80700
O  -0.54100 12.64500 30.79500
O  -2.56400 12.30700 31.87900
C  -1.81400 11.71700 32.97500
H  -1.82700 20.25100 29.30100
H  -0.81900 19.73200 22.83100
H  -1.76600 13.59000 23.16700
H  -3.27400 16.20200 31.00200
H  -1.18700 18.36200 30.99200
H  -2.99000 19.42400 32.12600
H  -4.10100 18.17100 31.57000
H  -3.84400 19.46800 30.50700
H  -0.36000 15.33300 31.10400
H  -1.67200 14.83600 32.22400
H  -0.99600 17.56900 32.92000
H  0.44500 16.78100 32.45100
H  -1.40800 22.24900 28.65300
H  -2.59800 22.94900 27.48900
H  -0.91500 23.09700 27.25100
H  -1.50200 24.50200 23.80400
H  -0.34900 23.98500 25.14800
H  -2.00200 23.79100 25.45500
H  -0.08800 17.64800 21.40700
H  -1.87600 15.37000 21.32100
H  -2.87000 18.61400 21.31000
H  -2.87700 17.06200 20.52300
H  -1.73600 18.22800 19.97000
H  0.12700 13.96200 21.96300
H  1.11700 15.37600 21.88900
H  1.11900 15.30400 19.42400
H  -0.59200 15.18100 19.30700
H  0.32100 13.81200 19.59200
H  -1.14000 11.11800 24.45000
H  -2.96500 10.98400 24.56600
H  -2.07100 10.51800 25.88600
H  -3.49100 13.69200 29.85700
H  -1.14300 12.49200 33.34400
H  -1.13900 10.93400 32.62800
H  -2.41400 11.30800 33.78800
Mg 17.11700 52.95000 26.17700
C  18.75500 51.11400 28.58600
C  14.70700 53.84400 28.54400
C  15.15200 54.26800 23.74900
C  19.13000 51.45300 23.83800
N  16.79500 52.52300 28.32800
C  17.63400 51.78100 29.10600
C  17.13200 51.82700 30.55600
C  15.75700 52.50100 30.48900
C  15.73200 52.97100 29.01500
C  14.55300 51.63400 30.90800
C  18.18100 52.65800 31.42800
C  18.58200 52.04400 32.70700
H  18.06000 52.71300 33.97700
N  15.32100 54.09100 26.14600
C  14.61600 54.45700 27.25900
C  13.60600 55.41400 26.83500
C  13.55300 55.33800 25.42600
C  14.68100 54.52400 25.01600
C  12.61200 56.02000 27.88500
C  12.57000 56.01000 24.40700
O  12.51000 55.90100 23.19500
C  11.38800 56.71400 25.09200
N  17.15100 52.86400 24.10400
C  16.30200 53.55500 23.36600
C  16.57500 53.34200 21.88600
C  18.07300 52.88200 21.90700
C  18.15600 52.37800 23.36100
C  15.54700 52.60800 20.99200
C  19.08300 53.95000 21.46700
C  20.37200 54.12600 22.27900
N  18.66500 51.55600 26.18200
C  19.31700 50.97200 25.14500
C  20.30200 50.08200 25.61100
C  20.14400 50.01600 27.04300
C  19.11700 51.01900 27.27400
C  21.39100 49.38500 24.87000
C  20.63500 49.54400 28.30700
O  21.52900 48.74000 28.58000
C  19.72000 50.19400 29.29600
C  19.01600 49.10000 30.09100
O  18.00400 48.45600 29.78700
O  19.78100 49.03800 31.27000
C  19.06200 48.35100 32.38000
H  13.93500 54.10600 29.27000
H  14.70000 54.84900 22.94200
H  19.93400 51.17500 23.15400
H  17.15900 50.80200 30.92600
H  15.75200 53.43100 31.05800
H  14.07200 51.89900 31.84900
H  14.90200 50.60200 30.90700
H  13.82400 51.72200 30.10200
H  17.83000 53.67000 31.62800
H  19.06500 52.92600 30.84800
H  19.67000 52.06700 32.75700
H  18.27400 50.99900 32.67000
H  12.30800 57.02200 27.58500
H  13.08300 56.05100 28.86800
H  11.76500 55.34100 27.78400
H  11.69200 57.66100 25.53800
H  10.78900 56.10100 25.76400
H  10.73900 57.04500 24.28100
H  16.51800 54.30700 21.38000
H  18.20200 52.08800 21.17200
H  15.06500 53.40400 20.42400
H  14.73300 52.29700 21.64700
H  16.00900 51.82600 20.39000
H  18.67200 54.95700 21.54100
H  19.46200 53.72700 20.46900
H  20.96700 53.26400 21.97600
H  20.27200 53.99800 23.35700
H  20.95500 55.02600 22.08500
H  21.93200 50.07200 24.21900
H  20.90400 48.62600 24.25800
H  22.04800 48.94200 25.62000
H  20.26800 50.74500 30.06100
H  19.34600 47.30000 32.41500
H  17.98900 48.53300 32.44600
H  19.37000 48.64200 33.38400

