158

Mg 54.83700 25.16800 44.56900
C  51.85700 27.00500 43.79200
C  53.28700 22.39600 43.70000
C  57.75400 23.77200 44.65800
C  56.27500 28.29400 45.54000
N  52.94300 24.82200 43.46500
C  51.84000 25.65400 43.47200
C  50.54900 24.90600 42.97300
C  50.97900 23.41800 43.33000
C  52.54000 23.51700 43.49600
C  50.26800 22.64300 44.43900
C  50.41800 25.03400 41.46600
C  48.92500 24.92600 41.06000
H  48.55300 24.58500 39.63300
N  55.49000 23.35200 44.04000
C  54.67300 22.28400 43.75800
C  55.53600 21.12900 43.61100
C  56.90800 21.52300 43.76200
C  56.76100 22.94300 44.21600
C  54.93900 19.75400 43.20700
C  58.13900 20.62800 43.51800
O  58.03900 19.40400 43.40800
C  59.51100 21.26500 43.43100
N  56.71700 25.94300 45.08800
C  57.76000 25.09900 45.03100
C  59.03500 25.83200 45.16800
C  58.67800 27.36400 45.44800
C  57.16700 27.21700 45.31300
C  60.08800 25.39000 46.23900
C  59.16500 28.32000 44.39300
C  59.35100 29.75600 44.90900
N  54.23300 27.27300 44.75800
C  54.89300 28.35800 45.27300
C  53.90100 29.37500 45.55800
C  52.74600 28.98900 44.80000
C  52.97000 27.66700 44.41000
C  54.13000 30.51200 46.33600
C  51.37100 29.36000 44.26100
O  50.85600 30.45600 44.35700
C  50.84200 28.15000 43.57700
C  50.61000 28.53200 42.18200
O  51.40700 29.01000 41.43600
O  49.29400 28.31100 41.91500
C  48.85200 28.48600 40.52200
H  52.77700 21.43500 43.60600
H  58.76100 23.35400 44.71700
H  56.74500 29.27000 45.67600
H  49.68800 25.22400 43.56100
H  50.77400 22.97900 42.35400
H  49.65700 23.39400 44.93900
H  50.94600 22.10600 45.10200
H  49.50500 21.94400 44.09600
H  51.03200 24.34300 40.88900
H  50.83600 25.97700 41.11300
H  48.41000 25.88000 41.17900
H  48.39500 24.20000 41.67500
H  54.02400 19.61900 43.78300
H  55.47900 19.00400 43.78500
H  54.95400 19.58300 42.13000
H  59.49800 22.33400 43.21300
H  60.02200 20.75300 42.61500
H  60.01900 21.10800 44.38200
H  59.57300 25.92000 44.22400
H  58.86400 27.74300 46.45300
H  61.06300 25.13800 45.82300
H  59.68400 24.58000 46.84700
H  60.35200 26.15900 46.96500
H  58.60600 28.30100 43.45700
H  60.18500 28.07700 44.09500
H  59.07700 30.50400 44.16600
H  60.39700 29.88800 45.18400
H  58.67100 29.92500 45.74400
H  54.80600 31.22100 45.86000
H  54.59600 30.13300 47.24600
H  53.22300 31.05700 46.59800
H  49.89700 27.92600 44.07400
H  48.55600 29.52800 40.40500
H  48.03400 27.78500 40.35600
H  49.60200 28.14800 39.80700
Mg 48.87200 34.63700 26.67700
C  46.63300 33.29600 29.07700
C  49.36900 37.32800 28.73200
C  50.41700 36.21400 24.09000
C  47.93800 32.02200 24.49600
N  48.12400 35.24900 28.71500
C  47.25100 34.52800 29.51500
C  47.27400 35.07600 31.00300
C  47.84000 36.53900 30.67800
C  48.54700 36.38800 29.35800
C  46.85700 37.81700 30.71200
C  48.40800 34.24800 31.84200
C  48.11700 33.94000 33.30700
H  47.05000 34.81700 34.00900
N  49.84000 36.49200 26.43400
C  49.89900 37.44900 27.39100
C  50.62400 38.53800 26.90000
C  51.01000 38.21800 25.57400
C  50.39900 36.92700 25.34300
C  50.76800 39.86100 27.62500
C  51.79100 39.03100 24.54000
O  52.21800 38.60100 23.46100
C  52.14600 40.42700 24.81200
N  49.12000 34.16600 24.64400
C  49.86500 34.97300 23.78300
C  49.69500 34.46600 22.34300
C  49.24700 32.94600 22.49500
C  48.85600 32.98200 24.01900
C  48.81600 35.35700 21.49100
C  50.37200 31.92800 22.24600
C  49.93200 30.87800 21.18700
N  47.68500 32.95300 26.76400
C  47.32300 31.98500 25.77700
C  46.33300 31.07700 26.24600
C  46.02200 31.60200 27.54900
C  46.92600 32.71500 27.78300
C  45.67900 29.87500 25.60600
C  45.16600 31.38000 28.68600
O  44.22800 30.52400 28.84000
C  45.51800 32.43500 29.76100
C  45.91100 31.89300 31.08600
O  46.94000 31.24900 31.33000
O  44.84600 31.94500 31.94700
C  44.86600 31.29400 33.29100
H  49.40500 38.20100 29.38700
H  50.96200 36.61300 23.23200
H  47.59300 31.24300 23.81400
H  46.32600 35.01900 31.53600
H  48.61400 36.80800 31.39700
H  47.39600 38.61900 31.21700
H  45.95200 37.50000 31.23100
H  46.62800 38.04000 29.67000
H  49.42400 34.64500 31.82100
H  48.40200 33.27800 31.34500
H  49.09500 34.15300 33.73900
H  47.88600 32.87600 33.35000
H  51.84100 40.05000 27.66300
H  50.49700 39.74500 28.67400
H  50.25800 40.66000 27.08700
H  52.28300 40.83200 23.81000
H  53.09000 40.56000 25.34000
H  51.30200 40.94300 25.27100
H  50.72800 34.57400 22.01100
H  48.33100 32.78400 21.92800
H  49.21000 36.37200 21.44200
H  47.86300 35.55900 21.98000
H  48.73000 34.95500 20.48100
H  50.51100 31.29800 23.12500
H  51.29000 32.45400 21.98300
H  50.50400 31.13500 20.29600
H  48.89200 31.05400 20.91100
H  50.08000 29.87500 21.58600
H  44.75600 30.19100 25.11900
H  45.37600 29.32700 26.49800
H  46.30000 29.30600 24.91400
H  44.61600 33.04400 29.81700
H  45.00100 30.21300 33.26100
H  43.99400 31.54100 33.89700
H  45.76300 31.77800 33.67800

