158

Mg 41.24700 8.89700 29.96700
C  43.01200 10.34400 32.62100
C  38.82400 7.89100 32.12700
C  39.73500 7.34000 27.27800
C  43.87100 9.89100 27.81500
N  41.00200 9.06400 32.14700
C  41.78200 9.78900 33.01400
C  41.15600 9.91700 34.40000
C  39.74700 9.22100 34.18800
C  39.79000 8.72200 32.70400
C  39.33900 8.17100 35.26700
C  40.99400 11.37100 34.85400
C  40.17200 11.56500 36.18400
H  40.89300 12.29600 37.31300
N  39.63600 7.72900 29.77100
C  38.67400 7.47700 30.76400
C  37.49800 6.83800 30.18100
C  37.71000 6.82800 28.78300
C  39.10800 7.30900 28.55600
C  36.25100 6.44300 30.93100
C  36.71000 6.41400 27.60600
O  36.96600 6.69800 26.41500
C  35.26000 6.02600 27.99800
N  41.72000 8.57800 27.79900
C  40.91900 7.96600 26.92300
C  41.46000 8.02700 25.44800
C  42.74600 8.87500 25.68100
C  42.80500 9.17600 27.19000
C  41.67800 6.67200 24.68600
C  42.79500 10.05100 24.81700
C  42.30400 11.43700 25.33500
N  43.10000 9.90900 30.16800
C  44.00000 10.25300 29.19400
C  45.11500 10.92100 29.80500
C  44.81200 10.92600 31.21100
C  43.52400 10.39900 31.34700
C  46.40700 11.35700 29.11700
C  45.30100 11.20700 32.50000
O  46.43500 11.47900 32.93800
C  44.08900 10.96300 33.44000
C  44.51500 10.21700 34.70100
O  44.95300 9.05000 34.65900
O  44.49700 11.11900 35.78000
C  44.94800 10.57300 37.07900
H  37.94400 7.77000 32.76200
H  39.21400 6.92500 26.41200
H  44.72800 10.02300 27.15100
H  41.67800 9.29900 35.13000
H  39.00700 10.01800 34.26400
H  39.91100 8.42600 36.15900
H  39.58300 7.18000 34.88400
H  38.28000 8.18500 35.52600
H  40.68900 12.00500 34.02200
H  42.01800 11.64600 35.11000
H  39.70500 10.64700 36.54200
H  39.23200 12.09100 36.01400
H  36.10400 5.36300 30.90400
H  35.33300 6.78700 30.45500
H  36.21700 6.80800 31.95700
H  35.20700 5.20000 28.70800
H  34.90500 5.58000 27.06900
H  34.72600 6.94800 28.22900
H  40.70300 8.71400 25.06900
H  43.63100 8.28500 25.44000
H  41.82900 5.78900 25.30600
H  42.54400 6.64600 24.02500
H  40.76800 6.52800 24.10400
H  42.22300 9.79300 23.92600
H  43.80300 10.17800 24.42200
H  41.64800 11.80400 24.54600
H  43.10300 12.16800 25.45400
H  41.60000 11.39000 26.16600
H  46.49400 12.38500 29.46700
H  46.19400 11.19800 28.05900
H  47.25800 10.75800 29.44300
H  43.72800 11.94300 33.75100
H  44.17200 10.78800 37.81400
H  45.84300 11.12300 37.37000
H  45.22500 9.52000 37.12600
Mg 47.53300 16.05900 28.76600
C  45.40400 15.89900 31.58700
C  49.60900 18.13800 30.61600
C  48.94600 16.94200 25.85700
C  45.04400 14.48500 27.00100
N  47.47500 17.05100 30.85900
C  46.57200 16.60400 31.91200
C  47.09800 17.14600 33.25400
C  48.44100 17.96900 32.82800
C  48.55100 17.65600 31.38200
C  48.31700 19.49100 33.16200
C  47.44600 16.14900 34.34300
C  46.87700 16.27100 35.83000
H  46.78600 17.74300 36.41600
N  49.11700 17.23700 28.31900
C  49.86400 17.98700 29.21700
C  51.02900 18.53800 28.51700
C  50.85600 18.21300 27.14400
C  49.58300 17.39900 27.01700
C  51.98800 19.40200 29.17300
C  51.67000 18.54900 25.95900
O  51.38100 18.43100 24.79800
C  53.01800 19.29500 26.12400
N  47.15800 15.67400 26.73300
C  47.81700 16.16600 25.71000
C  47.36700 15.71600 24.39700
C  46.14600 14.90300 24.73800
C  46.07500 15.00200 26.20800
C  47.11000 16.99900 23.34600
C  46.04100 13.47100 24.12300
C  45.15300 13.24800 22.96100
N  45.64200 15.31800 29.18300
C  44.79600 14.61400 28.35600
C  43.61100 14.24100 29.04200
C  43.81100 14.60100 30.37900
C  45.04400 15.32900 30.36800
C  42.38500 13.52900 28.41100
C  43.28300 14.59000 31.69500
O  42.28900 14.03100 32.12400
C  44.28500 15.48900 32.52000
C  43.51300 16.56400 33.20100
O  42.72600 17.34700 32.72500
O  43.82000 16.51200 34.57100
C  43.04100 17.46900 35.40800
H  50.19200 18.81700 31.24300
H  49.49300 17.09900 24.92400
H  44.19600 13.97600 26.53700
H  46.35100 17.88600 33.54200
H  49.29400 17.63700 33.41900
H  47.48700 19.70800 33.83400
H  48.07000 20.14200 32.32400
H  49.28100 19.82800 33.54200
H  48.51700 15.94900 34.36300
H  46.99800 15.19500 34.06500
H  47.48200 15.65300 36.49300
H  45.88600 15.84400 35.98300
H  52.96100 18.91100 29.19200
H  51.63000 19.90900 30.06800
H  52.02900 20.20600 28.43800
H  53.62100 19.20200 25.22000
H  53.49000 18.87100 27.01000
H  52.98500 20.36600 26.32200
H  48.12300 15.05500 23.97300
H  45.25800 15.42400 24.38200
H  46.07100 17.16500 23.06000
H  47.75200 16.81700 22.48400
H  47.51900 17.87700 23.84500
H  45.81200 12.75200 24.90900
H  47.06200 13.24600 23.81700
H  44.79200 14.19600 22.56100
H  44.25800 12.72300 23.29300
H  45.55500 12.58400 22.19500
H  42.44100 12.45900 28.60900
H  42.28900 13.75000 27.34800
H  41.56300 14.01400 28.93700
H  44.74500 14.86700 33.28700
H  41.98500 17.20000 35.40400
H  43.17300 18.51300 35.12400
H  43.29400 17.23100 36.44100

