158

Mg 49.09400 45.47100 42.33600
C  45.63400 45.86600 41.69800
C  48.84600 42.33900 41.06200
C  52.37600 45.45200 42.14400
C  49.24100 48.94800 43.15100
N  47.41300 44.24300 41.54000
C  46.10000 44.59900 41.32300
C  45.41100 43.59400 40.42200
C  46.29500 42.29600 40.59100
C  47.59600 42.98200 41.10900
C  45.73300 41.26000 41.58100
C  45.27400 44.00100 38.87600
C  43.98200 43.57900 38.04000
H  44.12900 42.78900 36.69300
N  50.41300 44.05500 41.91000
C  50.10600 42.78800 41.42400
C  51.32600 41.97700 41.31000
C  52.40600 42.86600 41.52500
C  51.73500 44.18200 41.94100
C  51.32900 40.48200 40.85800
C  53.81900 42.52600 41.33100
O  54.14700 41.49900 40.67400
C  54.91000 43.44400 41.80000
N  50.67400 47.02800 42.57700
C  51.92300 46.78900 42.27700
C  52.82700 48.07400 42.42900
C  51.78100 49.05500 43.01300
C  50.48800 48.35400 42.91300
C  54.06700 48.02100 43.31300
C  51.88500 50.51800 42.32000
C  51.41900 51.74500 43.14300
N  47.74300 47.09600 42.42700
C  47.94100 48.37300 42.93100
C  46.71400 49.03900 42.98600
C  45.76200 48.10400 42.53600
C  46.43300 46.91500 42.20900
C  46.60400 50.50300 43.31100
C  44.36000 47.94100 42.16500
O  43.46800 48.71400 42.19800
C  44.29300 46.49500 41.51700
C  43.10300 45.79200 42.09500
O  42.46000 44.91100 41.51900
O  43.01700 46.15700 43.38300
C  41.89900 45.48800 44.14700
H  48.81900 41.34700 40.60800
H  53.44700 45.51300 41.93700
H  49.24700 49.96400 43.55100
H  44.42200 43.29100 40.76600
H  46.41700 41.80100 39.62800
H  45.52300 40.33700 41.04200
H  44.78500 41.59900 41.99900
H  46.39700 41.02600 42.41400
H  46.01500 43.45200 38.29600
H  45.46200 45.04800 38.63900
H  43.56000 44.54900 37.77500
H  43.25500 43.05000 38.65700
H  51.54100 40.25700 39.81300
H  50.34300 40.02600 40.94600
H  52.00000 39.87200 41.46400
H  55.22500 44.22600 41.10800
H  55.79500 42.83400 41.97800
H  54.45100 43.79300 42.72500
H  53.19700 48.28800 41.42600
H  51.86900 49.27300 44.07700
H  54.08800 47.07400 43.85300
H  53.85200 48.73400 44.10900
H  55.00300 48.19600 42.78300
H  51.16600 50.50300 41.50100
H  52.84100 50.79200 41.87400
H  52.07800 52.56400 42.85700
H  51.39000 51.47700 44.19900
H  50.37900 52.02000 42.96400
H  47.37300 50.71500 44.05400
H  45.62500 50.83800 43.65400
H  46.88100 51.25400 42.57100
H  44.05700 46.60600 40.45900
H  42.03700 45.47600 45.22800
H  41.67700 44.48200 43.78900
H  41.05300 46.13000 43.90500
Mg 36.02300 49.65000 25.37700
C  36.23900 47.49200 28.22600
C  34.38800 51.83600 27.20000
C  35.39200 51.34700 22.50000
C  37.35600 47.02200 23.55200
N  35.36900 49.64300 27.48800
C  35.65100 48.73600 28.47700
C  35.39000 49.39400 29.77400
C  34.77300 50.80700 29.46000
C  34.88500 50.79900 27.96600
C  33.28700 51.03300 29.94100
C  36.60500 49.54100 30.70400
C  36.58400 48.72300 31.99900
H  35.27800 48.68400 32.76400
N  35.05100 51.32000 24.93000
C  34.48500 52.16800 25.84200
C  34.11600 53.50300 25.17600
C  34.40400 53.32600 23.79600
C  35.01800 51.94600 23.69700
C  33.57300 54.59000 26.00800
C  33.95000 54.24800 22.65500
O  34.28400 54.12500 21.48800
C  33.10200 55.38100 23.01700
N  36.27200 49.22500 23.32300
C  35.96000 50.05800 22.28400
C  36.33200 49.37100 20.97100
C  37.25000 48.10300 21.38800
C  37.04700 48.14600 22.85600
C  35.10300 48.85600 20.19900
C  38.80200 48.27400 20.98900
C  39.52300 46.95900 20.88300
N  36.65900 47.68300 25.73700
C  37.14400 46.75900 24.85100
C  37.37800 45.49600 25.54900
C  37.11200 45.75700 26.85500
C  36.57900 47.08100 26.97300
C  37.97100 44.22500 24.88500
C  37.07700 45.19900 28.20100
O  37.48900 44.12600 28.62600
C  36.42200 46.27600 29.14200
C  35.17400 45.65500 29.80300
O  34.10100 45.50700 29.26700
O  35.41500 45.36500 31.10600
C  34.37100 44.74800 31.94100
H  33.88100 52.56300 27.83900
H  35.16400 51.94500 21.61500
H  37.64300 46.20900 22.88200
H  34.65300 48.73600 30.23500
H  35.35400 51.57800 29.96600
H  33.38900 51.89500 30.59900
H  32.86700 50.16800 30.45400
H  32.71300 51.35000 29.07000
H  36.72600 50.54400 31.11500
H  37.48700 49.20400 30.16000
H  37.32500 49.12200 32.69100
H  36.88800 47.69900 31.78300
H  32.50700 54.37100 26.06000
H  33.72800 55.61900 25.68300
H  33.89500 54.49100 27.04500
H  32.21500 55.13900 23.60200
H  32.71700 55.79100 22.08400
H  33.66300 56.05700 23.66300
H  36.82800 50.16000 20.40500
H  36.82300 47.16300 21.03800
H  34.42300 48.50500 20.97600
H  35.36200 47.95000 19.65000
H  34.84100 49.65200 19.50200
H  39.24100 49.09300 21.56000
H  38.77500 48.63300 19.96000
H  40.13700 46.82900 21.77400
H  40.10800 46.86900 19.96800
H  38.77800 46.16700 20.81600
H  37.67500 44.14600 23.83900
H  37.69900 43.41200 25.55800
H  39.04200 44.42500 24.84500
H  37.15500 46.53500 29.90600
H  33.52400 44.21700 31.50600
H  34.04200 45.59400 32.54500
H  34.78800 44.09700 32.70900

