158

Mg 46.44600 16.83800 27.43700
C  44.47900 16.56700 30.31300
C  48.46200 19.11000 29.23900
C  48.28100 17.35800 24.69700
C  43.95000 15.27200 25.58700
N  46.55900 17.63600 29.55500
C  45.69000 17.25700 30.56500
C  46.13600 17.97800 31.93900
C  47.32700 18.85800 31.52900
C  47.50200 18.47000 29.97800
C  47.04900 20.40900 31.66200
C  46.48700 16.92800 32.97300
C  47.13600 17.42700 34.29300
H  46.75200 18.81400 34.73800
N  48.30400 17.78400 27.13500
C  48.88700 18.70400 27.95600
C  50.16300 19.21900 27.26800
C  50.14700 18.64700 25.94600
C  48.92900 17.85500 25.88700
C  51.03800 20.25500 27.76800
C  51.11000 18.76000 24.80200
O  50.97500 18.18200 23.75500
C  52.33900 19.60000 24.95400
N  46.08100 16.47200 25.44600
C  47.07300 16.75300 24.52800
C  46.62600 16.38800 23.12200
C  45.21800 15.64500 23.34700
C  45.12600 15.66500 24.90700
C  46.61200 17.61500 22.08800
C  45.06000 14.22400 22.71400
C  43.88000 13.87600 21.72800
N  44.56800 16.01400 27.82500
C  43.63500 15.39600 26.94200
C  42.47100 15.09600 27.75300
C  42.74300 15.59100 29.03500
C  44.03400 16.11100 29.03600
C  41.31100 14.36300 27.27400
C  42.22600 15.55900 30.44500
O  41.23400 15.08200 30.92500
C  43.40100 16.21500 31.27100
C  42.72100 17.44900 31.87900
O  42.68600 18.54400 31.36500
O  42.26000 17.14200 33.14800
C  41.80800 18.35300 33.92000
H  48.98700 19.91400 29.75900
H  48.79900 17.60700 23.76900
H  43.18400 14.80700 24.96400
H  45.34500 18.63400 32.30600
H  48.23300 18.50600 32.02300
H  46.30600 20.56100 32.44600
H  46.53600 20.75700 30.76600
H  47.94500 21.01200 31.80500
H  47.20500 16.24300 32.52400
H  45.64700 16.34300 33.34800
H  48.18800 17.32600 34.02800
H  46.88500 16.83600 35.17400
H  50.82200 20.69400 28.74100
H  50.92500 21.06500 27.04800
H  52.04800 19.84600 27.73000
H  52.05600 20.61700 25.22500
H  53.00400 19.58200 24.09000
H  52.87400 19.18000 25.80500
H  47.34200 15.61000 22.85800
H  44.36200 16.26600 23.08300
H  46.83400 17.40600 21.04200
H  47.30200 18.34000 22.52000
H  45.60500 18.02900 22.13700
H  45.18500 13.52600 23.54100
H  45.93300 14.12600 22.06900
H  43.21800 13.06900 22.04100
H  44.38300 13.57300 20.81000
H  43.24200 14.70400 21.42000
H  41.01800 14.73300 26.29200
H  40.42900 14.56500 27.88200
H  41.45200 13.28400 27.21300
H  43.67300 15.54000 32.08200
H  40.73100 18.40100 33.75500
H  42.16100 19.35900 33.69200
H  42.17100 18.27700 34.94400
Mg 6.61500 53.50200 40.70300
C  6.19100 50.01200 39.99500
C  9.88400 53.15100 39.56800
C  6.84800 56.79500 40.92700
C  3.12100 53.62100 41.27700
N  7.87200 51.74500 39.75400
C  7.52600 50.40200 39.60200
C  8.76300 49.54100 39.08600
C  9.91000 50.46200 39.49400
C  9.20300 51.85100 39.56600
C  10.54900 50.07600 40.89000
C  8.70600 48.91500 37.59900
C  8.61000 49.83200 36.39500
H  7.51900 49.72200 35.36000
N  8.17000 54.77700 40.28900
C  9.44300 54.46000 39.84700
C  10.20100 55.66900 39.74800
C  9.37100 56.70100 40.15900
C  8.07400 56.12900 40.50300
C  11.59500 55.79800 39.24300
C  9.84900 58.17000 40.13000
O  10.95500 58.51800 39.68700
C  9.01000 59.29400 40.80700
N  5.19300 54.96300 41.01400
C  5.55400 56.29000 41.01400
C  4.31400 57.24600 41.14100
C  3.20600 56.13100 41.34500
C  3.83600 54.80800 41.19600
C  4.24900 58.39300 42.26300
C  2.03200 56.48100 40.23900
C  0.89300 57.46300 40.55200
N  4.98800 52.15900 40.88000
C  3.66100 52.32900 41.24200
C  3.01300 51.08600 41.27600
C  4.02200 50.15800 40.88100
C  5.15100 50.84900 40.63000
C  1.55800 50.70900 41.61800
C  4.29400 48.69100 40.68900
O  3.59900 47.71300 40.86500
C  5.70200 48.56900 40.01300
C  5.37000 48.07300 38.61500
O  5.02400 48.78600 37.71000
O  5.52200 46.66700 38.49200
C  5.24900 46.10200 37.19900
H  10.95600 52.95000 39.51900
H  6.93200 57.88000 41.01700
H  2.05300 53.60200 41.50700
H  8.68200 48.63500 39.68700
H  10.73500 50.41900 38.78400
H  10.80900 50.84100 41.62200
H  11.41000 49.45900 40.63300
H  9.93000 49.31400 41.36400
H  7.83500 48.26200 37.53100
H  9.54600 48.25800 37.37500
H  9.61800 49.69600 36.00300
H  8.56300 50.87800 36.69900
H  12.21200 56.18400 40.05400
H  11.76300 56.40200 38.35200
H  12.02900 54.83500 38.97400
H  9.70100 60.12500 40.94500
H  8.67900 59.09700 41.82600
H  8.14100 59.57500 40.21300
H  4.31800 57.74500 40.17200
H  2.78400 56.27500 42.33900
H  5.21800 58.50000 42.75100
H  3.51900 58.19700 43.04900
H  4.08300 59.40700 41.89800
H  1.58900 55.53400 39.93100
H  2.47700 56.92500 39.35000
H  0.91100 57.71100 41.61400
H  -0.06900 57.03200 40.27300
H  1.07500 58.40900 40.04400
H  1.26700 49.99100 40.85100
H  0.91800 51.59100 41.56900
H  1.42700 50.19400 42.56900
H  6.35400 47.90100 40.57700
H  6.14900 46.17400 36.58800
H  4.42400 46.52400 36.62500
H  5.01200 45.04500 37.32500

