158

Mg 24.41400 -5.42700 45.85000
C  26.79800 -3.02800 44.47700
C  22.16700 -4.01000 43.63100
C  22.62800 -8.15800 46.31700
C  27.23800 -6.85500 47.51200
N  24.48700 -3.72900 44.28200
C  25.55400 -2.95000 43.90000
C  25.20400 -2.07500 42.71800
C  23.65300 -2.04600 42.64200
C  23.39600 -3.28300 43.64700
C  23.10000 -0.76300 43.07800
C  25.76800 -2.77300 41.43800
C  26.65500 -1.86000 40.45200
H  26.00700 -1.56600 39.08900
N  22.53000 -5.96200 45.21100
C  21.81100 -5.30400 44.23400
C  20.55700 -6.01500 44.11700
C  20.69200 -7.16900 44.93600
C  21.97000 -7.13000 45.56600
C  19.47500 -5.62800 43.18400
C  19.52500 -8.15100 45.14200
O  18.55800 -8.14200 44.38900
C  19.42600 -9.14100 46.37200
N  24.86400 -7.17300 46.86700
C  23.91800 -8.12100 47.01300
C  24.46300 -9.31400 47.83800
C  25.87300 -8.84300 48.31900
C  26.01800 -7.60300 47.50200
C  23.53200 -9.76700 48.99800
C  26.96800 -9.89000 47.98800
C  28.05100 -10.17000 49.13000
N  26.64800 -4.94900 46.17200
C  27.51500 -5.62300 46.89200
C  28.74000 -4.86400 46.76500
C  28.48900 -3.85400 45.85300
C  27.22900 -3.98300 45.47000
C  29.93300 -5.39400 47.53100
C  29.13100 -2.74600 45.24300
O  30.29700 -2.35400 45.27300
C  28.01500 -2.11800 44.26900
C  27.87700 -0.66900 44.70800
O  28.46000 0.27800 44.26600
O  26.94300 -0.58200 45.78500
C  26.95600 0.71500 46.46000
H  21.40400 -3.61300 42.95800
H  22.15400 -9.13800 46.40400
H  28.06900 -7.42000 47.94000
H  25.55600 -1.05500 42.87500
H  23.30500 -2.30400 41.64200
H  22.19900 -0.85700 43.68400
H  22.69900 -0.22500 42.21900
H  23.77300 -0.11200 43.63600
H  25.06800 -3.35200 40.83600
H  26.54600 -3.43200 41.82300
H  27.57700 -2.40500 40.24800
H  26.87200 -0.91700 40.95400
H  19.52700 -6.29600 42.32400
H  19.62600 -4.59500 42.87000
H  18.49300 -5.64900 43.65600
H  20.01100 -8.86000 47.24800
H  19.69600 -10.17900 46.18100
H  18.35100 -9.20000 46.54200
H  24.50300 -10.15400 47.14400
H  25.80500 -8.67600 49.39400
H  22.56900 -9.26500 48.90600
H  23.79500 -9.57000 50.03800
H  23.24500 -10.81700 48.94200
H  27.54300 -9.38400 47.21200
H  26.65600 -10.85100 47.58000
H  28.15800 -11.23900 49.31400
H  27.78700 -9.60200 50.02200
H  28.93900 -9.62100 48.81600
H  30.29900 -6.29900 47.04700
H  29.68300 -5.59400 48.57300
H  30.73000 -4.68200 47.31500
H  28.25200 -2.10700 43.20500
H  26.02400 0.89000 46.99700
H  27.09000 1.51200 45.72900
H  27.80200 0.81900 47.14000
Mg -2.86300 34.87900 26.65300
C  -4.42800 32.87600 28.92900
C  -1.85400 37.02600 29.28400
C  -1.65500 37.04900 24.37400
C  -4.38800 32.99200 24.02600
N  -3.37200 35.06700 28.87900
C  -3.73700 33.94500 29.57100
C  -3.50700 34.16100 31.08600
C  -2.66900 35.46500 31.15100
C  -2.71700 35.95700 29.70900
C  -3.14700 36.54600 32.13700
C  -3.03400 32.97100 31.95100
C  -1.95400 33.12400 33.02100
H  -2.15900 32.28800 34.35200
N  -1.90000 36.71400 26.81800
C  -1.55600 37.39900 27.96300
C  -0.78200 38.57700 27.57400
C  -0.70500 38.55100 26.15500
C  -1.45700 37.40000 25.72000
C  -0.28300 39.59100 28.53600
C  -0.06700 39.55800 25.16100
O  -0.08300 39.52800 23.91600
C  0.94200 40.46800 25.69900
N  -3.25200 35.19100 24.40300
C  -2.46000 36.07900 23.74400
C  -2.68600 35.93600 22.20800
C  -3.33700 34.50400 22.11700
C  -3.73500 34.22000 23.60500
C  -3.68000 36.92700 21.65100
C  -2.37600 33.44600 21.47300
C  -0.85800 33.52500 21.76000
N  -4.26700 33.29800 26.51900
C  -4.72100 32.57500 25.37900
C  -5.40000 31.41500 25.87200
C  -5.41700 31.48100 27.25800
C  -4.61500 32.64400 27.56700
C  -6.12800 30.41000 25.03000
C  -5.81000 30.86900 28.53500
O  -6.44900 29.86600 28.79400
C  -5.29400 31.83700 29.66900
C  -6.41700 32.36400 30.45900
O  -7.30800 33.05300 30.02300
O  -6.30700 31.93400 31.79800
C  -7.28000 32.08800 32.87800
H  -1.29300 37.57400 30.04400
H  -1.34600 37.75200 23.59700
H  -4.62600 32.26900 23.24300
H  -4.48800 34.36900 31.51300
H  -1.61500 35.23600 31.30800
H  -2.56800 37.46900 32.11900
H  -3.04800 36.05800 33.10600
H  -4.18300 36.78100 31.89200
H  -2.58500 32.24900 31.26800
H  -3.92500 32.53500 32.40300
H  -1.98900 34.14200 33.40900
H  -0.98500 32.98600 32.54200
H  0.80200 39.69700 28.56400
H  -0.57600 39.42300 29.57200
H  -0.67700 40.54900 28.19500
H  0.35600 41.18300 26.27700
H  1.38900 40.95400 24.83200
H  1.59700 39.80000 26.25900
H  -1.75300 36.10100 21.66900
H  -4.26500 34.50400 21.54500
H  -4.50500 36.64200 20.99700
H  -3.06400 37.61900 21.07600
H  -4.12900 37.51300 22.45300
H  -2.43400 33.57000 20.39200
H  -2.76900 32.47200 21.76400
H  -0.76700 34.06600 22.70200
H  -0.40600 34.19500 21.02800
H  -0.35100 32.57000 21.62300
H  -6.35600 29.62500 25.75100
H  -5.42700 29.92300 24.35200
H  -6.96100 30.82400 24.46300
H  -4.64500 31.33200 30.38300
H  -6.80900 32.64500 33.68700
H  -7.70500 31.14000 33.20900
H  -7.99400 32.85100 32.56800

