158

Mg 26.92600 51.13600 27.14900
C  24.52600 52.12900 29.45600
C  28.95200 50.22800 29.53500
C  29.12000 50.60700 24.78300
C  24.57300 52.24600 24.63500
N  26.73300 51.27500 29.33500
C  25.64100 51.51200 30.06000
C  25.84200 51.23400 31.50700
C  27.33400 50.56000 31.52900
C  27.69600 50.66800 30.04700
C  28.18900 51.31500 32.54500
C  24.76100 50.29800 32.07700
C  24.04400 50.72400 33.41000
H  24.19000 49.76500 34.58700
N  28.83000 50.56000 27.18200
C  29.53400 50.26700 28.26500
C  30.89700 49.93600 27.90200
C  30.96200 50.17300 26.47500
C  29.59500 50.46400 26.06300
C  31.96500 49.58000 28.81400
C  32.12100 50.08800 25.56200
O  32.14000 50.40300 24.34600
C  33.46700 49.60700 26.07600
N  26.78900 51.36700 25.01500
C  27.86400 51.00700 24.26700
C  27.69500 51.02100 22.82300
C  26.13200 51.31900 22.74900
C  25.73000 51.64800 24.23000
C  28.57100 52.05000 22.05200
C  25.16400 50.22000 22.19600
C  23.81200 50.75300 21.64700
N  24.95700 52.01700 27.02400
C  24.21400 52.45700 25.98300
C  23.01700 53.05300 26.41700
C  23.07100 52.91200 27.81700
C  24.26700 52.25500 28.10700
C  22.04200 53.74700 25.51400
C  22.38200 53.24400 29.05500
O  21.31500 53.77400 29.28500
C  23.24900 52.57200 30.12600
C  23.59800 53.62000 31.14600
O  24.42200 54.51200 31.08300
O  22.75000 53.45900 32.21400
C  23.00900 54.44000 33.31500
H  29.61500 49.89000 30.33400
H  29.79100 50.21700 24.01400
H  23.76100 52.33800 23.91100
H  25.81700 52.17500 32.05600
H  27.41000 49.50000 31.77300
H  29.14400 50.79600 32.63700
H  27.89600 51.28500 33.59500
H  28.38200 52.34500 32.24700
H  25.26500 49.36300 32.32000
H  23.90600 50.05300 31.44700
H  22.98900 50.87600 33.18100
H  24.37800 51.66800 33.84000
H  31.60400 49.74900 29.82800
H  32.88900 50.15200 28.72900
H  32.22100 48.54600 28.58100
H  34.14600 49.51500 25.22800
H  33.42000 48.62200 26.54000
H  33.82800 50.36000 26.77600
H  27.93500 50.02500 22.45300
H  26.00600 52.18900 22.10400
H  29.54200 52.03900 22.54700
H  28.15500 53.05600 22.10100
H  28.67000 51.74500 21.01000
H  24.88000 49.64900 23.08000
H  25.66100 49.52000 21.52400
H  23.67100 50.56600 20.58300
H  23.69500 51.79500 21.94600
H  22.99100 50.26300 22.17000
H  21.07500 53.74100 26.01800
H  21.79300 53.05800 24.70700
H  22.40100 54.75200 25.29500
H  22.64200 51.78100 30.56700
H  23.99700 54.39000 33.77300
H  22.30600 54.34700 34.14300
H  22.85100 55.47400 33.00700
Mg -11.68800 15.98100 42.00600
C  -8.46800 14.89800 41.09900
C  -10.93600 19.02100 40.47900
C  -14.93900 16.50000 41.64900
C  -12.40900 12.69200 42.99500
N  -9.89200 16.81400 40.71200
C  -8.69300 16.21500 40.53600
C  -7.71200 17.11900 39.73600
C  -8.41100 18.50600 39.93600
C  -9.84900 18.13600 40.38400
C  -7.67200 19.45800 40.98000
C  -7.63100 16.65900 38.20700
C  -6.26000 16.59200 37.59900
H  -6.01800 17.17900 36.22700
N  -12.81900 17.62500 41.22100
C  -12.32900 18.79200 40.72000
C  -13.44000 19.64500 40.49900
C  -14.62100 18.96200 40.86800
C  -14.18000 17.57300 41.28600
C  -13.27500 21.01000 39.99200
C  -16.07200 19.53900 40.76100
O  -16.33700 20.64100 40.21000
C  -17.31700 18.80700 41.30100
N  -13.48100 14.65000 42.08500
C  -14.68600 15.19900 42.09700
C  -15.77400 14.19500 42.48300
C  -14.89200 13.01000 42.86600
C  -13.49300 13.56300 42.74500
C  -16.67500 14.66400 43.63600
C  -15.21800 11.78400 41.90800
C  -15.49200 10.46700 42.63600
N  -10.66700 14.21300 42.34300
C  -11.06700 12.98600 42.67800
C  -9.92800 12.07300 42.67300
C  -8.87800 12.85900 42.20600
C  -9.39400 14.09400 41.84900
C  -9.98500 10.66700 43.19600
C  -7.45800 12.79700 41.91900
O  -6.62000 11.93800 42.16000
C  -7.16300 14.08100 41.02200
C  -6.05800 14.83400 41.63800
O  -6.07400 15.21700 42.78600
O  -5.12600 15.07300 40.69500
C  -4.01800 15.86700 41.19800
H  -10.81300 20.03900 40.10500
H  -16.01500 16.67100 41.73400
H  -12.64100 11.65700 43.25800
H  -6.74200 17.23400 40.21900
H  -8.59000 19.12000 39.05400
H  -8.39000 20.10800 41.48000
H  -6.99200 20.01900 40.33900
H  -7.14000 18.84500 41.70700
H  -8.20400 17.37600 37.62000
H  -8.00400 15.64200 38.07900
H  -5.95300 15.54700 37.54700
H  -5.54300 17.13800 38.21200
H  -12.26600 21.42100 39.95000
H  -13.89100 21.63900 40.63500
H  -13.79700 21.02600 39.03600
H  -18.18800 19.46200 41.30000
H  -17.11300 18.46700 42.31700
H  -17.43700 17.98600 40.59400
H  -16.38900 13.90300 41.63300
H  -15.05000 12.86400 43.93500
H  -16.44100 14.47500 44.68400
H  -17.68000 14.28100 43.45400
H  -16.73800 15.74700 43.52900
H  -14.32700 11.56800 41.31800
H  -16.09800 11.95700 41.28900
H  -14.86900 9.63900 42.29800
H  -16.55300 10.22800 42.70800
H  -15.17600 10.51300 43.67900
H  -10.77900 10.09200 42.71900
H  -10.32400 10.68600 44.23100
H  -9.00300 10.21600 43.04800
H  -6.90700 13.62000 40.06700
H  -3.21900 15.17300 41.46100
H  -4.29800 16.61300 41.94200
H  -3.81800 16.50300 40.33500

