158

Mg 42.27100 41.72700 26.34500
C  40.96300 43.93000 28.64900
C  42.90700 39.48100 28.80000
C  43.51400 39.73800 23.99500
C  41.69100 44.24100 23.92300
N  42.08300 41.76300 28.53900
C  41.36000 42.71700 29.23700
C  41.31500 42.37500 30.76400
C  42.02200 40.99000 30.73400
C  42.37300 40.68700 29.27400
C  43.26600 40.77000 31.60100
C  39.90700 42.39400 31.38600
C  39.58000 41.66000 32.63100
H  39.30200 42.50000 33.88500
N  42.92000 39.85400 26.38100
C  43.10200 39.00800 27.44600
C  43.46700 37.67700 27.05800
C  43.60700 37.74100 25.63900
C  43.40800 39.20800 25.29400
C  43.50500 36.45600 27.98100
C  43.70200 36.68400 24.62300
O  43.94900 36.79900 23.43900
C  43.61500 35.22800 25.11200
N  42.48200 41.93800 24.21500
C  43.24200 41.03500 23.51500
C  43.56500 41.52900 22.14300
C  42.68300 42.81500 21.99000
C  42.24500 43.04100 23.46100
C  45.13200 41.67900 21.94200
C  41.51900 42.77200 21.01000
C  40.07300 43.03400 21.42900
N  41.55100 43.62600 26.24800
C  41.36100 44.54100 25.20500
C  40.72900 45.78200 25.64600
C  40.64600 45.59500 27.05300
C  41.08200 44.27800 27.33600
C  40.29700 46.96100 24.88800
C  40.20900 46.22800 28.28700
O  39.74900 47.36200 28.47200
C  40.46700 45.16400 29.37200
C  41.50100 45.74600 30.30500
O  42.68100 45.75400 30.18100
O  40.93600 46.17600 31.47700
C  41.76100 46.50500 32.64600
H  43.29200 38.79100 29.55400
H  44.01300 39.28200 23.13800
H  41.56300 45.03300 23.18200
H  42.03000 43.03200 31.26000
H  41.22600 40.29100 30.99000
H  44.11600 40.75700 30.91900
H  43.16700 39.86800 32.20500
H  43.40100 41.62200 32.26800
H  39.13500 42.09700 30.67600
H  39.66800 43.45400 31.48200
H  40.48400 41.09500 32.85500
H  38.80300 40.91100 32.48000
H  44.45100 36.01500 27.66600
H  42.66000 35.80700 27.75000
H  43.54100 36.72100 29.03800
H  43.54000 34.63700 24.19900
H  42.63700 35.10700 25.57900
H  44.55500 34.94600 25.58500
H  43.18900 40.83500 21.39100
H  43.27800 43.71100 21.81100
H  45.67600 41.42000 22.85100
H  45.31300 42.74500 21.80200
H  45.54500 41.10400 21.11300
H  41.58200 41.84200 20.44500
H  41.75100 43.50700 20.23800
H  39.43900 42.57400 20.67200
H  39.88200 44.08600 21.21800
H  39.74800 42.78100 22.43900
H  39.77900 46.57600 24.00900
H  41.04000 47.72600 24.66400
H  39.72900 47.59600 25.56800
H  39.52700 45.04800 29.91300
H  41.57500 47.50000 33.04900
H  42.81500 46.57100 32.37600
H  41.59300 45.70300 33.36500
Mg -2.32800 34.91100 25.62000
C  -3.69900 33.12200 28.24800
C  -0.85600 37.11900 27.99400
C  -1.77000 37.13400 23.32900
C  -4.35300 33.07500 23.47900
N  -2.25900 35.17000 27.88100
C  -2.79400 34.11800 28.68100
C  -2.47100 34.41000 30.21000
C  -1.50000 35.64500 30.13700
C  -1.54900 36.08000 28.59600
C  -1.71200 36.79100 31.11800
C  -1.80300 33.12000 30.87700
C  -2.34700 32.68100 32.23300
H  -1.52000 32.84800 33.52400
N  -1.32900 36.72800 25.63700
C  -0.71200 37.44300 26.66200
C  0.06200 38.49800 26.13200
C  -0.05300 38.45900 24.72200
C  -1.10700 37.47100 24.49700
C  0.84100 39.45100 27.05900
C  0.61100 39.35500 23.68400
O  0.22600 39.45200 22.51500
C  1.80600 40.20600 24.13700
N  -2.92700 35.05000 23.70700
C  -2.61300 36.09000 22.94000
C  -3.21500 36.07400 21.50100
C  -3.75800 34.60300 21.45800
C  -3.60600 34.17900 22.93500
C  -4.30300 37.12500 21.30200
C  -3.02400 33.75100 20.42600
C  -1.61700 33.26000 20.79500
N  -3.72700 33.38600 25.76500
C  -4.40400 32.67400 24.79300
C  -5.22400 31.63800 25.41900
C  -4.96300 31.74500 26.80900
C  -4.08400 32.85100 26.96900
C  -6.19300 30.71300 24.74400
C  -5.33600 31.21000 28.10400
O  -6.07700 30.29600 28.45800
C  -4.52500 32.14900 29.08000
C  -5.49300 32.82800 29.91400
O  -6.17300 33.82300 29.65500
O  -5.51100 32.03200 31.06500
C  -6.27500 32.56000 32.23700
H  -0.32400 37.66000 28.77900
H  -1.66600 37.89900 22.55600
H  -5.13400 32.62800 22.86100
H  -3.39500 34.79100 30.64600
H  -0.49900 35.27700 30.35900
H  -2.36000 36.43300 31.91800
H  -2.02200 37.66600 30.54700
H  -0.73200 37.12700 31.45700
H  -0.74000 33.29500 31.03900
H  -1.72100 32.24100 30.23800
H  -2.61100 31.62500 32.16300
H  -3.24600 33.23100 32.51200
H  0.67600 40.46900 26.70600
H  1.88400 39.14700 27.15500
H  0.36400 39.38900 28.03700
H  1.44800 41.13700 24.57700
H  2.28900 40.51700 23.21000
H  2.48600 39.66300 24.79300
H  -2.48800 36.36200 20.74200
H  -4.80200 34.53700 21.15200
H  -4.60600 37.61300 22.22800
H  -5.01100 36.66000 20.61600
H  -3.84300 37.87500 20.65900
H  -2.88000 34.41700 19.57500
H  -3.67900 32.92900 20.13700
H  -1.24300 33.53300 21.78100
H  -0.94200 33.81700 20.14400
H  -1.49100 32.18400 20.67200
H  -6.08100 29.74400 25.23100
H  -5.99100 30.56400 23.68400
H  -7.18600 31.09600 24.97800
H  -3.84300 31.42900 29.53300
H  -6.58400 33.57400 31.98300
H  -5.87200 32.46600 33.24500
H  -7.20400 31.98900 32.22500

