158

Mg 7.57000 2.75700 27.93300
C  8.79900 1.40900 30.85300
C  5.21500 4.50800 29.79300
C  5.86500 3.37600 25.09500
C  9.43800 0.25500 26.05500
N  7.01400 2.96300 30.13700
C  7.84900 2.43600 31.07300
C  7.53000 3.10500 32.41300
C  6.32000 4.00200 32.07100
C  6.20400 3.89300 30.63200
C  4.87500 3.57800 32.69000
C  8.78600 3.87400 33.01100
C  9.33900 3.49000 34.39600
H  9.23700 4.54800 35.45900
N  5.94100 4.04100 27.49000
C  5.08400 4.64000 28.38100
C  4.23600 5.50000 27.62100
C  4.44900 5.17900 26.27500
C  5.44200 4.18200 26.24500
C  3.13700 6.35800 28.25400
C  3.71500 5.88500 25.08800
O  4.03000 5.53800 23.93500
C  2.70300 6.98300 25.30400
N  7.72400 2.00800 25.87200
C  6.80200 2.30800 24.95400
C  7.27200 1.89800 23.51400
C  8.42200 0.90300 23.84800
C  8.58500 1.05300 25.33300
C  6.20100 1.52600 22.45600
C  9.77700 1.15600 23.00900
C  10.51800 -0.04700 22.48700
N  8.92200 1.22600 28.32600
C  9.63600 0.33700 27.43400
C  10.59900 -0.36400 28.29500
C  10.25700 -0.02100 29.59700
C  9.22100 0.93100 29.57800
C  11.51500 -1.41300 27.79700
C  10.54800 -0.37600 31.01200
O  11.37100 -1.15800 31.58700
C  9.66400 0.63300 31.86800
C  8.82600 -0.10700 32.79900
O  7.64400 -0.41900 32.65300
O  9.61100 -0.48300 33.90300
C  8.86400 -1.42700 34.79600
H  4.47600 5.08500 30.35300
H  5.49700 3.63700 24.10100
H  10.08900 -0.51600 25.63700
H  7.14700 2.33600 33.08500
H  6.48000 5.05200 32.31600
H  4.19200 3.41700 31.85600
H  4.55300 4.47100 33.22500
H  4.85600 2.66200 33.28100
H  8.59300 4.94500 32.95000
H  9.59100 3.65400 32.31000
H  10.38000 3.16800 34.42000
H  8.76000 2.62200 34.71300
H  3.03700 7.33900 27.79000
H  3.39900 6.65700 29.26900
H  2.16100 5.87200 28.25300
H  1.89500 6.71000 25.98400
H  2.18500 7.20500 24.37100
H  3.23100 7.88200 25.62000
H  7.66000 2.80100 23.04400
H  8.05800 -0.10200 23.63100
H  5.23600 1.67600 22.93900
H  6.26500 0.50300 22.08400
H  6.16900 2.21300 21.61000
H  10.50600 1.62200 23.67300
H  9.73200 1.92600 22.23900
H  10.79400 0.10400 21.44400
H  9.85100 -0.90600 22.55200
H  11.43900 -0.29300 23.01700
H  11.81400 -1.17000 26.77800
H  10.94000 -2.33900 27.83400
H  12.40300 -1.40600 28.43000
H  10.30600 1.27600 32.47000
H  8.27900 -2.11400 34.18300
H  8.21600 -0.77500 35.38200
H  9.54300 -1.94300 35.47400
Mg 6.78200 54.15500 41.45400
C  5.85200 50.94900 40.50100
C  9.84300 53.63400 39.96300
C  7.32400 57.37500 41.83700
C  3.27500 54.79800 42.14400
N  7.69800 52.47100 40.18200
C  7.18000 51.27400 39.96900
C  8.17500 50.29600 39.25200
C  9.48400 51.14700 39.26800
C  9.00100 52.53000 39.75300
C  10.62400 50.58700 40.17000
C  7.61200 49.87000 37.86000
C  8.47900 50.03300 36.62500
H  7.91300 49.60200 35.22200
N  8.38100 55.36400 41.00200
C  9.52100 54.92300 40.47400
C  10.42700 56.11400 40.38300
C  9.70100 57.18600 40.76900
C  8.40100 56.68200 41.21400
C  11.80600 56.05000 39.68300
C  10.30500 58.55400 40.94400
O  11.45400 58.78400 40.65100
C  9.55300 59.75700 41.50700
N  5.45800 55.87700 41.89900
C  6.02900 57.12400 42.18300
C  4.98100 58.11700 42.72800
C  3.75100 57.18300 42.89800
C  4.14800 55.89200 42.19500
C  5.18400 58.90200 44.07600
C  2.48100 57.73200 42.29800
C  1.19900 57.77700 43.16600
N  4.96900 53.14800 41.41000
C  3.66900 53.55000 41.66200
C  2.80400 52.37800 41.55600
C  3.59600 51.32900 41.17900
C  4.91400 51.85700 41.02800
C  1.30000 52.37800 41.84200
C  3.60200 49.92000 40.87700
O  2.74400 49.04400 40.90600
C  5.17300 49.61800 40.66900
C  5.26800 48.74000 39.52900
O  4.69200 48.86600 38.43300
O  5.91800 47.59800 39.92000
C  5.70900 46.48700 38.94900
H  10.80400 53.49500 39.46500
H  7.51200 58.41700 42.10700
H  2.25300 54.92500 42.50800
H  8.33300 49.44400 39.91400
H  9.92800 51.46300 38.32400
H  10.71400 50.99800 41.17600
H  11.53700 50.92100 39.67900
H  10.56600 49.50200 40.07800
H  6.65800 50.38600 37.75200
H  7.37500 48.80600 37.85400
H  9.42800 49.55300 36.86400
H  8.62700 51.09500 36.42500
H  12.04800 55.03300 39.37300
H  12.68900 56.24100 40.29300
H  11.82200 56.62200 38.75500
H  9.34000 59.60800 42.56500
H  8.59900 59.82500 40.98300
H  10.10400 60.63300 41.16600
H  4.64600 58.74700 41.90500
H  3.73700 56.85300 43.93700
H  6.13200 58.62800 44.53900
H  4.49700 58.60300 44.86800
H  5.15800 59.97800 43.90400
H  2.27600 57.15300 41.39800
H  2.65300 58.75600 41.96800
H  1.46800 57.70600 44.22000
H  0.52500 56.98700 42.83400
H  0.71800 58.74200 43.01100
H  0.97900 51.33800 41.79200
H  0.80400 52.91700 41.03500
H  1.10000 52.81700 42.82000
H  5.68400 49.21800 41.54400
H  6.06400 45.64600 39.54400
H  6.30700 46.73500 38.07200
H  4.66900 46.28100 38.69700

