158

Mg 7.17200 2.80200 28.10800
C  8.72600 1.82900 31.13400
C  4.90300 4.55900 29.77300
C  5.97300 3.84000 25.16800
C  9.28500 0.63700 26.47000
N  6.84700 3.17400 30.29100
C  7.61100 2.68100 31.37800
C  7.18900 3.34600 32.67900
C  5.78100 3.93000 32.29400
C  5.86100 3.95300 30.66000
C  4.49200 3.15100 32.82900
C  8.19300 4.33100 33.26500
C  8.97000 3.90800 34.50600
H  8.23800 3.29300 35.72400
N  5.70300 4.15500 27.51200
C  4.78400 4.77900 28.37400
C  3.85500 5.66200 27.64900
C  4.18400 5.41700 26.26000
C  5.31900 4.46300 26.24400
C  2.76300 6.51900 28.30800
C  3.60500 5.97500 24.95200
O  3.89200 5.56200 23.82700
C  2.53700 7.04400 25.11200
N  7.49200 2.24300 26.04100
C  6.85500 2.80600 25.03300
C  7.19000 2.13700 23.72400
C  8.38400 1.22400 24.12800
C  8.43600 1.34500 25.64000
C  5.89600 1.49000 23.14600
C  9.70600 1.40700 23.47000
C  10.71500 2.38900 24.14600
N  8.69600 1.49200 28.63600
C  9.46500 0.71500 27.83600
C  10.40100 -0.01700 28.63900
C  10.18900 0.39800 29.96300
C  9.09300 1.29500 29.89800
C  11.45000 -0.93900 28.06000
C  10.65700 0.31500 31.31200
O  11.56900 -0.36400 31.82300
C  9.78300 1.25200 32.08800
C  9.17300 0.38700 33.16600
O  7.99000 -0.01000 33.19700
O  10.04000 0.34700 34.27800
C  9.56600 -0.40500 35.39500
H  4.20000 5.19000 30.32100
H  5.69700 4.20300 24.17600
H  9.94600 -0.04300 25.92800
H  6.90100 2.53100 33.34300
H  5.59900 4.98000 32.52300
H  4.67900 2.61300 33.75800
H  4.15100 2.45900 32.05800
H  3.74300 3.92400 32.99800
H  7.74200 5.29700 33.49400
H  8.97400 4.53900 32.53300
H  9.50900 4.75600 34.92700
H  9.79400 3.33500 34.08200
H  2.73700 6.25900 29.36600
H  1.85400 6.03500 27.95100
H  2.70900 7.60500 28.23100
H  2.99800 7.93400 25.54200
H  1.67500 6.68400 25.67300
H  2.10400 7.27600 24.13900
H  7.48700 2.91200 23.01700
H  8.15000 0.17700 23.93200
H  5.01700 1.81700 23.70200
H  6.06200 0.41600 23.06700
H  5.78700 1.89100 22.13900
H  9.39500 1.89200 22.54500
H  10.14100 0.42000 23.31000
H  10.25000 2.99600 24.92300
H  11.05700 3.06200 23.35900
H  11.49300 1.80100 24.63300
H  12.20300 -0.41200 27.47300
H  10.99700 -1.75600 27.50000
H  11.93100 -1.33500 28.95400
H  10.53800 1.93200 32.48200
H  8.76000 0.10100 35.92700
H  10.37600 -0.61600 36.09300
H  9.15200 -1.37800 35.13100
Mg 17.07800 53.05400 26.73400
C  19.10300 51.35300 29.08100
C  14.84300 53.72000 29.19600
C  15.02500 54.38800 24.38100
C  19.19100 51.74700 24.17100
N  17.15600 52.78800 28.90800
C  18.00600 52.07700 29.68700
C  17.57900 52.06900 31.18600
C  16.06100 52.40400 31.09600
C  16.03100 53.02100 29.62800
C  15.02900 51.26000 31.33700
C  18.48700 53.11700 31.85100
C  18.55000 52.97900 33.36700
H  17.56100 52.07900 34.14300
N  15.21600 54.02200 26.75200
C  14.44600 54.25200 27.90700
C  13.26300 54.91800 27.56500
C  13.39900 55.28200 26.21700
C  14.55800 54.55800 25.67600
C  12.22600 55.23500 28.61800
C  12.53400 56.14100 25.28500
O  12.74100 56.34400 24.06000
C  11.44500 56.91100 25.85700
N  17.12100 53.06500 24.60200
C  16.10500 53.66000 23.87100
C  16.34800 53.47900 22.33700
C  17.68600 52.69700 22.31000
C  18.08700 52.57100 23.79800
C  15.24800 52.82100 21.41200
C  18.69900 53.30900 21.30500
C  19.82000 54.22100 21.84600
N  18.92800 51.87000 26.54500
C  19.66100 51.45200 25.46800
C  20.79200 50.66000 25.93900
C  20.67400 50.69000 27.34200
C  19.43800 51.34900 27.66100
C  21.88000 49.88000 25.04700
C  21.26100 50.20600 28.59500
O  22.27600 49.54400 28.77800
C  20.26600 50.63500 29.76600
C  19.87400 49.50000 30.68900
O  18.98800 48.70500 30.40100
O  20.66200 49.51000 31.81200
C  20.24500 48.52000 32.83300
H  14.18300 53.76000 30.06500
H  14.48400 54.81200 23.53300
H  19.85900 51.52100 23.33700
H  17.80400 51.14100 31.71100
H  15.92500 53.21600 31.81100
H  14.20300 51.36900 32.04000
H  15.58800 50.37500 31.64100
H  14.49700 50.94200 30.44100
H  18.28100 54.16200 31.61800
H  19.48200 52.76600 31.57700
H  18.26900 53.92300 33.83500
H  19.57800 52.84200 33.70400
H  12.39200 54.60500 29.49200
H  11.23300 55.17400 28.17200
H  12.33400 56.22000 29.07200
H  10.94300 57.39500 25.01900
H  11.90500 57.70400 26.44600
H  10.72800 56.36100 26.46700
H  16.58700 54.42500 21.85000
H  17.45400 51.67200 22.01900
H  14.81500 53.59100 20.77400
H  14.43400 52.43300 22.02400
H  15.54500 51.91100 20.89100
H  18.21100 54.00100 20.62000
H  19.04500 52.52600 20.63000
H  20.78700 53.73500 21.97200
H  19.46300 54.78200 22.71000
H  19.94800 54.99700 21.09100
H  22.80300 50.44900 25.15900
H  21.50100 49.92900 24.02700
H  22.08100 48.83600 25.28800
H  20.82700 51.34000 30.38000
H  19.18500 48.31900 32.99100
H  20.79200 48.75400 33.74600
H  20.63800 47.58800 32.42700

