158

Mg 25.34000 51.52600 26.19600
C  23.16400 52.35900 28.74000
C  27.73000 50.83200 28.54600
C  27.57400 51.18400 23.56100
C  23.07500 52.87000 23.90900
N  25.45300 51.84700 28.43400
C  24.36400 52.03600 29.23400
C  24.64700 51.79300 30.77400
C  26.21100 51.39400 30.58700
C  26.54800 51.30200 29.08400
C  27.21300 52.32200 31.43900
C  23.79800 50.64000 31.44700
C  23.23700 50.89500 32.87900
H  24.11800 51.49100 33.90300
N  27.26400 50.93500 26.11800
C  28.08400 50.69500 27.20100
C  29.38500 50.34500 26.73800
C  29.40400 50.54100 25.31300
C  28.01100 50.91800 24.92600
C  30.53600 49.98200 27.68600
C  30.57600 50.34100 24.40000
O  30.59400 50.63400 23.22900
C  31.82800 49.69700 24.91500
N  25.28200 51.89300 23.95700
C  26.37000 51.70900 23.16500
C  26.03000 52.08900 21.71200
C  24.45800 52.40300 21.82700
C  24.25200 52.38400 23.30500
C  26.86300 53.29200 21.12700
C  23.68500 51.25800 21.09900
C  23.67300 51.42100 19.52800
N  23.55700 52.41200 26.23300
C  22.75400 52.91100 25.27400
C  21.50500 53.43800 25.70900
C  21.65300 53.26000 27.11600
C  22.90700 52.66600 27.42200
C  20.36100 54.00000 24.91700
C  20.95400 53.40800 28.37500
O  19.80800 53.75700 28.64900
C  21.91600 52.86600 29.50500
C  22.10500 53.97800 30.49000
O  22.83100 54.95200 30.30500
O  21.31100 53.83400 31.58100
C  21.44300 54.89300 32.58600
H  28.44600 50.45000 29.27700
H  28.19800 51.07700 22.67100
H  22.35300 53.17000 23.14700
H  24.49300 52.75900 31.25500
H  26.53000 50.42600 30.97400
H  27.66100 51.71800 32.22800
H  26.69500 53.07300 32.03600
H  28.01400 52.78200 30.86100
H  24.45900 49.77600 31.38800
H  22.85000 50.50700 30.92500
H  23.05000 49.89300 33.26500
H  22.33500 51.50700 32.87700
H  31.47200 50.51600 27.52400
H  30.80700 48.98500 27.33900
H  30.28900 50.07100 28.74400
H  32.56300 49.48200 24.14000
H  31.83700 48.87400 25.63000
H  32.24600 50.55000 25.44900
H  26.21600 51.15600 21.18000
H  24.36500 53.39000 21.37300
H  27.72400 53.37900 21.78900
H  26.34700 54.24400 21.00000
H  27.24600 53.06600 20.13200
H  22.64600 51.22400 21.42600
H  24.13500 50.28700 21.30700
H  22.64600 51.52100 19.17600
H  24.25200 50.62200 19.06700
H  24.27700 52.28100 19.23800
H  20.50100 53.89000 23.84200
H  20.28500 55.04200 25.22800
H  19.46000 53.49100 25.26100
H  21.42300 52.02900 29.99900
H  22.33200 54.61400 33.15400
H  20.58700 54.97400 33.25500
H  21.62900 55.90600 32.22900
Mg -1.94000 34.15700 26.81600
C  -3.27500 32.55000 29.65200
C  -0.42200 36.46400 28.89100
C  -1.40600 36.21700 24.16000
C  -4.00400 32.15500 24.83900
N  -1.86300 34.44400 28.96400
C  -2.45600 33.64600 29.94700
C  -1.97200 33.98900 31.33100
C  -1.18200 35.35400 31.02500
C  -1.18900 35.47100 29.53500
C  -1.44800 36.66200 31.87000
C  -1.06600 32.88100 31.92900
C  -0.43400 33.33200 33.27500
H  -0.85200 32.40000 34.41600
N  -0.85800 35.99800 26.56000
C  -0.27300 36.72400 27.51300
C  0.43100 37.85700 26.85100
C  0.16300 37.77500 25.44300
C  -0.69600 36.58600 25.31100
C  1.04300 38.95200 27.64300
C  0.79800 38.56700 24.29000
O  0.65100 38.21400 23.13200
C  1.54300 39.84200 24.54200
N  -2.66800 34.22900 24.83300
C  -2.26500 35.09900 23.94900
C  -2.79200 34.77900 22.55700
C  -3.43500 33.39300 22.71800
C  -3.36500 33.20200 24.22900
C  -3.69400 35.96700 22.05600
C  -2.67700 32.22100 22.01600
C  -1.22700 31.82900 22.47100
N  -3.31200 32.60900 27.15400
C  -4.06900 31.91600 26.22700
C  -4.81100 30.84300 26.93000
C  -4.53000 31.07500 28.28800
C  -3.63900 32.14700 28.31900
C  -5.61600 29.75200 26.36900
C  -4.81100 30.59900 29.62800
O  -5.43900 29.58200 30.07900
C  -4.06800 31.63200 30.57600
C  -4.97400 32.36400 31.46300
O  -5.89400 33.13700 31.11500
O  -4.82200 31.80600 32.74700
C  -5.79500 32.31300 33.80200
H  0.13200 37.16700 29.51600
H  -1.17600 36.62200 23.17200
H  -4.63900 31.51200 24.22600
H  -2.77800 34.32000 31.98500
H  -0.11900 35.15600 31.16100
H  -2.05400 36.71400 32.77500
H  -1.64600 37.43200 31.12500
H  -0.44200 36.88800 32.22200
H  -0.30400 32.61400 31.19700
H  -1.56700 31.92500 32.07700
H  -0.65600 34.33700 33.63400
H  0.65000 33.26300 33.18900
H  0.44300 39.85100 27.50000
H  2.00200 39.17300 27.17400
H  1.06900 38.67900 28.69800
H  1.55500 40.36000 23.58400
H  2.50500 39.60100 24.99500
H  0.97800 40.38800 25.29800
H  -1.91700 34.64200 21.92200
H  -4.46200 33.51400 22.37400
H  -3.61600 36.79400 22.76000
H  -4.72900 35.68800 21.85900
H  -3.27300 36.28300 21.10100
H  -2.67300 32.44700 20.94900
H  -3.28000 31.31300 21.98400
H  -1.10300 30.77900 22.20300
H  -1.05200 32.03300 23.52700
H  -0.47600 32.36800 21.89400
H  -5.92200 29.07800 27.16900
H  -5.03900 29.21900 25.61400
H  -6.44200 30.33000 25.95400
H  -3.31100 31.11600 31.16600
H  -6.17000 31.40200 34.26800
H  -6.66200 32.86900 33.44500
H  -5.18600 32.88200 34.50500

