158

Mg 35.74000 3.58200 30.15300
C  33.14300 4.09000 32.63700
C  37.97600 3.38100 32.70800
C  37.95800 2.81100 27.82700
C  33.30300 3.98600 27.59900
N  35.56400 3.94000 32.44900
C  34.44200 4.01500 33.19200
C  34.83500 3.95900 34.74800
C  36.39100 4.08600 34.69400
C  36.72300 3.69300 33.21300
C  37.08100 5.43400 35.14100
C  34.41900 2.65600 35.39900
C  33.74700 2.71000 36.76400
H  34.31600 3.72000 37.70000
N  37.75200 3.18500 30.31200
C  38.52800 3.21000 31.45300
C  39.88800 2.98600 30.98000
C  39.84600 2.61400 29.57500
C  38.45500 2.88700 29.17100
C  41.14100 3.12500 31.85300
C  40.91900 2.12500 28.62500
O  40.67100 2.02900 27.43100
C  42.38700 1.99500 29.06500
N  35.75500 3.71700 27.98600
C  36.79500 3.16400 27.22900
C  36.37100 2.90400 25.75200
C  34.85100 3.21100 25.79000
C  34.59000 3.65600 27.23400
C  37.13500 3.80700 24.81500
C  34.11100 1.87900 25.52600
C  33.09000 1.82700 24.37700
N  33.67600 4.07300 30.09400
C  32.80500 4.15700 28.96800
C  31.41900 4.33100 29.42400
C  31.50400 4.35800 30.83000
C  32.86600 4.15800 31.19100
C  30.16300 4.29000 28.52600
C  30.74500 4.39500 32.12100
O  29.55200 4.53900 32.24800
C  31.80500 4.23700 33.30400
C  31.71300 5.46500 34.13500
O  32.17700 6.54700 33.83200
O  31.24100 5.07000 35.33900
C  31.17600 6.08500 36.38700
H  38.74300 3.27600 33.47800
H  38.60300 2.57800 26.97700
H  32.48400 3.94300 26.87800
H  34.37000 4.81800 35.23200
H  36.82900 3.33400 35.35000
H  37.91200 5.71800 34.49600
H  37.50200 5.37500 36.14500
H  36.34400 6.23800 35.15700
H  35.28700 1.99800 35.44300
H  33.83200 2.17000 34.62000
H  33.87200 1.69900 37.15100
H  32.67600 2.84900 36.61500
H  41.49800 2.11800 32.06800
H  40.95500 3.66500 32.78100
H  41.94500 3.60200 31.29200
H  43.07600 1.58200 28.32800
H  42.28800 1.40300 29.97500
H  42.67700 3.01800 29.30600
H  36.63900 1.87800 25.50100
H  34.49100 3.99900 25.12900
H  36.45700 4.39500 24.19600
H  37.64200 3.12200 24.13600
H  37.81300 4.49100 25.32500
H  33.60500 1.50300 26.41500
H  34.72500 1.03100 25.22300
H  32.98100 2.75000 23.80700
H  32.16400 1.40700 24.77000
H  33.37200 1.15700 23.56500
H  30.09900 5.27400 28.06200
H  29.23200 4.20200 29.08700
H  30.26000 3.46400 27.82100
H  31.65900 3.40100 33.98800
H  30.47900 6.84700 36.03700
H  32.13600 6.57500 36.54900
H  30.69100 5.69000 37.28000
Mg 1.03200 42.71100 26.27300
C  3.40300 42.63300 28.98500
C  -1.51700 42.22800 28.48100
C  -1.07500 42.59100 23.58600
C  3.75100 42.85700 24.13400
N  1.05700 42.55700 28.47700
C  2.01000 42.55700 29.37500
C  1.39400 42.47500 30.80000
C  -0.10700 42.11900 30.60900
C  -0.21600 42.23900 29.08200
C  -0.76300 40.84600 31.19900
C  1.68900 43.78100 31.53700
C  1.24400 43.79500 33.06400
H  0.90900 42.44400 33.63000
N  -1.01200 42.44100 26.13800
C  -1.90200 42.41300 27.12100
C  -3.25000 42.36600 26.57400
C  -3.17000 42.40500 25.18400
C  -1.69000 42.49900 24.89500
C  -4.44000 42.31900 27.39400
C  -4.30000 42.57000 24.15700
O  -4.07600 42.94600 23.01900
C  -5.67700 42.35500 24.62600
N  1.33800 42.68500 24.22300
C  0.30200 42.56600 23.32600
C  0.71800 42.69600 21.89600
C  2.25000 42.72800 22.05400
C  2.48600 42.76900 23.54900
C  0.36300 41.44400 21.04800
C  2.86500 43.89000 21.30600
C  3.28900 45.14600 22.08200
N  3.25000 42.81700 26.48800
C  4.13000 42.85600 25.50300
C  5.52800 42.88800 26.06900
C  5.26200 42.77600 27.49800
C  3.86500 42.76300 27.62300
C  6.77800 43.04400 25.31700
C  5.86300 42.69100 28.78800
O  7.01700 42.59400 29.06300
C  4.65800 42.65200 29.84900
C  4.88800 41.53600 30.75200
O  4.85200 40.39100 30.31000
O  5.14000 41.98000 32.02300
C  5.41200 40.87800 32.93800
H  -2.35400 42.10900 29.17300
H  -1.73600 42.54600 22.71800
H  4.47200 43.03600 23.33400
H  1.89600 41.58500 31.17800
H  -0.71700 42.88500 31.08800
H  -1.17700 40.34700 30.32300
H  -1.54700 41.05700 31.92700
H  -0.02500 40.23800 31.72200
H  1.09200 44.57600 31.09000
H  2.75600 43.99300 31.46200
H  0.35500 44.41700 33.17100
H  2.10200 44.11400 33.65500
H  -5.12200 41.49900 27.16700
H  -5.07100 43.16900 27.13300
H  -4.38200 42.53200 28.46200
H  -6.23700 42.39000 23.69200
H  -6.07700 43.11800 25.29500
H  -5.82100 41.35900 25.04700
H  0.30300 43.62500 21.50600
H  2.58500 41.71900 21.81200
H  -0.13000 40.72500 21.70300
H  1.17100 40.94000 20.51800
H  -0.44200 41.78500 20.39700
H  2.14800 44.25500 20.57000
H  3.71900 43.44900 20.79300
H  2.77600 45.27600 23.03500
H  3.07900 46.01000 21.45200
H  4.37400 45.24500 22.11900
H  6.68100 43.97200 24.75300
H  6.88500 42.24500 24.58400
H  7.63700 43.02800 25.98800
H  4.61100 43.57000 30.43500
H  4.94800 41.07400 33.90400
H  6.49200 40.77200 33.04300
H  5.09000 39.90000 32.58200

