158

Mg 41.57900 6.85100 29.62600
C  43.12400 8.42300 32.38100
C  39.12100 5.57700 31.76000
C  39.98100 5.48600 27.01500
C  44.03400 8.03600 27.66600
N  41.17400 6.91900 31.79900
C  41.87500 7.85700 32.66400
C  41.11700 7.86100 33.97100
C  40.07400 6.69200 33.91300
C  40.09400 6.35600 32.40200
C  40.49200 5.42400 34.69000
C  40.49100 9.18700 34.48600
C  40.49800 9.35300 36.00200
H  41.38800 10.40400 36.63600
N  39.87600 5.66100 29.40100
C  38.99100 5.28200 30.39600
C  37.93800 4.58700 29.81900
C  38.04800 4.68200 28.47800
C  39.33900 5.27800 28.20400
C  36.79400 4.12500 30.68900
C  37.02000 4.25400 27.43700
O  37.21000 4.49600 26.27300
C  35.68400 3.53100 27.80800
N  42.21800 6.41300 27.66200
C  41.21300 6.02500 26.71400
C  41.79900 6.21900 25.29200
C  43.00700 7.18600 25.48600
C  43.06300 7.25400 27.07600
C  42.29200 4.88300 24.67800
C  42.90400 8.54800 24.84100
C  41.56700 9.36000 25.12900
N  43.43800 7.83100 29.94700
C  44.29700 8.24900 29.03100
C  45.44700 8.92200 29.67700
C  45.04400 9.05300 31.02400
C  43.77500 8.34200 31.11200
C  46.64600 9.55200 29.03900
C  45.26700 9.71700 32.30400
O  46.07700 10.57300 32.65100
C  44.02200 9.29100 33.26300
C  44.70400 8.60100 34.37600
O  45.40500 7.62300 34.33100
O  44.42300 9.17600 35.55800
C  44.82100 8.63300 36.85700
H  38.33100 5.30700 32.46500
H  39.40400 5.11900 26.16400
H  44.82900 8.40100 27.01300
H  41.87700 7.56100 34.69200
H  39.05100 6.89600 34.23000
H  40.97400 4.73000 34.00100
H  39.57500 4.93100 35.01200
H  41.18400 5.67100 35.49600
H  39.42900 9.22100 34.24000
H  41.01000 9.93400 33.88600
H  40.52500 8.40500 36.53900
H  39.49500 9.68700 36.26400
H  35.79600 4.48600 30.44100
H  36.93900 4.16900 31.76900
H  36.85400 3.05000 30.51700
H  36.05500 2.79900 28.52500
H  35.18900 3.00600 26.99100
H  35.12800 4.19800 28.46800
H  41.09000 6.69200 24.61300
H  43.97500 6.79900 25.16900
H  43.35900 4.66500 24.68600
H  42.04800 4.85200 23.61600
H  41.82500 3.99000 25.09400
H  42.90200 8.47900 23.75300
H  43.74900 9.21600 25.00800
H  41.12900 9.01100 26.06400
H  40.77800 9.19800 24.39500
H  41.88700 10.40200 25.14500
H  46.46000 9.58500 27.96500
H  47.55500 8.98600 29.24500
H  46.77400 10.60400 29.29200
H  43.57600 10.23000 33.59000
H  44.94800 7.56300 36.69300
H  44.06500 8.71800 37.63700
H  45.78900 9.01100 37.18800
Mg 48.45600 13.81500 27.81700
C  46.65500 14.21500 30.66200
C  50.94100 15.91100 29.14800
C  50.42400 13.37400 24.92000
C  45.92700 12.15800 26.40700
N  48.76200 14.89300 29.70000
C  47.83600 14.89100 30.71400
C  48.39100 15.59600 31.90500
C  49.45800 16.48000 31.23600
C  49.80700 15.64400 29.96500
C  49.03300 17.91100 30.94200
C  48.98100 14.56800 32.99800
C  48.37800 14.88100 34.38300
H  49.37300 14.85500 35.56900
N  50.35700 14.61600 27.14400
C  51.20200 15.45500 27.84700
C  52.43600 15.74900 27.11800
C  52.21400 15.11500 25.84200
C  50.97400 14.33700 25.88300
C  53.57300 16.45300 27.68200
C  53.08300 15.08400 24.60500
O  52.76500 14.78100 23.49000
C  54.53500 15.69600 24.62400
N  48.16900 12.99000 25.84900
C  49.14200 12.80200 24.88200
C  48.58500 12.04800 23.69200
C  47.12700 11.73600 24.21700
C  47.09300 12.28300 25.66400
C  48.72000 12.69700 22.31500
C  46.59000 10.26700 23.96500
C  46.91300 9.25800 25.01400
N  46.60100 13.33900 28.30700
C  45.68000 12.61700 27.65900
C  44.56100 12.34800 28.52700
C  44.89600 12.92900 29.73400
C  46.12500 13.58400 29.56600
C  43.25700 11.67200 28.13700
C  44.39000 13.23800 31.09100
O  43.34000 12.98500 31.71200
C  45.60900 13.94900 31.73500
C  45.04800 15.18300 32.27900
O  44.53200 16.12800 31.63400
O  45.16800 15.21700 33.61700
C  44.55900 16.32500 34.42400
H  51.60300 16.59600 29.68300
H  50.95500 13.23500 23.97500
H  45.08800 11.62000 25.95900
H  47.64300 16.33300 32.19800
H  50.39500 16.40000 31.78700
H  48.73200 18.46400 31.83200
H  48.23200 17.82800 30.20700
H  49.76300 18.48700 30.37300
H  50.06600 14.67500 33.00000
H  48.72200 13.52000 32.84700
H  47.68500 14.06500 34.59200
H  47.90900 15.85900 34.49400
H  53.45000 16.91000 28.66400
H  53.88500 17.33200 27.11700
H  54.42100 15.77100 27.73300
H  55.08300 15.20900 25.43100
H  54.39700 16.77500 24.68900
H  55.06700 15.54000 23.68500
H  49.11600 11.10300 23.57300
H  46.61300 12.46200 23.58800
H  49.27300 12.05700 21.62700
H  49.19000 13.63800 22.60100
H  47.75200 12.96100 21.88800
H  47.09600 9.87300 23.08300
H  45.51100 10.32600 23.82200
H  47.29100 9.69900 25.93700
H  47.71500 8.60900 24.66300
H  46.02900 8.67200 25.26600
H  42.36700 12.16700 28.52500
H  43.31100 10.61400 28.39300
H  43.02600 11.85700 27.08800
H  46.10600 13.41900 32.54700
H  43.48700 16.16700 34.54600
H  44.79300 17.30400 34.00700
H  45.03800 16.24900 35.40000

