158

Mg 7.03700 2.83300 27.37500
C  8.44000 1.65500 30.43400
C  4.91000 4.82000 29.06700
C  5.78500 3.83700 24.47500
C  8.94800 0.38000 25.66000
N  6.82200 3.24500 29.43100
C  7.43600 2.67000 30.53700
C  6.92600 3.21300 31.81500
C  5.67400 4.01400 31.44700
C  5.74700 3.99900 29.86000
C  4.29700 3.48100 32.02300
C  8.02500 3.99200 32.68100
C  8.11500 3.78700 34.14500
H  9.41900 3.63400 34.89700
N  5.54500 4.09500 26.83600
C  4.79400 4.79400 27.70300
C  3.90800 5.65600 26.94400
C  4.26100 5.52000 25.53600
C  5.19700 4.41700 25.57000
C  2.90000 6.55900 27.62800
C  3.66300 6.22700 24.28100
O  3.95600 5.94500 23.11700
C  2.67500 7.29200 24.54800
N  7.29400 2.13100 25.28800
C  6.67600 2.79700 24.29600
C  6.89400 2.15800 22.91800
C  7.99400 1.04700 23.27700
C  8.09900 1.12700 24.80900
C  5.59900 1.56600 22.23900
C  9.44700 1.25900 22.70700
C  10.53000 2.21900 23.38000
N  8.42500 1.25900 27.89500
C  9.14700 0.43400 27.06900
C  10.08400 -0.28000 27.86800
C  9.83300 0.12600 29.22700
C  8.80600 1.03900 29.17600
C  10.97000 -1.36500 27.44300
C  10.16300 -0.07900 30.62000
O  10.78100 -1.02900 31.07100
C  9.27800 0.96100 31.49700
C  8.49500 0.31000 32.57600
O  7.48300 -0.27800 32.46300
O  9.11900 0.40900 33.75700
C  8.50400 -0.19500 34.98600
H  4.34900 5.57200 29.62700
H  5.50300 4.18300 23.47800
H  9.62900 -0.34300 25.20600
H  6.59500 2.29700 32.30400
H  5.69100 5.07600 31.69000
H  4.35500 2.46700 32.41800
H  3.61900 3.35500 31.18000
H  3.88000 4.20100 32.72700
H  7.86600 5.05800 32.51900
H  9.01700 3.66600 32.36900
H  7.51300 2.92900 34.44200
H  7.63000 4.62400 34.64800
H  2.51200 6.10100 28.53800
H  2.00800 6.76200 27.03600
H  3.39500 7.47200 27.95800
H  1.67900 7.02900 24.90400
H  2.40200 7.70400 23.57600
H  3.16000 8.09700 25.09900
H  7.43300 2.84600 22.26700
H  7.72800 0.02300 23.01500
H  4.73900 1.47600 22.90300
H  5.60200 0.53400 21.88900
H  5.37400 2.17000 21.36000
H  9.25100 1.58400 21.68500
H  9.93000 0.29100 22.57200
H  10.07500 2.57600 24.30400
H  10.75100 2.95200 22.60500
H  11.44600 1.65100 23.54300
H  11.86300 -1.39000 28.06700
H  11.15800 -1.27600 26.37300
H  10.38300 -2.28000 27.52400
H  9.97900 1.65800 31.95500
H  9.03400 0.27000 35.81700
H  8.64100 -1.27600 35.02700
H  7.44100 0.03800 35.05800
Mg 16.41000 -1.45100 27.98900
C  15.09500 0.64500 30.39600
C  18.27000 -3.05900 30.48500
C  17.68700 -3.44100 25.68000
C  14.86800 0.48700 25.54100
N  16.68800 -1.16500 30.20700
C  16.02600 -0.21600 30.97000
C  16.35100 -0.50300 32.49200
C  17.59100 -1.45200 32.47900
C  17.52200 -1.92100 30.93300
C  18.95400 -0.72800 32.93600
C  15.12600 -1.11100 33.22100
C  15.16400 -1.23500 34.73900
H  16.39600 -0.67400 35.43300
N  17.76000 -3.09400 28.10800
C  18.40900 -3.55400 29.19700
C  19.23400 -4.72800 28.79100
C  18.97300 -4.94900 27.39600
C  18.11700 -3.78700 27.00100
C  20.16900 -5.51500 29.66200
C  19.48100 -6.11900 26.46800
O  19.14500 -6.05700 25.29900
C  20.22800 -7.27000 27.00300
N  16.23800 -1.49600 25.89200
C  16.95600 -2.35100 25.14200
C  17.07900 -2.00500 23.61300
C  16.21800 -0.63900 23.60100
C  15.75000 -0.50700 25.05400
C  18.57000 -1.85600 23.22900
C  14.97600 -0.68500 22.66700
C  15.22500 -0.35200 21.17100
N  15.34800 0.24500 27.90500
C  14.61800 0.85800 26.85800
C  13.79400 1.88600 27.36400
C  13.97600 1.82300 28.75000
C  14.89100 0.78600 29.01500
C  12.94100 2.68700 26.46600
C  13.43600 2.40700 29.99300
O  12.71100 3.34000 30.29100
C  14.17900 1.61200 31.11600
C  14.97500 2.69600 31.84500
O  16.06600 3.12600 31.56000
O  14.14500 3.09700 32.90700
C  14.88300 4.00200 33.74200
H  18.74700 -3.66700 31.25700
H  18.34800 -3.98900 25.00500
H  14.47900 1.05500 24.69300
H  16.68700 0.40300 32.99700
H  17.48000 -2.36400 33.06600
H  19.72600 -0.92200 32.19200
H  19.27800 -1.19800 33.86500
H  18.88800 0.35400 33.05500
H  15.10800 -2.11900 32.80500
H  14.14300 -0.74900 32.92100
H  14.96500 -2.29100 34.92400
H  14.31900 -0.60000 35.00500
H  19.62700 -6.33200 30.13700
H  20.38500 -4.90100 30.53600
H  21.05300 -5.73400 29.06300
H  21.18600 -6.92500 27.39200
H  20.37900 -7.89000 26.12000
H  19.54100 -7.64500 27.76100
H  16.58200 -2.86200 23.15800
H  16.84900 0.15000 23.19300
H  19.11600 -1.54400 24.12000
H  18.70500 -1.06600 22.49000
H  19.03900 -2.74300 22.80400
H  14.43400 0.22800 22.91400
H  14.26200 -1.50800 22.70500
H  14.82700 -1.17500 20.57800
H  16.31200 -0.29000 21.11400
H  14.66000 0.53900 20.89700
H  12.33100 3.37600 27.05000
H  12.17100 2.09100 25.97600
H  13.50200 3.35200 25.80900
H  13.41500 1.12200 31.72000
H  15.45700 4.72100 33.15700
H  15.40800 3.43200 34.50800
H  14.17700 4.58900 34.33100

