158

Mg -0.82200 7.34800 26.60700
C  0.25700 9.21000 29.40400
C  -1.11800 4.62600 28.75500
C  -1.17200 5.36700 23.94200
C  -0.40600 10.06800 24.60400
N  -0.53200 7.00100 28.83900
C  -0.17000 7.95500 29.75600
C  -0.18300 7.37500 31.20700
C  -0.65900 5.87100 30.92100
C  -0.72700 5.77600 29.39200
C  0.13000 4.73800 31.63100
C  -1.12800 8.10500 32.19300
C  -0.55800 8.50200 33.52600
H  -0.99000 7.65400 34.71100
N  -1.13700 5.30100 26.35000
C  -1.33200 4.36500 27.33700
C  -1.59800 3.06100 26.74300
C  -1.62100 3.24000 25.36500
C  -1.27100 4.68300 25.12500
C  -1.71900 1.85900 27.59100
C  -1.71500 2.19700 24.30400
O  -1.50400 2.44400 23.09600
C  -2.20900 0.76400 24.71900
N  -0.76500 7.65400 24.59000
C  -0.99100 6.70800 23.70500
C  -1.28800 7.26700 22.32100
C  -1.32700 8.75800 22.58500
C  -0.84800 8.91100 23.99700
C  -0.26800 6.81000 21.20700
C  -2.78700 9.24900 22.52300
C  -3.44800 9.82800 21.28700
N  -0.10400 9.21500 26.83900
C  0.04900 10.23100 25.92700
C  0.64900 11.39900 26.62900
C  0.82300 11.01800 27.93200
C  0.29400 9.69300 28.07100
C  1.03700 12.69200 25.99700
C  1.24100 11.47800 29.19700
O  1.80400 12.51300 29.46200
C  0.84300 10.40900 30.26400
C  1.94300 10.01000 31.22700
O  2.67700 9.05900 31.06300
O  1.99300 10.87400 32.26600
C  3.14100 10.83700 33.19600
H  -1.33600 3.76200 29.38600
H  -1.39000 4.76900 23.05500
H  -0.42800 10.86500 23.85800
H  0.82500 7.40300 31.62100
H  -1.64700 5.74400 31.36400
H  0.93800 5.22000 32.18100
H  0.59500 4.19700 30.80600
H  -0.59700 4.13400 32.17400
H  -2.01600 7.48900 32.33500
H  -1.40500 9.00900 31.65100
H  -0.63400 9.57900 33.67900
H  0.52400 8.42300 33.42600
H  -0.85600 1.19500 27.55000
H  -2.64800 1.33800 27.36000
H  -1.93400 2.05800 28.64100
H  -3.18500 0.80900 25.20200
H  -1.45200 0.22800 25.29100
H  -2.38800 0.23100 23.78600
H  -2.20600 6.76400 22.01800
H  -0.71900 9.21700 21.80500
H  -0.27700 7.48400 20.35100
H  -0.61300 5.84000 20.84800
H  0.74900 6.81300 21.60200
H  -2.93800 9.99800 23.30100
H  -3.42300 8.49100 22.98000
H  -2.64600 10.25600 20.68600
H  -4.26400 10.49200 21.57200
H  -3.95800 9.01300 20.77200
H  1.96900 13.05200 26.43300
H  0.26000 13.43800 26.16100
H  1.16000 12.57700 24.92000
H  0.03500 10.89000 30.81500
H  3.39600 11.78300 33.67200
H  3.97300 10.44600 32.61000
H  3.02400 10.16700 34.04800
Mg 16.37200 -2.45900 27.99800
C  15.35600 -0.45000 30.66700
C  18.53200 -4.17700 30.22400
C  17.94900 -3.99300 25.39900
C  14.68200 -0.37100 25.82600
N  16.90400 -2.33500 30.15900
C  16.30100 -1.42000 31.00800
C  16.81300 -1.69700 32.42300
C  18.00400 -2.79900 32.28700
C  17.80700 -3.17600 30.80800
C  19.36500 -2.13900 32.58600
C  15.68000 -2.07700 33.38400
C  15.57300 -1.34900 34.74400
H  16.88500 -0.67200 35.18800
N  18.07800 -3.85100 27.87200
C  18.71200 -4.51100 28.88100
C  19.50000 -5.58900 28.39200
C  19.40300 -5.48100 26.93300
C  18.43100 -4.37400 26.64200
C  20.11100 -6.65500 29.28900
C  20.13600 -6.26600 25.90600
O  20.01900 -6.10700 24.69900
C  21.16900 -7.37800 26.35300
N  16.30100 -2.30100 25.98100
C  16.98600 -3.00600 25.02900
C  16.68100 -2.62100 23.62900
C  15.53800 -1.52700 23.80500
C  15.48800 -1.39400 25.31100
C  17.81100 -2.26000 22.67100
C  14.19400 -1.99700 23.13600
C  13.13000 -0.93800 22.97100
N  15.09400 -0.83500 28.16000
C  14.41900 -0.10800 27.20300
C  13.55300 0.92200 27.86000
C  13.87300 0.81300 29.20100
C  14.83100 -0.19400 29.34100
C  12.77900 1.97200 27.09200
C  13.59400 1.37000 30.54300
O  12.87900 2.32200 30.88400
C  14.50500 0.51100 31.52300
C  15.39500 1.53200 32.17800
O  16.29200 2.17800 31.59400
O  14.81100 1.80000 33.34600
C  15.01800 3.16300 33.75400
H  19.15500 -4.62000 31.00400
H  18.30700 -4.61800 24.57900
H  14.19100 0.38100 25.20600
H  17.31700 -0.77000 32.69700
H  17.90000 -3.66100 32.94600
H  19.90400 -1.91400 31.66500
H  20.00300 -2.92700 32.98500
H  19.25000 -1.30500 33.27800
H  15.79100 -3.15600 33.49100
H  14.68600 -1.87800 32.98300
H  15.18200 -2.04700 35.48400
H  14.80200 -0.57800 34.76700
H  21.17700 -6.48400 29.13900
H  19.73100 -7.62000 28.95400
H  19.88400 -6.43300 30.33200
H  20.71200 -7.99900 27.12300
H  22.09700 -6.94200 26.72500
H  21.47100 -8.01200 25.52000
H  16.17000 -3.46500 23.16600
H  15.95100 -0.55700 23.53000
H  18.65700 -1.94000 23.27900
H  17.56200 -1.40300 22.04600
H  18.13000 -3.08800 22.03800
H  13.84700 -2.73600 23.85900
H  14.28500 -2.47800 22.16200
H  13.70500 -0.03200 22.78100
H  12.44500 -0.88700 23.81700
H  12.51600 -1.34300 22.16700
H  13.18500 2.18600 26.10300
H  12.68000 2.88400 27.68200
H  11.74800 1.64900 26.94800
H  13.98500 0.04600 32.36100
H  14.42600 3.87000 33.17200
H  16.04500 3.52900 33.73700
H  14.64300 3.11300 34.77600

