158

Mg 24.02900 -6.86500 45.47500
C  26.15900 -4.66400 43.86400
C  21.41400 -5.47800 43.41600
C  22.23200 -9.73500 45.82400
C  26.77800 -8.62700 46.80600
N  23.86600 -5.18000 43.81400
C  24.90700 -4.30100 43.48400
C  24.47200 -3.19500 42.47600
C  22.82200 -3.32000 42.69200
C  22.65600 -4.75600 43.28700
C  22.25400 -2.16700 43.57500
C  24.94500 -3.45300 40.98200
C  25.49900 -2.21600 40.18400
H  24.94500 -1.89300 38.79100
N  22.01100 -7.41500 44.89800
C  21.04900 -6.68900 44.10300
C  19.83300 -7.44800 44.03700
C  20.07400 -8.68500 44.71400
C  21.49700 -8.69100 45.15900
C  18.58800 -6.96900 43.37800
C  18.92700 -9.67700 44.86900
O  17.80200 -9.41400 44.44400
C  19.01600 -10.95700 45.74000
N  24.48100 -9.03600 46.00200
C  23.51900 -9.87800 46.31400
C  24.07300 -11.17200 46.91600
C  25.60100 -10.81500 47.35800
C  25.64300 -9.45700 46.59800
C  23.23900 -11.91600 48.02900
C  26.67200 -11.80100 46.85600
C  27.45400 -12.62100 47.93600
N  26.01400 -6.62600 45.54500
C  27.01500 -7.35600 46.12200
C  28.23500 -6.64200 45.93900
C  28.00800 -5.65600 44.99900
C  26.59900 -5.71800 44.71700
C  29.58000 -6.90100 46.61500
C  28.61000 -4.55500 44.26400
O  29.76900 -4.19500 44.32400
C  27.43200 -3.99300 43.29300
C  27.38700 -2.55500 43.41200
O  27.62000 -1.77400 42.46400
O  26.88100 -2.14900 44.63900
C  26.89100 -0.67700 44.83300
H  20.70600 -4.85100 42.86900
H  21.69300 -10.68000 45.91100
H  27.63900 -9.01000 47.35800
H  24.79800 -2.26400 42.93900
H  22.34300 -3.17100 41.72400
H  21.53800 -1.56900 43.01100
H  22.98400 -1.51900 44.06000
H  21.68800 -2.45000 44.46200
H  24.03700 -3.81300 40.49800
H  25.73200 -4.20300 40.89900
H  26.57800 -2.33500 40.08200
H  25.43900 -1.38400 40.88500
H  18.21700 -7.56100 42.54100
H  18.76400 -5.97000 42.97700
H  17.70700 -6.88200 44.01400
H  19.33600 -10.56900 46.70700
H  19.63400 -11.68800 45.21800
H  18.03800 -11.41400 45.89300
H  24.02100 -11.88200 46.09000
H  25.50500 -10.57500 48.41700
H  22.35100 -11.31000 48.21300
H  23.77300 -11.84500 48.97700
H  22.98900 -12.95700 47.82500
H  27.45100 -11.23000 46.35200
H  26.16200 -12.40100 46.10200
H  27.00200 -12.45400 48.91400
H  28.52900 -12.46000 47.84900
H  27.26900 -13.69200 47.85600
H  29.41000 -7.19700 47.65000
H  30.15900 -5.98500 46.73000
H  30.16500 -7.66300 46.09800
H  27.53700 -4.26600 42.24300
H  27.90000 -0.28200 44.70900
H  26.61400 -0.48300 45.87000
H  26.27600 -0.16300 44.09400
Mg 16.48000 -2.02700 27.11100
C  15.78200 -0.12600 29.85200
C  18.31800 -4.17700 29.26600
C  17.84600 -3.60600 24.43700
C  14.95700 0.31700 25.08300
N  17.14300 -2.03500 29.31800
C  16.65600 -1.17200 30.25700
C  17.13700 -1.50200 31.69800
C  18.12800 -2.71000 31.47800
C  17.79100 -3.02500 29.90100
C  19.61700 -2.26000 31.64200
C  15.91800 -1.95800 32.61000
C  16.25300 -2.43100 34.00700
H  17.63100 -2.09700 34.73600
N  17.78000 -3.72000 26.91800
C  18.35100 -4.47900 27.90000
C  19.10400 -5.55600 27.28200
C  19.09800 -5.32700 25.84900
C  18.24900 -4.21000 25.64300
C  19.80700 -6.62500 28.08400
C  19.81700 -6.19500 24.74900
O  19.62700 -6.01000 23.53100
C  20.84700 -7.17900 25.13500
N  16.38000 -1.70900 24.99600
C  16.96100 -2.50900 24.08300
C  16.82000 -1.97500 22.59700
C  15.80800 -0.75200 22.83500
C  15.65600 -0.71600 24.41400
C  18.15600 -1.65400 21.84300
C  14.37500 -1.01200 22.26300
C  13.81600 0.25400 21.64000
N  15.37200 -0.36100 27.31300
C  14.86200 0.53300 26.42400
C  14.18000 1.60500 27.13700
C  14.57800 1.33600 28.51700
C  15.31800 0.14800 28.57000
C  13.32400 2.65700 26.46200
C  14.41600 1.87600 29.86900
O  13.89200 2.95200 30.14600
C  15.15600 0.91900 30.81600
C  16.17000 1.74900 31.62400
O  17.16900 2.28300 31.14600
O  15.79400 1.84300 32.91800
C  16.63600 2.69400 33.82900
H  18.77000 -4.84400 30.00200
H  18.28300 -4.00800 23.52000
H  14.58000 1.05400 24.37100
H  17.60400 -0.61800 32.13300
H  18.12600 -3.64800 32.03200
H  19.59900 -1.24800 32.04600
H  20.16200 -2.33600 30.70100
H  20.19100 -2.90400 32.30800
H  15.34800 -2.68300 32.02900
H  15.25000 -1.10700 32.73900
H  15.99900 -3.48800 34.07900
H  15.54900 -1.97800 34.70500
H  20.88900 -6.68300 27.96800
H  19.49800 -7.56700 27.63300
H  19.59200 -6.61800 29.15300
H  21.64000 -6.63300 25.64600
H  21.12900 -7.68200 24.20900
H  20.59600 -8.03500 25.76100
H  16.36000 -2.84200 22.12200
H  16.24700 0.15600 22.42100
H  19.02200 -1.59700 22.50200
H  18.15400 -0.71100 21.29700
H  18.28200 -2.47500 21.13700
H  13.75000 -1.39600 23.07000
H  14.51400 -1.82300 21.54900
H  12.79200 0.44800 21.95800
H  13.74100 0.23400 20.55300
H  14.39100 1.11600 21.97900
H  13.76000 2.97000 25.51300
H  13.45500 3.61400 26.96600
H  12.25400 2.44700 26.48200
H  14.45900 0.45000 31.51000
H  16.65300 3.70300 33.41700
H  17.67400 2.36300 33.78700
H  16.32000 2.73700 34.87100

