158

Mg 25.80700 0.92600 29.52300
C  27.77000 0.69200 32.50400
C  23.02400 0.88000 31.39600
C  24.20300 0.89400 26.70000
C  28.79200 0.18600 27.71300
N  25.48900 0.58100 31.71300
C  26.36800 0.79700 32.74700
C  25.58600 0.93100 34.07700
C  24.10200 0.68800 33.62600
C  24.21500 0.74900 32.12900
C  23.44500 -0.62700 34.16500
C  25.98100 2.28800 34.72200
C  25.17200 2.68800 35.91600
H  25.92900 2.58000 37.26100
N  23.84200 0.90900 29.07900
C  22.83700 0.90900 29.98300
C  21.58900 1.18000 29.31100
C  21.85600 1.09600 27.89200
C  23.32200 0.91200 27.85300
C  20.19600 1.42800 30.02900
C  20.98600 1.00700 26.72000
O  21.41100 0.68900 25.62200
C  19.52600 1.23500 26.86200
N  26.42600 0.73800 27.55500
C  25.59700 0.97500 26.53200
C  26.16300 0.69600 25.16000
C  27.64400 0.42400 25.47900
C  27.63900 0.42700 27.02000
C  25.50500 -0.39400 24.24200
C  28.64400 1.46300 24.85700
C  29.99700 0.83900 24.52000
N  27.88000 0.49400 29.97000
C  28.95200 0.30200 29.12600
C  30.11800 0.09600 29.96500
C  29.74000 0.31100 31.32400
C  28.32800 0.49700 31.23000
C  31.39900 -0.28300 29.50600
C  30.20400 0.40000 32.67600
O  31.31400 0.42500 33.16300
C  28.88300 0.72900 33.51600
C  28.67100 -0.20300 34.61800
O  28.42900 -1.35200 34.49300
O  29.07800 0.42500 35.82100
C  28.93300 -0.26100 37.12900
H  22.10200 0.88100 31.98000
H  23.63900 0.95100 25.76600
H  29.60600 -0.24100 27.12400
H  26.00700 0.22200 34.79000
H  23.56600 1.56800 33.98200
H  23.17700 -1.43100 33.47900
H  22.59300 -0.33600 34.78000
H  24.13100 -1.05000 34.89900
H  25.92900 3.06100 33.95500
H  27.02100 2.19900 35.03600
H  24.24500 2.12300 36.01100
H  24.82000 3.70400 35.73700
H  19.61400 0.51300 29.91300
H  19.65300 2.20200 29.48700
H  20.22400 1.65400 31.09500
H  19.04700 1.05700 25.89900
H  19.24700 2.22300 27.22900
H  19.18000 0.46300 27.55000
H  26.09400 1.64600 24.62900
H  27.94400 -0.60400 25.27800
H  24.63700 -0.90900 24.65400
H  26.26800 -1.09000 23.89400
H  25.11600 0.22900 23.43700
H  28.66700 2.29100 25.56600
H  28.18100 1.87300 23.95900
H  30.28400 0.97900 23.47800
H  30.11400 -0.14000 24.98400
H  30.79000 1.40100 25.01500
H  31.55700 0.20800 28.54600
H  31.47100 -1.34800 29.28400
H  32.13700 -0.01100 30.26100
H  29.00900 1.72700 33.93600
H  28.47100 0.28500 37.95100
H  29.94000 -0.46600 37.49400
H  28.43600 -1.23100 37.10000
Mg 47.26900 25.21100 28.60900
C  48.34200 27.23600 31.07800
C  46.39100 22.83900 31.04500
C  46.42500 23.07900 26.14800
C  48.34600 27.49600 26.25000
N  47.30300 25.07400 30.74600
C  47.68800 26.08300 31.63200
C  47.38100 25.82600 33.08600
C  46.85500 24.36100 33.06900
C  46.88200 24.00500 31.56800
C  47.65700 23.28900 33.87600
C  46.36200 26.83200 33.67100
C  46.72000 27.61500 34.97800
H  45.95100 27.46300 36.26800
N  46.58300 23.24100 28.54400
C  46.31300 22.42100 29.66600
C  45.95100 21.11900 29.24800
C  45.82000 21.17000 27.77900
C  46.30900 22.53300 27.45300
C  45.64900 19.96300 30.15300
C  45.31200 20.07400 26.77900
O  45.40100 20.16500 25.54300
C  44.69000 18.79800 27.27300
N  47.39000 25.21300 26.45000
C  47.00900 24.24200 25.68900
C  47.05700 24.68400 24.22700
C  47.88500 25.96700 24.27800
C  47.84000 26.30800 25.72300
C  47.73000 23.65200 23.25900
C  47.29100 27.08200 23.33300
C  48.34000 27.69100 22.41200
N  48.09900 27.03400 28.61000
C  48.54100 27.88000 27.60000
C  49.20800 29.03100 28.17400
C  49.15700 28.90400 29.58100
C  48.51200 27.64800 29.77600
C  49.90400 30.03500 27.29200
C  49.41900 29.47100 30.87700
O  50.05700 30.48700 31.16500
C  48.99200 28.35000 31.90600
C  50.05300 27.98400 32.87600
O  50.76300 26.96500 32.79300
O  50.02800 28.94100 33.89600
C  50.92500 28.61600 34.99800
H  46.15400 22.12200 31.83300
H  46.16500 22.54200 25.23300
H  48.67100 28.23100 25.51100
H  48.34300 25.91900 33.58900
H  45.82900 24.28800 33.43000
H  47.97200 22.42200 33.29500
H  47.21500 22.88800 34.78800
H  48.63600 23.74100 34.03100
H  45.43400 26.28600 33.83900
H  46.04300 27.54900 32.91400
H  46.64700 28.67600 34.73800
H  47.74300 27.28000 35.15100
H  44.57400 19.78100 30.15700
H  46.07000 20.08700 31.15000
H  46.16900 19.13400 29.67200
H  44.18600 18.92900 28.23100
H  45.59400 18.20000 27.39000
H  44.11900 18.20100 26.56100
H  46.03800 24.82500 23.86900
H  48.93700 25.84100 24.02100
H  48.31200 22.92100 23.82100
H  48.34700 24.24600 22.58600
H  47.05400 23.29600 22.48200
H  46.73900 27.82700 23.90700
H  46.62800 26.64400 22.58800
H  48.46500 27.38900 21.37200
H  49.33700 27.36600 22.70900
H  48.26000 28.75900 22.61500
H  49.62900 29.88900 26.24800
H  50.98900 29.92600 27.28100
H  49.65900 31.05300 27.59700
H  48.14400 28.76400 32.45200
H  50.96800 27.55900 35.25700
H  50.75500 29.21600 35.89200
H  51.93200 28.89300 34.68600

