158

Mg 17.24500 -2.81200 27.35600
C  16.47100 -0.80900 30.22000
C  19.38500 -4.66900 29.59400
C  18.39800 -4.48900 24.78800
C  15.75900 -0.51400 25.35300
N  17.97700 -2.63900 29.66500
C  17.44100 -1.78900 30.56700
C  17.85900 -2.17900 32.03300
C  18.86200 -3.40500 31.74000
C  18.67200 -3.59200 30.24200
C  20.35700 -3.20700 32.26100
C  16.65300 -2.49300 32.95100
C  16.56800 -1.70700 34.24400
H  17.80900 -1.24800 35.08900
N  18.61900 -4.40700 27.20000
C  19.37300 -4.96500 28.20600
C  20.18300 -6.10700 27.64800
C  19.94700 -6.02500 26.23000
C  18.93800 -4.99100 26.01100
C  21.13700 -6.95000 28.49800
C  20.47500 -6.89400 25.13400
O  20.19600 -6.81300 23.97500
C  21.32900 -8.06600 25.54200
N  17.11900 -2.52800 25.39200
C  17.63200 -3.37700 24.54700
C  17.45700 -2.92600 23.13500
C  16.37900 -1.68200 23.25700
C  16.45800 -1.51400 24.73800
C  18.84200 -2.51700 22.52700
C  14.95200 -2.04200 22.78800
C  14.17000 -0.92200 22.11800
N  16.21900 -1.03700 27.69100
C  15.66500 -0.24900 26.71900
C  14.87800 0.78500 27.38500
C  15.10600 0.54200 28.81300
C  16.00800 -0.53200 28.91700
C  14.07900 1.84100 26.71700
C  14.83000 1.09500 30.19100
O  14.11800 2.02800 30.58100
C  15.80100 0.25800 31.12700
C  16.60200 1.33200 31.73100
O  17.71300 1.64300 31.35100
O  15.93700 2.00300 32.72600
C  16.66000 2.94900 33.60400
H  20.01500 -5.28500 30.23900
H  18.61200 -5.14000 23.93700
H  15.20000 0.15000 24.69000
H  18.40700 -1.28500 32.33200
H  18.41700 -4.27100 32.23000
H  20.49500 -2.39900 32.98000
H  20.95300 -2.98400 31.37600
H  20.64500 -4.10600 32.80500
H  16.45400 -3.54300 33.16200
H  15.74600 -2.19600 32.42300
H  15.98300 -2.27600 34.96700
H  16.11900 -0.72300 34.11300
H  22.13000 -6.97300 28.04900
H  20.86700 -8.00400 28.56100
H  21.26400 -6.76100 29.56400
H  20.87100 -8.76500 26.24100
H  22.24500 -7.68200 25.99000
H  21.65600 -8.66900 24.69500
H  16.91300 -3.73100 22.64000
H  16.72000 -0.79000 22.73100
H  19.61400 -2.79400 23.24500
H  18.89900 -1.44100 22.35800
H  19.03000 -2.97700 21.55700
H  14.34300 -2.38500 23.62500
H  15.06700 -2.93600 22.17600
H  14.77200 -0.01500 22.06400
H  13.22100 -0.74900 22.62600
H  13.98200 -1.06400 21.05400
H  13.92100 2.65300 27.42700
H  13.09100 1.39900 26.58800
H  14.40600 2.17800 25.73300
H  15.18200 -0.11000 31.94600
H  17.66100 2.56600 33.80200
H  16.08200 3.31200 34.45300
H  16.79600 3.89500 33.08100
Mg 8.65800 48.46200 24.72700
C  6.66100 48.70600 27.38900
C  11.28600 49.83200 26.47600
C  10.51400 48.35800 21.94900
C  5.82000 47.90200 22.68900
N  8.97800 49.05700 26.69000
C  7.97400 49.08800 27.65300
C  8.53300 49.59900 28.94500
C  9.77800 50.28900 28.46000
C  10.06600 49.62700 27.12400
C  9.54600 51.81900 28.28000
C  8.94300 48.42100 29.87400
C  9.00900 48.65900 31.32200
H  8.40900 47.60500 32.23800
N  10.69200 48.77300 24.34100
C  11.60800 49.31400 25.22600
C  12.91900 49.25700 24.68400
C  12.77800 48.82900 23.26700
C  11.30200 48.57700 23.13400
C  14.16700 49.66400 25.52600
C  13.82000 48.61400 22.13700
O  13.46600 48.33900 20.95000
C  15.33200 48.78800 22.44800
N  8.14600 48.29000 22.54700
C  9.12200 48.34700 21.65700
C  8.60400 48.07700 20.23800
C  7.14100 47.62600 20.59900
C  7.00200 48.00200 21.97600
C  8.70200 49.27900 19.25600
C  6.81100 46.11800 20.29600
C  5.44000 45.97600 19.68100
N  6.60600 48.24700 24.94300
C  5.63100 48.02100 24.06300
C  4.34400 47.99200 24.76100
C  4.71700 48.19800 26.12400
C  6.08500 48.33600 26.15700
C  3.02400 47.89300 24.14200
C  4.28200 48.22100 27.44600
O  3.21200 47.87200 27.96700
C  5.45300 48.80500 28.33900
C  5.45000 48.07200 29.69900
O  5.54000 46.85100 29.85500
O  5.19500 49.03000 30.61300
C  4.91500 48.51400 32.00700
H  12.11500 50.30500 27.00600
H  11.02200 48.44500 20.98600
H  4.95800 47.78700 22.02700
H  7.85600 50.30200 29.42900
H  10.65900 50.19300 29.09500
H  8.53200 52.10100 27.99600
H  10.24600 52.10100 27.49300
H  9.67600 52.18400 29.29900
H  9.91600 47.99400 29.63400
H  8.25300 47.61000 29.64100
H  8.56200 49.61800 31.58300
H  10.04900 48.76200 31.63200
H  13.89300 49.77400 26.57500
H  14.50400 50.66900 25.27000
H  14.97700 48.93400 25.50000
H  15.89000 48.27100 21.66700
H  15.50500 48.36800 23.43900
H  15.48900 49.86500 22.50200
H  9.19300 47.25600 19.82900
H  6.37000 48.04100 19.95000
H  9.14600 50.11000 19.80400
H  7.67400 49.41900 18.92200
H  9.27800 49.00600 18.37200
H  6.86000 45.52300 21.20800
H  7.58600 45.73300 19.63300
H  5.27700 44.90000 19.61600
H  5.41100 46.43100 18.69100
H  4.61600 46.32300 20.30500
H  2.28800 47.61900 24.89700
H  3.12400 47.04700 23.46300
H  2.70700 48.79800 23.62400
H  5.33700 49.87400 28.51200
H  4.87100 49.32700 32.73100
H  5.67800 47.82100 32.36300
H  3.99400 47.93300 31.95100

