158

Mg 53.55900 24.55100 43.79500
C  50.72900 26.48500 43.30600
C  51.88800 21.96200 42.24100
C  56.30800 22.79700 43.88400
C  55.11000 27.28000 45.29700
N  51.59900 24.29000 42.80700
C  50.67500 25.25400 42.64100
C  49.43800 24.81900 41.76700
C  49.66300 23.24400 41.74700
C  51.12000 23.12000 42.22400
C  48.72900 22.28300 42.48800
C  49.40300 25.37800 40.31900
C  50.68400 26.04500 39.71700
H  51.57600 25.30200 38.79200
N  54.01000 22.53000 43.26800
C  53.14900 21.62200 42.73100
C  53.77000 20.32500 42.70400
C  55.16100 20.53200 43.11300
C  55.22700 21.95500 43.42500
C  52.91900 19.12100 42.35700
C  56.21200 19.40700 43.22700
O  55.89700 18.22900 42.87800
C  57.63100 19.63300 43.67200
N  55.53500 25.08900 44.37300
C  56.51000 24.12900 44.31800
C  57.87000 24.76800 44.79600
C  57.33900 26.08700 45.52800
C  55.91400 26.19000 45.05500
C  58.82500 23.80300 45.61000
C  58.12500 27.35100 45.14900
C  59.64600 27.21800 45.03100
N  53.07000 26.49200 44.22600
C  53.76800 27.44400 44.88700
C  52.91800 28.58400 45.17000
C  51.70400 28.23600 44.54500
C  51.83000 26.97300 44.05600
C  53.34900 29.94800 45.72000
C  50.35700 28.68800 44.31900
O  49.81700 29.69700 44.72400
C  49.73200 27.54900 43.45800
C  49.34800 28.24400 42.20200
O  50.08100 28.65500 41.30000
O  48.01500 28.45000 42.27200
C  47.36500 29.13400 41.16600
H  51.27000 21.13600 41.88600
H  57.20400 22.20400 44.08000
H  55.58000 28.14200 45.77600
H  48.46600 25.07600 42.18900
H  49.55900 22.90800 40.71500
H  49.21500 21.31900 42.63900
H  47.87600 22.13500 41.82500
H  48.57100 22.79500 43.43700
H  48.64300 26.14400 40.47900
H  48.92800 24.70900 39.60200
H  51.34000 26.18700 40.57600
H  50.42000 27.01300 39.29000
H  53.01100 18.73700 41.34100
H  51.87500 19.30800 42.60700
H  53.17400 18.35800 43.09300
H  58.13900 18.66800 43.69400
H  57.67500 20.18500 44.61100
H  58.09200 20.24700 42.89800
H  58.48800 24.96900 43.92100
H  57.26400 25.99900 46.61200
H  58.30500 22.88700 45.89300
H  59.06100 24.30000 46.55100
H  59.70700 23.46000 45.06900
H  57.91700 27.99500 46.00300
H  57.62100 27.85000 44.32100
H  59.97700 27.21500 43.99200
H  59.87200 26.28800 45.55300
H  60.23800 27.99700 45.51300
H  53.02900 30.07400 46.75400
H  52.98500 30.67500 44.99300
H  54.40700 30.17300 45.58000
H  48.84800 27.12700 43.93700
H  47.92100 28.95600 40.24500
H  47.48900 30.18200 41.43700
H  46.35700 28.74200 41.02900
Mg 48.89900 44.65700 43.08700
C  45.43600 45.06900 42.31800
C  48.59400 41.45200 42.25400
C  52.17700 44.64400 43.15700
C  48.98200 48.18200 43.84000
N  47.12100 43.38200 42.23000
C  45.80100 43.73300 42.06200
C  45.03700 42.53600 41.62800
C  46.03300 41.33300 41.95600
C  47.33700 42.06700 42.09300
C  45.65100 40.65800 43.27200
C  44.41700 42.47300 40.21300
C  45.05100 43.24100 39.03500
H  45.02900 42.55300 37.65800
N  50.26500 43.26600 42.58100
C  49.95900 41.94900 42.36200
C  51.25500 41.24600 42.21900
C  52.28500 42.09700 42.53600
C  51.56100 43.38500 42.75800
C  51.36100 39.75100 41.78400
C  53.72700 41.73000 42.63200
O  54.08800 40.56200 42.39600
C  54.71300 42.68500 43.19000
N  50.35600 46.22600 43.46600
C  51.65200 45.87300 43.53900
C  52.60100 47.10800 43.78400
C  51.54300 48.24100 44.13700
C  50.18100 47.52300 43.89800
C  53.74400 46.91900 44.76500
C  51.73700 49.65000 43.49300
C  51.91100 50.71000 44.58000
N  47.50100 46.31000 43.18000
C  47.67600 47.62000 43.47600
C  46.44800 48.33700 43.17900
C  45.55100 47.37900 42.73000
C  46.21800 46.16400 42.73900
C  46.24200 49.81700 43.24000
C  44.23600 47.24400 42.11800
O  43.33300 48.05400 41.83800
C  44.08600 45.66200 41.85800
C  42.77500 45.21900 42.55900
O  41.85800 44.65800 41.94700
O  42.89200 45.47900 43.93500
C  41.68600 45.09200 44.63200
H  48.54300 40.37200 42.09600
H  53.26700 44.59800 43.19200
H  48.99200 49.24700 44.08400
H  44.14200 42.56400 42.25000
H  46.08400 40.51100 41.24200
H  45.63400 39.56800 43.28700
H  44.70700 41.05700 43.64200
H  46.37500 41.01400 44.00500
H  43.42400 42.89200 40.37900
H  44.46900 41.41000 39.98200
H  46.09100 43.47400 39.26200
H  44.50400 44.16600 38.85300
H  50.36700 39.51100 41.40800
H  51.55700 39.20200 42.70500
H  52.12500 39.59400 41.02200
H  55.05000 43.50200 42.55100
H  55.51800 42.05500 43.57000
H  54.27400 43.26000 44.00500
H  52.92100 47.31400 42.76300
H  51.68600 48.37300 45.21000
H  53.59400 46.04300 45.39700
H  53.79100 47.84500 45.33800
H  54.70000 46.73800 44.27500
H  50.95800 49.86300 42.76100
H  52.70200 49.65900 42.98700
H  52.80200 51.31500 44.41200
H  51.91500 50.38200 45.62000
H  51.01800 51.33400 44.57700
H  47.17600 50.18700 42.81700
H  46.00600 50.23400 44.21900
H  45.40200 49.99700 42.56900
H  43.91900 45.48200 40.79600
H  41.91700 45.20400 45.69200
H  41.47600 44.06600 44.32900
H  40.83100 45.71500 44.37100

