158

Mg 35.49200 1.54900 29.58900
C  33.57700 3.03600 32.09400
C  38.24400 2.02000 31.63800
C  37.43400 0.75200 26.98600
C  32.74700 1.95000 27.47900
N  35.79300 2.22900 31.68900
C  34.82000 2.65500 32.56600
C  35.34900 2.88700 34.00500
C  36.90300 2.50800 33.80800
C  37.01500 2.29100 32.27100
C  37.93300 3.58900 34.34000
C  34.60800 1.99400 35.09900
C  34.06900 2.73400 36.30800
H  34.85500 3.97100 36.73700
N  37.50900 1.17800 29.36900
C  38.45500 1.45000 30.35800
C  39.80800 1.11500 29.79700
C  39.59000 0.68000 28.45200
C  38.15400 0.96700 28.22900
C  41.16000 1.13700 30.49300
C  40.58800 0.00400 27.44900
O  40.13900 -0.38900 26.31000
C  42.12500 -0.01000 27.65200
N  35.17000 1.42400 27.51200
C  36.08500 0.86400 26.66300
C  35.51300 0.76300 25.25300
C  33.93700 0.86300 25.52100
C  33.95400 1.39600 26.92400
C  35.98800 1.88100 24.17000
C  33.20400 -0.53700 25.39400
C  32.17000 -0.73500 24.23000
N  33.60800 2.42600 29.61600
C  32.61300 2.51600 28.71500
C  31.38400 3.18300 29.15200
C  31.76200 3.33900 30.50900
C  33.07000 2.90000 30.74700
C  30.13200 3.49300 28.34800
C  31.24900 3.92300 31.69900
O  30.17300 4.42100 31.86900
C  32.30500 3.60000 32.77000
C  32.54200 4.90200 33.47500
O  33.39000 5.66800 33.22300
O  31.52200 5.12600 34.35300
C  31.51400 6.39600 35.09600
H  39.14100 2.07900 32.25800
H  37.97300 0.27100 26.16700
H  31.92000 1.85600 26.77100
H  35.31000 3.95100 34.23900
H  37.18500 1.57100 34.28900
H  37.29600 4.37500 34.74600
H  38.52000 4.00200 33.52000
H  38.58000 3.09400 35.06400
H  35.16100 1.12500 35.45700
H  33.70600 1.58100 34.64800
H  33.90000 2.05400 37.14300
H  33.13300 3.17600 35.96700
H  41.80000 2.01000 30.36800
H  41.62900 0.17100 30.30400
H  41.04100 1.08700 31.57500
H  42.69900 0.33500 26.79200
H  42.47400 -0.97700 28.01400
H  42.42700 0.78500 28.33500
H  35.76400 -0.23300 24.88900
H  33.45200 1.58100 24.86000
H  35.24400 2.60600 23.84100
H  36.34000 1.37500 23.27200
H  36.85200 2.35200 24.63800
H  32.71400 -0.70500 26.35400
H  34.01300 -1.24900 25.23300
H  32.43200 -1.52700 23.52900
H  31.99900 0.13200 23.59100
H  31.19800 -0.97400 24.66100
H  30.39700 4.23200 27.59300
H  29.23600 3.72000 28.92500
H  29.86600 2.64700 27.71400
H  31.73200 2.91200 33.39100
H  32.35100 7.04400 34.83600
H  31.70800 6.23300 36.15600
H  30.63600 7.03500 35.00800
Mg -2.82700 35.45600 26.55300
C  -4.53600 33.37100 28.82700
C  -1.41900 37.12900 29.10000
C  -1.44400 37.42100 24.26700
C  -4.70900 33.75800 23.98900
N  -3.11400 35.36700 28.60200
C  -3.70500 34.30600 29.39500
C  -3.43100 34.49400 30.86300
C  -2.55900 35.81900 30.92700
C  -2.34800 36.13400 29.40400
C  -3.15400 37.07500 31.72800
C  -2.68200 33.29200 31.50600
C  -3.47600 32.61500 32.69000
H  -2.69900 32.64700 33.97000
N  -1.43600 36.89300 26.69000
C  -0.89800 37.44400 27.84600
C  0.12500 38.45400 27.46100
C  0.10000 38.55400 26.02200
C  -0.96500 37.54500 25.58400
C  1.00000 39.11100 28.46700
C  0.96100 39.41900 25.07800
O  0.93000 39.43200 23.82300
C  1.98000 40.25700 25.76100
N  -3.24400 35.73900 24.53000
C  -2.46900 36.57800 23.77600
C  -2.87400 36.49600 22.28600
C  -3.75600 35.22700 22.19400
C  -4.02200 34.93800 23.66200
C  -3.50000 37.78300 21.71100
C  -3.01300 34.04600 21.34000
C  -1.86400 33.35600 22.12600
N  -4.44800 34.00700 26.36400
C  -5.05500 33.36600 25.27500
C  -5.94900 32.32200 25.76300
C  -5.76300 32.21500 27.10800
C  -4.89000 33.28100 27.41400
C  -6.85600 31.41900 24.90400
C  -6.19400 31.58600 28.30700
O  -6.98300 30.69300 28.49600
C  -5.35300 32.28800 29.43700
C  -6.42900 32.87600 30.34600
O  -7.24300 33.69100 30.02900
O  -6.42200 32.29500 31.59400
C  -7.42200 32.83100 32.55900
H  -0.97900 37.66000 29.94700
H  -0.90100 38.04000 23.55000
H  -5.25700 33.28400 23.17200
H  -4.40400 34.62400 31.33500
H  -1.56700 35.69700 31.36200
H  -2.87900 36.85100 32.75900
H  -4.21600 37.22600 31.53500
H  -2.56400 37.94800 31.44600
H  -1.71100 33.68100 31.80900
H  -2.62800 32.55500 30.70400
H  -3.66300 31.55200 32.53500
H  -4.43600 33.02800 33.00200
H  0.88200 38.74100 29.48500
H  0.84500 40.18900 28.51400
H  2.02100 38.87500 28.16600
H  2.48000 40.88000 25.01900
H  2.78800 39.72300 26.26000
H  1.41200 40.87200 26.46000
H  -1.89600 36.38000 21.81900
H  -4.66500 35.44800 21.63400
H  -4.54900 37.63900 21.45200
H  -3.00500 38.08700 20.78800
H  -3.37000 38.53400 22.49000
H  -2.60100 34.30500 20.36500
H  -3.78100 33.29600 21.15300
H  -2.20400 32.41600 22.56200
H  -1.60100 34.10000 22.87800
H  -0.97900 33.27600 21.49600
H  -7.20900 30.53300 25.43200
H  -6.19900 31.16300 24.07300
H  -7.65600 31.95000 24.38800
H  -4.77400 31.55500 29.99900
H  -7.92400 31.99500 33.04600
H  -8.23000 33.41400 32.11700
H  -6.96100 33.55200 33.23500

