158

Mg 44.41900 5.34800 47.08800
C  42.25100 8.06400 46.54700
C  41.63600 3.25300 46.06300
C  46.45600 2.77100 47.06000
C  47.11200 7.47900 47.04200
N  42.13700 5.65200 46.29000
C  41.53500 6.88100 46.32800
C  40.08300 6.73700 45.88100
C  39.87600 5.20900 45.95900
C  41.30000 4.62300 46.03900
C  39.03900 4.68100 47.18800
C  39.65800 7.42800 44.50900
C  40.66600 7.38500 43.30000
H  40.17700 7.59800 41.86300
N  44.06400 3.28600 46.78400
C  42.85900 2.63400 46.31900
C  43.17800 1.19800 46.24700
C  44.55900 1.07700 46.68200
C  45.08900 2.40400 46.86700
C  42.10200 0.15600 45.87000
C  45.28700 -0.24100 46.95700
O  44.78300 -1.34400 46.73900
C  46.67800 -0.25500 47.52000
N  46.49500 5.15300 47.20800
C  47.08600 3.93400 47.20900
C  48.56100 4.10000 47.27700
C  48.81100 5.60200 47.40100
C  47.43100 6.14000 47.16600
C  49.21200 3.13600 48.39300
C  49.89700 6.18700 46.39000
C  51.05800 6.94200 47.03100
N  44.70400 7.33800 47.05700
C  45.83500 8.08400 46.84400
C  45.51600 9.48300 46.81500
C  44.16400 9.48000 46.76200
C  43.67600 8.15300 46.72000
C  46.45800 10.58200 46.78100
C  43.08400 10.43500 46.69100
O  43.11600 11.65200 46.77500
C  41.81200 9.54900 46.54600
C  40.76500 9.82400 47.68400
O  41.01400 10.12000 48.85500
O  39.46800 9.61800 47.22400
C  38.39800 10.06700 48.06200
H  40.80600 2.55100 45.95500
H  47.20700 1.99400 46.90300
H  48.03400 8.06300 47.06000
H  39.54000 7.13700 46.73700
H  39.33800 4.90100 45.06200
H  39.50100 3.92400 47.82300
H  38.15700 4.16800 46.80400
H  38.74100 5.51600 47.82200
H  39.40300 8.45800 44.75600
H  38.86100 6.86800 44.02000
H  41.39000 6.57200 43.36700
H  41.21900 8.29700 43.52300
H  42.26300 -0.44900 44.97800
H  41.09100 0.55400 45.77800
H  42.12300 -0.56200 46.69000
H  46.82900 -1.23600 47.97100
H  46.78200 0.53000 48.27000
H  47.47500 -0.25700 46.77700
H  48.86700 3.84100 46.26400
H  49.02500 5.86700 48.43600
H  49.58900 2.17000 48.05700
H  48.46200 2.76400 49.09200
H  50.04600 3.56400 48.94900
H  49.37700 6.79700 45.65200
H  50.28800 5.41000 45.73300
H  51.96900 6.35900 46.89100
H  50.81900 7.03800 48.09000
H  51.36100 7.93200 46.69000
H  47.42500 10.25600 47.16400
H  46.13400 11.45800 47.34400
H  46.62400 10.82100 45.73100
H  41.28700 9.58100 45.59200
H  38.60700 11.05200 48.48000
H  38.16400 9.28900 48.78900
H  37.53500 10.23500 47.41900
Mg -0.30000 42.89000 26.54800
C  1.92600 43.12600 29.26100
C  -2.80900 42.66600 28.76200
C  -2.28500 42.19900 23.95100
C  2.47600 43.19300 24.30200
N  -0.40800 42.62900 28.81100
C  0.61700 42.90900 29.65200
C  0.04900 42.87500 31.12900
C  -1.48100 42.47900 30.90700
C  -1.59600 42.56900 29.41100
C  -1.86700 41.02700 31.47800
C  0.36000 44.23100 31.90100
C  1.00700 44.39700 33.33400
H  0.71400 43.24300 34.36200
N  -2.30500 42.59200 26.33700
C  -3.12700 42.61800 27.36700
C  -4.47800 42.51400 26.85400
C  -4.39500 42.16500 25.46000
C  -2.94000 42.33900 25.15100
C  -5.77100 42.83800 27.72900
C  -5.46800 41.73700 24.40700
O  -5.15600 41.46100 23.25200
C  -6.86700 41.73000 24.86800
N  0.06800 42.78900 24.35300
C  -0.93700 42.38900 23.56200
C  -0.37700 42.42400 22.06800
C  1.10400 42.88000 22.16600
C  1.22300 42.98000 23.68600
C  -0.49100 40.94600 21.58200
C  1.28900 44.19700 21.41500
C  1.97000 44.12900 20.00100
N  1.74100 43.04300 26.67500
C  2.75400 43.21200 25.74200
C  4.01500 43.41200 26.46000
C  3.73100 43.26700 27.81500
C  2.37400 43.12700 27.90500
C  5.26400 43.83700 25.72900
C  4.26800 43.43400 29.13300
O  5.44200 43.61100 29.45600
C  3.10000 43.36200 30.15300
C  3.44200 42.17900 30.97000
O  3.68600 41.02400 30.54100
O  3.71200 42.62700 32.25000
C  4.28500 41.50300 33.11100
H  -3.69500 42.57700 29.39400
H  -2.88900 42.04400 23.05400
H  3.29900 43.41100 23.61700
H  0.58900 42.04700 31.58800
H  -2.16500 43.27600 31.19700
H  -0.94900 40.53000 31.79100
H  -2.38900 40.41800 30.73900
H  -2.54300 41.05000 32.33300
H  -0.56600 44.80600 31.91500
H  1.04400 44.84900 31.32000
H  0.60300 45.31100 33.77000
H  2.08100 44.56600 33.25600
H  -6.40800 43.46900 27.10900
H  -5.68500 43.43600 28.63600
H  -6.30500 41.92400 27.98700
H  -6.85500 41.55800 25.94400
H  -7.52900 41.03800 24.34700
H  -7.36600 42.68800 24.73000
H  -1.04900 42.99900 21.43100
H  1.83200 42.12300 21.87300
H  0.23200 40.44100 22.22300
H  -0.23300 40.74100 20.54300
H  -1.41700 40.38900 21.72000
H  1.96200 44.82800 21.99500
H  0.36900 44.75300 21.23600
H  1.16900 44.39000 19.31000
H  2.35100 43.14000 19.74700
H  2.75800 44.86600 19.84500
H  5.63000 42.96200 25.19200
H  6.02300 44.27300 26.37900
H  4.84000 44.55400 25.02500
H  2.96700 44.36700 30.55300
H  4.58400 40.55100 32.67200
H  3.50200 41.23800 33.82100
H  5.08600 41.96300 33.69000

