158

Mg 2.43000 0.48500 44.26800
C  5.59900 2.09100 43.97500
C  0.85700 3.14200 43.00300
C  -0.17000 -1.50400 43.79800
C  4.35800 -2.39300 45.33600
N  3.17300 2.33200 43.55200
C  4.41000 2.84600 43.55600
C  4.48100 4.32700 43.17100
C  2.95900 4.74000 43.00100
C  2.27200 3.33100 43.18300
C  2.37000 5.83800 43.87400
C  5.35700 4.46000 41.83200
C  5.18300 3.32100 40.80400
H  5.52900 3.59700 39.31400
N  0.60800 0.77300 43.43500
C  0.07000 1.98000 43.05500
C  -1.40700 1.88700 42.96800
C  -1.70600 0.53000 43.17400
C  -0.45600 -0.15500 43.39900
C  -2.26700 2.96400 42.51600
C  -3.08100 -0.00600 42.90600
O  -3.93800 0.84300 42.55600
C  -3.35800 -1.52800 43.01500
N  2.20200 -1.57800 44.41200
C  0.95000 -2.05500 44.32700
C  0.89400 -3.55100 44.88600
C  2.32200 -3.86300 45.30100
C  2.98300 -2.52000 45.12800
C  -0.21800 -3.91800 45.96800
C  2.95900 -5.06300 44.47800
C  3.93800 -5.96800 45.27300
N  4.59300 -0.12600 44.56000
C  5.10900 -1.25900 44.97100
C  6.51300 -1.07000 45.38000
C  6.72000 0.23700 44.93200
C  5.54000 0.80700 44.44900
C  7.29200 -2.03800 46.22100
C  7.69800 1.35100 44.85800
O  8.83200 1.35700 45.18700
C  7.04900 2.56400 44.15300
C  7.29100 3.62800 45.09200
O  8.33600 4.24600 45.25800
O  6.19500 3.86300 45.86500
C  6.23100 4.84700 46.97200
H  0.21100 3.97100 42.70600
H  -1.07100 -2.12000 43.78700
H  4.90100 -3.17100 45.87700
H  4.86200 4.94100 43.98800
H  2.80200 4.92500 41.93800
H  1.94600 6.52900 43.14500
H  3.08500 6.27500 44.57000
H  1.65100 5.33100 44.51800
H  6.42200 4.49500 42.06200
H  5.18000 5.41200 41.33100
H  4.23300 2.79700 40.91400
H  6.02100 2.69200 41.10400
H  -2.35400 2.93500 41.42900
H  -1.88600 3.95600 42.75600
H  -3.22100 2.96800 43.04200
H  -4.40500 -1.81300 42.90700
H  -3.10600 -1.62000 44.07100
H  -2.77700 -2.16600 42.34800
H  0.61700 -4.13000 44.00600
H  2.46900 -4.03000 46.36800
H  -0.52100 -2.94800 46.36100
H  0.23400 -4.56900 46.71600
H  -1.14300 -4.28300 45.52300
H  3.50300 -4.58700 43.66200
H  2.08300 -5.58900 44.09700
H  4.87400 -5.90400 44.71700
H  3.56200 -6.97900 45.11600
H  3.94700 -5.71600 46.33300
H  6.83200 -2.13000 47.20500
H  8.25100 -1.54500 46.38300
H  7.33000 -3.00100 45.71100
H  7.64100 2.69400 43.24700
H  5.46600 4.66100 47.72500
H  6.00400 5.86300 46.64700
H  7.20100 4.78300 47.46600
Mg -0.20300 43.46700 24.72800
C  1.98900 43.10100 27.49000
C  -2.77600 42.72600 26.83100
C  -2.20900 43.57400 21.96500
C  2.65000 43.73500 22.59400
N  -0.38900 43.00500 26.87200
C  0.62400 43.04500 27.76100
C  0.06000 42.86600 29.19800
C  -1.43800 42.61900 29.05300
C  -1.56000 42.94100 27.53000
C  -1.88700 41.19200 29.55500
C  0.39100 44.03500 30.15500
C  0.42800 43.76100 31.68700
H  0.32900 42.33900 32.24600
N  -2.19300 43.09500 24.44500
C  -3.10100 42.83300 25.44000
C  -4.47300 42.73500 24.81900
C  -4.25100 42.87300 23.41800
C  -2.84700 43.26800 23.19700
C  -5.60700 42.25900 25.65000
C  -5.21800 42.53600 22.27500
O  -4.87600 42.64100 21.08300
C  -6.58800 42.16600 22.49000
N  0.18500 43.53400 22.59200
C  -0.80700 43.64100 21.64200
C  -0.30800 43.71500 20.13500
C  1.20300 43.93000 20.43400
C  1.39800 43.77500 21.96200
C  -0.67200 42.39000 19.50800
C  1.83400 45.17800 19.81800
C  1.62700 46.49700 20.61000
N  1.86900 43.46400 24.97500
C  2.89500 43.67200 24.05700
C  4.16500 43.61700 24.71900
C  3.84800 43.42400 26.06800
C  2.43500 43.30800 26.16800
C  5.51300 43.81500 24.09300
C  4.44200 43.09900 27.31000
O  5.57300 42.96400 27.62500
C  3.18400 42.91900 28.30500
C  3.41300 41.66400 29.13900
O  3.38800 40.52300 28.74700
O  3.64800 42.08300 30.43300
C  4.22500 41.07200 31.36400
H  -3.62700 42.45200 27.45800
H  -2.84300 43.66400 21.08000
H  3.57300 43.60300 22.02600
H  0.51800 41.98100 29.63900
H  -1.91700 43.42400 29.61200
H  -1.87400 40.37800 28.83100
H  -2.91300 41.24500 29.92100
H  -1.15100 40.78600 30.24900
H  -0.26400 44.87500 29.92400
H  1.36400 44.40100 29.82800
H  -0.42900 44.38200 31.94600
H  1.37600 44.16200 32.04600
H  -6.12000 43.15800 25.98900
H  -5.23500 41.60400 26.43800
H  -6.20700 41.62300 24.99900
H  -6.69500 41.15400 22.88100
H  -7.12500 42.28500 21.54900
H  -7.00100 42.84100 23.24000
H  -0.83000 44.58400 19.73300
H  1.79200 43.12500 19.99400
H  -0.39400 41.54900 20.14300
H  -0.11100 42.33900 18.57400
H  -1.75100 42.34200 19.36200
H  1.37500 45.40300 18.85500
H  2.87900 44.97500 19.58300
H  2.55500 46.81400 21.08500
H  0.90500 46.27100 21.39500
H  1.16900 47.26300 19.98400
H  5.65900 43.44900 23.07700
H  6.18500 43.20900 24.70000
H  5.73700 44.87200 24.23700
H  3.22000 43.77200 28.98300
H  3.57300 40.20700 31.47900
H  4.36400 41.51900 32.34900
H  5.17900 40.73200 30.95900

