158

Mg 34.57500 2.97400 29.70400
C  32.52100 4.09100 32.27800
C  37.28200 3.37200 31.79800
C  36.49200 2.62500 26.95500
C  31.70700 3.31000 27.49900
N  34.90400 3.76600 31.78300
C  33.89900 4.05400 32.69000
C  34.40600 4.04100 34.13000
C  35.95400 4.00400 33.86800
C  36.07500 3.60300 32.40200
C  36.70600 5.31100 34.26000
C  33.88400 2.77800 34.91800
C  33.53200 3.04500 36.46600
H  34.16800 4.30600 37.14300
N  36.58900 2.76300 29.47700
C  37.51000 3.01800 30.45100
C  38.86400 2.90500 29.90800
C  38.67100 2.72800 28.48400
C  37.17100 2.66300 28.23500
C  40.15700 3.15800 30.76200
C  39.63200 2.62600 27.30100
O  39.35700 2.41300 26.10800
C  41.13300 2.73400 27.63200
N  34.08900 2.87400 27.49900
C  35.12500 2.88100 26.58400
C  34.59800 2.94800 25.17700
C  33.03800 2.83900 25.36100
C  32.89100 2.99900 26.83100
C  35.12700 4.24100 24.45500
C  32.39700 1.52000 24.89500
C  32.36200 0.26500 25.78200
N  32.57300 3.44000 29.76600
C  31.47700 3.47000 28.87500
C  30.31500 3.99000 29.52600
C  30.62500 4.07700 30.90900
C  32.00600 3.85100 30.94500
C  28.95200 4.12700 28.98000
C  30.08200 4.38600 32.19500
O  28.96400 4.73900 32.47600
C  31.35500 4.40300 33.15400
C  31.46100 5.77300 33.76000
O  32.09000 6.70000 33.31700
O  30.76000 5.83000 34.86700
C  30.86900 7.10100 35.66300
H  38.15200 3.47000 32.45100
H  37.06300 2.64000 26.02500
H  30.81000 3.57400 26.93500
H  34.17700 5.03200 34.52200
H  36.40600 3.24800 34.51000
H  37.51600 4.89800 34.86200
H  36.15500 5.95900 34.94200
H  37.00200 5.85600 33.36300
H  34.61600 1.97900 34.79700
H  33.00400 2.47100 34.35200
H  33.88500 2.16700 37.00600
H  32.45800 3.03400 36.65100
H  40.17200 4.24100 30.88300
H  41.07100 2.69300 30.39400
H  39.87800 2.64900 31.68500
H  41.22800 3.68400 28.15700
H  41.60000 2.68500 26.64800
H  41.57400 1.99000 28.29500
H  34.85500 2.11300 24.52500
H  32.58500 3.76400 25.00500
H  34.65900 5.15900 24.81000
H  35.10700 4.17100 23.36700
H  36.17900 4.33600 24.72200
H  32.76300 1.18800 23.92300
H  31.33700 1.70800 24.72600
H  33.21300 0.22600 26.46200
H  32.33700 -0.64400 25.18100
H  31.47600 0.27200 26.41700
H  28.20700 3.93400 29.75300
H  28.84600 3.38600 28.18800
H  28.70700 5.09900 28.55300
H  31.11600 3.59500 33.84500
H  31.86100 7.26800 36.08200
H  30.26700 7.02400 36.56900
H  30.46800 7.94200 35.09600
Mg 43.68000 42.20800 26.55400
C  42.45500 44.63500 28.79900
C  44.73400 40.37100 29.22200
C  44.82000 40.01200 24.44400
C  43.13800 44.57800 23.99200
N  43.77400 42.64200 28.69300
C  43.04500 43.52200 29.38800
C  43.22200 43.29900 30.95800
C  43.88400 41.88900 31.08600
C  44.22600 41.64200 29.57100
C  45.19600 41.83500 31.95300
C  41.92300 43.38800 31.94900
C  42.14000 44.31100 33.09400
H  42.45400 43.67100 34.50400
N  44.50700 40.34600 26.82000
C  44.97600 39.78000 27.97100
C  45.40000 38.42000 27.74800
C  45.31100 38.26900 26.32900
C  44.86500 39.54300 25.75700
C  45.97000 37.59100 28.82900
C  45.64400 37.02400 25.50000
O  45.37700 36.90500 24.34200
C  46.44500 35.93900 26.10000
N  44.03300 42.37400 24.59300
C  44.50400 41.29600 23.91700
C  44.61500 41.56300 22.41600
C  43.88400 42.96300 22.23500
C  43.72200 43.34000 23.68400
C  46.14200 41.59000 22.08500
C  42.56100 42.95400 21.38400
C  41.21500 42.78800 21.97700
N  42.91700 44.29100 26.41400
C  42.66800 45.01800 25.25200
C  41.93000 46.18000 25.61900
C  41.84800 46.17800 27.05200
C  42.48800 44.99300 27.46500
C  41.64600 47.30200 24.57300
C  41.26200 46.84600 28.18000
O  40.63600 47.90200 28.25400
C  41.66300 45.80900 29.45200
C  42.41500 46.72700 30.41600
O  43.51900 47.20200 30.24000
O  41.58300 47.10400 31.43700
C  42.20300 47.97300 32.52600
H  45.16100 40.00200 30.15700
H  45.16000 39.29100 23.69800
H  42.85200 45.30700 23.23000
H  43.99700 44.04600 31.12900
H  43.20800 41.09400 31.40300
H  45.13600 42.74300 32.55400
H  46.10600 41.81300 31.35400
H  45.15700 41.04100 32.69900
H  41.66300 42.38900 32.29900
H  41.02300 43.70300 31.42100
H  41.16500 44.77900 33.22900
H  42.88900 45.08700 32.93800
H  47.01700 37.88900 28.78100
H  45.83600 36.52500 28.64500
H  45.63100 37.90600 29.81600
H  46.78900 35.18600 25.39100
H  45.85000 35.41600 26.84800
H  47.38000 36.31200 26.51700
H  43.94800 40.88000 21.89100
H  44.51300 43.64800 21.66800
H  46.83100 41.59700 22.92900
H  46.35200 42.55800 21.63000
H  46.37000 40.73400 21.45000
H  42.61600 42.22500 20.57500
H  42.50200 43.92000 20.88200
H  41.28800 42.60900 23.04900
H  40.64100 41.99000 21.50500
H  40.70900 43.74800 21.87500
H  41.23100 46.83000 23.68200
H  42.50400 47.93600 24.35000
H  40.85300 47.90100 25.02100
H  40.75700 45.42000 29.91800
H  43.20300 48.36800 32.34800
H  42.18900 47.53300 33.52400
H  41.39600 48.70500 32.55300

