158

Mg 41.06000 8.92000 29.72000
C  42.93600 10.04900 32.38600
C  38.87500 7.41400 31.95600
C  39.42700 7.68400 27.05800
C  43.69700 9.90600 27.69000
N  41.08500 8.55200 31.98500
C  41.78000 9.32400 32.78700
C  41.18400 9.35600 34.25100
C  40.04600 8.32600 34.08400
C  39.95000 8.10800 32.59100
C  40.17000 7.01300 34.89800
C  40.69100 10.76300 34.70700
C  40.09200 10.78100 36.11700
H  40.73400 11.66500 37.19100
N  39.26700 7.77900 29.57200
C  38.57800 7.21300 30.61400
C  37.49900 6.49100 30.04000
C  37.62800 6.57900 28.64500
C  38.81200 7.37100 28.39000
C  36.45800 5.80300 30.83300
C  36.67700 6.13900 27.55700
O  36.89700 6.28700 26.38200
C  35.25200 5.58400 27.92400
N  41.59600 8.68100 27.82900
C  40.71600 8.25800 26.85800
C  41.41400 8.11500 25.44600
C  42.51400 9.23700 25.61000
C  42.60300 9.27600 27.11800
C  41.83300 6.54900 25.22300
C  42.16200 10.49300 24.80200
C  41.71400 11.65800 25.60200
N  42.95400 9.79100 29.95500
C  43.93300 10.12300 29.05000
C  45.10900 10.64900 29.69600
C  44.72100 10.76800 30.97800
C  43.43700 10.17800 31.07100
C  46.33600 11.16700 29.04000
C  45.05300 11.18600 32.30500
O  46.08500 11.68700 32.78700
C  43.86100 10.84000 33.24900
C  44.36900 10.04600 34.41900
O  44.80400 8.88500 34.45100
O  44.28200 10.74500 35.55300
C  44.93800 10.25800 36.74000
H  38.03800 7.14100 32.60200
H  38.88300 7.38800 26.15800
H  44.52000 10.25700 27.06400
H  42.02900 9.09700 34.88900
H  39.03300 8.67600 34.28600
H  40.80500 6.31400 34.35300
H  39.16500 6.63900 35.09100
H  40.59100 7.20800 35.88400
H  39.96600 11.23100 34.04000
H  41.48800 11.50600 34.73300
H  39.88500 9.77700 36.48500
H  39.15000 11.31100 35.97300
H  36.63000 5.74100 31.90700
H  36.24100 4.79200 30.48900
H  35.57100 6.41700 30.67600
H  34.73200 6.35400 28.49300
H  35.32100 4.71900 28.58400
H  34.67700 5.38700 27.01800
H  40.66700 8.26700 24.66700
H  43.46700 8.82800 25.27500
H  41.19800 5.92600 25.85300
H  42.88000 6.33600 25.43800
H  41.62900 6.22100 24.20400
H  41.31000 10.35100 24.13700
H  43.08600 10.58700 24.23100
H  42.47600 12.36400 25.93100
H  41.23400 11.33500 26.52500
H  40.94300 12.25700 25.11700
H  45.97500 11.78800 28.21900
H  46.92900 10.36200 28.60600
H  46.88800 11.63500 29.85500
H  43.37000 11.75100 33.59000
H  45.79200 10.92300 36.86700
H  45.11100 9.18800 36.85200
H  44.30400 10.49800 37.59300
Mg 6.74100 55.20000 40.71300
C  5.64800 51.92600 41.18800
C  9.69400 54.02500 39.53600
C  7.14300 58.10500 39.16100
C  3.24000 56.08200 41.25500
N  7.52400 53.22100 40.24400
C  6.84500 52.03600 40.55100
C  7.77700 50.81500 40.06900
C  9.17200 51.49900 39.98400
C  8.77800 53.01500 39.90200
C  10.14500 51.20600 41.22000
C  7.26800 50.04900 38.76400
C  6.33400 50.70700 37.78000
H  6.98600 51.37900 36.52600
N  8.31800 56.06300 39.65800
C  9.49800 55.39600 39.46200
C  10.42800 56.42800 39.15000
C  9.68200 57.59200 38.79900
C  8.29100 57.32500 39.17900
C  11.92800 56.08600 38.85100
C  10.20200 58.84000 38.21400
O  11.39500 58.88100 37.98100
C  9.32200 60.01700 37.88200
N  5.38200 56.81500 40.15200
C  5.82800 57.89900 39.53800
C  4.84800 59.09500 39.58500
C  3.66100 58.43300 40.34700
C  4.14900 57.05700 40.67800
C  5.46300 60.34700 40.23200
C  2.29200 58.33200 39.55500
C  1.11800 58.97400 40.29800
N  4.83400 54.26200 41.42500
C  3.58300 54.76000 41.58400
C  2.64700 53.75700 42.01300
C  3.44300 52.63700 41.92000
C  4.76400 52.98200 41.59400
C  1.07300 53.91300 42.19600
C  3.44300 51.23600 42.12300
O  2.59900 50.49400 42.56100
C  4.94300 50.71100 41.72200
C  4.77500 49.61600 40.78000
O  4.21800 49.77100 39.72700
O  5.27500 48.36500 41.27000
C  4.89000 47.16700 40.42300
H  10.72900 53.80000 39.27300
H  7.32400 59.10200 38.75400
H  2.20800 56.34000 41.50200
H  7.66200 50.04200 40.82800
H  9.63800 51.36500 39.00800
H  9.60800 51.08500 42.16000
H  10.61600 52.17800 41.36400
H  10.94400 50.49400 41.01300
H  6.79300 49.12000 39.08100
H  8.17300 49.87800 38.18000
H  5.87400 51.58500 38.23400
H  5.44400 50.12800 37.53100
H  11.93700 55.80300 37.79900
H  12.37500 55.30600 39.46800
H  12.50400 56.99800 39.00900
H  9.89900 60.92700 37.71500
H  8.78800 60.40300 38.75000
H  8.43000 59.88000 37.27000
H  4.67400 59.40200 38.55300
H  3.36800 58.94000 41.26700
H  5.76900 61.01100 39.42300
H  6.25900 60.14900 40.95000
H  4.68600 60.93000 40.72700
H  2.09200 57.27000 39.41300
H  2.32600 58.86100 38.60300
H  0.47700 59.28100 39.47200
H  1.41200 59.87700 40.83400
H  0.53700 58.24100 40.85900
H  0.57600 52.94900 42.30600
H  0.58600 54.53900 41.44900
H  0.88500 54.44100 43.13100
H  5.51300 50.39300 42.59500
H  4.66300 47.41600 39.38600
H  3.96500 46.68600 40.73900
H  5.67600 46.41400 40.38000

