158

Mg 55.03200 24.32900 45.29200
C  52.55700 26.50800 44.20300
C  53.02800 21.64200 44.32100
C  57.79500 22.33600 45.21600
C  57.10800 27.20100 45.81300
N  53.02700 24.14700 44.37000
C  52.16500 25.19000 44.10500
C  50.87300 24.61700 43.61600
C  50.93600 23.13700 44.17500
C  52.43900 22.95000 44.24900
C  50.16200 22.88200 45.54400
C  50.83500 24.70600 42.06100
C  49.46100 24.96900 41.53200
H  48.88900 24.22700 40.25300
N  55.39000 22.29100 44.86400
C  54.40600 21.32600 44.51700
C  55.01900 20.04800 44.40600
C  56.34700 20.20000 44.78900
C  56.55500 21.66600 44.98200
C  54.22600 18.86900 43.91400
C  57.35200 18.93600 44.88400
O  56.96800 17.78000 44.65500
C  58.80000 19.23400 45.26800
N  57.15300 24.70700 45.40300
C  58.07200 23.69500 45.41800
C  59.51100 24.29900 45.65000
C  59.19900 25.72700 46.00100
C  57.73100 25.94500 45.68800
C  60.36000 23.51600 46.69000
C  60.22700 26.77700 45.51900
C  60.69900 27.87500 46.57600
N  54.85800 26.38400 45.24500
C  55.76100 27.41700 45.52300
C  55.12500 28.66300 45.44800
C  53.80000 28.33000 44.97900
C  53.72000 26.93400 44.78700
C  55.67000 30.02200 45.64600
C  52.53900 28.88400 44.59000
O  52.18100 30.04000 44.75300
C  51.67600 27.71200 43.97300
C  51.56900 28.05000 42.53800
O  52.47500 27.99200 41.71100
O  50.28100 28.51300 42.29400
C  50.25500 29.22400 41.00700
H  52.33000 20.81400 44.17800
H  58.67800 21.70300 45.32000
H  57.71200 28.09600 45.97200
H  50.09400 25.21700 44.08600
H  50.52600 22.42200 43.46200
H  49.54200 21.99100 45.44500
H  49.61200 23.77200 45.84700
H  50.87500 22.70200 46.35000
H  51.23200 23.79000 41.62300
H  51.61300 25.41700 41.78400
H  49.46800 26.03000 41.28400
H  48.67000 24.83600 42.27000
H  54.17100 19.03600 42.83900
H  53.27900 18.75600 44.44200
H  54.69800 17.92500 44.18700
H  59.40400 19.63800 44.45600
H  59.20400 18.25200 45.51300
H  58.76000 19.84200 46.17200
H  59.89900 24.02700 44.66800
H  59.24200 25.86600 47.08100
H  59.66900 22.86200 47.22300
H  60.98100 24.10900 47.36000
H  61.05800 22.96800 46.05700
H  59.75000 27.32700 44.70800
H  61.05600 26.26400 45.03100
H  60.75700 28.80400 46.00800
H  61.59300 27.53900 47.10200
H  60.01000 27.98800 47.41300
H  56.16400 30.00900 46.61800
H  54.74600 30.59900 45.62800
H  56.37800 30.45300 44.93800
H  50.76000 27.57500 44.54700
H  51.17500 29.80900 40.99600
H  49.39100 29.88800 41.00800
H  50.18200 28.49800 40.19700
Mg 16.80800 53.84200 26.46700
C  18.93600 52.06300 28.71900
C  14.75300 54.48400 29.15200
C  14.75800 55.33300 24.36700
C  18.96900 52.95900 23.89800
N  16.85400 53.33700 28.68200
C  17.83900 52.66000 29.33100
C  17.47900 52.57800 30.79600
C  15.97600 53.03600 30.86600
C  15.79000 53.63900 29.47000
C  14.93900 51.90400 31.22600
C  18.53700 53.49600 31.53800
C  18.83200 53.16500 32.98800
H  17.78000 52.36900 33.78100
N  15.05300 54.92400 26.67900
C  14.38300 55.10700 27.89700
C  13.27400 56.03600 27.67800
C  13.27300 56.35500 26.32700
C  14.42300 55.52200 25.66700
C  12.30800 56.40900 28.70300
C  12.26800 57.12900 25.55000
O  12.27300 57.16700 24.32600
C  11.22500 57.93000 26.24100
N  16.83600 54.05000 24.43800
C  15.82700 54.65400 23.72500
C  16.21700 54.79900 22.25200
C  17.74300 54.58400 22.30000
C  17.88500 53.79700 23.60300
C  15.29300 53.89000 21.39200
C  18.57400 55.91100 22.28800
C  19.91700 55.93000 21.49400
N  18.54700 52.66800 26.26400
C  19.31100 52.42000 25.16400
C  20.49200 51.66200 25.51700
C  20.29900 51.41300 26.88400
C  19.13500 52.11200 27.30400
C  21.66200 51.37000 24.76800
C  20.89900 50.74700 28.04600
O  21.89400 50.06400 28.19800
C  20.00400 51.17000 29.26900
C  19.36700 49.94700 29.92400
O  18.43800 49.23100 29.52100
O  19.98500 49.68800 31.13500
C  19.29800 48.81800 32.02900
H  14.14200 54.77000 30.01100
H  14.03900 55.72200 23.64300
H  19.63000 52.66600 23.08000
H  17.48000 51.55000 31.15800
H  15.91000 53.86700 31.57000
H  14.50200 52.23400 32.16900
H  15.46300 50.98200 31.47900
H  14.24200 51.81100 30.39400
H  18.17200 54.52200 31.48800
H  19.50100 53.66400 31.05800
H  19.06300 54.10200 33.49400
H  19.64700 52.44700 32.89600
H  11.34700 55.89600 28.73900
H  12.16100 57.48500 28.79700
H  12.76700 56.20500 29.67100
H  10.94100 58.74900 25.57900
H  11.63200 58.44900 27.10800
H  10.26300 57.42500 26.33200
H  16.12700 55.86000 22.02000
H  18.16500 53.89900 21.56400
H  14.66700 53.34300 22.09800
H  15.92100 53.20100 20.82800
H  14.69500 54.45100 20.67400
H  18.92600 56.18200 23.28400
H  18.02100 56.77200 21.91400
H  19.95700 56.67800 20.70200
H  20.04800 54.96100 21.01100
H  20.72400 55.97800 22.22500
H  22.54200 51.38800 25.41100
H  21.83900 52.09800 23.97600
H  21.59900 50.39100 24.29100
H  20.63200 51.69000 29.99300
H  19.69500 48.87600 33.04300
H  19.29700 47.81200 31.60800
H  18.23300 49.04100 32.09800

