158

Mg 17.09100 -0.63300 27.67000
C  15.84400 1.23200 30.26700
C  19.07200 -2.39700 29.86800
C  18.70100 -2.09000 24.89500
C  15.43100 1.53300 25.34200
N  17.43100 -0.46600 29.78800
C  16.81700 0.27400 30.68900
C  17.18000 -0.19000 32.13600
C  18.29400 -1.23900 31.88500
C  18.21700 -1.42300 30.39500
C  19.71300 -0.84400 32.46100
C  15.95000 -0.59100 32.95300
C  15.73900 0.17500 34.32600
H  16.92000 0.78000 35.14800
N  18.59300 -2.09200 27.43300
C  19.24800 -2.68800 28.52300
C  20.15000 -3.71900 27.97000
C  20.05000 -3.66800 26.53300
C  19.06500 -2.60800 26.19400
C  20.88500 -4.69500 28.78400
C  20.58000 -4.64100 25.55500
O  20.18100 -4.69700 24.40000
C  21.74300 -5.69800 25.93800
N  17.02500 -0.38500 25.44700
C  17.85200 -1.06200 24.57700
C  17.71800 -0.57600 23.15300
C  16.69000 0.57900 23.23500
C  16.28400 0.57500 24.75600
C  19.13700 -0.14100 22.55100
C  15.47200 0.42400 22.21800
C  15.05500 1.79500 21.52200
N  15.88100 1.01900 27.64900
C  15.27700 1.76400 26.70900
C  14.52500 2.86100 27.34200
C  14.73900 2.70000 28.75700
C  15.57500 1.54100 28.88300
C  13.77600 3.85500 26.61600
C  14.42300 3.20700 30.09100
O  13.83200 4.20700 30.49900
C  15.13200 2.28900 31.12700
C  16.02500 3.04500 32.07300
O  17.20400 3.38200 31.88900
O  15.26800 3.45900 33.17300
C  15.75000 4.55200 34.03500
H  19.56000 -2.96000 30.66700
H  19.23800 -2.52800 24.05100
H  15.02500 2.22900 24.60500
H  17.62700 0.68200 32.61300
H  17.96400 -2.22200 32.22200
H  20.51100 -0.76600 31.72200
H  19.96700 -1.71700 33.06200
H  19.69500 0.10100 33.00400
H  15.82600 -1.66300 33.10700
H  15.16600 -0.28300 32.26100
H  15.31700 -0.66200 34.88300
H  14.96000 0.87500 34.02500
H  20.26400 -5.57300 28.96600
H  20.98600 -4.17000 29.73300
H  21.93400 -4.84700 28.52700
H  21.21000 -6.40700 26.57100
H  22.48500 -5.40200 26.67900
H  22.23900 -6.17900 25.09400
H  17.41600 -1.43600 22.55500
H  17.22600 1.50700 23.03800
H  19.94000 -0.11400 23.28800
H  19.10400 0.82400 22.04600
H  19.44900 -0.80900 21.74800
H  14.59000 0.01400 22.70900
H  15.80800 -0.18800 21.38100
H  15.71600 2.64700 21.68200
H  14.07200 2.07300 21.90200
H  14.88600 1.73100 20.44800
H  12.87500 3.43700 26.16600
H  14.36900 4.35700 25.85300
H  13.48300 4.63700 27.31700
H  14.37000 1.82700 31.75500
H  16.30800 4.20500 34.90400
H  14.82900 5.10300 34.22800
H  16.36700 5.14000 33.35400
Mg 42.07900 40.71300 26.39100
C  41.57600 43.26900 28.80900
C  42.98300 38.61600 28.80500
C  42.71400 38.51300 23.92900
C  41.48500 43.20900 23.81700
N  42.49100 41.03200 28.60800
C  41.99300 42.03600 29.35900
C  42.11000 41.69600 30.86200
C  42.90300 40.34900 30.79000
C  42.75700 39.91800 29.29700
C  44.41000 40.55600 31.27600
C  40.66400 41.43500 31.59500
C  40.60800 42.14000 32.92300
H  39.87200 41.38500 34.02900
N  42.79000 38.76000 26.42100
C  43.12100 37.99700 27.46500
C  43.36900 36.63400 27.04700
C  43.23600 36.63200 25.61900
C  42.91300 38.02100 25.24800
C  43.66100 35.46500 28.03200
C  43.40500 35.44500 24.73100
O  43.16700 35.48500 23.56000
C  43.78100 34.11400 25.23300
N  42.20500 40.82000 24.17100
C  42.39400 39.76100 23.37500
C  42.28200 40.03200 21.89000
C  41.97700 41.55400 21.89200
C  41.79900 41.88800 23.34700
C  43.46500 39.49300 20.99200
C  40.75100 41.89700 20.94500
C  40.78500 41.52400 19.38400
N  41.49300 42.73500 26.26300
C  41.32100 43.56200 25.17400
C  40.97800 44.91600 25.63300
C  40.95200 44.78400 27.08500
C  41.36800 43.47700 27.39800
C  40.52300 46.12600 24.81000
C  40.77400 45.49100 28.37000
O  40.42900 46.70300 28.63500
C  41.01900 44.44000 29.54300
C  41.98100 45.12300 30.45900
O  43.16300 45.23400 30.25400
O  41.35400 45.77700 31.50300
C  42.20100 46.31500 32.55700
H  43.13100 37.97400 29.67700
H  42.91100 37.89100 23.05400
H  41.23000 43.94300 23.05000
H  42.63900 42.49500 31.38100
H  42.55800 39.55600 31.45400
H  44.64900 41.61700 31.35200
H  45.07400 40.03100 30.58800
H  44.49900 40.15500 32.28500
H  40.64700 40.35700 31.75000
H  39.87100 41.81400 30.95100
H  40.16300 43.13400 32.88900
H  41.62900 42.23600 33.29300
H  43.01100 34.62800 27.77700
H  43.67500 35.71700 29.09200
H  44.66000 35.12300 27.75900
H  43.92300 33.46800 24.36700
H  43.01900 33.60200 25.82100
H  44.74600 34.23100 25.72500
H  41.38900 39.50000 21.56300
H  42.92600 41.97100 21.55400
H  44.17700 39.08800 21.71100
H  43.95600 40.31500 20.47200
H  43.11300 38.69900 20.33400
H  40.59700 42.97600 20.91000
H  39.82700 41.45500 21.31900
H  40.24400 40.59900 19.18600
H  41.80600 41.49900 19.00200
H  40.30100 42.32600 18.82600
H  40.74400 46.95500 25.48100
H  39.46500 46.00800 24.57400
H  41.10000 46.11500 23.88500
H  40.08300 44.29200 30.08200
H  42.87700 47.00700 32.05400
H  42.68400 45.48100 33.06500
H  41.66700 47.01000 33.20400

