158

Mg 9.57800 3.47300 28.06600
C  11.12500 1.98200 30.94200
C  7.99800 5.59400 30.07100
C  7.86500 4.43500 25.29500
C  11.01100 0.82000 26.29800
N  9.62800 3.77800 30.22400
C  10.34500 3.07800 31.16700
C  10.05300 3.68000 32.55300
C  8.79200 4.58100 32.35400
C  8.83600 4.78500 30.80000
C  7.43500 3.99400 32.80800
C  11.27000 4.55600 33.14000
C  11.72900 4.17200 34.54900
H  10.80500 3.65600 35.57300
N  8.21600 4.83600 27.66200
C  7.75900 5.68600 28.67400
C  6.95200 6.70800 28.06200
C  6.89800 6.44600 26.64600
C  7.73200 5.16900 26.47200
C  6.31100 7.83200 28.90000
C  6.20300 7.22200 25.49100
O  6.09400 6.80400 24.35000
C  5.61300 8.56200 25.76700
N  9.45600 2.70400 26.09200
C  8.65200 3.31800 25.13400
C  8.66400 2.51000 23.85500
C  9.62100 1.29800 24.18100
C  10.00700 1.57800 25.63700
C  7.31100 2.14600 23.22800
C  10.79600 1.30000 23.18200
C  10.56400 1.01500 21.65000
N  10.85100 1.81800 28.50300
C  11.38500 0.87600 27.63300
C  12.28400 -0.02700 28.33100
C  12.19400 0.37300 29.68400
C  11.30000 1.48900 29.70600
C  13.01100 -1.09800 27.80000
C  12.70200 0.08600 31.02400
O  13.53600 -0.77100 31.37400
C  11.98300 1.19600 31.97300
C  11.22200 0.45200 32.99100
O  10.07200 0.01900 32.85000
O  12.01100 0.18300 34.06400
C  11.33000 -0.43700 35.19900
H  7.40800 6.19100 30.76900
H  7.25600 4.73300 24.44000
H  11.45600 -0.04900 25.80900
H  9.81400 2.81100 33.16600
H  8.73600 5.60900 32.71100
H  6.83300 3.81600 31.91700
H  6.94000 4.76200 33.40200
H  7.55700 3.05200 33.34300
H  11.04000 5.62100 33.09800
H  12.04700 4.17200 32.48000
H  12.16300 5.03700 35.05100
H  12.41900 3.33100 34.47900
H  7.07800 8.60400 28.96700
H  6.05400 7.41800 29.87500
H  5.37800 8.28200 28.56000
H  6.32400 9.25700 26.21400
H  4.73700 8.40300 26.39500
H  5.36800 8.90500 24.76100
H  9.21900 3.13300 23.15400
H  9.11500 0.33800 24.07400
H  7.02900 2.99000 22.59800
H  6.62700 2.06100 24.07200
H  7.46100 1.23200 22.65400
H  11.51300 0.53200 23.47200
H  11.24900 2.28500 23.29600
H  10.93400 0.03500 21.34900
H  11.03400 1.82700 21.09500
H  9.51100 1.20500 21.44200
H  13.87600 -1.25300 28.44500
H  13.33500 -1.09000 26.75900
H  12.42800 -2.01300 27.70200
H  12.73900 1.68400 32.58800
H  11.92700 -0.12600 36.05600
H  11.41500 -1.50600 35.00500
H  10.27400 -0.17300 35.26300
Mg 26.37600 0.16900 29.40100
C  28.21800 -0.54600 32.32900
C  23.69500 0.69000 31.18900
C  24.84000 0.96800 26.51900
C  29.24100 -0.79400 27.53200
N  26.03500 -0.02800 31.54100
C  26.91800 -0.13000 32.53400
C  26.17500 0.10100 33.87900
C  24.67800 0.36800 33.52900
C  24.76000 0.21800 31.97900
C  23.72800 -0.63300 34.20300
C  26.90100 1.22200 34.77200
C  26.03000 1.60200 35.99000
H  26.79500 2.20700 37.19900
N  24.45300 0.74200 28.98300
C  23.41000 0.81600 29.83200
C  22.20900 1.13300 29.10200
C  22.54600 1.30600 27.74000
C  24.03400 1.05400 27.72000
C  20.90100 1.07900 29.86300
C  21.67700 1.55300 26.49000
O  22.16100 1.71700 25.35900
C  20.20700 1.47400 26.65000
N  26.99500 -0.01700 27.32500
C  26.12500 0.54800 26.38100
C  26.83500 0.62700 25.00600
C  28.28300 0.06000 25.30700
C  28.16000 -0.34500 26.80900
C  26.12700 -0.25500 23.86000
C  29.37200 1.04100 25.01300
C  30.81600 0.51500 24.64700
N  28.33400 -0.67600 29.77100
C  29.29900 -1.00600 28.89500
C  30.47900 -1.51000 29.61900
C  30.15500 -1.30000 31.03000
C  28.80000 -0.76500 31.02900
C  31.81600 -1.91800 29.08700
C  30.59400 -1.36500 32.42700
O  31.69300 -1.58500 32.92600
C  29.35400 -0.87300 33.29300
C  29.01900 -1.84000 34.28800
O  28.32300 -2.83300 34.12900
O  29.67100 -1.49500 35.42800
C  29.84100 -2.55900 36.47900
H  22.83900 0.99100 31.79700
H  24.50400 1.53600 25.65000
H  30.15700 -1.00700 26.97600
H  26.37500 -0.80800 34.44600
H  24.35000 1.38100 33.76100
H  23.97900 -0.67500 35.26300
H  23.76100 -1.65700 33.83300
H  22.70100 -0.29400 34.06900
H  27.19500 2.11200 34.21600
H  27.82400 0.80900 35.18100
H  25.38800 0.78200 36.31200
H  25.41600 2.37900 35.53500
H  20.25200 0.35000 29.37700
H  20.54300 2.10800 29.85000
H  20.97200 0.78700 30.91100
H  19.90600 0.55400 27.15100
H  19.75900 1.51600 25.65800
H  19.80000 2.34400 27.16600
H  26.81900 1.64400 24.61400
H  28.46400 -0.83900 24.71700
H  25.82600 -1.20800 24.29400
H  26.91000 -0.50100 23.14200
H  25.30700 0.30700 23.41200
H  29.40700 1.74800 25.84200
H  28.99500 1.59800 24.15500
H  31.14800 1.23000 23.89400
H  30.79800 -0.54100 24.38100
H  31.46900 0.53700 25.51900
H  32.05700 -1.20000 28.30200
H  31.95500 -2.93000 28.70800
H  32.52900 -1.55200 29.82500
H  29.72900 -0.02900 33.87200
H  30.66500 -3.10600 36.02100
H  28.96100 -3.19500 36.57600
H  30.21800 -2.17100 37.42400

