158

Mg 0.04100 7.51500 26.79000
C  0.95200 9.88500 29.09100
C  -0.09600 5.12500 29.21900
C  -0.52000 5.19600 24.30900
C  0.52600 9.94400 24.27600
N  0.36000 7.49200 28.93600
C  0.69600 8.59900 29.66800
C  0.60900 8.29100 31.12400
C  0.61900 6.73400 31.16500
C  0.26100 6.42000 29.69500
C  1.95000 6.12000 31.45700
C  -0.70200 8.94700 31.68900
C  -0.76200 8.81500 33.26900
H  -1.48900 7.52100 33.83900
N  -0.23300 5.55900 26.76200
C  -0.32900 4.71700 27.86900
C  -0.53100 3.37500 27.50400
C  -0.75000 3.38800 26.09800
C  -0.46200 4.75100 25.62000
C  -0.57200 2.20200 28.57000
C  -1.15000 2.26600 25.14900
O  -1.31100 2.29700 23.93000
C  -1.34500 0.92500 25.76200
N  0.03700 7.57200 24.53200
C  -0.26500 6.47400 23.76000
C  -0.41900 6.87300 22.31100
C  0.06200 8.39000 22.40800
C  0.19800 8.71600 23.79100
C  0.42200 6.00100 21.38300
C  -0.70100 9.40500 21.41300
C  -1.94500 10.19000 21.98600
N  0.59900 9.49800 26.63100
C  0.70900 10.36400 25.54300
C  1.06800 11.69200 26.01100
C  1.18500 11.53000 27.38900
C  0.94800 10.20100 27.69300
C  1.30700 12.94500 25.22000
C  1.48600 12.22800 28.62100
O  1.89400 13.39100 28.75900
C  1.28000 11.23000 29.80000
C  2.43400 11.23900 30.76000
O  3.54900 10.72600 30.56300
O  2.04600 11.77900 31.89800
C  3.08500 11.66100 32.99000
H  -0.13400 4.41300 30.04500
H  -0.83500 4.44700 23.57900
H  0.52400 10.67900 23.46800
H  1.40900 8.65900 31.76700
H  -0.17400 6.31700 31.78600
H  2.67600 6.92700 31.36300
H  2.01500 5.21600 30.85100
H  2.04200 5.59100 32.40500
H  -1.55000 8.43900 31.22900
H  -0.72100 10.01500 31.47000
H  -1.38200 9.60400 33.69500
H  0.17300 8.90700 33.82300
H  -1.42300 1.52900 28.47100
H  -0.68600 2.41700 29.63300
H  0.33800 1.60900 28.49000
H  -1.95300 0.33400 25.07800
H  -1.99400 1.14400 26.60900
H  -0.48300 0.34100 26.08500
H  -1.46000 6.83400 21.99300
H  1.10500 8.29900 22.10300
H  1.12800 6.54900 20.75900
H  -0.10600 5.28500 20.75200
H  1.01200 5.28000 21.94700
H  -0.99400 8.80400 20.55300
H  -0.05400 10.07100 20.84200
H  -1.57400 11.19900 21.80400
H  -2.16100 10.08400 23.04900
H  -2.88100 10.04900 21.44500
H  0.42100 13.57700 25.16400
H  1.82900 12.73800 24.28500
H  1.98800 13.63200 25.72200
H  0.41500 11.47400 30.41700
H  3.73400 12.49400 32.71500
H  3.62800 10.71900 33.06300
H  2.65700 11.90100 33.96300
Mg -10.77800 38.23100 40.72000
C  -8.30700 35.80100 40.47400
C  -8.62400 40.54900 39.52900
C  -13.44400 40.33600 40.30800
C  -13.11800 35.63300 41.37500
N  -8.71800 38.15900 40.07500
C  -7.94300 37.07000 39.94700
C  -6.56300 37.33800 39.26100
C  -6.65000 38.90800 39.17200
C  -8.09500 39.26700 39.62800
C  -5.52600 39.69800 39.94500
C  -6.42600 36.51800 37.92000
C  -5.07900 35.84200 37.66200
H  -4.13200 36.31900 36.53800
N  -10.96600 40.22700 40.16600
C  -9.90900 41.03000 39.81000
C  -10.40200 42.30800 39.59100
C  -11.81300 42.34800 39.71100
C  -12.15300 40.91700 40.09100
C  -9.53500 43.54600 39.13700
C  -12.70000 43.52800 39.72300
O  -12.23500 44.67900 39.52700
C  -14.11700 43.48700 40.01300
N  -12.98400 38.03500 40.79000
C  -13.82000 39.06900 40.58400
C  -15.27200 38.65000 40.90100
C  -15.14900 37.10900 41.19300
C  -13.65000 36.86400 41.04100
C  -15.93400 39.46700 42.03300
C  -16.04700 36.18700 40.28900
C  -15.47300 35.54300 38.99200
N  -10.76600 36.11500 40.98900
C  -11.74300 35.24200 41.37900
C  -11.20300 33.95100 41.67900
C  -9.84300 34.11600 41.29000
C  -9.63600 35.45200 40.96400
C  -12.01100 32.66800 42.03600
C  -8.56100 33.46700 41.03200
O  -8.27500 32.26600 41.04300
C  -7.51100 34.49600 40.47800
C  -6.35900 34.47700 41.35800
O  -5.50300 33.64100 41.35800
O  -6.37100 35.62100 42.12900
C  -5.28500 35.86300 43.04100
H  -8.05200 41.37600 39.10300
H  -14.23700 41.07000 40.15700
H  -13.79400 34.86500 41.75700
H  -5.76500 37.12900 39.97400
H  -6.52700 39.19600 38.12800
H  -4.88800 40.12000 39.16800
H  -4.88100 39.15600 40.63600
H  -5.90100 40.57400 40.47400
H  -6.55500 37.28000 37.15300
H  -7.24500 35.80100 37.86100
H  -5.36900 34.81700 37.42900
H  -4.51300 35.74700 38.58800
H  -8.55800 43.33600 38.70200
H  -9.39200 44.34400 39.86500
H  -10.08500 43.94200 38.28300
H  -14.58200 42.83100 39.27800
H  -14.60800 44.46000 40.05500
H  -14.23800 42.99700 40.97900
H  -16.03900 38.71000 40.12900
H  -15.65900 36.98400 42.14800
H  -15.33500 40.33800 42.29900
H  -16.16300 38.87600 42.92000
H  -16.88000 39.88400 41.68600
H  -17.00500 36.62600 40.01100
H  -16.26800 35.34100 40.93800
H  -16.26400 35.39800 38.25700
H  -14.99700 34.59600 39.24800
H  -14.77300 36.23500 38.52300
H  -11.42500 31.75600 41.92800
H  -12.81700 32.71300 41.30300
H  -12.36500 32.53900 43.05900
H  -7.29000 34.11600 39.48000
H  -4.45100 36.12500 42.39000
H  -5.10800 34.97300 43.64500
H  -5.51300 36.67700 43.72900

