158

Mg 47.80200 33.83100 27.02900
C  46.05300 32.69200 29.81800
C  48.33000 36.93700 28.75700
C  49.28600 35.00000 24.27800
C  47.28500 30.74500 25.43200
N  47.11800 34.79200 29.04500
C  46.54400 34.05700 30.02700
C  46.71100 34.79300 31.40900
C  47.20400 36.22600 30.95100
C  47.56800 35.98300 29.49700
C  46.04300 37.35900 31.00200
C  47.71100 33.96400 32.21000
C  47.66800 34.18400 33.72100
H  46.88000 35.46300 34.14600
N  48.70800 35.65800 26.61800
C  48.83900 36.76300 27.44100
C  49.55200 37.76000 26.76300
C  49.69200 37.28000 25.43500
C  49.18200 35.92100 25.39400
C  50.00600 39.07600 27.34200
C  50.51100 37.93900 24.31600
O  50.89300 37.37400 23.28000
C  50.84400 39.35400 24.38900
N  48.13500 33.01600 25.13900
C  48.74400 33.70700 24.20100
C  48.80600 32.95000 22.93500
C  48.54400 31.50900 23.40100
C  47.88500 31.73200 24.69200
C  47.83100 33.48800 21.88300
C  49.75200 30.55300 23.61800
C  51.22500 31.09900 23.64300
N  46.82000 32.06500 27.44700
C  46.65400 30.94600 26.70200
C  45.88500 30.03800 27.47500
C  45.62500 30.62000 28.71700
C  46.25300 31.90500 28.64400
C  45.59500 28.60700 27.05400
C  45.09500 30.36800 30.01200
O  44.55000 29.38700 30.51800
C  45.03300 31.85900 30.63000
C  45.05200 31.80200 32.14500
O  45.95200 31.35400 32.80100
O  43.92900 32.38300 32.65700
C  43.85300 32.41200 34.17800
H  48.49700 37.87600 29.29000
H  49.76600 35.38300 23.37500
H  47.19100 29.77100 24.94800
H  45.77700 34.88900 31.96200
H  48.07700 36.45100 31.56500
H  46.60200 38.24800 31.29300
H  45.27300 37.08900 31.72400
H  45.53000 37.76700 30.13100
H  48.71600 34.21700 31.87400
H  47.58700 32.88900 32.07900
H  48.70200 34.27900 34.05100
H  47.16700 33.37000 34.24600
H  50.95700 39.38400 26.90800
H  50.15500 39.00700 28.42000
H  49.26700 39.84900 27.13600
H  50.03300 39.89400 24.87800
H  51.06200 39.69100 23.37600
H  51.77200 39.45400 24.95200
H  49.80400 32.96700 22.49600
H  47.80800 30.95300 22.81900
H  48.22000 33.51000 20.86500
H  47.53700 34.53000 22.01000
H  46.94600 32.85400 21.94000
H  49.82500 29.72800 22.90900
H  49.54500 29.95300 24.50400
H  51.46500 31.20300 22.58500
H  51.81000 30.33000 24.14600
H  51.20700 32.04300 24.18700
H  46.44400 28.28900 26.45000
H  44.63200 28.54700 26.54700
H  45.52200 28.00500 27.96000
H  43.98200 32.09500 30.46100
H  44.54200 31.72400 34.66700
H  42.85100 32.05100 34.41000
H  43.84000 33.48100 34.39000
Mg 26.62600 50.25000 25.88600
C  24.30600 51.67300 28.20500
C  28.52100 49.42400 28.52900
C  28.84200 49.29900 23.57800
C  24.52400 51.49200 23.27900
N  26.40100 50.41200 28.04500
C  25.39300 51.01400 28.75700
C  25.59100 51.01500 30.18900
C  27.07200 50.63600 30.38400
C  27.42700 50.13500 28.97400
C  27.97100 51.85800 30.84100
C  24.49100 50.17300 30.93300
C  23.82300 50.80900 32.16700
H  23.70300 49.98200 33.40800
N  28.50600 49.46800 26.05400
C  29.09700 49.12900 27.25500
C  30.42300 48.63300 26.92900
C  30.51900 48.57800 25.46600
C  29.26900 49.13200 24.95600
C  31.32300 48.22800 27.98000
C  31.59400 48.04300 24.61000
O  31.57800 47.94400 23.40900
C  32.76400 47.46300 25.35500
N  26.65900 50.30200 23.72700
C  27.71000 49.88700 23.04500
C  27.48300 50.03900 21.52700
C  26.10000 50.65300 21.41300
C  25.76700 50.86800 22.90700
C  28.58200 50.98800 20.90200
C  24.91800 49.90800 20.69400
C  24.15000 50.59200 19.59000
N  24.81400 51.39700 25.72800
C  24.10500 51.75400 24.60200
C  22.89500 52.44300 25.07700
C  22.92200 52.42200 26.45300
C  24.11000 51.75500 26.76000
C  21.78800 52.96300 24.21900
C  22.19300 52.78400 27.69000
O  21.16200 53.43100 27.80500
C  23.06700 52.36800 28.85500
C  23.34700 53.60500 29.61500
O  23.99700 54.58400 29.21300
O  22.79800 53.46800 30.88300
C  23.31000 54.37000 31.87700
H  29.09000 49.01200 29.36500
H  29.50400 48.89200 22.81100
H  23.90900 51.92800 22.48900
H  25.59900 52.02600 30.59700
H  27.11100 49.87200 31.16000
H  28.89800 51.74300 30.27900
H  28.10400 51.96000 31.91800
H  27.53300 52.80400 30.52200
H  24.83600 49.16000 31.14000
H  23.73900 50.02700 30.15800
H  22.79700 51.07200 31.90700
H  24.38900 51.70500 32.42400
H  31.56300 47.16500 27.98500
H  30.95000 48.28100 29.00300
H  32.22100 48.79000 27.72300
H  32.42100 46.66000 26.00800
H  33.31300 48.21500 25.92200
H  33.33200 46.94600 24.58200
H  27.48300 49.09600 20.98100
H  26.12900 51.65500 20.98700
H  29.40300 51.06400 21.61500
H  28.32200 52.02500 20.68900
H  28.93600 50.55700 19.96600
H  24.16600 49.62300 21.43000
H  25.46700 49.03200 20.34800
H  24.34100 49.90200 18.76800
H  24.56900 51.56300 19.32600
H  23.09400 50.77000 19.79700
H  22.08300 53.62300 23.40300
H  21.20600 53.60000 24.88500
H  21.15300 52.12700 23.92600
H  22.38900 51.72300 29.41400
H  23.63700 53.74500 32.70900
H  22.42600 54.92800 32.18700
H  24.09000 55.08900 31.62600

