158

Mg 47.94000 34.71500 26.75600
C  46.09000 33.49400 29.39800
C  48.62800 37.51300 28.69600
C  49.57200 36.04200 24.13800
C  47.03300 31.92600 24.82300
N  47.29500 35.39900 28.79700
C  46.70500 34.64100 29.73100
C  46.87600 35.20900 31.18200
C  47.38600 36.62700 30.86300
C  47.79300 36.55500 29.32400
C  46.45600 37.79200 31.15200
C  47.96600 34.37000 31.86500
C  48.23200 34.61000 33.31300
H  47.35600 35.56000 34.12600
N  49.00900 36.54200 26.42500
C  49.23800 37.53200 27.35000
C  50.11500 38.57600 26.77900
C  50.28500 38.12900 25.41200
C  49.62000 36.84300 25.24800
C  50.52400 39.74400 27.62400
C  51.09000 38.74500 24.38200
O  51.33500 38.30500 23.24900
C  51.66300 40.10400 24.69600
N  48.23200 34.13100 24.76500
C  48.99000 34.78500 23.89500
C  49.18500 34.09700 22.49800
C  48.66200 32.62300 22.89700
C  47.95500 32.89700 24.30300
C  48.34100 34.84900 21.33900
C  49.78500 31.56900 23.07800
C  49.95900 30.49900 22.04100
N  46.81200 33.03500 26.96100
C  46.41100 32.04500 26.10400
C  45.51100 31.12600 26.69700
C  45.34900 31.63400 27.98200
C  46.22100 32.77400 28.13100
C  44.97300 29.88400 26.10800
C  44.71300 31.41400 29.17600
O  44.01400 30.47000 29.59400
C  45.13000 32.55600 30.19800
C  45.58500 31.82900 31.49500
O  46.41700 30.97200 31.66500
O  44.73900 32.27100 32.52700
C  44.97900 31.85600 33.97000
H  48.80700 38.39300 29.31800
H  50.22700 36.29600 23.30200
H  46.88500 31.06000 24.17500
H  45.98000 35.19000 31.80200
H  48.29800 36.86400 31.41100
H  45.99100 38.10000 30.21600
H  46.90400 38.66700 31.62300
H  45.68000 37.40500 31.81200
H  48.86400 34.52400 31.26700
H  47.77100 33.31100 31.69700
H  49.21900 35.06300 33.41500
H  48.22700 33.61800 33.76500
H  49.86000 40.54200 27.29300
H  51.49000 40.16400 27.34400
H  50.58500 39.59500 28.70200
H  51.95500 40.59300 23.76700
H  52.44900 40.05100 25.45000
H  50.78200 40.66700 25.00600
H  50.22600 34.08800 22.17200
H  47.92000 32.32600 22.15600
H  47.35100 34.46600 21.58600
H  48.69900 34.49100 20.37400
H  48.57500 35.89200 21.55700
H  49.58700 30.93300 23.94100
H  50.74300 32.05300 23.26700
H  49.81200 29.56400 22.58200
H  50.96700 30.47700 21.62600
H  49.25600 30.63600 21.22000
H  45.63900 29.02200 26.13800
H  44.76000 30.09500 25.06000
H  44.05100 29.60500 26.61700
H  44.26500 33.15600 30.48000
H  45.96300 31.43500 34.17600
H  44.15200 31.26600 34.36600
H  45.00200 32.85700 34.40000
Mg -9.84800 38.70900 40.12700
C  -8.94100 35.26800 39.20100
C  -6.58000 39.58100 39.21900
C  -10.80800 41.76600 40.27200
C  -12.96000 37.38000 40.89200
N  -7.98700 37.59800 39.19000
C  -7.90600 36.20100 38.91200
C  -6.49700 35.83400 38.54700
C  -5.69800 37.15900 38.74900
C  -6.75600 38.20700 39.15600
C  -4.51600 37.06500 39.86000
C  -6.31200 35.24700 37.05200
C  -6.78000 36.29000 36.00000
H  -7.71700 35.88200 34.82800
N  -8.80800 40.48100 39.88800
C  -7.47900 40.61700 39.50200
C  -7.23500 42.11100 39.30300
C  -8.50900 42.70100 39.58800
C  -9.41200 41.68700 40.04700
C  -5.93000 42.71900 38.78000
C  -8.79100 44.15000 39.42600
O  -7.99900 44.86000 38.83300
C  -10.09300 44.70400 39.84100
N  -11.70300 39.45200 40.30800
C  -11.87700 40.81100 40.44500
C  -13.36300 41.12200 40.55000
C  -13.92500 39.80000 41.17300
C  -12.85000 38.76900 40.75400
C  -13.74300 42.35900 41.46300
C  -15.31000 39.49400 40.64300
C  -16.32600 39.30200 41.75900
N  -10.84800 36.73200 40.00500
C  -12.08500 36.40200 40.46400
C  -12.28800 35.01300 40.47900
C  -11.10900 34.51700 39.79800
C  -10.27900 35.57200 39.64100
C  -13.51200 34.18100 40.91700
C  -10.44800 33.35300 39.33900
O  -10.82300 32.19200 39.34000
C  -9.01100 33.78500 38.78000
C  -7.95400 32.95600 39.40200
O  -7.84900 32.76600 40.63900
O  -7.06200 32.44300 38.51200
C  -6.01700 31.49700 38.99000
H  -5.58000 39.82000 38.85100
H  -11.25200 42.74100 40.48500
H  -13.89800 37.05100 41.34500
H  -6.05200 35.23000 39.33700
H  -5.23500 37.44300 37.80400
H  -3.57900 36.94000 39.31700
H  -4.65900 36.10700 40.35900
H  -4.50900 37.87100 40.59400
H  -6.80200 34.29100 36.87000
H  -5.25500 35.07000 36.85100
H  -5.90400 36.66100 35.46900
H  -7.24500 37.12300 36.52700
H  -5.12500 42.08600 39.15200
H  -5.73400 43.72800 39.14400
H  -5.91000 42.80200 37.69300
H  -10.28900 44.49100 40.89100
H  -10.81400 44.16000 39.23100
H  -10.15500 45.77200 39.63500
H  -13.79300 41.24800 39.55600
H  -13.91100 39.92700 42.25500
H  -14.13800 43.20900 40.90700
H  -12.88300 42.76700 41.99300
H  -14.48700 42.13300 42.22700
H  -15.24600 38.61900 39.99500
H  -15.63000 40.27000 39.94700
H  -17.18000 39.92200 41.48700
H  -16.10000 39.68000 42.75600
H  -16.73400 38.29200 41.76800
H  -13.53500 34.10600 42.00500
H  -13.54100 33.21400 40.41400
H  -14.33100 34.81200 40.57400
H  -8.99700 33.64200 37.70000
H  -6.24500 30.46100 38.74000
H  -5.82100 31.58600 40.05800
H  -5.11900 31.77400 38.43800

