158

Mg -1.19700 17.36800 27.56400
C  -1.73500 15.14400 30.12300
C  -1.57500 19.90100 29.78500
C  -1.11500 19.53800 24.96500
C  -1.20400 14.68700 25.27600
N  -1.60500 17.43000 29.69800
C  -1.62300 16.43400 30.61400
C  -1.58400 16.92800 32.07200
C  -1.67700 18.48500 31.89500
C  -1.51800 18.63200 30.38700
C  -2.95400 19.19300 32.47800
C  -0.30300 16.50500 32.86300
C  -0.11500 17.27000 34.18700
H  0.41500 16.51400 35.46800
N  -1.25200 19.46700 27.39900
C  -1.43700 20.34000 28.43900
C  -1.34400 21.66300 27.91300
C  -1.08900 21.61300 26.57000
C  -1.09300 20.17900 26.19600
C  -1.44700 22.90000 28.86700
C  -0.81300 22.69700 25.47700
O  -0.59200 22.38100 24.29900
C  -0.73700 24.10800 25.80000
N  -0.98400 17.16700 25.49100
C  -1.09600 18.16100 24.62900
C  -1.13700 17.72200 23.16900
C  -1.11600 16.20500 23.23800
C  -1.14800 15.98700 24.77400
C  -2.37100 18.35200 22.35300
C  -0.03500 15.37500 22.51800
C  1.44500 15.67700 22.81400
N  -1.45100 15.31200 27.62100
C  -1.43200 14.35500 26.59900
C  -1.77400 13.06100 27.19900
C  -1.76700 13.35400 28.54700
C  -1.69700 14.73400 28.74100
C  -2.01300 11.75300 26.50800
C  -2.07300 12.71800 29.80900
O  -2.31300 11.55400 30.11300
C  -2.02600 13.80900 30.90000
C  -0.96500 13.40800 31.84400
O  0.26800 13.37400 31.62900
O  -1.48800 12.92900 33.04000
C  -0.44500 12.42200 33.97300
H  -1.69000 20.62800 30.59300
H  -0.96400 20.20600 24.11500
H  -1.17400 13.81100 24.62400
H  -2.46500 16.51200 32.56100
H  -0.86100 19.02400 32.37600
H  -2.69800 20.22300 32.72600
H  -3.28100 18.62200 33.34700
H  -3.78500 19.24000 31.77300
H  0.42300 16.70100 32.07400
H  -0.32800 15.45000 33.13500
H  -0.92200 17.94500 34.47200
H  0.72400 17.95100 34.03900
H  -0.41200 23.24000 28.85700
H  -1.76200 22.61800 29.87100
H  -2.10900 23.71700 28.57800
H  -1.63600 24.48900 26.28600
H  -0.61900 24.73500 24.91600
H  0.17500 24.34000 26.34900
H  -0.19900 18.06900 22.73500
H  -2.10400 15.79900 23.02500
H  -2.95200 18.86500 23.11900
H  -2.83200 17.54000 21.79000
H  -2.02600 19.18400 21.73900
H  -0.29600 15.37900 21.46000
H  -0.19000 14.34900 22.85300
H  1.78600 15.99700 21.82900
H  1.96000 14.76400 23.11400
H  1.66200 16.38700 23.61100
H  -2.32900 11.96800 25.48700
H  -2.72300 11.14300 27.06600
H  -1.07800 11.19500 26.46400
H  -3.05300 13.75300 31.26200
H  0.10800 11.58900 33.53800
H  -0.84900 12.13500 34.94400
H  0.16600 13.26700 34.28900
Mg 17.47600 53.42200 25.65600
C  19.04400 52.13400 28.50900
C  14.85300 54.23300 27.71200
C  15.57800 53.97700 22.96600
C  19.98600 52.00000 23.69300
N  17.08700 53.21400 27.86800
C  17.86700 52.83200 28.83100
C  17.30300 53.05200 30.24500
C  15.90000 53.60800 29.92100
C  15.94600 53.73100 28.40200
C  14.65800 52.74300 30.43200
C  18.21700 54.00000 30.99000
C  18.39300 53.66600 32.44000
H  17.51900 54.36000 33.43900
N  15.61800 54.26400 25.39700
C  14.59100 54.42500 26.35700
C  13.36800 54.85300 25.69800
C  13.62200 54.82500 24.29800
C  14.97300 54.38200 24.18100
C  12.12600 55.10800 26.49700
C  12.65600 55.28800 23.19600
O  13.10500 55.42600 22.05700
C  11.19800 55.46800 23.54600
N  17.70600 52.87700 23.69800
C  16.82500 53.39900 22.75400
C  17.38700 53.16300 21.31400
C  18.81800 52.57700 21.54200
C  18.87700 52.53200 23.06200
C  16.53900 52.25200 20.40400
C  19.98700 53.37400 20.85000
C  20.89600 52.47200 20.01100
N  19.18700 52.26200 26.00200
C  20.16900 51.79700 25.11500
C  21.19400 51.18000 25.86800
C  20.74500 51.16200 27.21700
C  19.52000 51.92600 27.17800
C  22.47500 50.70700 25.39500
C  21.00200 50.74600 28.61500
O  22.00100 50.17300 29.01600
C  19.97100 51.40000 29.47000
C  19.30400 50.34600 30.30600
O  18.67200 49.35200 29.94900
O  19.50800 50.66400 31.64000
C  18.87100 49.83400 32.70300
H  14.07300 54.59300 28.38600
H  15.06500 54.14800 22.01700
H  20.72200 51.52900 23.03900
H  17.31200 52.08200 30.74300
H  15.83200 54.60300 30.36000
H  14.83000 52.25500 31.39100
H  14.28200 52.05800 29.67300
H  14.00900 53.54200 30.79100
H  17.93100 55.05000 30.92900
H  19.23600 54.02400 30.60300
H  19.42700 53.89200 32.70000
H  18.31700 52.62700 32.76100
H  12.08300 54.47200 27.38100
H  11.12600 55.01200 26.07400
H  12.29100 56.09100 26.93900
H  11.06400 56.33100 24.19900
H  10.85300 54.58500 24.08500
H  10.62300 55.49700 22.62000
H  17.36300 54.12400 20.80100
H  18.83000 51.52900 21.24600
H  16.41400 51.25400 20.82400
H  17.13700 52.21000 19.49400
H  15.60200 52.75100 20.15600
H  20.69700 53.78700 21.56700
H  19.47600 54.14500 20.27500
H  21.77000 52.97700 19.59900
H  20.41500 52.03600 19.13500
H  21.23200 51.63300 20.62000
H  22.74500 51.13700 24.43100
H  22.47900 49.62600 25.25300
H  23.13600 51.12700 26.15400
H  20.42500 52.17000 30.09300
H  17.81700 49.75200 32.43700
H  19.03000 50.43200 33.60000
H  19.38500 48.88000 32.81900

