158

Mg 53.88000 24.18800 43.91400
C  51.37100 26.65100 43.16800
C  51.49300 21.89700 43.06900
C  56.27600 21.91500 43.95100
C  56.12800 26.68500 44.67700
N  51.71600 24.39800 43.06800
C  50.92500 25.42900 42.79300
C  49.50500 24.94100 42.49900
C  49.48800 23.51500 43.17600
C  51.00000 23.20900 43.12000
C  48.82100 23.29500 44.58100
C  49.10600 24.88800 41.02300
C  50.06300 24.32300 40.01400
H  50.48100 25.38200 38.96100
N  53.90200 22.20900 43.48800
C  52.80600 21.39600 43.13200
C  53.22500 20.05600 42.89000
C  54.61200 20.04200 43.17600
C  55.00900 21.42800 43.58100
C  52.20400 19.03800 42.32300
C  55.50700 18.84400 42.97800
O  54.95700 17.79600 42.56000
C  57.02600 18.76200 43.19100
N  56.05800 24.38400 43.91200
C  56.78800 23.25900 44.19000
C  58.23100 23.64600 44.59100
C  58.10900 25.17900 44.95700
C  56.70700 25.46300 44.43900
C  58.94900 22.77000 45.72100
C  59.11500 26.05200 44.21400
C  60.25300 26.75200 45.06300
N  53.81400 26.22200 43.94100
C  54.76000 27.04700 44.49900
C  54.10300 28.41900 44.74700
C  52.86300 28.24600 44.13200
C  52.66800 26.90800 43.66300
C  54.84000 29.63500 45.22100
C  51.63500 28.95300 43.80200
O  51.29300 30.09200 44.03300
C  50.64300 27.97000 43.10900
C  50.29000 28.38900 41.77800
O  51.13800 28.57000 40.92400
O  48.93200 28.45500 41.60800
C  48.49800 29.18000 40.32400
H  50.74400 21.10900 43.17100
H  57.06200 21.15900 44.02100
H  56.72500 27.42500 45.21600
H  48.85300 25.63200 43.03400
H  48.87800 22.83800 42.57900
H  49.60100 23.13700 45.32500
H  48.15500 22.44000 44.46900
H  48.18100 24.14900 44.80300
H  48.83700 25.91300 40.76600
H  48.15700 24.35200 40.98800
H  49.53500 23.61400 39.37700
H  50.90300 23.75600 40.41600
H  51.39400 19.57600 41.83100
H  51.67700 18.58700 43.16400
H  52.63600 18.29500 41.65300
H  57.24500 19.29400 44.11700
H  57.59900 19.10300 42.32900
H  57.30400 17.72100 43.35400
H  58.77300 23.33000 43.70000
H  58.05400 25.32600 46.03500
H  58.39000 21.84200 45.84500
H  58.89500 23.38500 46.62000
H  60.00900 22.56100 45.58400
H  58.65900 26.73700 43.50000
H  59.67500 25.37100 43.57400
H  60.59900 27.57300 44.43500
H  61.06500 26.06200 45.29200
H  59.75400 27.08600 45.97300
H  54.78200 29.64900 46.30900
H  54.25400 30.47200 44.84000
H  55.82700 29.71000 44.76500
H  49.79900 27.73700 43.75900
H  47.95300 30.11400 40.46600
H  47.93800 28.59000 39.59900
H  49.37900 29.43300 39.73400
Mg 9.23200 48.33700 25.72300
C  7.27300 48.68900 28.48500
C  11.99300 49.54100 27.54100
C  11.24300 47.69600 23.06700
C  6.53200 47.57700 23.88100
N  9.61600 49.07500 27.77100
C  8.62900 49.06900 28.70400
C  9.14200 49.63100 30.07400
C  10.63600 50.14100 29.64000
C  10.78000 49.50300 28.27600
C  10.80100 51.74700 29.60200
C  9.17400 48.66400 31.27000
C  9.13100 49.33300 32.61000
H  8.63000 48.56000 33.82300
N  11.33200 48.67700 25.29300
C  12.22500 49.14600 26.21900
C  13.53900 49.01500 25.63000
C  13.42900 48.40600 24.32000
C  11.94000 48.25900 24.18800
C  14.86500 49.37800 26.35100
C  14.44300 48.12000 23.17900
O  14.14000 47.57100 22.09100
C  15.92100 48.33700 23.49900
N  8.95600 47.63200 23.70700
C  9.89200 47.41100 22.83100
C  9.31200 46.85800 21.51800
C  7.82600 47.29300 21.71600
C  7.73000 47.41200 23.22300
C  9.74600 47.66000 20.20500
C  6.94300 46.26200 20.94900
C  5.63300 46.83900 20.27300
N  7.22400 48.14900 25.99000
C  6.20500 47.89700 25.17000
C  4.96200 47.89200 25.92000
C  5.29000 48.26500 27.21300
C  6.69400 48.30900 27.21200
C  3.61600 47.50500 25.44000
C  4.83300 48.46700 28.59600
O  3.67100 48.38300 28.98500
C  6.06700 48.84000 29.44800
C  5.99500 47.69600 30.41400
O  6.10500 46.51700 30.18200
O  5.66600 48.24700 31.63000
C  5.09400 47.16700 32.51600
H  12.69100 50.05000 28.20900
H  11.76100 47.51500 22.12200
H  5.65000 47.45100 23.25000
H  8.45800 50.40100 30.42900
H  11.38900 49.63500 30.24300
H  10.09500 52.28400 30.23600
H  10.78100 52.03100 28.54900
H  11.77700 51.96300 30.03600
H  10.16900 48.22400 31.20800
H  8.44600 47.86400 31.14000
H  8.53300 50.24100 32.53800
H  10.18900 49.58400 32.68100
H  15.75900 48.78900 26.14300
H  14.71700 49.39700 27.43100
H  15.13300 50.37300 25.99700
H  16.58800 48.05900 22.68300
H  16.14100 47.74200 24.38600
H  16.15200 49.37200 23.75100
H  9.47300 45.79400 21.34300
H  7.65000 48.27400 21.27300
H  8.91300 47.82300 19.52200
H  10.42300 47.06000 19.59700
H  10.24800 48.60300 20.42400
H  6.71500 45.53000 21.72300
H  7.53000 45.79100 20.16100
H  4.75500 46.47200 20.80500
H  5.73400 46.54600 19.22800
H  5.47200 47.91600 20.31700
H  3.15300 46.67100 25.96600
H  3.72500 47.18800 24.40300
H  2.99900 48.38800 25.60600
H  6.07100 49.84200 29.87700
H  4.13100 46.93700 32.05900
H  5.10900 47.56600 33.53000
H  5.62600 46.21600 32.52700

