158

Mg 8.80500 2.95900 27.70300
C  10.35900 1.91000 30.57100
C  6.91500 5.13000 29.70000
C  7.39300 4.23500 25.00400
C  10.60500 0.72500 25.85100
N  8.45200 3.21500 29.94000
C  9.39300 2.90700 30.87800
C  8.95900 3.45900 32.31000
C  7.65800 4.25900 31.88200
C  7.65000 4.19700 30.36900
C  6.37500 3.55500 32.52800
C  10.07000 4.33100 32.94700
C  9.66600 5.32600 33.98900
H  10.51600 5.20700 35.18600
N  7.27100 4.43500 27.35200
C  6.65700 5.26700 28.31700
C  5.69000 6.21500 27.70200
C  5.91300 6.07400 26.29800
C  6.88300 4.87400 26.16000
C  4.66600 7.06000 28.49900
C  5.31600 6.87500 25.22700
O  5.65800 6.71500 24.08600
C  4.33400 8.06100 25.46800
N  8.87200 2.44300 25.76900
C  8.14900 3.08300 24.88500
C  8.33800 2.62100 23.41500
C  9.53400 1.57600 23.62800
C  9.62600 1.53900 25.16200
C  7.10000 1.88700 22.74400
C  10.87900 1.80700 22.86300
C  11.31200 0.77200 21.79500
N  10.16700 1.40600 28.11300
C  10.88900 0.63900 27.24200
C  11.89400 -0.11600 27.99800
C  11.73700 0.31900 29.32900
C  10.65700 1.27400 29.29000
C  12.78700 -1.18000 27.50400
C  12.24400 0.28800 30.69000
O  13.19600 -0.31000 31.11500
C  11.30900 1.29600 31.58400
C  10.66600 0.59600 32.69600
O  9.63500 -0.08000 32.55500
O  11.28400 0.94400 33.87600
C  10.39200 0.88700 35.08400
H  6.35000 5.82900 30.32000
H  6.90700 4.57200 24.08600
H  11.29100 0.17700 25.20100
H  8.65300 2.64100 32.96200
H  7.69500 5.33100 32.07700
H  6.07500 2.78700 31.81500
H  5.57300 4.24200 32.79900
H  6.60800 3.00600 33.44000
H  10.75500 4.85700 32.28200
H  10.70900 3.62900 33.48300
H  8.65500 5.07700 34.31100
H  9.66600 6.33100 33.56700
H  4.96700 8.10200 28.39000
H  4.79700 6.73600 29.53100
H  3.62000 6.97000 28.20600
H  5.01300 8.89400 25.64800
H  3.55800 7.81000 26.19200
H  3.76400 8.22200 24.55300
H  8.62600 3.42400 22.73600
H  9.23800 0.55800 23.37500
H  7.17800 0.80900 22.60200
H  6.78100 2.45100 21.86700
H  6.27000 2.10100 23.41700
H  11.65300 1.92900 23.62100
H  10.80500 2.79100 22.39900
H  11.52300 1.23500 20.83100
H  10.50700 0.05400 21.64000
H  12.22800 0.23400 22.04100
H  12.34500 -1.70100 26.65500
H  12.80500 -1.96800 28.25800
H  13.75500 -0.92500 27.07100
H  11.90100 2.11100 32.00200
H  9.58600 1.61600 35.00700
H  11.06300 1.09400 35.91800
H  9.98900 -0.09100 35.34500
Mg 48.74200 44.80900 43.89100
C  45.21900 45.33700 42.94300
C  48.54100 41.72100 42.27300
C  52.02900 44.83600 43.73100
C  48.71700 48.33800 44.53000
N  47.01200 43.61800 42.91900
C  45.75300 44.01200 42.64600
C  44.98200 42.84900 41.89400
C  46.00200 41.67400 41.90600
C  47.29000 42.39600 42.39100
C  45.62200 40.41300 42.76000
C  44.49000 43.24300 40.43900
C  45.58000 43.60500 39.42900
H  45.74400 42.71400 38.13800
N  50.03500 43.33300 43.42700
C  49.82400 42.10000 42.79300
C  51.06100 41.35500 42.74800
C  52.07300 42.27500 43.14600
C  51.42300 43.55700 43.46700
C  51.06100 39.99200 42.24600
C  53.63500 41.95100 43.26500
O  54.11500 40.81200 43.13700
C  54.73900 43.02000 43.59700
N  50.22300 46.43700 43.92000
C  51.51000 46.10500 43.95900
C  52.36600 47.37900 44.21900
C  51.36300 48.47500 44.56400
C  49.97200 47.77600 44.25100
C  53.52700 47.15800 45.25900
C  51.46800 49.79300 43.62700
C  52.17700 51.01500 44.38700
N  47.22900 46.49000 44.10000
C  47.45400 47.85300 44.29300
C  46.21800 48.59100 44.14900
C  45.33300 47.60400 43.66100
C  45.99200 46.39000 43.54600
C  46.01600 50.07900 44.38600
C  43.95700 47.39700 43.18800
O  42.99000 48.13100 43.07200
C  43.86300 45.93100 42.64900
C  42.61400 45.26500 43.21500
O  41.63200 45.04600 42.50100
O  42.73100 44.94200 44.51300
C  41.45400 44.33700 45.06000
H  48.43800 40.77500 41.73800
H  53.11100 44.94600 43.63400
H  48.90000 49.30700 44.99800
H  44.09700 42.58200 42.47100
H  46.10800 41.22500 40.91800
H  46.47700 40.12800 43.37400
H  45.52200 39.53100 42.12800
H  44.66500 40.53900 43.26700
H  43.88500 44.12300 40.65600
H  43.79800 42.50600 40.03300
H  46.57500 43.55200 39.87200
H  45.33100 44.63600 39.17500
H  51.78300 39.99200 41.42900
H  50.15600 39.54000 41.84200
H  51.51100 39.25400 42.91100
H  55.73400 42.57900 43.53100
H  54.55200 43.51100 44.55200
H  54.79800 43.79700 42.83500
H  52.89400 47.53800 43.27900
H  51.42300 48.67300 45.63400
H  53.37500 46.32900 45.95000
H  53.92400 47.97400 45.86400
H  54.37000 46.82400 44.65300
H  50.47500 50.20600 43.45000
H  51.88700 49.46000 42.67800
H  53.07100 51.09700 43.76900
H  52.53800 50.77200 45.38600
H  51.55200 51.90800 44.38800
H  46.65000 50.65000 43.70900
H  46.13400 50.45200 45.40400
H  44.95600 50.27100 44.22200
H  43.71900 45.94000 41.56800
H  41.34600 43.29300 44.76600
H  40.51100 44.83400 44.82900
H  41.45800 44.41100 46.14700

