158

Mg 44.76700 5.03200 47.85000
C  42.47600 7.58500 47.69300
C  42.21200 2.76500 47.78000
C  46.97500 2.64600 47.33300
C  47.35700 7.49400 47.25600
N  42.67300 5.22500 47.50800
C  41.87400 6.36000 47.56900
C  40.34800 6.05600 47.28100
C  40.35100 4.46100 47.58400
C  41.85900 4.10900 47.63800
C  39.34200 3.93400 48.70900
C  39.81300 6.43900 45.89500
C  40.72800 7.06400 44.78500
H  40.39000 6.56200 43.33400
N  44.59600 2.92200 47.58900
C  43.46400 2.21300 47.65700
C  43.82700 0.81900 47.51400
C  45.25900 0.69100 47.58900
C  45.68600 2.12000 47.49000
C  42.84300 -0.21600 47.37500
C  45.97700 -0.68800 47.56900
O  45.37700 -1.76200 47.53700
C  47.49800 -0.80900 47.60400
N  46.91800 5.06800 47.53500
C  47.57300 3.88200 47.35000
C  49.05700 4.16600 47.12500
C  49.19900 5.72600 46.95100
C  47.77300 6.16100 47.33100
C  49.95900 3.68700 48.20700
C  49.64200 6.14200 45.51400
C  48.92000 5.45700 44.33500
N  44.96000 7.15900 47.65500
C  46.04600 8.00800 47.50100
C  45.61700 9.32800 47.45700
C  44.19900 9.25600 47.63000
C  43.89500 7.89400 47.68600
C  46.51700 10.47400 47.12900
C  42.99500 10.02800 47.68300
O  42.69400 11.24300 47.62100
C  41.81700 8.94100 47.75800
C  40.96400 9.26000 48.97600
O  40.93800 8.67600 50.07700
O  40.10700 10.25100 48.58900
C  38.98400 10.46900 49.48100
H  41.35800 2.09900 47.63500
H  47.77600 1.90600 47.26500
H  48.13100 8.21700 46.99300
H  39.73300 6.53800 48.04100
H  39.94700 3.92700 46.72300
H  38.49500 4.58600 48.92000
H  39.90800 3.64300 49.59400
H  39.02800 2.98200 48.28100
H  39.05500 7.19200 46.11100
H  39.39900 5.52300 45.47500
H  41.69200 6.66500 45.10100
H  40.70000 8.15400 44.79400
H  42.76800 -0.85300 48.25600
H  43.12100 -1.04500 46.72400
H  41.79700 0.00100 47.15700
H  47.86000 -0.26200 48.47500
H  47.88000 -0.34500 46.69400
H  47.79300 -1.85800 47.57000
H  49.29600 3.67300 46.18300
H  49.92900 6.12600 47.65400
H  49.36800 3.58100 49.11700
H  50.70100 4.38400 48.59500
H  50.38400 2.71200 47.97100
H  50.72200 5.99100 45.52300
H  49.53500 7.21300 45.34600
H  47.95000 5.02100 44.57200
H  49.42900 4.60300 43.88800
H  48.67200 6.09300 43.48500
H  47.23900 10.10400 46.40000
H  47.00700 10.79100 48.04900
H  45.92000 11.28300 46.70900
H  41.17300 8.96800 46.87900
H  39.28400 10.64600 50.51400
H  38.28600 9.63300 49.44200
H  38.35200 11.31100 49.19600
Mg 26.68300 49.32500 25.98600
C  24.65200 50.36300 28.47600
C  28.99500 48.25600 28.35900
C  28.93900 48.68400 23.47000
C  24.71800 51.13900 23.62600
N  26.75700 49.35200 28.15300
C  25.74300 49.64400 28.98500
C  26.14200 49.44300 30.43600
C  27.60600 48.99200 30.33400
C  27.86000 48.91400 28.84500
C  28.57900 49.88400 31.23000
C  25.36400 48.47200 31.20700
C  24.85000 48.91100 32.64800
H  25.68600 49.62300 33.75500
N  28.51700 48.40800 25.90400
C  29.29000 47.94900 26.97600
C  30.45300 47.28400 26.49200
C  30.40800 47.30000 25.08100
C  29.24600 48.15300 24.71000
C  31.47500 46.61900 27.41500
C  31.47900 46.64700 24.15100
O  31.33900 46.68700 22.94500
C  32.63500 46.02300 24.65800
N  26.84400 49.94200 23.80500
C  27.82500 49.46000 23.01000
C  27.60500 49.72800 21.53000
C  26.29900 50.54400 21.57400
C  25.90700 50.55200 23.08800
C  28.74800 50.53100 20.82200
C  25.04700 50.08000 20.80200
C  24.40100 48.85400 21.28700
N  25.05200 50.57500 26.00400
C  24.38300 51.10300 24.96400
C  23.19300 51.69700 25.55600
C  23.18800 51.46400 26.92400
C  24.40800 50.75200 27.15600
C  22.16600 52.36800 24.74800
C  22.49200 51.58000 28.18400
O  21.41300 52.06600 28.40800
C  23.40600 50.84600 29.22500
C  23.62600 51.81500 30.43000
O  24.47500 52.68500 30.53600
O  22.59800 51.59500 31.29200
C  22.61300 52.36300 32.57500
H  29.72900 48.08700 29.15100
H  29.62900 48.23000 22.75500
H  24.16500 51.66100 22.84200
H  26.13000 50.40300 30.95400
H  27.74900 47.96400 30.66600
H  29.56700 49.43100 31.13900
H  28.35000 50.04200 32.28300
H  28.62200 50.86000 30.74600
H  25.84800 47.54700 31.52200
H  24.54100 48.17700 30.55600
H  24.63600 47.93300 33.07900
H  23.94500 49.49500 32.48000
H  32.51000 46.84700 27.16000
H  31.30400 45.54300 27.38100
H  31.23300 47.00100 28.40600
H  33.24000 45.69100 23.81400
H  32.29400 45.16500 25.23800
H  33.30600 46.63300 25.26200
H  27.41500 48.79700 20.99500
H  26.52400 51.51300 21.12800
H  29.54200 50.48100 21.56700
H  28.48300 51.58400 20.73000
H  28.87400 50.01000 19.87200
H  25.31200 49.81400 19.77900
H  24.46800 51.00300 20.78600
H  25.06200 48.34300 21.98700
H  24.13700 48.25400 20.41700
H  23.60900 49.06100 22.00700
H  21.76900 53.20100 25.32900
H  21.24800 51.81100 24.93800
H  22.32300 52.57200 23.68900
H  22.94400 50.02300 29.77100
H  22.66300 53.44200 32.42500
H  23.48900 52.06600 33.15200
H  21.67000 52.19500 33.09500

