158

Mg 40.93700 8.00700 29.05600
C  42.74800 9.36400 31.78400
C  38.97300 6.40600 31.29700
C  39.33200 6.89800 26.44900
C  43.31500 9.48800 26.91600
N  40.95800 7.77000 31.25700
C  41.64500 8.62300 32.17100
C  41.08300 8.57300 33.58500
C  39.96800 7.41000 33.41000
C  39.92300 7.18700 31.89300
C  40.14700 6.19800 34.35400
C  40.47600 9.95400 34.13200
C  40.14500 9.97000 35.63600
H  41.03500 10.82300 36.55100
N  39.43300 6.74900 28.92300
C  38.76200 6.08900 29.93100
C  37.76400 5.25700 29.41600
C  37.69500 5.45000 27.98100
C  38.84600 6.36600 27.71700
C  36.84900 4.49800 30.36500
C  36.70300 4.97100 27.03400
O  36.86600 5.17500 25.85900
C  35.45300 4.24600 27.40000
N  41.24000 8.18800 27.04200
C  40.41700 7.69500 26.16200
C  40.74600 7.99100 24.73500
C  41.93100 8.99600 24.89300
C  42.20000 8.88200 26.38600
C  40.98800 6.78300 23.82600
C  41.52400 10.45300 24.48200
C  40.72300 11.29800 25.53800
N  42.70900 9.12100 29.23700
C  43.60600 9.59700 28.27300
C  44.64300 10.32800 28.92100
C  44.33800 10.28400 30.30900
C  43.16400 9.53700 30.44200
C  45.88100 10.93200 28.22900
C  44.80300 10.64400 31.66400
O  45.91700 11.06200 32.02800
C  43.71400 10.09300 32.70600
C  44.36500 9.22500 33.71200
O  44.87500 8.10200 33.60200
O  44.08300 9.80900 34.89100
C  44.35100 9.06100 36.11800
H  38.32700 5.93100 32.03900
H  38.84000 6.57000 25.53100
H  43.86100 9.96100 26.09700
H  41.85500 8.08800 34.18300
H  39.00500 7.79800 33.74100
H  39.87500 5.22700 33.94000
H  39.46700 6.35700 35.19100
H  41.15600 6.17900 34.76600
H  39.53200 10.15300 33.62400
H  40.96400 10.85100 33.75300
H  40.32200 8.95000 35.97700
H  39.08800 10.21300 35.74100
H  37.22100 4.26100 31.36200
H  36.60700 3.56200 29.86000
H  35.91500 5.05400 30.28300
H  34.87900 4.72500 28.19300
H  35.85500 3.26600 27.65700
H  34.71200 4.13000 26.60900
H  39.87000 8.56600 24.43700
H  42.81000 8.77900 24.28500
H  40.12100 6.85100 23.16900
H  40.80700 5.82200 24.30900
H  41.85700 6.85000 23.17100
H  40.90400 10.35700 23.59100
H  42.44700 10.91800 24.13500
H  40.82600 10.90400 26.54900
H  39.68000 11.13300 25.26700
H  40.97100 12.35900 25.50100
H  45.77800 12.01700 28.23700
H  45.91200 10.61300 27.18800
H  46.70800 10.54400 28.82300
H  43.19400 10.88800 33.24100
H  43.49500 8.40500 36.27800
H  44.38800 9.76300 36.95100
H  45.28000 8.50400 35.99700
Mg 30.26200 57.52300 40.21200
C  27.44000 55.73000 39.26400
C  32.14000 54.67000 39.41900
C  33.05300 59.26300 40.35600
C  28.36900 60.39800 40.27100
N  29.82700 55.34900 39.53300
C  28.57800 54.89100 39.26900
C  28.62100 53.38500 38.83500
C  30.14800 53.00100 38.93100
C  30.78000 54.36700 39.34200
C  30.50300 51.88200 39.91800
C  28.05300 52.99800 37.44900
C  28.57900 53.80200 36.29900
H  27.64300 54.11800 35.12200
N  32.33300 57.01300 40.03900
C  32.91400 55.75900 39.75500
C  34.40000 55.88800 39.80000
C  34.64700 57.27600 40.09800
C  33.30600 57.93400 40.24700
C  35.29300 54.75100 39.56900
C  36.03700 57.96500 40.27800
O  36.97500 57.17400 40.05800
C  36.29700 59.41800 40.59200
N  30.59900 59.55400 40.25600
C  31.93700 60.04500 40.33700
C  31.88400 61.61000 40.35900
C  30.35300 62.00300 40.38700
C  29.72500 60.61600 40.33800
C  32.75700 62.18400 41.47000
C  29.94900 62.96800 39.28600
C  29.75400 64.39600 39.68600
N  28.31300 58.02200 39.82000
C  27.64300 59.24900 40.08900
C  26.21200 59.02300 39.84600
C  26.12100 57.63500 39.54500
C  27.44400 57.08500 39.53700
C  25.09900 60.02700 39.94200
C  25.14900 56.62700 39.16500
O  23.96200 56.77500 39.01800
C  25.96600 55.34000 38.85000
C  25.36200 54.32300 39.76100
O  25.48200 54.29200 40.99500
O  24.62400 53.45000 38.94700
C  23.84900 52.35700 39.57300
H  32.66700 53.74400 39.17600
H  33.90400 59.93800 40.46800
H  27.72100 61.27200 40.36700
H  27.96600 52.87300 39.54100
H  30.50200 52.73700 37.93400
H  31.06600 52.25300 40.77500
H  31.17000 51.19200 39.40100
H  29.55900 51.43900 40.23400
H  26.97300 53.11900 37.53000
H  28.14500 51.96000 37.13000
H  29.40000 53.18300 35.93600
H  29.01200 54.73200 36.66700
H  35.73300 54.76100 38.57200
H  34.63700 53.88100 39.59300
H  35.97800 54.57000 40.39700
H  35.92400 60.05000 39.78600
H  37.37400 59.52700 40.46400
H  35.99800 59.67600 41.60800
H  32.34700 61.90200 39.41700
H  30.06300 62.45300 41.33700
H  33.42600 62.96400 41.10500
H  33.37800 61.46200 42.00000
H  32.21700 62.63500 42.30300
H  29.01800 62.58600 38.86600
H  30.68700 63.08600 38.49300
H  29.77400 64.47300 40.77300
H  28.78300 64.77600 39.36600
H  30.42400 65.05700 39.13600
H  25.10700 60.53600 40.90600
H  24.16000 59.50600 39.75900
H  25.14800 60.72000 39.10200
H  25.81400 55.01800 37.82000
H  23.03800 52.68400 40.22500
H  24.44400 51.66900 40.17300
H  23.47800 51.69800 38.78800

