158

Mg 47.25200 25.07200 27.99700
C  48.06700 27.25500 30.59800
C  46.45800 22.70500 30.34900
C  46.77900 22.84300 25.56400
C  48.71000 27.32100 25.78400
N  47.61500 24.96900 30.30000
C  47.47500 26.04100 31.06300
C  47.17800 25.68800 32.52900
C  46.69800 24.20500 32.39200
C  46.99200 23.91600 30.93100
C  47.35300 23.20200 33.40500
C  46.19600 26.70700 33.27400
C  45.65200 26.28200 34.67400
H  45.94700 27.25900 35.83700
N  46.59700 23.06800 27.96400
C  46.25400 22.26500 29.03500
C  45.90300 20.92100 28.51800
C  46.22800 20.92000 27.12700
C  46.54900 22.33400 26.85500
C  45.32900 19.89100 29.51000
C  46.49500 19.69300 26.22000
O  47.02300 19.76900 25.08200
C  46.07700 18.30100 26.65600
N  47.60100 25.12700 26.04400
C  47.23000 24.12500 25.23900
C  47.29400 24.61300 23.71300
C  47.90700 26.03000 23.78500
C  48.16500 26.15000 25.27400
C  47.97000 23.63200 22.63900
C  47.01600 27.15300 23.22000
C  47.86500 28.23400 22.42500
N  48.19000 26.89400 28.10300
C  48.76100 27.70300 27.15300
C  49.12900 28.94800 27.75500
C  48.83600 28.76700 29.06900
C  48.28100 27.54300 29.26300
C  49.78800 30.05100 27.02200
C  48.93100 29.51300 30.31800
O  49.34900 30.61300 30.53800
C  48.31300 28.56200 31.32900
C  49.28800 28.36400 32.49900
O  50.18900 27.53900 32.48900
O  48.87300 29.10100 33.60400
C  49.58000 28.71200 34.86200
H  46.14200 22.02200 31.14000
H  46.59100 22.16600 24.72800
H  49.08800 27.98800 25.00600
H  48.10500 25.63700 33.10000
H  45.60900 24.15200 32.39800
H  48.14700 22.64000 32.91300
H  46.66000 22.43600 33.75400
H  47.91300 23.65700 34.22200
H  45.33700 27.07300 32.71100
H  46.81100 27.58100 33.49200
H  45.95400 25.25300 34.86700
H  44.57800 26.21400 34.50400
H  45.87700 19.90600 30.45200
H  45.01300 18.92200 29.12400
H  44.35700 20.32600 29.74200
H  45.94800 17.67100 25.77500
H  45.08700 18.65400 26.94100
H  46.67400 17.95600 27.50000
H  46.24600 24.68700 23.42400
H  48.90200 26.06700 23.34200
H  47.38000 23.46400 21.73800
H  48.29400 22.63000 22.92300
H  48.82800 24.19900 22.27800
H  46.51800 27.78400 23.95600
H  46.34800 26.64100 22.52700
H  47.88000 29.21100 22.90700
H  47.45200 28.36200 21.42400
H  48.92300 27.98600 22.33900
H  49.70300 29.97400 25.93800
H  50.85400 30.08100 27.24500
H  49.30500 30.99800 27.26200
H  47.34200 28.90000 31.69000
H  50.66800 28.75300 34.80300
H  49.35800 27.73600 35.29300
H  49.19800 29.45100 35.56700
Mg -5.26600 24.65100 26.89900
C  -3.89400 26.54000 29.54500
C  -6.81400 22.65900 29.19800
C  -6.45600 22.76900 24.43500
C  -2.94800 26.28800 24.82000
N  -5.17600 24.56500 29.09200
C  -4.73000 25.50600 29.97200
C  -5.16300 25.19500 31.38700
C  -5.69600 23.68700 31.24600
C  -5.93100 23.59900 29.77200
C  -4.72000 22.59300 31.77500
C  -6.20500 26.23100 31.85400
C  -6.63300 26.34300 33.38500
H  -5.88600 25.38300 34.32500
N  -6.61700 23.09600 26.79900
C  -7.16900 22.39700 27.86300
C  -8.15700 21.44100 27.41900
C  -8.09700 21.49300 26.05200
C  -7.04700 22.48300 25.67600
C  -9.12200 20.72300 28.42300
C  -8.99600 20.78900 25.17700
O  -8.99700 21.07400 23.99200
C  -9.87500 19.63500 25.51500
N  -4.81100 24.61000 24.92500
C  -5.40600 23.61100 24.09700
C  -4.73600 23.61500 22.72000
C  -3.64700 24.79800 22.89000
C  -3.75200 25.28300 24.29000
C  -4.21100 22.20700 22.44800
C  -3.69700 25.87100 21.76600
C  -2.37000 26.07800 20.99400
N  -3.61200 26.07100 27.05800
C  -2.86600 26.75500 26.11300
C  -2.24200 27.86900 26.74100
C  -2.51800 27.76900 28.06800
C  -3.45100 26.72500 28.22500
C  -1.36000 28.87400 26.00000
C  -2.27200 28.34900 29.40300
O  -1.48900 29.17400 29.78900
C  -3.23500 27.63900 30.31400
C  -2.40800 27.20000 31.44700
O  -1.53300 26.29200 31.35700
O  -2.77300 27.91100 32.60100
C  -2.03800 27.65600 33.80700
H  -7.25600 22.02800 29.97300
H  -6.80400 22.13400 23.61700
H  -2.38800 26.92700 24.13500
H  -4.27400 25.10000 32.00900
H  -6.67800 23.63500 31.71500
H  -3.87600 22.91600 32.38500
H  -4.49700 21.92400 30.94400
H  -5.21200 21.91500 32.47300
H  -7.16700 26.11100 31.35500
H  -5.88400 27.25700 31.67100
H  -7.69300 26.15900 33.55900
H  -6.41400 27.38200 33.63300
H  -10.16100 20.95900 28.19100
H  -8.90100 20.88800 29.47700
H  -9.05400 19.63600 28.37200
H  -10.40100 19.17600 24.67800
H  -10.70800 19.89600 26.16900
H  -9.21400 18.86800 25.91800
H  -5.57900 23.90700 22.09400
H  -2.66800 24.31800 22.89500
H  -4.12600 21.51000 23.28100
H  -3.33500 22.23400 21.80000
H  -4.96300 21.71600 21.83000
H  -4.01600 26.84400 22.13900
H  -4.46200 25.52100 21.07300
H  -1.57800 25.55600 21.53100
H  -2.13700 27.14200 20.97100
H  -2.44000 25.76300 19.95300
H  -1.76400 29.34700 25.10500
H  -0.55200 28.25100 25.61800
H  -0.92000 29.56900 26.71600
H  -3.99200 28.32800 30.68800
H  -1.47300 26.72500 33.85200
H  -2.81500 27.55600 34.56600
H  -1.43600 28.47000 34.20900

