158

Mg 25.14400 -6.75200 48.29800
C  26.35700 -3.95600 46.55100
C  22.32500 -6.63300 46.24000
C  24.10500 -9.60900 49.61600
C  28.08200 -6.77800 50.07000
N  24.51900 -5.56800 46.45200
C  25.21000 -4.52100 45.99100
C  24.55300 -3.94600 44.69200
C  23.12300 -4.69500 44.78400
C  23.23500 -5.67700 45.89600
C  21.91000 -3.75800 44.78000
C  25.32600 -4.14700 43.42200
C  25.71900 -2.85000 42.67300
H  25.33400 -2.72600 41.13700
N  23.37800 -7.99000 48.02800
C  22.41100 -7.76200 47.14400
C  21.46100 -8.87100 47.29100
C  21.96800 -9.71100 48.29000
C  23.20800 -9.16600 48.71400
C  20.19100 -8.98900 46.50800
C  21.29500 -10.95000 48.79800
O  20.18100 -11.20300 48.35700
C  21.77000 -12.02700 49.77400
N  26.04600 -8.08800 49.60100
C  25.40600 -9.20700 50.07300
C  26.37900 -10.05000 50.92600
C  27.71800 -9.13700 50.94100
C  27.20000 -7.91400 50.17700
C  25.81200 -10.35300 52.41800
C  29.01200 -9.69700 50.35000
C  30.30000 -9.57300 51.12800
N  26.85900 -5.50000 48.43100
C  27.94100 -5.63800 49.23300
C  28.82600 -4.44300 49.00500
C  28.21100 -3.77900 47.92400
C  27.05400 -4.43400 47.63300
C  30.08200 -4.06500 49.72400
C  28.32200 -2.67500 47.06900
O  29.17600 -1.81100 46.96400
C  27.08700 -2.64000 46.14700
C  26.27200 -1.32500 46.20100
O  26.63900 -0.24900 45.78400
O  25.00500 -1.63800 46.71700
C  24.22000 -0.47600 47.12000
H  21.43200 -6.50700 45.62300
H  23.89700 -10.53800 50.15200
H  28.95800 -6.80900 50.72000
H  24.28500 -2.90600 44.87500
H  22.81300 -5.23100 43.88700
H  22.25500 -2.77500 44.46100
H  21.37600 -3.78700 45.72900
H  21.12000 -4.05000 44.08800
H  24.88400 -4.82600 42.69300
H  26.25700 -4.63600 43.70600
H  26.80300 -2.73200 42.67700
H  25.18900 -2.03000 43.15700
H  19.22000 -9.06000 46.99800
H  20.40600 -9.83700 45.85800
H  19.94500 -8.15100 45.85500
H  22.70200 -12.42600 49.37300
H  21.05700 -12.84400 49.88100
H  21.89900 -11.44900 50.68900
H  26.59900 -11.01000 50.45900
H  27.95200 -8.84300 51.96500
H  24.83300 -10.80900 52.27100
H  25.50100 -9.37500 52.78400
H  26.52700 -10.86800 53.06000
H  29.04300 -9.26700 49.34900
H  28.88800 -10.77200 50.22400
H  31.11800 -9.32000 50.45400
H  30.51400 -10.47300 51.70400
H  30.11600 -8.74900 51.81700
H  30.71600 -3.38400 49.15500
H  30.76700 -4.86000 50.01800
H  29.89400 -3.58300 50.68300
H  27.43200 -2.67900 45.11300
H  24.29700 0.32400 46.38300
H  24.56000 -0.04300 48.06100
H  23.27000 -0.91800 47.41900
Mg -10.89200 16.95900 42.08800
C  -7.44100 17.35800 42.46100
C  -11.22200 20.31900 41.50200
C  -13.98200 16.42200 41.39600
C  -10.18700 13.40200 41.78700
N  -9.45600 18.61600 41.83100
C  -8.14600 18.54200 42.26200
C  -7.52400 19.93000 42.13500
C  -8.76800 20.82900 42.48500
C  -9.92600 19.86100 41.92700
C  -9.06800 21.06100 43.97800
C  -6.90500 20.16800 40.66700
C  -5.44300 20.53600 40.57200
H  -4.75100 19.54600 39.76600
N  -12.38600 18.23100 41.38200
C  -12.37700 19.61300 41.30200
C  -13.65700 20.07800 41.01500
C  -14.57500 18.98500 41.03400
C  -13.68600 17.84800 41.29400
C  -13.91700 21.53300 40.70100
C  -16.10700 19.12300 40.88100
O  -16.74100 20.13700 40.71500
C  -16.93000 17.84900 41.10800
N  -11.81200 15.21800 41.45800
C  -13.14400 15.34400 41.49900
C  -13.82600 13.95000 41.74400
C  -12.65500 13.03200 41.57300
C  -11.43900 13.88200 41.61500
C  -14.61400 13.80200 43.07900
C  -12.76900 11.98200 40.41100
C  -12.74000 10.56700 40.87900
N  -9.21900 15.57100 42.18600
C  -9.08400 14.17300 42.03300
C  -7.72400 13.83100 42.30500
C  -7.06900 15.03700 42.51200
C  -8.00400 16.06400 42.41200
C  -7.14000 12.49300 42.33100
C  -5.76900 15.61400 42.65900
O  -4.63100 15.18500 42.65300
C  -5.94700 17.15600 42.67900
C  -5.49500 17.66100 44.03900
O  -5.84900 17.30400 45.15700
O  -4.44800 18.56700 43.79000
C  -3.88600 19.20000 44.99600
H  -11.32900 21.40300 41.57400
H  -15.02800 16.11000 41.43600
H  -10.02100 12.32400 41.74300
H  -6.72600 20.10700 42.85600
H  -8.89500 21.73000 41.88400
H  -8.14500 21.10800 44.55500
H  -9.73800 20.34000 44.44700
H  -9.61900 21.99300 44.10700
H  -7.33500 21.14100 40.43100
H  -7.25500 19.37100 40.01000
H  -4.92600 20.44600 41.52800
H  -5.27300 21.57700 40.29500
H  -13.55700 22.15300 41.52100
H  -14.98000 21.77400 40.67000
H  -13.37400 21.81000 39.79700
H  -18.01200 17.93200 41.21600
H  -16.46600 17.39800 41.98400
H  -16.72700 17.20700 40.25100
H  -14.54800 13.89800 40.92900
H  -12.58800 12.49000 42.51600
H  -14.33200 14.61400 43.74900
H  -14.44800 12.80300 43.48300
H  -15.68600 13.87800 42.89700
H  -11.84300 12.09800 39.84800
H  -13.69100 12.12300 39.84800
H  -12.50300 10.30500 41.91000
H  -11.93200 9.99300 40.42400
H  -13.62500 10.01000 40.57300
H  -6.65800 12.28900 41.37500
H  -7.88200 11.69800 42.39700
H  -6.56700 12.41400 43.25500
H  -5.42000 17.64800 41.86200
H  -3.23800 18.46200 45.46800
H  -4.70400 19.46900 45.66400
H  -3.27700 20.07700 44.77600

