158

Mg 41.70600 41.64900 26.05200
C  41.24300 43.86300 28.80800
C  43.33900 39.48900 28.16100
C  42.05200 39.46200 23.41700
C  40.85300 44.26400 23.90300
N  42.08400 41.57000 28.31900
C  41.82300 42.62800 29.17400
C  42.38000 42.23700 30.59200
C  43.27600 40.99800 30.26100
C  42.94900 40.69000 28.80400
C  44.83000 41.11100 30.55900
C  41.21500 41.94300 31.57400
C  41.45500 42.43500 32.99500
H  40.40600 41.99700 34.02000
N  42.56000 39.80600 25.85000
C  43.13500 39.09000 26.82300
C  43.57600 37.82300 26.31700
C  43.21200 37.77400 24.92700
C  42.53400 39.07300 24.66000
C  44.28900 36.76300 27.08700
C  43.43600 36.61000 23.88000
O  43.31500 36.80800 22.66900
C  43.78900 35.20400 24.29500
N  41.73700 41.97100 23.98000
C  41.79500 40.81800 23.13900
C  41.57500 41.25100 21.72600
C  40.87600 42.72100 21.83800
C  41.24400 43.06900 23.32900
C  42.97100 41.21800 20.98100
C  39.39100 42.73900 21.54600
C  38.35300 42.48500 22.70300
N  41.01400 43.61200 26.24800
C  40.78600 44.53400 25.27400
C  40.37300 45.71300 25.96000
C  40.54900 45.46500 27.29300
C  40.99500 44.19900 27.43900
C  40.04900 46.92200 25.22500
C  40.31200 46.06000 28.62100
O  39.83600 47.14200 28.85200
C  40.72800 45.03700 29.69200
C  41.82800 45.64600 30.55600
O  42.98900 45.73400 30.26700
O  41.23300 46.02700 31.73300
C  42.20100 46.54400 32.71000
H  43.63800 38.71200 28.86900
H  42.08900 38.74900 22.59000
H  40.63500 45.06500 23.19300
H  43.01300 43.02900 30.99200
H  43.02600 40.08300 30.79800
H  45.35600 40.26400 30.11800
H  45.04600 41.18200 31.62500
H  45.26500 42.01800 30.14000
H  41.19900 40.86300 31.72200
H  40.27000 42.39300 31.27000
H  41.45800 43.52500 33.01700
H  42.38400 41.99800 33.36400
H  43.86400 35.78100 26.87800
H  44.26100 36.95400 28.16000
H  45.37800 36.79400 27.05200
H  43.53100 34.42800 23.57500
H  43.20300 34.91100 25.16600
H  44.82400 35.12200 24.62700
H  40.93400 40.58000 21.15400
H  41.39100 43.26900 21.04900
H  43.64300 40.42100 21.30000
H  43.45800 42.16600 21.20800
H  42.72800 41.16100 19.92000
H  39.20100 42.00500 20.76300
H  39.28300 43.69400 21.03200
H  38.91700 42.22300 23.59800
H  37.68200 41.65200 22.49500
H  37.70000 43.34600 22.84400
H  39.37800 46.68500 24.40000
H  40.96900 47.27700 24.76100
H  39.60600 47.69500 25.85400
H  39.84600 44.70700 30.24100
H  42.60800 45.81800 33.41400
H  41.70300 47.18800 33.43600
H  43.01200 47.11200 32.25200
Mg 26.61700 50.49100 26.68000
C  24.94400 52.03000 29.42400
C  29.12300 49.60100 28.98300
C  28.57400 49.20400 24.10100
C  24.57000 52.00700 24.48400
N  26.89400 50.71100 29.00500
C  26.05300 51.27800 29.91500
C  26.50300 51.12900 31.39900
C  27.90900 50.32700 31.19500
C  27.98400 50.17100 29.64600
C  29.02500 50.97900 31.88800
C  25.50400 50.27300 32.30500
C  24.82900 51.16700 33.40300
H  25.73200 51.58900 34.58800
N  28.53700 49.54400 26.48900
C  29.34200 49.22300 27.60200
C  30.59600 48.49800 27.11500
C  30.45000 48.51700 25.65100
C  29.10200 49.06900 25.34600
C  31.67500 48.14300 28.02900
C  31.44700 48.08700 24.57400
O  31.31500 48.24100 23.35200
C  32.65800 47.31500 24.97100
N  26.58100 50.66000 24.58200
C  27.47100 49.98800 23.73200
C  27.03300 50.12100 22.29500
C  25.73800 51.06700 22.33400
C  25.54200 51.18700 23.89600
C  28.29700 50.69500 21.48100
C  24.35500 50.65600 21.62000
C  23.94100 51.60800 20.45100
N  24.99200 51.67400 26.87700
C  24.30800 52.30700 25.84500
C  23.25200 53.10800 26.48800
C  23.47700 53.07000 27.90300
C  24.55700 52.18000 28.04700
C  22.22600 53.88400 25.81300
C  23.06900 53.64000 29.16800
O  22.38200 54.60600 29.40700
C  24.00600 52.94500 30.22400
C  24.67900 54.13700 30.70700
O  25.67400 54.63100 30.21000
O  24.07000 54.59400 31.86000
C  24.62500 55.55200 32.79500
H  29.82400 49.32300 29.77200
H  29.00400 48.72200 23.22000
H  23.88400 52.32400 23.69600
H  26.68600 52.11800 31.81900
H  27.76400 49.33700 31.62800
H  29.23100 50.33000 32.74000
H  28.86800 51.99000 32.26200
H  29.94900 51.05800 31.31600
H  25.99200 49.43900 32.81000
H  24.88500 49.82000 31.53100
H  24.00700 50.54100 33.75100
H  24.38000 52.10300 33.06900
H  31.33000 48.08600 29.06200
H  32.47100 48.87200 27.87800
H  31.95800 47.18600 27.59100
H  33.27600 47.91500 25.63900
H  33.22800 47.10900 24.06500
H  32.39500 46.33500 25.36800
H  26.70300 49.12300 22.00800
H  25.97400 52.04600 21.91700
H  28.84800 49.93000 20.93400
H  28.98900 51.09700 22.22100
H  28.08500 51.50100 20.77900
H  23.53800 50.57000 22.33600
H  24.36300 49.72700 21.05100
H  24.74600 52.30100 20.20700
H  23.16800 52.26800 20.84500
H  23.68900 51.02900 19.56300
H  22.63000 54.53500 25.03800
H  21.71900 54.56000 26.50100
H  21.46300 53.16000 25.52800
H  23.46800 52.47700 31.04900
H  24.92100 56.54600 32.45700
H  25.55900 55.10600 33.13800
H  23.83600 55.54700 33.54700

