158

Mg -0.19000 7.58200 25.17600
C  1.05200 9.56300 27.80600
C  0.03200 4.81900 27.21800
C  -0.98500 5.69300 22.56400
C  0.57000 10.23400 22.98500
N  0.57700 7.24100 27.27100
C  0.64400 8.21100 28.23600
C  0.63000 7.57100 29.64300
C  0.64600 6.04300 29.27800
C  0.43500 6.00800 27.77700
C  1.96100 5.24400 29.69400
C  -0.58400 8.02200 30.40800
C  -0.43400 7.94000 31.97000
H  0.88000 7.51900 32.59700
N  -0.66500 5.55100 24.99100
C  -0.56400 4.49900 25.91300
C  -1.19900 3.35700 25.46800
C  -1.37500 3.62600 24.03300
C  -0.97300 4.98300 23.79800
C  -1.41400 2.18700 26.46500
C  -1.88300 2.66500 23.02900
O  -2.19200 3.03400 21.87800
C  -2.16600 1.25800 23.39000
N  0.09800 7.78600 22.98400
C  -0.50700 6.93000 22.14600
C  -0.74000 7.59800 20.79600
C  -0.04000 8.97700 20.88300
C  0.23700 9.04500 22.39300
C  -0.19000 6.71100 19.57400
C  -0.83700 10.13600 20.38400
C  -2.10000 10.52600 21.23600
N  0.58200 9.56600 25.28000
C  0.78400 10.54500 24.35900
C  1.17500 11.79500 25.04500
C  1.33800 11.41400 26.35100
C  1.02500 10.03400 26.44600
C  1.38200 13.12300 24.35500
C  1.67700 11.92000 27.66800
O  1.99800 13.00800 28.02600
C  1.48500 10.74600 28.68500
C  2.68600 10.53400 29.58000
O  3.43100 9.62100 29.46000
O  2.69600 11.45400 30.60700
C  3.83400 11.44700 31.52200
H  -0.06100 4.04700 27.98500
H  -1.41400 5.22600 21.67500
H  0.78700 11.07900 22.32800
H  1.53700 7.83200 30.18900
H  -0.14300 5.48400 29.78100
H  2.73600 5.80800 30.21300
H  2.32500 4.83900 28.75000
H  1.68200 4.43300 30.36700
H  -1.44700 7.38800 30.20600
H  -0.86400 9.05700 30.21300
H  -1.17100 7.21500 32.31400
H  -0.62900 8.90600 32.43600
H  -0.68900 1.40300 26.24800
H  -2.45200 1.85700 26.49800
H  -1.27100 2.54500 27.48400
H  -1.40800 0.75000 23.98500
H  -2.40300 0.66400 22.50700
H  -3.11500 1.29500 23.92400
H  -1.81700 7.74500 20.72700
H  0.90600 9.02400 20.34300
H  -0.96800 6.02400 19.24000
H  0.52300 5.98200 19.96000
H  0.24300 7.28300 18.75300
H  -1.14800 10.00000 19.34800
H  -0.19100 11.00200 20.24100
H  -2.99100 10.69000 20.63000
H  -1.79600 11.50700 21.60200
H  -2.44900 10.03600 22.14400
H  0.52300 13.52300 23.81600
H  2.14400 13.07200 23.57700
H  1.80000 13.90600 24.98700
H  0.67200 10.98600 29.37000
H  4.73400 11.45700 30.90800
H  3.77800 10.53400 32.11600
H  3.78500 12.29700 32.20200
Mg 27.22500 49.81300 27.35900
C  25.09900 50.98900 29.97300
C  29.27600 48.73200 29.85700
C  29.27900 49.05400 24.89200
C  24.88100 51.04200 25.06600
N  27.09300 49.94700 29.58400
C  26.15900 50.36100 30.50100
C  26.41300 50.03400 31.99800
C  27.73400 49.21000 31.82600
C  28.09400 49.29100 30.32700
C  29.00700 49.55600 32.74800
C  25.27500 49.35500 32.75500
C  24.88300 50.11400 34.08900
H  24.59700 49.30500 35.30000
N  29.07300 49.06000 27.42500
C  29.77900 48.62900 28.49300
C  31.12600 48.26500 28.02100
C  31.17700 48.39800 26.61800
C  29.80000 48.80100 26.25600
C  32.23700 47.85200 29.03500
C  32.31200 48.12200 25.64100
O  32.22300 48.33100 24.41000
C  33.60400 47.64400 26.13300
N  27.12200 50.11700 25.32600
C  27.99700 49.51200 24.51900
C  27.69900 49.56900 23.01600
C  26.20700 50.07200 23.09000
C  26.05400 50.50300 24.53000
C  28.69300 50.38900 22.11800
C  25.06300 49.08200 22.60400
C  23.80600 49.85200 21.96600
N  25.35600 50.86100 27.42000
C  24.51700 51.28400 26.42600
C  23.31500 51.88000 26.99500
C  23.54900 51.85500 28.38000
C  24.80800 51.19400 28.57300
C  22.16700 52.38500 26.19100
C  22.87500 52.11600 29.61200
O  21.72700 52.45600 29.85600
C  23.92000 51.59600 30.66500
C  24.31400 52.72000 31.63000
O  25.26400 53.51300 31.45700
O  23.44200 52.87600 32.70100
C  23.83900 53.86400 33.68700
H  29.85600 48.33000 30.69000
H  29.86000 48.84300 23.99200
H  24.17800 51.33300 24.28300
H  26.65000 50.99200 32.46100
H  27.35800 48.20200 31.99900
H  28.62000 49.92100 33.69900
H  29.69700 50.30600 32.36000
H  29.59300 48.68300 33.03500
H  25.59600 48.35400 33.04300
H  24.42800 49.22600 32.08100
H  23.95500 50.66700 33.94500
H  25.61300 50.84200 34.44200
H  33.20000 48.36200 29.00700
H  32.46300 46.79400 28.90200
H  31.90700 47.98500 30.06600
H  33.20400 46.82300 26.72800
H  34.15800 48.36300 26.73600
H  34.22800 47.33900 25.29200
H  27.70000 48.54300 22.64700
H  26.19500 51.01900 22.55000
H  29.42200 50.84300 22.78900
H  28.19100 51.25000 21.67700
H  29.07000 49.87500 21.23400
H  24.69300 48.51700 23.45900
H  25.38400 48.43600 21.78700
H  23.85400 49.56000 20.91700
H  23.72600 50.93900 21.98100
H  22.82900 49.60300 22.38100
H  21.23900 51.87300 26.44400
H  22.35700 52.53800 25.12900
H  22.00900 53.39200 26.57800
H  23.29600 50.91500 31.24400
H  24.85700 53.59000 33.96300
H  23.09500 53.96000 34.47800
H  23.81800 54.80800 33.14200

