158

Mg 30.76400 58.65800 39.27600
C  28.17400 56.62200 38.45300
C  32.95900 55.79600 38.53300
C  33.20900 60.72200 39.08900
C  28.41600 61.33000 39.58700
N  30.54900 56.47900 38.58400
C  29.32500 55.89700 38.37500
C  29.47900 54.48800 37.85900
C  30.89300 54.12400 38.44200
C  31.57100 55.55300 38.56000
C  30.91000 53.45000 39.88300
C  29.51900 54.46600 36.34700
C  28.91700 53.27500 35.57500
H  28.22300 53.65300 34.29800
N  32.84000 58.34600 38.83900
C  33.53400 57.08500 38.57900
C  34.95800 57.38200 38.46300
C  35.09400 58.86300 38.61800
C  33.70700 59.39000 38.81500
C  35.99600 56.36000 38.17200
C  36.45300 59.63100 38.50700
O  37.54400 59.05300 38.33100
C  36.41500 61.17200 38.51400
N  30.81800 60.80000 39.33500
C  31.99800 61.39000 39.36100
C  31.78900 62.89800 39.60500
C  30.30000 63.08800 40.00100
C  29.79500 61.67000 39.75600
C  32.72100 63.43000 40.72200
C  29.56200 64.17600 39.24900
C  29.36900 64.01800 37.76100
N  28.72300 58.98500 39.15600
C  27.84300 60.03500 39.32900
C  26.46000 59.66900 39.08200
C  26.59700 58.34000 38.72400
C  27.92200 57.94500 38.83800
C  25.31800 60.57200 38.95400
C  25.77800 57.16900 38.33000
O  24.59800 57.15500 38.13600
C  26.76500 55.99700 38.21900
C  26.27700 55.00500 39.19200
O  26.77500 54.76200 40.28500
O  25.22400 54.37700 38.65700
C  24.50000 53.38200 39.41100
H  33.58600 54.91700 38.69700
H  33.99900 61.47500 39.03100
H  27.65800 62.10900 39.69500
H  28.77900 53.74100 38.23300
H  31.36600 53.41200 37.76500
H  29.90900 53.27300 40.27500
H  31.45800 54.03600 40.62000
H  31.38800 52.47500 39.78200
H  30.56200 54.64400 36.08400
H  28.96200 55.34100 36.01300
H  28.11200 52.74000 36.07900
H  29.69800 52.56600 35.30100
H  36.29800 56.36900 37.12500
H  35.68500 55.33200 38.35500
H  36.88700 56.46900 38.78900
H  36.17700 61.53800 39.51300
H  35.71900 61.51600 37.74900
H  37.45500 61.45700 38.35800
H  32.10200 63.41300 38.69600
H  30.33100 63.18600 41.08600
H  32.91200 62.61700 41.42200
H  32.40200 64.34700 41.21700
H  33.66900 63.71200 40.26500
H  30.10400 65.05600 39.59600
H  28.62400 64.01200 39.78000
H  29.37900 64.96900 37.22800
H  28.38700 63.54500 37.75000
H  30.07900 63.39500 37.21700
H  25.65400 61.58200 38.71800
H  24.72100 60.64500 39.86300
H  24.68300 60.20200 38.15000
H  26.85200 55.58300 37.21400
H  24.46300 52.38700 38.96800
H  23.46700 53.70400 39.54400
H  24.83600 53.23800 40.43800
Mg -11.50700 15.86800 41.57100
C  -8.66200 14.02300 41.09900
C  -9.84200 18.71500 40.30200
C  -14.52200 17.52000 41.40800
C  -13.14500 12.86900 42.29200
N  -9.56000 16.27800 40.62400
C  -8.49600 15.37500 40.71100
C  -7.23300 16.03600 40.11200
C  -7.59500 17.55900 40.31500
C  -9.07000 17.53000 40.34700
C  -7.11100 18.17300 41.59700
C  -6.75600 15.67900 38.64500
C  -5.24900 15.61800 38.47400
H  -4.67700 16.16100 37.22200
N  -12.04200 17.83500 40.98500
C  -11.25200 18.87000 40.54600
C  -12.04500 20.09200 40.27000
C  -13.36200 19.77600 40.57900
C  -13.39200 18.28500 41.03100
C  -11.46100 21.29800 39.55800
C  -14.54100 20.67600 40.49400
O  -14.28100 21.81700 40.18700
C  -16.13600 20.32600 40.69400
N  -13.59700 15.32500 41.85300
C  -14.64600 16.14000 41.78200
C  -15.99200 15.41300 41.75200
C  -15.55700 13.97400 42.28900
C  -13.99900 14.04500 42.25100
C  -17.13200 16.04500 42.62600
C  -16.06700 12.84100 41.47700
C  -17.42100 12.92600 40.79800
N  -10.96900 13.82300 41.87600
C  -11.82000 12.75500 42.04700
C  -11.00100 11.56100 42.07400
C  -9.71800 12.04100 41.76800
C  -9.82900 13.39000 41.48100
C  -11.36800 10.19400 42.35900
C  -8.35800 11.65500 41.46200
O  -7.78700 10.59100 41.34800
C  -7.59700 12.94500 41.11700
C  -6.66800 13.29600 42.08700
O  -6.83900 13.54000 43.25600
O  -5.41700 13.08500 41.61300
C  -4.24200 13.23500 42.47000
H  -9.27800 19.64100 40.17600
H  -15.53500 17.87700 41.21500
H  -13.73900 11.96300 42.43000
H  -6.40900 15.89600 40.81100
H  -7.29700 18.17800 39.47000
H  -6.39900 17.51100 42.09000
H  -7.87900 18.34000 42.35200
H  -6.69500 19.14700 41.34100
H  -7.28000 16.30600 37.92400
H  -7.12500 14.65600 38.58000
H  -4.85700 14.61100 38.61100
H  -4.81400 16.28400 39.21900
H  -11.99900 21.50200 38.63200
H  -10.42700 21.24000 39.21600
H  -11.49400 22.19400 40.17700
H  -16.62200 21.30000 40.74500
H  -16.17400 19.74300 41.61400
H  -16.33900 19.75700 39.78700
H  -16.15500 15.37600 40.67500
H  -15.83400 13.79200 43.32700
H  -18.00800 16.14500 41.98500
H  -16.70500 16.98300 42.97900
H  -17.35800 15.40200 43.47600
H  -16.22100 12.05700 42.21800
H  -15.27400 12.60000 40.76900
H  -18.00800 13.71100 41.27500
H  -17.83900 11.94000 41.00200
H  -17.27600 13.16100 39.74400
H  -10.45700 9.65500 42.61900
H  -11.88900 9.71400 41.53000
H  -11.97200 10.20100 43.26700
H  -7.22700 12.84800 40.09600
H  -3.46400 12.66200 41.96700
H  -4.45700 12.86200 43.47100
H  -3.83800 14.24700 42.43200

