158

Mg 8.15500 3.26900 27.42100
C  9.52900 1.72700 30.23100
C  6.64200 5.48200 29.46600
C  6.83500 4.55600 24.74300
C  9.70700 0.73800 25.39900
N  8.00900 3.38100 29.65800
C  8.70400 2.74800 30.59000
C  8.43100 3.35200 31.97100
C  7.43600 4.54600 31.67100
C  7.31600 4.50100 30.16700
C  6.04700 4.55700 32.43400
C  9.65200 3.80500 32.89700
C  9.29500 4.66500 34.07400
H  9.87900 4.48800 35.47300
N  6.71400 4.71100 27.12900
C  6.23600 5.52300 28.08600
C  5.31600 6.48300 27.48400
C  5.43300 6.28800 26.11700
C  6.31600 5.15200 25.89400
C  4.54400 7.44400 28.31600
C  4.74200 7.05100 24.98700
O  4.81800 6.78200 23.76400
C  3.92600 8.25300 25.39300
N  8.27800 2.75100 25.39600
C  7.69500 3.49800 24.43000
C  7.90900 2.96700 23.02600
C  9.08900 1.98700 23.26700
C  9.02600 1.80100 24.74500
C  6.59000 2.51600 22.38900
C  10.46300 2.39900 22.71600
C  11.46100 2.99100 23.70300
N  9.21500 1.45200 27.67700
C  9.79600 0.57800 26.81600
C  10.58700 -0.41600 27.52200
C  10.43900 0.00300 28.85000
C  9.61400 1.15400 28.89500
C  11.47100 -1.51800 26.85400
C  11.05200 -0.17400 30.13500
O  11.93500 -0.94900 30.53400
C  10.51400 0.97800 31.04100
C  9.90400 0.34700 32.27200
O  8.96000 -0.48400 32.19800
O  10.61600 0.62500 33.41700
C  10.26700 -0.00700 34.65100
H  6.27700 6.29700 30.09500
H  6.37000 5.04100 23.88200
H  10.34000 0.21300 24.68000
H  7.91800 2.59500 32.56400
H  7.91800 5.48900 31.92600
H  5.27600 4.83600 31.71700
H  6.15000 5.40900 33.10600
H  5.82200 3.65500 33.00200
H  10.44200 4.20300 32.26000
H  10.03800 2.90200 33.36900
H  8.22800 4.57500 34.27700
H  9.56500 5.68100 33.78700
H  4.80400 8.50000 28.23100
H  4.63000 7.22500 29.38000
H  3.48100 7.42200 28.07400
H  3.63000 8.70900 24.44800
H  4.62600 8.98400 25.79600
H  3.11200 8.03000 26.08300
H  8.23000 3.84200 22.46100
H  8.84600 1.06500 22.73800
H  5.65600 2.56800 22.94800
H  6.74900 1.44400 22.27200
H  6.54200 2.96700 21.39800
H  10.14100 2.91300 21.81000
H  10.98100 1.49400 22.39900
H  12.27400 2.35200 24.04900
H  10.88900 3.38500 24.54300
H  11.89500 3.89300 23.27200
H  12.52300 -1.35800 27.09100
H  11.38500 -1.55700 25.76800
H  11.14900 -2.46500 27.28600
H  11.41200 1.47900 31.40400
H  9.61200 0.68100 35.18600
H  11.17700 -0.04900 35.24900
H  9.84300 -1.00600 34.55100
Mg 0.95600 42.10700 26.11400
C  2.25700 42.11600 29.32800
C  -2.09400 41.01900 27.36000
C  -0.12300 41.72700 22.93600
C  4.08200 43.06100 24.92300
N  0.15500 41.52200 28.14400
C  0.85100 41.76900 29.31300
C  -0.09700 41.50800 30.52700
C  -1.46000 41.04500 29.80100
C  -1.14000 41.27600 28.36800
C  -2.05500 39.59700 30.13400
C  -0.41900 42.78900 31.38900
C  -0.29100 42.61000 32.90700
H  -0.42400 41.10700 33.40600
N  -0.82700 41.37800 25.29600
C  -2.00700 41.09300 25.95600
C  -3.04700 40.74200 24.94900
C  -2.50900 41.02500 23.70000
C  -1.06100 41.34500 23.93600
C  -4.36100 40.27900 25.54200
C  -3.20200 40.90200 22.34000
O  -2.68200 41.35600 21.34300
C  -4.69200 40.47800 22.16400
N  1.92000 42.24900 24.19900
C  1.13700 42.23600 23.04800
C  1.97800 42.67100 21.81200
C  3.29000 43.18600 22.51200
C  3.11100 42.76800 23.93500
C  2.16100 41.53600 20.74300
C  3.35800 44.73500 22.35300
C  3.21500 45.35000 20.93400
N  2.72400 42.56400 26.91400
C  3.92700 42.87700 26.27000
C  4.95200 43.12400 27.27200
C  4.32500 42.72400 28.52800
C  2.98700 42.48000 28.19900
C  6.41700 43.36600 26.98500
C  4.49400 42.59500 29.94000
O  5.51600 42.68000 30.56800
C  3.17600 42.26700 30.56500
C  3.39800 41.00400 31.31700
O  3.36400 39.87800 30.88500
O  3.55300 41.38400 32.61100
C  3.76900 40.27600 33.61600
H  -3.03400 40.75400 27.85000
H  -0.53600 41.68000 21.92600
H  5.01700 43.42200 24.48900
H  0.23700 40.66700 31.13300
H  -2.36400 41.55900 30.12700
H  -2.98400 39.64800 30.70200
H  -1.31900 38.99800 30.67000
H  -2.32300 39.09000 29.20700
H  -1.31300 43.21800 30.93600
H  0.33200 43.49900 31.04300
H  -1.15100 43.14900 33.30300
H  0.69400 42.99800 33.16800
H  -4.54300 40.72700 26.51800
H  -4.40600 39.19200 25.61800
H  -5.12400 40.63800 24.85100
H  -4.84100 39.54500 22.70800
H  -5.09000 40.38500 21.15300
H  -5.35100 41.13800 22.72800
H  1.41700 43.52500 21.43300
H  4.09200 42.80600 21.88000
H  1.42300 40.77200 20.98700
H  3.13400 41.11900 21.00300
H  1.99100 41.99700 19.76900
H  4.29000 45.12000 22.76800
H  2.50300 45.10800 22.91700
H  2.33500 45.98600 20.83600
H  3.17700 44.49600 20.25800
H  3.99200 46.07100 20.67900
H  7.15100 43.01300 27.70900
H  6.49400 44.44500 26.85100
H  6.62400 42.83800 26.05400
H  2.98400 43.07800 31.26700
H  4.32100 40.72300 34.44200
H  4.40900 39.53900 33.13200
H  2.80300 39.90500 33.95800

