158

Mg 1.36600 8.47500 26.90400
C  2.01000 10.20400 29.98700
C  1.37400 5.49400 28.72600
C  1.16600 6.88600 24.00300
C  2.07300 11.47600 25.27300
N  1.75800 7.94600 29.11500
C  1.74300 8.82000 30.18200
C  1.35700 8.20400 31.48900
C  1.35500 6.64400 31.10600
C  1.48600 6.66500 29.57700
C  2.41100 5.84400 31.92400
C  -0.06700 8.73000 31.96900
C  -0.38800 8.52100 33.45100
H  0.77000 8.02700 34.28900
N  1.37600 6.47600 26.42200
C  1.36600 5.37300 27.29500
C  1.20500 4.22200 26.61400
C  0.90600 4.56600 25.27900
C  1.13400 6.02900 25.16300
C  1.16100 2.90100 27.27000
C  0.48000 3.65600 24.09400
O  0.16600 4.09200 22.97000
C  0.51800 2.16400 24.24300
N  1.82300 9.04300 24.96300
C  1.55000 8.22800 23.92600
C  1.50900 8.99000 22.59600
C  1.70200 10.45600 23.03100
C  1.83600 10.32900 24.53600
C  2.63100 8.52200 21.58800
C  0.48100 11.37300 22.63000
C  -0.89200 10.95900 23.17100
N  1.85500 10.47300 27.48400
C  2.06200 11.60400 26.71200
C  2.32900 12.80300 27.56200
C  2.29300 12.31600 28.86700
C  2.01900 10.88100 28.73100
C  2.44300 14.24000 27.17200
C  2.33800 12.62600 30.26700
O  2.71300 13.68300 30.79300
C  2.16500 11.31400 31.02400
C  3.31100 11.12200 32.01400
O  4.45800 10.99200 31.71300
O  2.83100 11.39600 33.27900
C  3.87900 11.31300 34.31900
H  1.29200 4.59700 29.34200
H  0.89600 6.31500 23.11200
H  2.34500 12.42800 24.81100
H  2.15400 8.33900 32.22000
H  0.38600 6.25700 31.42200
H  3.27600 6.48500 32.09600
H  2.77600 4.98200 31.36600
H  1.89600 5.49200 32.81800
H  -0.80400 8.03400 31.56600
H  -0.27300 9.78700 31.80300
H  -1.24400 7.85600 33.57200
H  -0.71300 9.42500 33.96700
H  0.24300 2.33200 27.12600
H  1.43500 2.79700 28.32000
H  1.80300 2.28100 26.64500
H  1.49800 1.87300 24.62200
H  0.33300 1.63300 23.31000
H  -0.26500 1.88600 24.94900
H  0.53100 8.78700 22.16100
H  2.56200 10.93200 22.56200
H  3.19900 9.31400 21.09900
H  2.29100 7.94500 20.72800
H  3.25100 7.78700 22.10100
H  0.39900 11.37200 21.54400
H  0.59200 12.41500 22.93000
H  -0.62600 10.35300 24.03800
H  -1.39100 10.41800 22.36700
H  -1.48100 11.76700 23.60400
H  1.73100 14.89500 27.67600
H  2.34400 14.28900 26.08800
H  3.43900 14.61700 27.40200
H  1.30600 11.31200 31.69500
H  4.20700 12.31800 34.58400
H  4.72100 10.70000 33.99600
H  3.46200 10.84800 35.21200
Mg 31.03600 58.33200 39.75400
C  28.31400 56.49800 38.71800
C  33.07800 55.53100 39.08700
C  33.67700 60.25400 40.13400
C  28.95700 61.23000 39.92800
N  30.70400 56.25600 38.82800
C  29.50200 55.74800 38.61500
C  29.68900 54.20400 38.29000
C  31.15500 53.90400 38.46700
C  31.69300 55.30400 38.81900
C  31.53500 52.87200 39.47100
C  29.25500 53.75600 36.92200
C  29.78300 54.51800 35.69800
H  28.67100 55.17700 34.79900
N  33.18200 57.95800 39.46900
C  33.78800 56.77300 39.19300
C  35.23000 56.96900 39.27100
C  35.41000 58.29400 39.70700
C  34.09200 58.91800 39.76700
C  36.28300 55.89900 38.96200
C  36.66800 58.93100 39.97900
O  37.66800 58.22400 40.00500
C  36.87000 60.49000 40.25700
N  31.30700 60.46900 39.87100
C  32.46200 60.95600 40.21500
C  32.47600 62.48400 40.52900
C  30.96400 62.72500 40.70300
C  30.33200 61.51600 40.04700
C  33.41900 63.08700 41.60800
C  30.42300 64.07800 40.01200
C  29.61600 64.96600 41.00100
N  29.02200 58.87200 39.43800
C  28.32200 60.02000 39.59300
C  26.92500 59.76200 39.38700
C  26.83200 58.38100 39.01900
C  28.10100 57.87300 39.08600
C  25.78400 60.80900 39.44300
C  25.94200 57.30100 38.66100
O  24.72400 57.36900 38.45100
C  26.82700 56.03300 38.56700
C  26.32600 55.03100 39.54400
O  26.76600 54.81100 40.67100
O  25.42400 54.18400 38.93000
C  25.11100 52.96200 39.67500
H  33.68300 54.63600 38.92600
H  34.45600 60.94400 40.46300
H  28.22800 61.98400 40.23100
H  29.17700 53.58200 39.02500
H  31.62700 53.51900 37.56300
H  31.64700 51.88600 39.02000
H  30.88900 52.76300 40.34200
H  32.47400 53.13500 39.95700
H  28.17100 53.70200 36.81900
H  29.60900 52.73200 36.80800
H  30.35300 53.87300 35.02900
H  30.35500 55.39400 36.00300
H  36.59900 56.08400 37.93500
H  35.82700 54.90900 38.95600
H  37.03600 55.88600 39.74900
H  36.62700 60.73600 41.29000
H  36.35200 61.13100 39.54400
H  37.93000 60.74000 40.21600
H  32.71200 62.84300 39.52700
H  30.72200 62.64500 41.76300
H  32.80500 63.55400 42.37800
H  34.18100 63.69800 41.12400
H  34.04000 62.38200 42.16100
H  29.82400 63.88200 39.12200
H  31.20900 64.71200 39.60100
H  28.60600 64.91500 40.59500
H  29.98500 65.99100 40.95900
H  29.77300 64.57000 42.00400
H  25.69900 61.25200 38.45100
H  25.83900 61.59500 40.19600
H  24.90600 60.17700 39.58000
H  26.75700 55.50800 37.61500
H  24.68100 52.21200 39.01100
H  24.27800 53.15400 40.35200
H  25.86600 52.37200 40.19400

