158

Mg 44.59600 3.13900 47.32400
C  42.53600 6.08600 46.82400
C  41.99700 1.15800 46.70200
C  46.73200 0.71600 46.96200
C  47.35100 5.52600 47.30400
N  42.51400 3.62500 46.79400
C  41.87000 4.90400 46.59300
C  40.41000 4.69800 46.25200
C  40.14700 3.12600 46.53300
C  41.66000 2.55900 46.70400
C  39.30200 2.84400 47.78600
C  40.28600 5.03600 44.77600
C  39.19200 6.10100 44.48300
H  39.42300 7.04400 43.23500
N  44.38000 1.17200 46.97900
C  43.22000 0.48200 46.83700
C  43.53700 -0.96000 46.65200
C  44.93300 -1.10300 46.67100
C  45.37700 0.25200 46.95700
C  42.50400 -2.07800 46.38100
C  45.70900 -2.42700 46.42800
O  45.10900 -3.50100 46.04500
C  47.22000 -2.62900 46.49500
N  46.77000 3.16900 47.12400
C  47.35800 1.93900 47.08100
C  48.93200 2.08500 46.88100
C  49.08900 3.63700 47.21500
C  47.67000 4.15800 47.19900
C  49.87800 1.09700 47.60400
C  50.10300 4.41400 46.28700
C  51.39900 4.96900 46.85800
N  44.92800 5.35300 47.27200
C  46.08800 6.08900 47.29100
C  45.84700 7.49100 47.12000
C  44.41400 7.51300 47.05200
C  43.91200 6.24400 47.15100
C  46.82100 8.55300 46.94600
C  43.30800 8.34300 46.77100
O  43.24900 9.55200 46.70500
C  42.01700 7.47800 46.62400
C  41.06600 7.91100 47.70100
O  41.21300 7.68400 48.91900
O  40.09400 8.63500 47.20200
C  39.10600 9.30400 48.08400
H  41.14400 0.50000 46.52000
H  47.43700 -0.11600 46.91800
H  48.22700 6.17800 47.29500
H  39.75200 5.31200 46.86700
H  39.62000 2.48600 45.82600
H  38.89700 3.81300 48.07800
H  39.99400 2.49000 48.55100
H  38.52200 2.11500 47.56500
H  39.99900 4.10200 44.29100
H  41.24900 5.35800 44.37900
H  38.85600 6.68700 45.33900
H  38.42300 5.35500 44.28200
H  42.51500 -2.22500 45.30100
H  41.52700 -1.60100 46.45400
H  42.63100 -3.01600 46.92200
H  47.80700 -2.17200 45.69700
H  47.44900 -3.69300 46.54700
H  47.58600 -2.20200 47.42900
H  49.06000 1.81800 45.83200
H  49.35800 3.87400 48.24500
H  50.46200 0.49000 46.91300
H  49.31100 0.47200 48.29400
H  50.58400 1.68200 48.19400
H  49.58100 5.25400 45.83000
H  50.46800 3.75800 45.49600
H  51.31600 6.04600 47.00900
H  52.23000 4.59100 46.26300
H  51.64100 4.39600 47.75300
H  46.63000 9.19700 47.80500
H  46.57300 9.23000 46.12800
H  47.89600 8.37300 46.96800
H  41.69700 7.75500 45.62000
H  38.91400 10.26600 47.60800
H  39.54000 9.56400 49.05000
H  38.14300 8.80400 48.19500
Mg 52.90200 23.25800 44.66200
C  50.57100 25.73000 43.73000
C  50.98300 20.90000 43.10400
C  55.53000 21.23600 44.78700
C  55.01000 25.90700 45.73000
N  51.15300 23.33200 43.29700
C  50.30700 24.47100 43.03700
C  49.28600 24.05200 42.04600
C  49.13300 22.57800 42.36600
C  50.53000 22.19400 42.94600
C  47.99300 22.16200 43.22700
C  49.75300 24.27600 40.59700
C  48.67600 24.44500 39.52200
H  49.06400 25.33300 38.35000
N  53.10500 21.24600 44.18500
C  52.19900 20.46400 43.57300
C  52.73900 19.10700 43.60500
C  54.05100 19.15900 44.05400
C  54.31300 20.62500 44.42800
C  51.96400 18.03400 43.06400
C  54.96400 18.03400 44.12000
O  54.67500 16.96900 43.59500
C  56.26100 18.08900 44.78100
N  54.94800 23.58300 45.06900
C  55.84300 22.56000 45.09900
C  57.24900 22.95500 45.61200
C  57.04300 24.47200 45.91000
C  55.59700 24.67100 45.51500
C  57.84800 22.11100 46.79200
C  58.04600 25.45300 45.30200
C  57.81000 26.05200 43.94800
N  52.81800 25.41500 44.77200
C  53.72900 26.26300 45.41500
C  53.15500 27.58100 45.54400
C  51.85800 27.43100 44.92900
C  51.75500 26.10200 44.42800
C  53.71600 28.81600 46.22600
C  50.66200 28.08000 44.57800
O  50.39400 29.30100 44.67600
C  49.72800 27.05100 43.81800
C  49.51500 27.63000 42.55200
O  50.41300 28.10500 41.88300
O  48.13900 27.58800 42.30100
C  47.70900 28.11300 41.04500
H  50.39300 20.13900 42.58900
H  56.39200 20.60700 45.01900
H  55.65000 26.69600 46.13000
H  48.37800 24.60900 42.27600
H  48.97000 22.10300 41.39800
H  47.42200 23.03700 43.54000
H  48.21200 21.55700 44.10700
H  47.25800 21.67800 42.58400
H  50.45700 23.49400 40.31400
H  50.38600 25.16300 40.59000
H  47.69200 24.72900 39.89600
H  48.45200 23.43600 39.17500
H  52.21800 17.84000 42.02200
H  50.89800 18.23300 43.17700
H  52.10400 17.10800 43.62100
H  56.14100 18.62500 45.72200
H  56.98000 18.52000 44.08400
H  56.55200 17.08500 45.08900
H  57.81300 22.87200 44.68300
H  57.11900 24.56000 46.99400
H  58.52300 21.33900 46.42200
H  56.97600 21.52000 47.07500
H  58.13100 22.70200 47.66300
H  58.97100 24.87900 45.25000
H  58.16000 26.31100 45.96500
H  56.92800 25.62300 43.47300
H  58.65500 25.84600 43.29200
H  57.48700 27.09200 43.99600
H  53.29100 28.63200 47.21300
H  53.39300 29.79700 45.87700
H  54.80200 28.86000 46.30500
H  48.76700 26.97100 44.32700
H  47.35400 29.14300 41.06000
H  47.04400 27.44200 40.50100
H  48.60200 28.16100 40.42300

