158

Mg 8.09100 3.39200 27.19700
C  9.26300 1.93800 30.20200
C  5.89200 5.24400 29.06000
C  6.81300 4.34500 24.38800
C  9.75000 0.79400 25.42600
N  7.73500 3.66600 29.39900
C  8.38400 3.03400 30.45300
C  7.91600 3.71900 31.74800
C  6.76800 4.68000 31.36600
C  6.80300 4.56900 29.86800
C  5.42600 4.26800 31.96000
C  9.13900 4.31200 32.52900
C  9.51700 3.71400 33.90900
H  9.59400 4.68200 35.09600
N  6.71700 4.71900 26.75900
C  5.91500 5.43900 27.65000
C  5.15000 6.40500 26.92700
C  5.41800 6.16300 25.54500
C  6.35200 5.04900 25.52800
C  4.19000 7.34800 27.75300
C  4.85900 6.83900 24.22400
O  5.03300 6.45500 23.07500
C  3.83700 7.91800 24.40100
N  8.12600 2.50900 25.19700
C  7.61300 3.22600 24.14400
C  7.94600 2.69500 22.76800
C  8.90600 1.51700 23.07900
C  8.92900 1.53800 24.61900
C  6.77300 2.24000 21.94700
C  10.39000 1.72500 22.60400
C  10.88200 0.77800 21.54400
N  9.31100 1.79300 27.69600
C  9.98000 0.88100 26.85700
C  10.74100 -0.07600 27.62800
C  10.52100 0.36600 28.98400
C  9.58400 1.42800 28.93200
C  11.52200 -1.26900 27.07400
C  10.87700 0.09600 30.37500
O  11.66200 -0.68900 30.84800
C  10.10700 1.09300 31.25000
C  9.21800 0.43200 32.28700
O  8.27500 -0.23500 32.06000
O  9.78000 0.57800 33.53600
C  8.91600 0.04100 34.65300
H  5.27600 5.95500 29.61400
H  6.47300 4.68300 23.40700
H  10.28900 0.05100 24.83400
H  7.56400 2.84200 32.29100
H  7.03700 5.71900 31.55600
H  4.65000 4.15000 31.20400
H  5.08600 5.06100 32.62600
H  5.58300 3.39700 32.59700
H  8.92700 5.37300 32.66700
H  10.03800 4.33400 31.91400
H  10.48100 3.21600 33.80300
H  8.74200 2.97200 34.10200
H  4.74100 7.79900 28.57900
H  3.31500 6.79600 28.09500
H  3.87900 8.08400 27.01100
H  3.40700 8.08500 23.41300
H  4.34400 8.76200 24.86800
H  3.00100 7.58000 25.01300
H  8.40500 3.50100 22.19500
H  8.51700 0.53300 22.82100
H  6.73600 1.18200 21.68900
H  6.83600 2.74800 20.98400
H  5.87700 2.58200 22.46400
H  11.17700 1.62600 23.35100
H  10.42400 2.72800 22.18100
H  11.73100 1.25600 21.05600
H  10.18000 0.46400 20.77200
H  11.16400 -0.09100 22.13700
H  11.93000 -0.86600 26.14600
H  10.90700 -2.16000 26.95100
H  12.28700 -1.39000 27.84100
H  10.79200 1.80400 31.71200
H  8.15800 -0.67200 34.32900
H  8.38300 0.90100 35.05800
H  9.56000 -0.18500 35.50400
Mg 48.24800 35.16000 28.24200
C  46.49100 33.53000 30.74000
C  48.80500 37.67600 30.40900
C  49.49000 37.07000 25.70600
C  47.33600 32.81100 25.92500
N  47.75700 35.49000 30.35800
C  47.05500 34.70700 31.24900
C  47.14800 35.24000 32.63900
C  47.55400 36.69800 32.51500
C  48.08500 36.70300 31.03100
C  46.48000 37.73400 32.67600
C  48.25400 34.45500 33.41400
C  48.06100 34.26200 34.93900
H  47.04800 35.12400 35.75100
N  49.16400 37.04200 28.10900
C  49.36600 37.84800 29.17300
C  50.08900 39.01700 28.82600
C  50.02300 39.01300 27.39900
C  49.53100 37.70100 26.99000
C  50.54300 40.01300 29.75600
C  50.42300 40.12200 26.41900
O  50.53900 39.94700 25.19400
C  50.93900 41.47300 26.83600
N  48.37200 34.97200 26.07000
C  48.98900 35.85600 25.24800
C  49.12200 35.31500 23.81400
C  48.40900 33.95600 23.86700
C  48.00700 33.88600 25.35900
C  48.38700 36.29000 22.86700
C  49.28000 32.81800 23.41500
C  48.72000 31.75100 22.52400
N  47.22300 33.46600 28.30500
C  46.86800 32.60300 27.24100
C  46.15500 31.48400 27.84900
C  45.92800 31.80400 29.20200
C  46.52700 33.05400 29.41700
C  45.82600 30.18600 27.08200
C  45.26400 31.39000 30.40000
O  44.64500 30.38300 30.56700
C  45.46200 32.60700 31.41100
C  45.83000 32.08400 32.70200
O  46.90000 31.46500 32.87400
O  44.89200 32.31600 33.61900
C  45.16100 31.90200 34.99800
H  48.96500 38.48600 31.12300
H  49.88500 37.69000 24.89900
H  47.12600 32.02100 25.20100
H  46.23500 35.05400 33.20300
H  48.43000 36.98100 33.09900
H  46.83600 38.66000 33.12800
H  45.84600 37.38300 33.48900
H  45.99400 37.86600 31.70900
H  49.21800 34.96300 33.41000
H  48.36200 33.44000 33.03100
H  49.04800 34.27000 35.40100
H  47.83500 33.19700 34.98900
H  50.74000 39.62500 30.75600
H  49.68500 40.67300 29.88400
H  51.33600 40.63400 29.33900
H  50.42600 41.72300 27.76500
H  50.80400 42.21800 26.05200
H  51.97400 41.51300 27.17500
H  50.20600 35.42900 23.79200
H  47.43800 34.04500 23.38200
H  47.34800 36.51900 23.10500
H  48.46400 35.90200 21.85100
H  48.91800 37.24200 22.87400
H  49.64300 32.43800 24.37000
H  50.24000 33.22100 23.09100
H  49.40300 31.78300 21.67500
H  47.67300 31.92500 22.27400
H  48.73600 30.70800 22.84000
H  45.88400 30.49000 26.03600
H  44.83600 29.84400 27.38500
H  46.60600 29.49300 27.39800
H  44.46600 33.05100 31.43500
H  44.21500 31.61600 35.45700
H  45.54800 32.71800 35.60800
H  45.76200 30.99500 34.92500

