158

Mg 48.92100 46.68700 42.56900
C  45.78600 47.24600 41.34200
C  48.84200 43.62400 41.13100
C  52.31200 46.57800 43.25100
C  49.22200 50.32400 43.06900
N  47.50000 45.67100 41.14300
C  46.22900 45.98500 41.00600
C  45.50800 44.90900 40.16800
C  46.41800 43.62800 40.37100
C  47.69600 44.33000 40.89500
C  45.84500 42.53000 41.36900
C  45.36400 45.24400 38.61500
C  44.00300 45.21000 37.92500
H  43.89000 44.35100 36.68000
N  50.38600 45.23700 42.31500
C  50.14500 44.03000 41.68400
C  51.37200 43.18900 41.72200
C  52.28800 44.03200 42.42100
C  51.68600 45.36900 42.65700
C  51.46800 41.76400 41.16700
C  53.78000 43.53700 42.81000
O  54.05200 42.38600 42.53500
C  54.77100 44.38400 43.53000
N  50.54800 48.24000 43.02300
C  51.77900 47.87200 43.34600
C  52.61700 49.04600 43.89700
C  51.74000 50.31900 43.63000
C  50.42400 49.65900 43.11700
C  52.90500 48.83900 45.40000
C  52.35300 51.38400 42.65200
C  52.30700 52.86100 43.08800
N  47.74100 48.40600 42.41300
C  47.96200 49.82000 42.73800
C  46.63800 50.48300 42.67700
C  45.74900 49.51000 42.13500
C  46.50500 48.29100 41.92100
C  46.26500 51.88200 43.04300
C  44.44100 49.27700 41.61700
O  43.44900 49.99300 41.64800
C  44.41400 47.77600 41.03100
C  43.27600 47.01200 41.60600
O  42.41500 46.45900 40.97000
O  43.52200 46.86400 42.96300
C  42.62000 46.02900 43.70400
H  48.99900 42.59100 40.81300
H  53.36700 46.40800 43.47700
H  49.32500 51.38100 43.32400
H  44.55400 44.77000 40.67700
H  46.63500 43.06500 39.46300
H  45.68500 41.55200 40.91400
H  44.90300 42.92500 41.74800
H  46.51500 42.22800 42.17500
H  46.08900 44.66500 38.04400
H  45.67500 46.27900 38.46800
H  43.75100 46.23500 37.65200
H  43.24000 44.88300 38.63100
H  52.50900 41.48700 40.99500
H  51.01800 41.76800 40.17400
H  51.00000 41.09400 41.88800
H  55.71400 43.84500 43.44100
H  54.39200 44.61800 44.52500
H  54.94300 45.31000 42.98200
H  53.62800 49.19700 43.51700
H  51.48700 50.90600 44.51300
H  52.65500 47.81300 45.67000
H  52.30700 49.46500 46.06200
H  53.98500 48.84000 45.54100
H  51.94600 51.26300 41.64800
H  53.41200 51.18700 42.48200
H  52.67300 52.98600 44.10700
H  51.32200 53.30800 42.95800
H  52.99300 53.40300 42.43600
H  46.95800 52.53000 42.50700
H  46.36800 51.95600 44.12600
H  45.24600 52.19300 42.81500
H  44.35600 47.95800 39.95800
H  41.58500 46.31500 43.51700
H  42.90600 46.17900 44.74600
H  42.77700 45.00900 43.35600
Mg 49.14400 35.08100 26.99100
C  47.16800 33.70800 29.52900
C  49.38500 38.01500 28.87000
C  50.71200 36.44000 24.42900
C  48.37200 32.30200 25.05800
N  48.28400 35.78700 28.84300
C  47.61000 35.00200 29.75400
C  47.73100 35.65100 31.13800
C  48.11100 37.14500 30.89500
C  48.49400 37.02200 29.38500
C  46.89700 38.06000 31.07200
C  48.92300 34.94200 31.93400
C  48.77600 34.89100 33.44600
H  47.65000 35.74600 34.19800
N  49.97900 36.87400 26.74100
C  50.03300 37.92700 27.64800
C  50.86500 39.02200 27.09000
C  51.23900 38.62600 25.74300
C  50.61300 37.27800 25.59600
C  51.40800 40.13900 27.89200
C  52.11700 39.32600 24.79500
O  52.32200 38.87600 23.68800
C  52.98000 40.57000 25.20100
N  49.26600 34.53200 24.87700
C  50.13700 35.23700 24.12500
C  50.54500 34.45600 22.96300
C  50.08800 33.01900 23.27800
C  49.14200 33.25900 24.41300
C  50.20400 35.05200 21.51100
C  51.21400 32.10300 23.62800
C  51.12600 30.58400 23.16100
N  47.94700 33.29300 27.12600
C  47.69100 32.29800 26.30000
C  46.95400 31.17600 26.92400
C  46.58100 31.76800 28.15900
C  47.27800 33.02200 28.26600
C  46.75800 29.80000 26.41300
C  45.91200 31.54100 29.45800
O  45.19600 30.62900 29.82100
C  46.18000 32.82100 30.36400
C  46.62900 32.31700 31.69800
O  47.74000 31.91600 31.86800
O  45.57800 32.31700 32.54200
C  45.78800 31.89000 33.90500
H  49.54400 38.94900 29.41200
H  51.49700 36.75100 23.73600
H  48.33400 31.32400 24.57400
H  46.77200 35.60100 31.65300
H  48.86300 37.52400 31.58800
H  46.00900 37.57500 31.47800
H  46.55200 38.29500 30.06500
H  47.14200 38.96700 31.62600
H  49.90000 35.37100 31.71400
H  48.96000 33.93900 31.50900
H  49.67300 35.09200 34.03100
H  48.39500 33.88500 33.62400
H  51.08100 41.07900 27.44800
H  52.46700 40.04000 28.12800
H  51.09700 40.16900 28.93600
H  53.53300 40.60100 24.26300
H  53.61300 40.52900 26.08800
H  52.26500 41.39200 25.20200
H  51.63300 34.39600 22.94800
H  49.52800 32.43500 22.54700
H  49.50400 34.39000 21.00100
H  51.07800 35.13500 20.86500
H  49.73900 36.03400 21.60200
H  51.34800 32.18900 24.70600
H  52.20900 32.46400 23.36700
H  50.27900 30.52100 22.47900
H  50.90400 29.92700 24.00300
H  52.04300 30.22000 22.69800
H  47.29400 29.10200 27.05600
H  47.10700 29.77300 25.38100
H  45.69300 29.56700 26.39200
H  45.25400 33.37400 30.52100
H  45.65100 30.80900 33.95400
H  44.96600 32.28900 34.49900
H  46.80000 32.05300 34.27500

