158

Mg 1.05200 -0.89800 42.47200
C  4.51500 -0.43500 41.70100
C  0.36800 1.95300 41.08400
C  -2.12400 -1.90600 42.65900
C  1.97300 -4.22700 43.53400
N  2.32200 0.56400 41.47500
C  3.66300 0.60800 41.20600
C  4.11600 1.95300 40.67900
C  2.81500 2.80600 40.84300
C  1.77700 1.69800 41.07600
C  2.88400 3.86300 41.94700
C  4.56000 1.71600 39.18400
C  5.85300 2.38900 38.73500
H  5.89400 3.50400 37.69200
N  -0.64100 -0.01800 42.03700
C  -0.73200 1.13800 41.37800
C  -2.12500 1.49000 41.23500
C  -2.90300 0.41500 41.78000
C  -1.90400 -0.62000 42.14000
C  -2.51900 2.85100 40.72200
C  -4.39700 0.41500 42.00900
O  -5.10100 1.26500 41.55900
C  -5.06600 -0.66400 42.75800
N  0.05900 -2.88300 43.07600
C  -1.24500 -2.91300 43.11000
C  -1.79500 -4.27600 43.45600
C  -0.40800 -5.01500 43.89800
C  0.64400 -4.03300 43.47400
C  -2.78700 -4.20900 44.65000
C  -0.10200 -6.43700 43.33600
C  -1.22200 -7.21300 42.67100
N  2.81100 -2.14000 42.51100
C  3.01100 -3.39200 43.06400
C  4.41400 -3.75300 43.08500
C  5.01300 -2.65200 42.44300
C  4.03600 -1.66200 42.24100
C  4.99200 -4.91700 43.80400
C  6.29700 -2.14700 41.99300
O  7.31000 -2.81600 42.09600
C  6.03300 -0.63400 41.56100
C  6.81500 0.43100 42.28000
O  6.46000 1.01100 43.33100
O  7.88000 0.90100 41.52400
C  8.56800 2.07800 42.07500
H  0.07100 2.86500 40.56100
H  -3.19500 -2.11600 42.62200
H  2.27700 -5.11300 44.09500
H  4.96100 2.36400 41.23200
H  2.56600 3.28100 39.89400
H  2.39100 3.44600 42.82500
H  2.48100 4.78700 41.53100
H  3.95100 3.96600 42.14700
H  3.80300 2.20800 38.57300
H  4.51100 0.65100 38.95900
H  6.40400 1.54900 38.31300
H  6.45200 2.69000 39.59400
H  -3.52500 2.89100 40.30500
H  -1.80300 3.26600 40.01300
H  -2.51000 3.49500 41.60100
H  -5.15000 -1.58100 42.17400
H  -6.05900 -0.40900 43.12800
H  -4.50300 -0.72500 43.68900
H  -2.19100 -4.70500 42.53500
H  -0.42500 -5.03200 44.98800
H  -3.64500 -4.81500 44.35900
H  -3.17600 -3.20300 44.80800
H  -2.52100 -4.63100 45.61900
H  0.11800 -7.06000 44.20300
H  0.77300 -6.56200 42.69800
H  -1.23600 -8.28000 42.89000
H  -1.05800 -7.20300 41.59300
H  -2.20700 -6.80200 42.89300
H  4.66800 -5.84000 43.32300
H  4.59500 -5.03600 44.81300
H  6.06700 -4.84400 43.97200
H  6.29800 -0.46100 40.51800
H  9.04600 1.94400 43.04600
H  8.02600 3.02000 41.98100
H  9.39000 2.23400 41.37700
Mg 24.71900 -6.02700 47.19500
C  26.40900 -3.24100 45.92500
C  22.28400 -5.45100 44.94400
C  23.30900 -8.97900 48.20300
C  27.75500 -7.08400 48.70000
N  24.45100 -4.57500 45.47400
C  25.24500 -3.52200 45.14400
C  24.71600 -2.76900 43.96300
C  23.32900 -3.41400 43.74600
C  23.32300 -4.56500 44.71200
C  22.11000 -2.44500 43.97500
C  25.76100 -2.81000 42.79600
C  25.32000 -3.12700 41.38000
H  26.27300 -2.99600 40.19100
N  22.96100 -7.06500 46.74800
C  22.12400 -6.61100 45.75200
C  20.95100 -7.45500 45.74400
C  21.22700 -8.56500 46.63100
C  22.60500 -8.24900 47.21800
C  19.75100 -7.32000 44.98700
C  20.22600 -9.65000 47.03800
O  19.15600 -9.73400 46.49100
C  20.68000 -10.81000 47.94100
N  25.41700 -7.82900 48.12800
C  24.57100 -8.74600 48.58600
C  25.29300 -9.65400 49.56200
C  26.77300 -9.28000 49.41700
C  26.63900 -7.98500 48.70900
C  24.70800 -9.52100 51.01100
C  27.68200 -10.22100 48.60600
C  29.07600 -10.58700 49.28800
N  26.56400 -5.20800 47.59800
C  27.72000 -5.76300 48.21500
C  28.86000 -4.84300 48.03000
C  28.30000 -3.79400 47.23300
C  26.96800 -4.09900 46.90400
C  30.33100 -5.00200 48.67500
C  28.73500 -2.55800 46.51100
O  29.75000 -1.95000 46.45200
C  27.44700 -2.16100 45.61400
C  27.05000 -0.77800 46.03500
O  26.76300 -0.43900 47.19700
O  27.04000 0.04900 44.95500
C  26.82400 1.48900 45.19200
H  21.38200 -5.30600 44.34500
H  23.05400 -10.01500 48.43500
H  28.71300 -7.46300 49.06400
H  24.67400 -1.73500 44.30700
H  23.20900 -3.73000 42.71000
H  22.43300 -1.49100 44.39200
H  21.33700 -2.82700 44.64200
H  21.66200 -2.22800 43.00600
H  26.44000 -3.59500 43.12900
H  26.36600 -1.92100 42.61700
H  24.48200 -2.43100 41.34200
H  24.97000 -4.15900 41.41400
H  19.69600 -6.42600 44.36600
H  18.89800 -7.38400 45.66200
H  19.77200 -8.22800 44.38500
H  21.52500 -11.22400 47.39000
H  19.84500 -11.50900 47.88900
H  20.88500 -10.44400 48.94700
H  25.14100 -10.69700 49.28300
H  27.19100 -9.15300 50.41500
H  23.91800 -10.25200 51.18300
H  24.22100 -8.56700 51.20900
H  25.46600 -9.81100 51.73800
H  27.90000 -9.81700 47.61800
H  27.11400 -11.13000 48.40500
H  29.21400 -11.66400 49.38200
H  29.12100 -10.20800 50.30900
H  29.85600 -10.16800 48.65200
H  30.34000 -4.43400 49.60500
H  31.00000 -4.65700 47.88700
H  30.67100 -6.03000 48.80100
H  27.69800 -2.17400 44.55400
H  25.99700 1.81400 44.56100
H  27.69400 2.07800 44.90100
H  26.47300 1.76500 46.18600

