158

Mg 0.84200 8.44800 26.15900
C  1.81500 9.99900 29.20600
C  0.84000 5.47500 27.91900
C  0.19800 6.78000 23.24800
C  1.26900 11.31900 24.49100
N  1.35100 7.81900 28.32500
C  1.60300 8.63200 29.41200
C  1.58800 7.83900 30.71500
C  1.37000 6.36500 30.34700
C  1.14500 6.53400 28.80400
C  2.45800 5.37500 30.66600
C  0.60900 8.34500 31.79500
C  1.14400 8.36900 33.26000
H  2.37900 7.57700 33.61400
N  0.42600 6.40300 25.70000
C  0.48500 5.33800 26.61400
C  0.12900 4.13300 25.91600
C  -0.04000 4.42100 24.51000
C  0.24200 5.94100 24.42200
C  0.10500 2.76700 26.57800
C  -0.13300 3.52500 23.32300
O  -0.01600 3.98300 22.18300
C  -0.34800 2.06400 23.48000
N  0.88200 8.92400 24.13100
C  0.45600 8.12600 23.15600
C  0.32900 8.89800 21.81300
C  0.69100 10.36900 22.22900
C  0.96800 10.23500 23.73500
C  1.24800 8.24300 20.72500
C  -0.27300 11.58800 21.88700
C  -1.08100 11.44200 20.56700
N  1.37200 10.28900 26.71900
C  1.53900 11.44000 25.88700
C  1.91100 12.59900 26.72300
C  2.05200 12.02000 28.00900
C  1.75300 10.65700 27.93800
C  2.05800 14.02300 26.26900
C  2.41100 12.36500 29.39200
O  2.67800 13.38100 30.00900
C  2.01300 11.09400 30.19600
C  3.11400 10.77300 31.15700
O  4.07100 10.06700 30.94400
O  2.91500 11.43400 32.34100
C  3.98100 11.61800 33.30600
H  0.92000 4.52900 28.45900
H  -0.08200 6.39400 22.26500
H  1.48300 12.22700 23.92300
H  2.63100 7.96900 31.00500
H  0.39300 6.01300 30.67900
H  2.75300 4.78800 29.79600
H  2.00400 4.64400 31.33500
H  3.36300 5.81000 31.08900
H  -0.29300 7.73500 31.84900
H  0.33600 9.38000 31.58700
H  0.37400 7.95300 33.91000
H  1.22000 9.39100 33.63100
H  1.09600 2.31600 26.53100
H  -0.61400 2.10100 26.10200
H  -0.30500 2.79100 27.58800
H  -0.33600 1.63300 22.48000
H  -1.31300 1.77300 23.89600
H  0.51700 1.75300 24.06500
H  -0.70400 8.78000 21.48600
H  1.70600 10.61200 21.91500
H  1.54200 9.08800 20.10100
H  0.69100 7.54700 20.09700
H  2.20000 7.84600 21.07800
H  0.34500 12.47100 21.72400
H  -0.95800 11.66700 22.73000
H  -0.69100 12.16600 19.85200
H  -2.14800 11.61000 20.71100
H  -0.98200 10.43500 20.16100
H  2.70500 14.70700 26.81800
H  1.06000 14.45800 26.20900
H  2.45400 13.92000 25.25900
H  1.14600 11.37500 30.79400
H  4.29800 12.66100 33.29900
H  4.85700 11.01400 33.07100
H  3.58700 11.37600 34.29400
Mg 42.35700 41.20000 25.73500
C  41.70700 43.62600 28.08600
C  43.21400 39.09000 28.27900
C  43.10800 38.95800 23.33100
C  41.37500 43.48300 23.18400
N  42.59400 41.43000 27.93000
C  42.07600 42.42300 28.66400
C  42.11900 42.01900 30.17300
C  42.80700 40.68800 30.18400
C  42.88700 40.39700 28.73500
C  44.11900 40.67300 31.00900
C  40.73500 42.06300 31.00600
C  40.61800 41.37200 32.37100
H  41.10700 42.30900 33.50300
N  43.15600 39.31400 25.81100
C  43.42400 38.58800 26.94900
C  43.78900 37.28900 26.58000
C  43.79000 37.23300 25.14200
C  43.39800 38.54300 24.65700
C  43.98100 36.20400 27.65200
C  44.12900 36.07800 24.23900
O  44.07300 36.19700 22.97100
C  44.49400 34.75900 24.87100
N  42.25300 41.23600 23.56400
C  42.50400 40.14400 22.81900
C  42.30900 40.41000 21.31300
C  41.55500 41.77800 21.35100
C  41.66900 42.19200 22.78100
C  43.69300 40.48400 20.55100
C  40.13300 41.69200 20.74200
C  39.20200 40.81900 21.68900
N  41.92300 43.18600 25.63900
C  41.51300 43.99300 24.49600
C  41.11300 45.27900 24.96100
C  41.17900 45.25500 26.35600
C  41.64800 43.91600 26.72600
C  40.55200 46.27100 24.08100
C  40.91500 45.93400 27.62500
O  40.55800 47.10600 27.89900
C  41.18400 44.85500 28.83500
C  42.17400 45.51600 29.66000
O  43.36900 45.40700 29.53400
O  41.56700 46.08600 30.76400
C  42.48300 46.21600 31.94900
H  43.34700 38.34200 29.06300
H  43.39700 38.20700 22.59300
H  40.98300 44.09700 22.37100
H  42.86900 42.70400 30.57000
H  42.12200 39.97800 30.64600
H  44.81600 41.38600 30.56800
H  44.48800 39.65000 30.93200
H  43.95400 40.95200 32.04900
H  40.04100 41.54700 30.34200
H  40.41300 43.09800 31.11800
H  41.19600 40.45100 32.44800
H  39.61300 41.04700 32.63700
H  43.44000 35.33200 27.28500
H  43.54700 36.32600 28.64500
H  45.03900 35.97900 27.78600
H  44.83700 34.14200 24.04000
H  43.57700 34.39300 25.33200
H  45.35500 34.81100 25.53800
H  41.67000 39.66600 20.83800
H  42.10500 42.46400 20.70600
H  44.44300 40.64800 21.32400
H  43.82900 41.39400 19.96700
H  43.87800 39.64300 19.88200
H  40.08700 41.28000 19.73400
H  39.76100 42.71500 20.68300
H  38.51100 40.23300 21.08300
H  38.58500 41.46500 22.31500
H  39.71700 40.08800 22.31200
H  41.36800 46.77600 23.56600
H  39.97500 47.04200 24.59100
H  39.98400 45.69900 23.34700
H  40.23800 44.84000 29.37600
H  43.07000 45.30000 32.02200
H  41.87000 46.20000 32.85000
H  43.12100 47.08900 31.81100

