158

Mg -0.27600 7.53100 25.48500
C  0.60900 9.57500 28.07900
C  -0.38700 4.83200 27.69200
C  -0.40400 5.31500 22.85700
C  0.13800 10.13600 23.21500
N  0.14200 7.24400 27.60800
C  0.43100 8.24200 28.53200
C  0.63000 7.68100 29.96400
C  0.45300 6.15100 29.69400
C  0.09000 6.01700 28.22100
C  1.75300 5.23700 29.91100
C  -0.48600 8.22600 30.86100
C  -0.17700 8.14000 32.35800
H  1.04000 7.40700 32.92700
N  -0.35800 5.31800 25.28700
C  -0.45900 4.43500 26.31900
C  -0.73200 3.17400 25.79900
C  -0.60900 3.24400 24.35300
C  -0.45600 4.64700 24.05500
C  -0.96700 2.02600 26.69300
C  -0.63100 2.18000 23.35700
O  -0.29900 2.43000 22.20000
C  -1.07900 0.78000 23.73600
N  0.08700 7.66300 23.30700
C  -0.20000 6.67300 22.49200
C  -0.50300 7.13800 21.06800
C  -0.53800 8.67300 21.22800
C  -0.11500 8.88800 22.65600
C  0.53600 6.65400 20.04600
C  -1.92300 9.22900 20.90800
C  -1.88300 10.61700 20.22300
N  0.28400 9.51800 25.58000
C  0.32800 10.46000 24.62300
C  0.62300 11.73700 25.17400
C  0.76900 11.48900 26.59900
C  0.48300 10.08100 26.77900
C  0.81600 12.98500 24.40500
C  1.14300 12.03900 27.95600
O  1.66200 13.07500 28.23900
C  0.85400 10.88900 28.96400
C  2.07200 10.81800 29.84000
O  3.18600 10.39000 29.49700
O  1.68100 11.12000 31.14900
C  2.75700 11.24800 32.16200
H  -0.68700 3.99200 28.32300
H  -0.46500 4.65000 21.99300
H  0.10300 11.01400 22.56700
H  1.59600 8.05400 30.30400
H  -0.34500 5.75400 30.32100
H  1.58800 4.19800 30.19600
H  2.41300 5.79700 30.57300
H  2.14600 5.07800 28.90700
H  -1.43600 7.72200 30.68700
H  -0.75900 9.22600 30.52400
H  -0.98000 7.64200 32.90100
H  -0.16500 9.19600 32.62400
H  -0.45800 2.02900 27.65600
H  -0.45600 1.16600 26.26100
H  -2.04100 1.83800 26.67500
H  -0.24100 0.25700 24.19700
H  -1.26100 0.27300 22.78900
H  -1.97000 0.67300 24.35500
H  -1.45700 6.65800 20.85000
H  0.15600 9.08000 20.49400
H  1.25100 7.33000 19.57700
H  0.13800 6.05700 19.22500
H  1.17900 5.86500 20.43500
H  -2.53400 9.37900 21.79800
H  -2.41900 8.52100 20.24400
H  -1.92500 10.54400 19.13600
H  -1.01400 11.18900 20.54800
H  -2.72600 11.12900 20.68700
H  1.80400 12.99100 23.94500
H  0.52000 13.88900 24.93800
H  0.06800 12.99800 23.61300
H  -0.00500 11.16300 29.57600
H  2.66800 12.27400 32.51900
H  3.72600 10.94700 31.76400
H  2.52400 10.50300 32.92300
Mg 8.08800 3.36700 27.51200
C  8.99100 1.58500 30.36000
C  6.19900 5.43900 29.47200
C  7.10500 5.02400 24.67600
C  9.72500 1.10300 25.53700
N  7.51100 3.45100 29.73100
C  8.17400 2.72300 30.68600
C  7.84000 3.31800 32.09800
C  7.06400 4.57200 31.72400
C  6.90300 4.48400 30.21700
C  5.66600 4.73800 32.49400
C  9.11100 3.60900 32.99600
C  8.93200 4.71600 34.15100
H  9.55600 4.52200 35.49600
N  6.83300 4.99900 27.18300
C  6.07500 5.61300 28.09600
C  5.15600 6.52600 27.45700
C  5.54000 6.55100 26.04300
C  6.53100 5.54300 25.91300
C  4.00500 7.34900 28.13300
C  4.97900 7.48500 24.99700
O  5.56400 7.51700 23.92100
C  3.83900 8.42400 25.21000
N  8.47000 3.15200 25.30600
C  7.93900 3.93800 24.39000
C  8.12600 3.36100 22.95000
C  9.18300 2.23500 23.26800
C  9.09200 2.10800 24.80900
C  6.75200 2.88700 22.28200
C  10.59300 2.47100 22.68100
C  11.22600 1.15200 22.20400
N  9.21900 1.75600 27.86600
C  9.89200 0.95700 26.93200
C  10.63500 -0.12700 27.68100
C  10.42700 0.20300 29.00900
C  9.35400 1.22500 29.03500
C  11.65500 -1.09300 27.15200
C  10.89100 -0.09100 30.41900
O  11.67500 -0.90800 30.93300
C  9.92500 0.72700 31.29800
C  9.24300 -0.28600 32.21400
O  8.24800 -0.92600 31.87900
O  9.82100 -0.30100 33.40400
C  9.32800 -1.46100 34.26800
H  5.80000 6.26600 30.06300
H  6.80000 5.59000 23.79400
H  10.24700 0.36800 24.92200
H  7.26100 2.49800 32.52100
H  7.69900 5.43900 31.90500
H  5.61500 5.69800 33.00900
H  5.38900 4.00300 33.25000
H  4.90800 4.62400 31.72000
H  9.96200 3.80200 32.34300
H  9.40200 2.68900 33.50300
H  7.86600 4.68500 34.37700
H  9.18800 5.67500 33.70200
H  4.27200 8.40500 28.09000
H  3.96400 7.16400 29.20600
H  3.05400 7.03300 27.70600
H  3.70900 9.00300 24.29600
H  3.96700 9.12600 26.03400
H  2.92700 7.82600 25.20800
H  8.54300 4.05800 22.22400
H  8.77000 1.27900 22.94800
H  5.93500 3.49900 22.66500
H  6.57500 1.82200 22.42800
H  6.91300 3.17500 21.24300
H  11.25400 2.84700 23.46200
H  10.61300 3.26500 21.93400
H  10.62000 0.32100 22.56500
H  12.23100 0.95400 22.57500
H  11.27900 0.90200 21.14400
H  12.14200 -1.73600 27.88600
H  12.35500 -0.53400 26.53100
H  11.15100 -1.83700 26.53500
H  10.64200 1.26400 31.91800
H  10.12500 -1.54800 35.00600
H  9.30300 -2.37000 33.66700
H  8.37400 -1.28700 34.76600

