158

Mg 35.84200 1.79900 29.59500
C  33.51100 2.75500 32.09300
C  38.22300 1.63800 32.02700
C  38.11100 1.16900 27.24900
C  33.38400 2.48500 27.22900
N  35.74800 2.05300 31.82400
C  34.70500 2.42500 32.63800
C  35.13300 2.58700 34.12600
C  36.70400 2.46700 33.98600
C  36.90600 2.01200 32.56300
C  37.49500 3.73600 34.42900
C  34.53100 1.41800 34.96800
C  34.30700 1.65800 36.49200
H  35.02400 2.86500 37.17900
N  37.88800 1.38700 29.66400
C  38.69700 1.29200 30.74400
C  40.06100 0.95300 30.32200
C  40.09800 0.85200 28.90500
C  38.66500 1.10900 28.51800
C  41.14200 0.92900 31.43200
C  41.28600 0.52300 27.98700
O  41.17000 0.56000 26.77100
C  42.65500 0.20300 28.48900
N  35.78500 1.90000 27.59500
C  36.81300 1.51300 26.76100
C  36.43700 1.49000 25.27600
C  34.86100 1.57500 25.31700
C  34.62200 2.11000 26.79800
C  37.01500 2.74800 24.59100
C  34.09000 0.24200 24.89700
C  33.84100 -0.72700 26.03900
N  33.88100 2.35500 29.61800
C  33.02200 2.63200 28.59200
C  31.76900 3.05100 29.06400
C  31.89000 3.10800 30.45500
C  33.18700 2.67500 30.71600
C  30.55400 3.33500 28.23400
C  31.19800 3.34400 31.71200
O  29.96700 3.46700 31.95500
C  32.25200 3.15700 32.82700
C  32.41100 4.42700 33.65500
O  33.13000 5.36800 33.36800
O  31.58800 4.33700 34.79700
C  31.63900 5.51800 35.60000
H  38.95600 1.52300 32.82800
H  38.76500 0.94500 26.40400
H  32.54400 2.57600 26.53700
H  34.92500 3.55900 34.57400
H  37.02700 1.60700 34.57400
H  36.89400 4.40900 35.04100
H  37.96900 4.29900 33.62400
H  38.28500 3.44100 35.11900
H  35.22400 0.57900 34.90300
H  33.63700 1.12500 34.41800
H  34.70900 0.73600 36.91200
H  33.23800 1.76500 36.67600
H  42.05900 0.43900 31.10500
H  40.74000 0.50200 32.35100
H  41.31800 1.97200 31.69500
H  42.94600 1.04300 29.12000
H  43.33900 0.21900 27.64100
H  42.66200 -0.78800 28.94300
H  36.76500 0.51100 24.92600
H  34.38600 2.25900 24.61400
H  37.39700 2.42900 23.62100
H  37.76600 3.14600 25.27300
H  36.20600 3.46100 24.43300
H  34.81000 -0.15500 24.18200
H  33.15700 0.48300 24.38800
H  34.78800 -1.25700 26.14000
H  33.09800 -1.46900 25.74800
H  33.65800 -0.25800 27.00600
H  30.23100 2.44200 27.70000
H  30.75700 4.17800 27.57300
H  29.79800 3.78400 28.87900
H  31.88700 2.30800 33.40600
H  32.61300 5.74000 36.03500
H  31.02200 5.40800 36.49200
H  31.46100 6.46000 35.08100
Mg -8.86600 18.51800 42.39900
C  -5.34000 18.23500 42.10800
C  -8.43600 21.92800 41.76900
C  -12.00900 18.68300 42.02200
C  -8.94600 14.92700 42.25000
N  -7.04800 19.89900 42.03200
C  -5.76400 19.54800 41.95800
C  -4.87200 20.77300 41.73600
C  -5.81200 21.99200 41.81100
C  -7.15600 21.26300 41.96500
C  -5.54000 23.06300 42.94300
C  -4.09400 20.76800 40.39800
C  -4.87800 20.56800 39.09400
H  -4.26000 19.81200 37.92800
N  -10.05700 20.12600 42.12500
C  -9.76100 21.39500 41.78400
C  -10.99000 22.17000 41.41700
C  -12.02800 21.23600 41.62700
C  -11.39100 19.91400 41.91800
C  -10.96800 23.63000 41.06200
C  -13.42100 21.60500 41.44700
O  -13.73700 22.76600 41.25700
C  -14.66500 20.70000 41.44500
N  -10.19600 16.89600 41.85600
C  -11.52700 17.34400 42.01700
C  -12.55700 16.12700 41.83000
C  -11.52200 14.92200 41.76500
C  -10.13700 15.62600 41.88300
C  -13.68300 16.06700 43.02600
C  -11.56300 14.02400 40.50200
C  -11.86400 12.49500 40.76800
N  -7.49000 16.83100 42.29700
C  -7.66800 15.48500 42.36600
C  -6.33500 14.84800 42.51200
C  -5.35400 15.87900 42.29600
C  -6.17500 17.07000 42.23900
C  -6.09900 13.38800 42.70500
C  -3.95600 16.17900 42.23800
O  -2.93900 15.48500 42.32000
C  -3.88000 17.69300 42.07000
C  -3.14100 18.28900 43.28300
O  -2.12300 18.97900 43.22500
O  -3.74800 18.12300 44.51000
C  -3.16800 18.76600 45.68500
H  -8.32000 22.99300 41.55400
H  -13.08700 18.81500 41.91000
H  -9.05700 13.84300 42.31200
H  -4.18400 20.70200 42.57900
H  -5.77000 22.52400 40.86000
H  -6.45200 23.26700 43.50400
H  -5.10700 23.95300 42.48700
H  -4.75000 22.77800 43.63800
H  -3.28800 20.04600 40.53600
H  -3.56600 21.70300 40.21300
H  -4.97200 21.59600 38.74300
H  -5.88800 20.19300 39.26100
H  -10.94900 23.80400 39.98600
H  -10.00600 24.06900 41.32900
H  -11.80100 24.16000 41.52300
H  -14.63900 20.13100 42.37400
H  -14.76400 20.04000 40.58300
H  -15.47600 21.41700 41.31200
H  -12.97000 16.36200 40.84900
H  -11.55300 14.30800 42.66500
H  -13.40300 16.65300 43.90100
H  -13.77400 15.00000 43.23000
H  -14.66600 16.29000 42.61000
H  -10.65600 14.02600 39.89900
H  -12.23800 14.54300 39.82100
H  -12.17100 12.32100 41.79900
H  -10.97200 11.91300 40.53700
H  -12.59700 12.05100 40.09400
H  -6.99400 12.82600 42.43500
H  -5.89900 13.35700 43.77600
H  -5.16900 13.10800 42.21200
H  -3.39100 18.01900 41.15200
H  -3.77600 19.50200 46.21100
H  -2.18800 19.23500 45.58500
H  -3.21600 17.87800 46.31500

