158

Mg 1.90200 -1.29400 44.61200
C  5.35900 -0.61700 44.11600
C  1.18600 1.77100 43.01000
C  -1.17600 -2.24400 44.42000
C  2.90700 -4.51700 45.82100
N  3.14600 0.29800 43.61400
C  4.53000 0.38300 43.60400
C  4.97300 1.67900 42.79800
C  3.74300 2.64200 42.87500
C  2.60800 1.53500 43.18600
C  3.76300 3.73900 44.04500
C  5.49500 1.42400 41.39400
C  6.70600 2.15600 40.89100
H  6.67000 3.21800 39.71600
N  0.24100 -0.35500 43.90400
C  0.14300 0.85400 43.26300
C  -1.17000 1.11800 42.91300
C  -1.96300 0.05800 43.42200
C  -0.97000 -0.91400 43.98600
C  -1.55600 2.35900 42.27200
C  -3.46100 -0.08100 43.36100
O  -4.16400 0.76000 42.81700
C  -4.20700 -1.13100 44.12800
N  1.02400 -3.14900 44.99100
C  -0.34400 -3.22300 44.89300
C  -0.82700 -4.59500 45.37200
C  0.40600 -5.22600 46.04700
C  1.54400 -4.27400 45.66800
C  -2.07000 -4.45700 46.28200
C  0.63200 -6.82100 45.69100
C  1.01100 -7.71800 46.88200
N  3.70100 -2.38800 44.91300
C  3.96900 -3.61200 45.48900
C  5.39700 -3.85600 45.54900
C  5.98900 -2.65500 45.06800
C  4.87600 -1.78800 44.70300
C  6.04700 -5.15000 45.80900
C  7.27000 -1.93500 44.82800
O  8.46900 -2.17700 45.04800
C  6.85700 -0.59100 44.12600
C  7.32100 0.51500 44.92800
O  7.06300 0.82800 46.09200
O  8.04400 1.32400 44.08900
C  8.25600 2.66600 44.63800
H  0.95900 2.79600 42.71300
H  -2.23500 -2.51100 44.39000
H  3.11800 -5.43800 46.36800
H  5.69800 2.22400 43.40200
H  3.45000 3.02600 41.89800
H  3.41000 3.35700 45.00300
H  3.06600 4.54500 43.82000
H  4.78600 4.10100 44.15500
H  4.79100 1.72500 40.61800
H  5.76500 0.38700 41.19000
H  7.46700 1.46600 40.52700
H  7.07700 2.64500 41.79200
H  -2.56400 2.54000 42.64400
H  -1.60000 2.39000 41.18300
H  -0.99800 3.21800 42.64600
H  -5.26600 -0.88800 44.21600
H  -3.76100 -1.20100 45.12000
H  -4.00800 -2.09200 43.65300
H  -1.03200 -5.10000 44.42800
H  0.38300 -5.04600 47.12100
H  -2.16800 -5.40200 46.81600
H  -2.84700 -4.16600 45.57500
H  -2.19000 -3.73500 47.08900
H  1.31100 -6.85300 44.83900
H  -0.30700 -7.16700 45.25800
H  1.86800 -8.36600 46.70100
H  0.16800 -8.38500 47.06300
H  1.05300 -7.15000 47.81200
H  5.56700 -5.96200 45.26200
H  5.84800 -5.32400 46.86600
H  7.12400 -5.22600 45.66000
H  7.21400 -0.59200 43.09600
H  7.31300 3.21300 44.63200
H  8.95900 3.14600 43.95700
H  8.67200 2.58600 45.64300
Mg 26.89500 50.26800 26.02900
C  24.78100 51.51600 28.51500
C  28.90800 49.06800 28.49900
C  28.94200 49.22600 23.57100
C  24.73500 51.84700 23.63900
N  26.83400 50.32000 28.25400
C  25.85500 50.83800 29.03100
C  26.06900 50.57500 30.55700
C  27.51000 49.98600 30.52100
C  27.81100 49.86000 29.00500
C  28.68100 50.78100 31.22800
C  25.00400 49.53400 31.13100
C  24.46400 49.93800 32.55000
H  25.46500 50.57600 33.58200
N  28.63200 49.23200 25.99300
C  29.28700 48.79500 27.13300
C  30.57100 48.28000 26.76600
C  30.56900 48.28500 25.32900
C  29.29500 48.93200 24.90300
C  31.59500 47.79800 27.75300
C  31.56100 47.71400 24.39800
O  31.48200 47.76400 23.14900
C  32.85100 47.05600 24.89400
N  26.74100 50.39500 23.94600
C  27.73000 49.86300 23.17900
C  27.41100 50.01800 21.68200
C  26.06700 50.84500 21.71700
C  25.80400 51.06700 23.20600
C  28.59800 50.85100 20.97300
C  24.75300 50.30200 20.99100
C  24.03600 49.14900 21.65900
N  25.10800 51.47600 26.02400
C  24.38600 51.97900 25.01600
C  23.22700 52.73400 25.53300
C  23.33900 52.58400 26.91700
C  24.51700 51.83000 27.18100
C  22.25900 53.44000 24.72000
C  22.69000 52.97900 28.14700
O  21.69300 53.66200 28.28600
C  23.54700 52.21600 29.21800
C  23.95900 53.24600 30.22500
O  24.95800 53.93600 30.17100
O  23.10400 53.36500 31.29700
C  23.50200 54.30800 32.36200
H  29.59800 48.82400 29.30900
H  29.56300 48.83500 22.76200
H  24.16600 52.35900 22.86000
H  26.11600 51.55400 31.03400
H  27.63400 49.01100 30.99400
H  28.40500 51.78000 31.56800
H  29.53500 50.84800 30.55500
H  29.00800 50.28800 32.14300
H  25.40800 48.52200 31.16300
H  24.16000 49.38000 30.45900
H  23.92500 49.10400 33.00000
H  23.76100 50.75700 32.40100
H  32.61500 48.09600 27.51200
H  31.51600 46.71100 27.79600
H  31.40500 48.11100 28.77900
H  33.54700 46.70000 24.13400
H  32.56300 46.28300 25.60600
H  33.38500 47.84500 25.42200
H  27.15700 49.03300 21.29200
H  26.38500 51.82100 21.35000
H  29.36000 51.29500 21.61300
H  28.25400 51.68500 20.36200
H  29.04600 50.11900 20.30000
H  25.24600 50.00500 20.06500
H  24.04200 51.11800 20.86400
H  23.13800 49.61300 22.06800
H  24.65500 48.72600 22.45100
H  23.96900 48.34500 20.92600
H  21.78300 52.83900 23.94600
H  22.72000 54.27200 24.18700
H  21.53500 53.90400 25.39000
H  22.79600 51.63000 29.74800
H  24.11900 55.15800 32.07200
H  24.19400 53.81700 33.04600
H  22.55300 54.64500 32.77800

