158

Mg 2.30500 -2.44200 43.38800
C  5.46000 -1.05400 42.68200
C  0.85900 0.18200 41.69600
C  -0.62800 -4.06500 43.74500
C  3.96500 -5.18200 44.73600
N  3.13600 -0.73500 42.15800
C  4.41900 -0.31200 42.13800
C  4.63800 0.99700 41.40400
C  3.17600 1.42400 41.25300
C  2.26200 0.26200 41.79600
C  2.71500 2.81100 41.86200
C  5.42700 0.97900 40.06700
C  5.94000 2.38900 39.58700
H  5.87600 2.82800 38.14100
N  0.43200 -2.05100 42.69700
C  -0.00500 -0.85200 42.13800
C  -1.40100 -0.87000 41.86100
C  -1.86000 -2.14300 42.41400
C  -0.70300 -2.81700 43.01500
C  -2.13800 0.27200 41.15400
C  -3.33800 -2.57000 42.52200
O  -4.29400 -1.93400 42.05400
C  -3.69200 -3.83300 43.19400
N  1.77000 -4.52000 43.94000
C  0.46100 -4.85600 44.13700
C  0.33100 -6.17600 44.89300
C  1.81400 -6.53400 45.22000
C  2.56900 -5.32700 44.59000
C  -0.69900 -6.09600 46.09100
C  2.36500 -7.87800 44.78200
C  2.70400 -7.98100 43.32100
N  4.26300 -3.03600 43.67900
C  4.75600 -4.09400 44.35600
C  6.16000 -3.95900 44.52700
C  6.45800 -2.75700 43.92200
C  5.25700 -2.25000 43.38300
C  7.04900 -4.95800 45.26300
C  7.57400 -1.90800 43.63300
O  8.75900 -2.01600 43.92700
C  6.92700 -0.77300 42.89600
C  7.16700 0.38400 43.74900
O  6.57800 0.74400 44.74300
O  8.19300 1.11500 43.19000
C  8.47600 2.45000 43.81600
H  0.42800 1.06900 41.22600
H  -1.47700 -4.73800 43.88600
H  4.52600 -5.93500 45.29300
H  5.15100 1.65200 42.10800
H  3.06400 1.42100 40.16800
H  2.00700 3.32400 41.21200
H  3.57700 3.46100 42.01200
H  2.21200 2.64900 42.81500
H  4.81900 0.60100 39.24600
H  6.39700 0.51300 40.24400
H  7.00900 2.47200 39.78000
H  5.37400 3.08000 40.21100
H  -1.86400 0.28300 40.09900
H  -1.86700 1.26700 41.50800
H  -3.21800 0.24300 41.30200
H  -3.40900 -4.76500 42.70700
H  -4.77600 -3.88000 43.29800
H  -3.37600 -3.80800 44.23700
H  -0.10200 -6.79600 44.10800
H  1.92400 -6.57500 46.30400
H  -0.23500 -6.15600 47.07500
H  -1.17200 -7.07100 45.97700
H  -1.41200 -5.27100 46.06500
H  1.61800 -8.64700 44.97900
H  3.25300 -8.11200 45.36900
H  2.39600 -7.18400 42.64400
H  2.25200 -8.90400 42.95900
H  3.77300 -8.11300 43.15200
H  6.49100 -5.63100 45.91500
H  7.90800 -4.40300 45.64000
H  7.50900 -5.69200 44.60100
H  7.44900 -0.55300 41.96500
H  7.54300 2.99600 43.96000
H  9.03000 2.94900 43.02100
H  9.05400 2.29200 44.72700
Mg 49.80600 46.24000 42.51900
C  46.56100 46.54200 41.11900
C  49.94700 43.04600 41.20900
C  53.12200 46.22200 42.79600
C  49.84900 49.71700 42.98400
N  48.37300 45.02700 41.29300
C  47.14200 45.32900 40.80000
C  46.47700 44.17000 39.98000
C  47.53900 43.05400 40.13100
C  48.69400 43.71200 41.00000
C  47.04600 41.75200 40.72400
C  46.10700 44.65400 38.51500
C  44.71200 44.52600 38.04000
H  44.46000 43.50100 36.90400
N  51.26200 44.74600 42.27600
C  51.10600 43.54600 41.73100
C  52.33200 42.75600 41.88200
C  53.37800 43.63700 42.26100
C  52.63400 44.92600 42.47200
C  52.46400 41.25600 41.61600
C  54.84600 43.30100 42.46100
O  55.34500 42.21400 42.12800
C  55.77100 44.42200 43.08200
N  51.26400 47.69300 42.79900
C  52.54800 47.42900 42.98200
C  53.41900 48.70500 43.22400
C  52.36300 49.81500 43.08500
C  51.04900 48.99900 43.02200
C  54.20200 48.79100 44.58500
C  52.43700 50.65000 41.75700
C  52.48000 52.19000 41.93600
N  48.44500 47.85400 42.35400
C  48.57800 49.19800 42.65800
C  47.29200 49.81200 42.49100
C  46.52400 48.79700 41.90900
C  47.26000 47.67200 41.74100
C  46.98600 51.28400 42.70200
C  45.13400 48.56900 41.40400
O  44.16400 49.26000 41.44400
C  45.16600 47.09700 40.78800
C  44.21700 46.30600 41.64200
O  44.25100 46.10000 42.93000
O  43.12200 45.81200 40.87000
C  42.00400 45.18500 41.67500
H  50.04800 42.02000 40.85000
H  54.19100 46.35200 42.97900
H  49.93200 50.80500 43.00400
H  45.62300 43.86000 40.58000
H  47.95900 42.74800 39.17200
H  47.11700 40.96700 39.97200
H  46.00500 41.89800 41.01200
H  47.63400 41.64100 41.63500
H  46.73800 44.05600 37.85800
H  46.44800 45.68000 38.37800
H  44.15200 45.44200 37.85100
H  44.20100 44.05100 38.87800
H  51.50500 40.74200 41.68600
H  53.05100 40.83400 42.43200
H  52.90800 41.05000 40.64100
H  55.90000 45.19100 42.32000
H  56.74600 43.95800 43.23000
H  55.44900 44.70500 44.08400
H  54.20400 48.71400 42.46900
H  52.29100 50.41600 43.99200
H  54.77200 47.87700 44.75200
H  53.54700 48.99900 45.43100
H  54.90500 49.62300 44.54000
H  51.49500 50.47500 41.23900
H  53.16900 50.28200 41.03700
H  53.43300 52.51700 41.51900
H  52.41600 52.46300 42.98900
H  51.66600 52.56100 41.31300
H  47.42300 51.84500 41.87500
H  47.48100 51.71100 43.57500
H  45.90900 51.44800 42.72300
H  44.90000 47.12300 39.73200
H  41.25300 45.12800 40.88700
H  41.57100 45.79700 42.46700
H  42.26900 44.24900 42.16700

