158

Mg 25.21700 -7.57800 46.70700
C  27.99100 -5.52500 45.91300
C  23.39000 -5.73500 44.43100
C  23.03600 -10.02100 46.72000
C  27.38100 -9.58500 48.53500
N  25.69300 -5.77800 45.31700
C  26.87000 -5.12900 45.17200
C  26.75800 -3.90600 44.26000
C  25.26700 -3.91500 43.85200
C  24.73100 -5.19700 44.62000
C  24.39500 -2.69400 44.13700
C  27.68400 -3.96800 43.03100
C  28.21100 -2.71800 42.36300
H  27.82000 -2.65600 40.93500
N  23.49800 -7.83000 45.69900
C  22.84000 -6.97600 44.82300
C  21.66800 -7.68100 44.30500
C  21.53000 -8.91900 44.97900
C  22.72800 -8.99100 45.82700
C  20.65100 -7.01500 43.36400
C  20.35500 -9.92000 44.70100
O  19.34700 -9.56700 44.10300
C  20.36100 -11.25200 45.27300
N  25.17800 -9.43700 47.61700
C  24.15900 -10.26300 47.49600
C  24.50500 -11.66500 47.85600
C  25.83500 -11.46500 48.64300
C  26.20300 -10.11000 48.15700
C  23.45300 -12.47600 48.57300
C  26.94500 -12.58000 48.33400
C  27.82500 -12.90700 49.48600
N  27.27800 -7.50400 47.27400
C  27.96200 -8.34600 48.15300
C  29.27800 -7.78400 48.46300
C  29.33200 -6.74000 47.52600
C  28.11600 -6.66300 46.80200
C  30.29300 -8.39900 49.43900
C  30.18500 -5.58900 47.17000
O  31.29700 -5.29300 47.55800
C  29.36800 -4.79700 46.03800
C  29.29700 -3.38100 46.38900
O  28.88500 -2.89900 47.43000
O  29.65100 -2.67200 45.25500
C  29.23000 -1.24700 45.24400
H  22.75000 -5.12400 43.79100
H  22.25300 -10.78000 46.79100
H  27.93400 -10.19900 49.24900
H  26.94000 -2.97700 44.80000
H  24.96200 -4.10100 42.82200
H  23.94900 -2.34700 43.20500
H  25.11300 -1.89500 44.32100
H  23.69300 -2.82700 44.96000
H  27.09300 -4.39400 42.22000
H  28.49300 -4.61000 43.37900
H  29.29700 -2.77800 42.44100
H  27.98100 -1.78100 42.87200
H  20.27900 -7.62200 42.53800
H  20.98500 -6.06500 42.94800
H  19.77400 -6.78500 43.96800
H  21.28100 -11.74500 44.95900
H  19.47400 -11.78900 44.93900
H  20.36200 -11.36000 46.35700
H  24.81900 -12.22300 46.97400
H  25.57700 -11.30000 49.68900
H  23.99800 -13.25100 49.11300
H  22.88500 -12.95600 47.77600
H  22.74100 -11.92100 49.18300
H  27.58000 -12.10900 47.58400
H  26.52600 -13.41000 47.76500
H  27.75700 -12.20900 50.32100
H  28.85600 -12.84800 49.14000
H  27.72300 -13.92600 49.86000
H  31.26400 -8.53400 48.96400
H  29.96100 -9.37300 49.80100
H  30.29200 -7.76800 50.32800
H  29.93000 -4.80500 45.10400
H  29.43800 -0.73900 44.30200
H  29.66400 -0.59000 45.99800
H  28.15700 -1.09100 45.35600
Mg -8.35300 40.50200 42.54100
C  -7.42900 37.36100 41.35300
C  -5.79200 41.89300 40.87300
C  -9.99400 43.51600 42.73000
C  -11.27200 38.99000 43.71700
N  -6.90600 39.70400 41.24600
C  -6.56900 38.40300 40.92100
C  -5.22100 38.17800 40.27600
C  -4.57400 39.62100 40.44300
C  -5.84300 40.49700 40.88700
C  -3.47400 39.66400 41.57000
C  -5.29500 37.67000 38.77500
C  -4.48500 36.35100 38.61300
H  -3.23100 36.45500 37.68800
N  -7.83600 42.51500 42.14400
C  -6.71800 42.86700 41.41800
C  -6.55100 44.32300 41.46700
C  -7.77900 44.88600 42.02600
C  -8.62600 43.65000 42.27900
C  -5.25100 44.84100 40.97300
C  -8.10300 46.30100 42.29500
O  -7.32400 47.16200 41.89200
C  -9.33200 46.69300 42.98400
N  -10.44100 41.17200 43.00600
C  -10.76900 42.49200 43.14000
C  -12.20500 42.62000 43.68900
C  -12.48000 41.18100 44.17900
C  -11.40900 40.38900 43.49600
C  -12.40200 43.70400 44.79800
C  -13.91800 40.71400 44.08200
C  -14.25900 39.80100 42.86900
N  -9.24000 38.57500 42.61000
C  -10.40100 38.13000 43.12400
C  -10.40600 36.68200 43.05600
C  -9.26100 36.33100 42.40900
C  -8.60900 37.55600 42.09600
C  -11.45900 35.78400 43.68800
C  -8.41800 35.19900 41.89000
O  -8.57600 34.00700 41.96500
C  -7.22100 35.85700 41.12500
C  -5.96900 35.38500 41.83800
O  -5.56500 35.75200 42.89600
O  -5.40500 34.38600 41.09800
C  -4.10200 33.94800 41.56200
H  -4.85200 42.16600 40.38900
H  -10.54600 44.45600 42.80100
H  -12.03000 38.50600 44.33700
H  -4.69100 37.50200 40.94700
H  -4.16400 40.01400 39.51200
H  -3.85900 39.98900 42.53700
H  -2.74200 40.38400 41.20500
H  -3.07400 38.66800 41.75700
H  -4.85600 38.37300 38.06700
H  -6.32600 37.56200 38.43900
H  -5.23000 35.63500 38.26600
H  -4.12300 36.02100 39.58700
H  -5.22700 44.51900 39.93200
H  -4.35400 44.40600 41.41200
H  -5.16900 45.92800 40.98600
H  -9.09100 47.67400 43.39300
H  -9.51500 46.08600 43.87100
H  -10.13600 46.68100 42.24800
H  -12.88600 42.84400 42.86800
H  -12.35900 41.20300 45.26200
H  -12.67800 43.33700 45.78600
H  -13.28300 44.26100 44.48000
H  -11.48500 44.29200 44.82300
H  -14.57000 41.58600 44.03500
H  -14.27000 40.13600 44.93700
H  -14.43000 38.78300 43.22100
H  -13.41700 39.93000 42.18900
H  -15.16800 40.18700 42.40700
H  -12.29600 35.68400 42.99700
H  -11.65600 36.15300 44.69500
H  -11.08400 34.76500 43.78700
H  -7.30200 35.62400 40.06300
H  -3.44200 34.72800 41.94200
H  -3.53800 33.33500 40.85900
H  -4.24700 33.31200 42.43500

