158

Mg 24.16500 -5.58600 45.21600
C  26.50300 -3.42400 43.51200
C  21.77400 -4.46400 43.12300
C  22.63700 -8.45000 45.77500
C  26.99900 -6.68500 47.03800
N  24.19700 -4.25400 43.48100
C  25.14900 -3.37500 43.00900
C  24.59000 -2.24700 42.03400
C  23.06300 -2.35100 42.33000
C  22.98000 -3.79800 43.01700
C  22.48000 -1.25100 43.19500
C  25.04200 -2.54400 40.60800
C  24.87600 -1.47300 39.50800
H  25.06900 -1.93800 38.05800
N  22.34700 -6.32100 44.64100
C  21.48200 -5.64100 43.84900
C  20.29500 -6.41200 43.71300
C  20.45000 -7.58400 44.53500
C  21.81900 -7.53000 45.04300
C  19.20100 -5.93400 42.78700
C  19.36900 -8.44000 44.91300
O  18.24100 -8.34500 44.44300
C  19.58700 -9.58100 45.80300
N  24.77600 -7.35000 46.26500
C  23.89300 -8.35800 46.43200
C  24.45600 -9.43300 47.37900
C  25.74200 -8.70600 47.97300
C  25.87400 -7.54100 47.05500
C  23.47500 -10.21800 48.41800
C  27.11600 -9.57200 48.03500
C  28.03800 -9.43200 49.27600
N  26.29900 -5.05000 45.38700
C  27.29200 -5.66900 46.14300
C  28.58100 -5.02400 45.85700
C  28.28300 -4.11300 44.79000
C  26.94200 -4.20300 44.53600
C  29.92800 -5.32900 46.50900
C  28.87500 -3.14300 43.86700
O  30.08100 -2.82000 43.77900
C  27.68000 -2.58200 43.03700
C  27.63600 -1.20300 43.54900
O  27.01800 -0.79700 44.47000
O  28.50600 -0.39700 42.86200
C  28.96300 0.88300 43.54400
H  20.93200 -4.02100 42.58600
H  22.14700 -9.36700 46.10900
H  27.94200 -6.96800 47.51200
H  24.95700 -1.26100 42.32200
H  22.41700 -2.37100 41.45200
H  21.76700 -1.74100 43.85800
H  21.91300 -0.53500 42.60000
H  23.24500 -0.71200 43.75500
H  24.46300 -3.41300 40.29200
H  26.06900 -2.87300 40.45000
H  25.77000 -0.89000 39.72900
H  23.96500 -0.88600 39.61700
H  19.55800 -6.19500 41.79100
H  18.97700 -4.88200 42.96400
H  18.23400 -6.37100 43.03700
H  18.65400 -10.09800 46.02700
H  19.97500 -9.29400 46.78000
H  20.33000 -10.24300 45.35900
H  24.82700 -10.23800 46.74400
H  25.59700 -8.35900 48.99700
H  22.44500 -9.86100 48.42300
H  23.90200 -9.99700 49.39600
H  23.59500 -11.28000 48.20600
H  27.68500 -9.34300 47.13400
H  26.92300 -10.64100 47.94100
H  29.03400 -9.10900 48.97300
H  28.14100 -10.37700 49.80900
H  27.65700 -8.80300 50.08000
H  29.99400 -5.79500 47.49100
H  30.40600 -4.34900 46.52200
H  30.58200 -5.96100 45.90800
H  27.91000 -2.64900 41.97400
H  29.43200 0.65400 44.50100
H  28.03900 1.38400 43.83100
H  29.54200 1.47100 42.83100
Mg 45.36400 4.08500 45.31700
C  43.25700 6.96600 45.41700
C  42.50600 2.22100 44.68300
C  47.36200 1.45800 44.77800
C  48.14600 6.28700 45.16000
N  43.12500 4.56800 45.01000
C  42.55400 5.82200 44.98200
C  41.02700 5.78700 44.74400
C  40.76100 4.22900 44.87700
C  42.21700 3.60900 44.88300
C  39.94600 3.75600 46.12400
C  40.43600 6.37400 43.50600
C  41.33400 6.31400 42.24900
H  40.64500 6.45000 40.92500
N  44.98700 2.08900 44.91700
C  43.77100 1.54000 44.61600
C  43.94200 0.06900 44.37500
C  45.33400 -0.12800 44.60800
C  45.96000 1.13300 44.84200
C  42.72800 -0.91000 44.11900
C  45.96300 -1.50600 44.50900
O  45.25500 -2.48100 44.15300
C  47.36300 -1.73500 44.95400
N  47.45200 3.88400 45.02900
C  48.00700 2.67500 44.94900
C  49.51500 2.76500 44.65600
C  49.78500 4.28600 44.76300
C  48.40100 4.88900 45.05400
C  50.55900 1.88800 45.40500
C  50.44000 4.80900 43.42500
C  51.95000 4.76000 43.39000
N  45.71500 6.23000 45.23400
C  46.85800 6.97100 45.22700
C  46.50600 8.44000 45.39800
C  45.10400 8.42800 45.64300
C  44.70500 7.10400 45.39200
C  47.42100 9.62200 45.24400
C  43.97300 9.27100 45.98200
O  43.91700 10.47500 46.34500
C  42.76100 8.34000 45.73600
C  41.96400 8.36400 46.96900
O  42.17100 7.65100 47.97400
O  40.96900 9.29900 46.92500
C  40.15000 9.35700 48.14100
H  41.61200 1.63200 44.46800
H  48.06900 0.65400 44.56300
H  49.06800 6.87200 45.15500
H  40.43100 6.19900 45.55800
H  40.19900 3.90800 44.00000
H  40.52800 3.40600 46.97700
H  39.32200 2.88000 45.94800
H  39.27400 4.54600 46.45900
H  40.25500 7.41000 43.79100
H  39.44800 5.94800 43.33600
H  41.80700 5.33200 42.20700
H  42.07600 7.06100 42.53000
H  42.51600 -1.54000 44.98300
H  43.01400 -1.43400 43.20700
H  41.78300 -0.38000 44.00100
H  47.45200 -2.80300 45.15200
H  47.64000 -1.08800 45.78700
H  48.01400 -1.45100 44.12700
H  49.65400 2.40000 43.63800
H  50.49700 4.59400 45.52900
H  50.07500 1.24200 46.13800
H  51.30800 2.47100 45.94100
H  51.05300 1.25300 44.67000
H  50.12700 5.84100 43.27000
H  50.16300 4.18500 42.57600
H  52.30800 4.18100 42.53900
H  52.38400 4.18400 44.20700
H  52.42200 5.73800 43.29000
H  48.29500 9.24100 44.71600
H  47.67100 9.85700 46.27900
H  46.94200 10.55200 44.93900
H  42.07400 8.72100 44.98100
H  39.60000 8.42800 48.29500
H  39.44800 10.18900 48.19900
H  40.69700 9.44300 49.08000

