158

Mg 52.65200 24.59800 44.68700
C  49.83400 26.72600 44.01000
C  50.95500 22.01500 43.03000
C  55.48900 23.00200 44.38600
C  54.41100 27.59700 45.72800
N  50.68800 24.53600 43.47100
C  49.68000 25.44300 43.43900
C  48.42300 24.87300 42.80300
C  48.73900 23.28300 42.80100
C  50.24900 23.24800 43.12700
C  47.77900 22.44500 43.69800
C  48.23300 25.55500 41.39100
C  49.02400 24.98500 40.20200
H  48.21600 24.33000 39.07600
N  53.14800 22.74600 43.92500
C  52.33000 21.74500 43.37700
C  53.02700 20.54300 43.25600
C  54.38800 20.82800 43.64500
C  54.45200 22.24300 44.01300
C  52.30300 19.12500 42.98600
C  55.48900 19.73700 43.75000
O  55.26700 18.52800 43.46400
C  56.87600 20.13200 44.31600
N  54.71600 25.23300 44.96600
C  55.66100 24.29700 44.80200
C  57.00000 24.82900 45.24600
C  56.63500 26.31800 45.75500
C  55.20900 26.44300 45.38700
C  57.72900 23.95900 46.34300
C  57.49100 27.42800 45.11000
C  58.43100 28.09200 46.16400
N  52.16900 26.69500 45.07600
C  53.01600 27.68300 45.53600
C  52.22800 28.85800 45.66800
C  50.91800 28.53400 45.15800
C  50.97300 27.21400 44.73800
C  52.68700 30.18000 46.18600
C  49.58200 29.03400 44.80000
O  49.12800 30.16800 45.00300
C  48.73300 27.83600 44.19200
C  48.04600 28.44800 42.98800
O  48.56800 29.02300 42.06000
O  46.69500 28.35000 43.26300
C  45.89600 29.00200 42.18400
H  50.31500 21.18600 42.71900
H  56.45500 22.50900 44.25600
H  54.97300 28.50200 45.96700
H  47.55100 25.08400 43.42100
H  48.62700 22.76100 41.85100
H  47.21500 23.13200 44.32800
H  48.31500 21.71100 44.29900
H  47.09400 21.89400 43.05300
H  48.48200 26.61500 41.44900
H  47.17400 25.43400 41.16500
H  49.73500 24.24900 40.57700
H  49.68900 25.76100 39.82400
H  52.27900 18.65200 43.96800
H  52.60700 18.44300 42.19100
H  51.27900 19.34300 42.68100
H  57.50800 19.24400 44.35900
H  56.73300 20.48200 45.33800
H  57.34700 20.83700 43.63100
H  57.77900 24.75500 44.48800
H  56.69900 26.33800 46.84300
H  57.07300 23.16300 46.69500
H  58.06600 24.71400 47.05300
H  58.62100 23.54300 45.87500
H  56.97600 28.16400 44.49200
H  58.12300 26.89900 44.39700
H  58.05000 29.06200 46.48400
H  59.45500 28.19400 45.80500
H  58.57000 27.34200 46.94300
H  53.23700 30.73500 45.42500
H  53.31700 30.03900 47.06500
H  51.76500 30.65500 46.51900
H  48.00300 27.60300 44.96600
H  44.85500 29.24900 42.39300
H  45.92000 28.40600 41.27200
H  46.38000 29.95100 41.95200
Mg 6.38000 57.25500 42.16800
C  5.22900 53.94200 42.25100
C  9.23600 56.17800 40.97300
C  7.16500 60.47900 41.78000
C  3.09300 58.34100 43.12900
N  6.94100 55.27600 41.39700
C  6.44600 54.08400 41.55000
C  7.36400 52.98400 40.86800
C  8.71600 53.69000 40.94300
C  8.26100 55.18200 41.13000
C  9.65100 53.24400 42.15100
C  6.89900 52.66000 39.45100
C  7.53700 51.41800 38.92600
H  6.63700 50.56100 38.02800
N  7.96900 58.18800 41.33400
C  9.15500 57.59500 40.94100
C  10.05000 58.60700 40.38800
C  9.43000 59.87100 40.59500
C  8.10100 59.53200 41.30700
C  11.35200 58.16800 39.76700
C  10.09800 61.17200 40.17200
O  11.18500 61.20300 39.61000
C  9.56500 62.57300 40.66400
N  5.26100 59.15600 42.33900
C  5.87500 60.31600 42.24500
C  4.94600 61.47200 42.61700
C  3.53600 60.82000 42.64900
C  3.97200 59.35100 42.71200
C  5.37700 62.33000 43.79000
C  2.64500 61.11100 41.40500
C  1.09900 61.05200 41.61300
N  4.47300 56.32600 42.62600
C  3.29800 56.86600 43.14200
C  2.39200 55.74300 43.41300
C  3.21900 54.59200 43.26100
C  4.37800 54.98000 42.62600
C  0.96300 55.83900 43.87700
C  3.14900 53.14100 43.31000
O  2.37100 52.30600 43.78900
C  4.55100 52.68900 42.70200
C  4.37600 51.58200 41.71100
O  3.87300 51.62500 40.61500
O  4.92900 50.49400 42.31000
C  4.91800 49.20800 41.60100
H  10.25900 55.86400 40.75600
H  7.35500 61.55400 41.80100
H  2.08600 58.56000 43.48900
H  7.19000 52.22500 41.63000
H  9.30200 53.57900 40.03000
H  9.30600 52.26000 42.46900
H  9.67900 53.90800 43.01500
H  10.64200 53.09600 41.72400
H  7.21600 53.54700 38.90300
H  5.81400 52.57300 39.51000
H  8.03200 50.86300 39.72200
H  8.49100 51.73900 38.50800
H  11.19800 57.81100 38.74900
H  11.80600 57.30300 40.25000
H  12.12200 58.94000 39.74100
H  8.58800 62.61700 40.18300
H  10.09200 63.45500 40.30000
H  9.43200 62.55900 41.74500
H  4.90100 62.08600 41.71800
H  3.03100 61.12400 43.56600
H  6.33700 61.98100 44.17000
H  4.67100 62.31600 44.62000
H  5.43200 63.36900 43.46300
H  2.98300 60.49300 40.57300
H  2.85800 62.13600 41.10300
H  0.57500 60.51000 40.82500
H  0.56200 61.99200 41.48400
H  0.83200 60.64400 42.58800
H  0.33400 56.16300 43.04800
H  0.92100 56.66100 44.59100
H  0.67200 54.93900 44.41900
H  5.24400 52.36000 43.47600
H  5.81000 49.18000 40.97500
H  4.10900 48.88400 40.94500
H  4.92000 48.41600 42.34900

