158

Mg -1.72100 18.40200 26.95000
C  -2.21400 16.06700 29.76300
C  -2.74100 20.93900 29.11700
C  -1.73300 20.33600 24.35800
C  -1.41400 15.58800 24.94000
N  -2.14600 18.46400 29.18600
C  -2.12800 17.47900 30.11700
C  -2.42700 18.00800 31.56900
C  -3.05600 19.43700 31.23100
C  -2.56800 19.66200 29.76400
C  -4.62200 19.52900 31.29000
C  -1.19900 18.20400 32.48000
C  -1.46600 17.66000 33.92700
H  -0.27500 17.37700 34.76200
N  -2.05800 20.29000 26.75800
C  -2.53800 21.24900 27.75700
C  -2.53500 22.59200 27.12500
C  -2.11500 22.41700 25.76900
C  -1.89900 20.98400 25.56100
C  -2.88400 23.90300 27.86200
C  -1.75000 23.43900 24.68000
O  -1.35000 23.18900 23.55200
C  -1.99500 24.91300 24.93600
N  -1.76100 17.98800 24.91000
C  -1.62400 19.01800 24.05300
C  -1.41700 18.50200 22.65500
C  -0.90900 17.02900 22.91700
C  -1.37100 16.83000 24.35700
C  -2.62200 18.54300 21.82100
C  0.64800 16.97700 22.71000
C  1.62500 17.62100 23.71100
N  -2.03700 16.23400 27.18500
C  -1.87000 15.29600 26.22700
C  -2.00500 13.96500 26.82900
C  -2.26500 14.20900 28.15100
C  -2.18200 15.63400 28.35900
C  -1.93100 12.65300 26.10000
C  -2.58300 13.65300 29.48800
O  -2.76600 12.48100 29.76000
C  -2.52500 14.83300 30.54400
C  -1.53900 14.55100 31.62400
O  -0.37900 14.87400 31.58500
O  -2.09800 13.87700 32.67900
C  -1.24300 13.39900 33.82900
H  -3.10800 21.73800 29.76400
H  -1.66600 20.96800 23.47000
H  -1.11900 14.83900 24.20200
H  -3.25900 17.42400 31.96200
H  -2.72100 20.22200 31.90900
H  -5.06300 18.64500 31.74900
H  -5.08600 19.73700 30.32600
H  -4.93800 20.35300 31.92900
H  -0.97400 19.26900 32.53700
H  -0.30800 17.67700 32.13700
H  -2.01200 16.72000 33.84600
H  -2.07700 18.35100 34.50800
H  -3.45700 24.53000 27.17900
H  -1.96500 24.40700 28.16100
H  -3.50900 23.69300 28.73000
H  -1.88600 25.36300 23.94900
H  -1.30200 25.28600 25.68900
H  -3.02100 25.19300 25.17500
H  -0.65900 19.06800 22.11200
H  -1.43000 16.30100 22.29400
H  -3.42000 19.20800 22.15200
H  -3.13100 17.59300 21.65500
H  -2.38200 18.88000 20.81300
H  0.82600 17.54900 21.79900
H  0.97800 15.94600 22.58400
H  1.11300 17.94700 24.61700
H  2.16200 18.52600 23.42600
H  2.32700 16.83400 23.98300
H  -1.28200 11.96100 26.63700
H  -1.55300 12.75100 25.08200
H  -2.90200 12.17800 25.96100
H  -3.52000 14.91200 30.98300
H  -0.16500 13.52000 33.72800
H  -1.57600 12.39700 34.09800
H  -1.63200 14.07100 34.59400
Mg 0.81800 8.88200 26.71900
C  1.26700 10.91500 29.41600
C  0.55200 6.13500 28.98800
C  0.74700 6.75100 24.06000
C  1.09600 11.58100 24.59400
N  0.85400 8.58600 28.97800
C  1.08200 9.58900 29.84200
C  1.11400 9.08200 31.30700
C  1.13700 7.50700 31.14100
C  0.78100 7.37800 29.64200
C  2.45400 6.78000 31.43600
C  -0.01100 9.63800 32.23500
C  -0.28400 8.88500 33.61800
H  0.86800 8.42500 34.46100
N  0.61000 6.80600 26.54900
C  0.47700 5.90200 27.57500
C  0.22100 4.57800 26.98800
C  0.47100 4.61300 25.57400
C  0.57400 6.10800 25.35500
C  -0.00100 3.33500 27.82100
C  0.45900 3.45100 24.57500
O  0.54600 3.74300 23.42100
C  0.22400 1.99300 25.01300
N  0.79600 9.16300 24.63800
C  0.82300 8.14500 23.76800
C  0.92600 8.77700 22.33700
C  0.53400 10.18200 22.56400
C  0.83300 10.31200 23.98900
C  2.37300 8.56100 21.74400
C  -0.97900 10.44900 22.26700
C  -1.36800 11.35700 21.10100
N  1.23400 10.84800 26.89900
C  1.27500 11.85400 26.01300
C  1.69200 13.09600 26.67100
C  1.54400 12.76100 27.99300
C  1.34900 11.39300 28.06000
C  1.84200 14.43000 25.96300
C  1.73100 13.33000 29.30400
O  1.93700 14.46100 29.59600
C  1.45900 12.12100 30.24300
C  2.53400 11.96700 31.22400
O  3.67900 11.67500 30.94300
O  2.04500 12.25200 32.46300
C  2.93800 12.06500 33.63300
H  0.59200 5.25200 29.63000
H  0.60900 6.20500 23.12500
H  1.06300 12.41500 23.89100
H  2.10400 9.39000 31.64500
H  0.35500 7.00700 31.71100
H  3.30700 7.37400 31.76300
H  2.88100 6.53600 30.46400
H  2.27000 5.96900 32.14100
H  -0.89800 9.41900 31.64000
H  0.22000 10.66400 32.52100
H  -1.08300 8.15000 33.51500
H  -0.84500 9.67300 34.12100
H  -0.95700 2.91600 27.50500
H  -0.23900 3.57400 28.85800
H  0.85500 2.66000 27.83900
H  0.54600 1.24400 24.29000
H  -0.81300 1.88600 25.33200
H  0.93700 1.75000 25.80100
H  0.28500 8.26400 21.62000
H  1.27200 10.74900 21.99800
H  2.23500 8.06500 20.78300
H  3.00400 7.92600 22.36600
H  2.92600 9.48600 21.58100
H  -1.30200 11.09500 23.08300
H  -1.61200 9.56200 22.29100
H  -0.57900 11.46500 20.35700
H  -1.74700 12.31000 21.47200
H  -2.21000 10.81800 20.66600
H  2.40900 14.35500 25.03500
H  2.19800 15.10600 26.74000
H  0.84600 14.77400 25.68500
H  0.56000 12.36500 30.80900
H  3.57400 12.94000 33.76600
H  3.47100 11.11400 33.60800
H  2.31200 12.16100 34.52000

