158

Mg 53.88400 23.42400 44.35300
C  51.21400 25.82400 43.18700
C  51.89600 21.07500 42.78000
C  56.46300 21.44000 44.24400
C  55.61600 26.15100 45.33100
N  51.81500 23.50400 43.11000
C  51.00400 24.53100 42.72900
C  49.95500 24.02600 41.76100
C  49.86200 22.57600 42.29400
C  51.22900 22.33300 42.83600
C  48.74100 22.28100 43.30500
C  50.52900 24.09500 40.25000
C  49.72100 24.99200 39.20200
H  50.51800 25.56800 37.94600
N  54.08600 21.49900 43.78500
C  53.17400 20.68900 43.21600
C  53.79700 19.34800 42.94100
C  55.12900 19.48200 43.41900
C  55.29200 20.83200 43.81500
C  53.14700 18.15900 42.37900
C  56.05000 18.24900 43.45100
O  55.69700 17.18300 43.02400
C  57.36700 18.29700 44.18900
N  55.90300 23.89600 44.33400
C  56.73000 22.80100 44.52500
C  58.12600 23.32000 45.04400
C  57.77100 24.76800 45.44500
C  56.37900 25.06300 44.93100
C  58.77500 22.48200 46.23800
C  58.65900 25.83100 44.76000
C  58.90300 27.13900 45.56800
N  53.50300 25.56600 44.41500
C  54.33300 26.49400 44.99000
C  53.63200 27.71500 45.08600
C  52.46700 27.49100 44.30400
C  52.39400 26.16100 43.96600
C  54.03400 28.99700 45.77400
C  51.32800 28.11500 43.74400
O  51.01700 29.29000 43.79800
C  50.41200 27.06500 43.03200
C  50.07300 27.53100 41.67600
O  50.88200 27.80800 40.80100
O  48.73000 27.78600 41.66600
C  48.22400 28.38600 40.38100
H  51.40100 20.17400 42.41100
H  57.34100 20.79800 44.34400
H  56.08900 26.94900 45.90700
H  49.00400 24.54700 41.87500
H  49.59200 21.98500 41.41900
H  49.37200 22.03500 44.15900
H  48.12500 21.44600 42.97100
H  48.12100 23.16700 43.44300
H  50.45700 23.09300 39.82700
H  51.57700 24.38300 40.33600
H  49.28500 25.81300 39.77200
H  48.86900 24.38600 38.89400
H  53.19800 17.33000 43.08500
H  53.78300 17.80600 41.56700
H  52.14200 18.32300 41.98800
H  57.08500 18.60500 45.19600
H  58.09500 18.96400 43.72900
H  57.71000 17.27200 44.32900
H  58.77600 23.25200 44.17200
H  57.79200 24.86200 46.53100
H  58.07400 21.65000 46.30300
H  58.89600 23.03400 47.17100
H  59.72100 22.03400 45.93300
H  58.20700 26.08000 43.80000
H  59.62200 25.34800 44.59700
H  58.37800 27.32600 46.50500
H  58.61700 27.93200 44.87800
H  59.92900 27.43000 45.79100
H  55.11300 29.08100 45.91100
H  53.71000 28.85900 46.80600
H  53.45400 29.76300 45.26000
H  49.49700 26.99300 43.61900
H  49.03900 28.90500 39.87800
H  47.42300 29.07600 40.64600
H  47.62300 27.69500 39.79000
Mg 0.99100 43.30900 26.24900
C  3.19100 43.30400 29.09600
C  -1.53300 42.38100 28.44400
C  -0.92100 42.69000 23.64100
C  3.86200 43.60300 24.12600
N  0.83300 43.05300 28.51800
C  1.85700 43.08200 29.44800
C  1.39600 42.88600 30.90300
C  -0.14600 42.49400 30.64100
C  -0.28800 42.74700 29.08500
C  -0.60700 40.99500 31.09900
C  1.54600 44.23900 31.64800
C  1.21300 44.25900 33.23400
H  1.02200 42.89300 34.01600
N  -0.94500 42.85300 26.01700
C  -1.85300 42.55300 27.04000
C  -3.11700 42.30800 26.43900
C  -3.01600 42.36300 25.04800
C  -1.62700 42.67600 24.84900
C  -4.34800 41.87500 27.23800
C  -4.03500 42.17200 23.98000
O  -3.76900 42.11200 22.76000
C  -5.51800 41.95400 24.23200
N  1.42800 43.15300 24.19900
C  0.44300 42.80400 23.34800
C  0.99900 42.86800 21.91700
C  2.39900 43.56700 21.97600
C  2.54700 43.42800 23.52300
C  1.04200 41.42100 21.22400
C  2.40700 44.96200 21.30900
C  2.03300 46.14000 22.11100
N  3.07600 43.57000 26.45400
C  4.10400 43.72600 25.52700
C  5.40000 43.91100 26.20200
C  5.09000 43.59400 27.53300
C  3.63800 43.53200 27.67500
C  6.79100 44.15500 25.46900
C  5.65200 43.36200 28.82500
O  6.82800 43.22700 29.19500
C  4.50100 43.33200 29.86700
C  4.57700 42.15900 30.76600
O  4.06000 41.04600 30.47900
O  5.02200 42.50400 31.97600
C  4.77600 41.68100 33.13100
H  -2.34100 42.29300 29.17400
H  -1.49100 42.62500 22.71200
H  4.69500 43.56800 23.42200
H  1.90800 42.10800 31.46900
H  -0.77200 43.19800 31.19100
H  -0.58100 40.39600 30.18900
H  -1.59000 40.95300 31.56900
H  0.14500 40.50000 31.71400
H  0.73600 44.92000 31.38900
H  2.39600 44.89400 31.45800
H  0.32000 44.86500 33.38900
H  1.99800 44.69200 33.85300
H  -4.87400 42.81500 27.39900
H  -3.90100 41.53500 28.17300
H  -4.99700 41.13400 26.77300
H  -5.56900 40.92000 24.57400
H  -5.97400 41.95500 23.24200
H  -5.97700 42.79000 24.75900
H  0.31200 43.46800 21.32000
H  3.20300 42.92000 21.62400
H  0.20400 40.79500 21.53200
H  2.06000 41.03700 21.29300
H  0.77200 41.66200 20.19600
H  1.81300 44.85800 20.40100
H  3.39400 45.12500 20.87500
H  2.73000 46.69600 22.73700
H  1.37500 45.82300 22.92000
H  1.58600 46.91700 21.49000
H  7.45100 43.28900 25.40800
H  7.36000 44.93200 25.97900
H  6.63900 44.41600 24.42200
H  4.63500 44.19300 30.52300
H  4.47000 40.65500 32.93100
H  4.10900 42.28100 33.75000
H  5.74900 41.59300 33.61500

