158

Mg -0.03400 7.47300 25.83700
C  1.12200 9.37700 28.64600
C  -0.20000 4.82500 27.91600
C  -0.95700 5.65700 23.17300
C  0.20500 10.27000 23.91800
N  0.65700 7.07100 27.94400
C  0.98400 8.01000 28.91400
C  0.82700 7.43200 30.32300
C  0.69300 5.89200 30.08900
C  0.38100 5.87300 28.55000
C  1.85700 4.91800 30.35900
C  -0.45200 8.04100 30.99300
C  -0.54700 8.09200 32.55500
H  0.65800 7.96800 33.37900
N  -0.42000 5.50100 25.61000
C  -0.45400 4.55800 26.52100
C  -0.85200 3.28500 25.89100
C  -1.11900 3.56400 24.53900
C  -0.88200 4.96000 24.38400
C  -0.74400 1.94000 26.53700
C  -1.43100 2.61500 23.34600
O  -1.79300 3.00600 22.23400
C  -1.61100 1.11600 23.62600
N  -0.26800 7.93100 23.82500
C  -0.66300 7.03900 22.97000
C  -0.83800 7.55300 21.57100
C  -0.48100 9.07700 21.74300
C  -0.12800 9.14600 23.16900
C  -0.09200 6.73300 20.50500
C  -1.57300 10.04800 21.34000
C  -2.82100 10.03900 22.11600
N  0.50600 9.43100 26.15800
C  0.60200 10.47700 25.24900
C  1.02100 11.69600 25.86400
C  1.16400 11.37500 27.20600
C  0.93600 9.90400 27.33900
C  1.28600 13.03600 25.13200
C  1.52900 11.89800 28.54700
O  1.83700 12.96900 29.03100
C  1.29900 10.61000 29.58100
C  2.42000 10.62600 30.47100
O  3.51900 10.10300 30.27100
O  2.02700 11.38100 31.56200
C  2.96300 11.63600 32.66100
H  -0.44700 3.90600 28.45200
H  -1.49000 5.23300 22.31900
H  0.15200 11.12200 23.23700
H  1.63700 7.71800 30.99400
H  -0.16400 5.48700 30.62600
H  2.41600 4.72000 29.44500
H  1.51000 3.97600 30.78500
H  2.46700 5.40200 31.12200
H  -1.27700 7.47000 30.56600
H  -0.60200 9.03800 30.57900
H  -1.31300 7.41900 32.93900
H  -0.87100 9.12900 32.65300
H  0.06100 1.37800 26.06200
H  -1.69100 1.40200 26.48800
H  -0.59800 2.02500 27.61400
H  -2.18200 1.05600 24.55300
H  -0.68600 0.55200 23.73900
H  -2.17000 0.72200 22.77700
H  -1.90200 7.46000 21.34800
H  0.48700 9.27400 21.28300
H  0.75300 6.26400 21.01000
H  0.39400 7.30400 19.71300
H  -0.81600 6.07200 20.02800
H  -1.91500 9.92200 20.31200
H  -1.19900 11.07100 21.29900
H  -3.77500 10.04000 21.59000
H  -2.80400 10.88700 22.80100
H  -2.86600 9.18000 22.78500
H  1.22700 12.79400 24.07100
H  2.31200 13.34100 25.33900
H  0.62500 13.84400 25.44500
H  0.42600 10.93500 30.14500
H  3.31100 12.66500 32.57000
H  3.73300 10.86600 32.68900
H  2.41500 11.63800 33.60400
Mg 1.07400 42.80800 25.93700
C  3.13600 43.14100 28.72900
C  -1.62200 42.33600 27.96500
C  -0.73400 42.11700 23.12400
C  3.83900 43.23100 23.90100
N  0.81800 42.73200 28.13300
C  1.81600 42.91900 29.09800
C  1.17700 43.04200 30.48700
C  -0.31700 42.56300 30.19400
C  -0.45500 42.60700 28.70500
C  -0.73300 41.21100 30.80700
C  1.32600 44.42600 31.20100
C  1.36400 44.52500 32.74000
H  0.89500 43.23700 33.53000
N  -0.87000 42.27400 25.58500
C  -1.84500 42.29100 26.51800
C  -3.13300 42.24700 25.81900
C  -2.89600 42.12600 24.41600
C  -1.42900 42.16800 24.33100
C  -4.47700 42.36000 26.48700
C  -3.87200 41.97200 23.20800
O  -3.51200 41.78200 22.10500
C  -5.29700 42.14200 23.44900
N  1.51700 42.59100 23.81300
C  0.59800 42.33800 22.87000
C  1.21500 42.40900 21.47800
C  2.70700 42.85600 21.73400
C  2.69800 42.88000 23.27900
C  1.10800 41.15500 20.61400
C  2.92000 44.33300 21.18300
C  2.19100 45.53300 21.87200
N  3.08400 43.10400 26.17900
C  4.09900 43.29100 25.23700
C  5.34100 43.52500 25.94800
C  5.00600 43.38100 27.30800
C  3.60100 43.27100 27.39400
C  6.66000 43.92700 25.29000
C  5.52000 43.41800 28.67200
O  6.67000 43.57200 29.03300
C  4.32900 43.34100 29.60300
C  4.53800 42.18100 30.49900
O  4.81000 41.04500 30.17100
O  4.52200 42.65400 31.78200
C  5.00200 41.75700 32.85800
H  -2.52500 42.19500 28.56300
H  -1.32900 41.92800 22.22800
H  4.69400 43.52500 23.28800
H  1.61400 42.26600 31.11600
H  -0.97300 43.27100 30.70000
H  -1.43300 41.47300 31.60000
H  0.14500 40.65700 31.13900
H  -1.24300 40.54400 30.11200
H  0.40200 44.94500 30.94400
H  2.18000 45.02000 30.87500
H  0.85000 45.43700 33.04400
H  2.41400 44.71100 32.96500
H  -4.87100 43.23800 25.97400
H  -4.43600 42.62400 27.54400
H  -5.15400 41.55600 26.19800
H  -5.63500 41.41300 24.18500
H  -5.87800 41.99200 22.53900
H  -5.39700 43.13100 23.89500
H  0.69900 43.25600 21.02700
H  3.44900 42.14600 21.37000
H  2.08500 40.78200 20.30800
H  0.56400 41.44000 19.71300
H  0.59600 40.31700 21.08800
H  2.57800 44.47500 20.15800
H  4.00100 44.45200 21.24900
H  1.74600 45.29500 22.83800
H  1.47000 45.93800 21.16300
H  2.82700 46.40800 22.00500
H  7.03400 43.08400 24.70900
H  7.45400 44.36600 25.89500
H  6.49700 44.68600 24.52500
H  4.28900 44.32700 30.06600
H  4.60900 42.15200 33.79500
H  6.09100 41.77200 32.81500
H  4.67800 40.71800 32.80300

