158

Mg 0.66700 8.03500 24.85800
C  1.59900 9.70600 27.92600
C  0.91700 5.11800 26.59300
C  0.21200 6.50800 21.93900
C  1.07700 11.02200 23.23100
N  1.23400 7.53600 27.05500
C  1.30600 8.33600 28.13100
C  1.28600 7.58000 29.44800
C  1.35600 6.08500 28.97900
C  1.21400 6.20400 27.43600
C  2.73700 5.33800 29.37100
C  -0.02800 7.92700 30.29000
C  -0.02600 7.83800 31.78800
H  1.18600 7.07400 32.46400
N  0.53700 6.10200 24.27100
C  0.76200 4.99500 25.12900
C  0.55500 3.79300 24.41500
C  0.10400 4.16000 23.10000
C  0.22700 5.64000 23.07700
C  0.79500 2.41300 25.08000
C  -0.22900 3.27000 21.88800
O  -0.58800 3.79500 20.83100
C  -0.03200 1.86200 21.92200
N  0.67400 8.69400 22.90000
C  0.36700 7.87000 21.85300
C  0.21500 8.57200 20.45400
C  0.32000 10.08700 20.93700
C  0.79000 9.93500 22.44100
C  1.12900 8.13600 19.26800
C  -1.03800 10.89400 20.80400
C  -2.44600 10.37200 21.12000
N  1.19400 9.99800 25.40000
C  1.33600 11.10000 24.57900
C  1.65200 12.29600 25.41400
C  1.80700 11.79300 26.69500
C  1.48400 10.37700 26.68600
C  1.69500 13.71500 24.84300
C  2.11300 12.16700 28.08300
O  2.41000 13.22100 28.65900
C  1.85700 10.87500 28.90400
C  2.92600 10.71500 29.84500
O  4.01200 10.14400 29.65100
O  2.64900 11.30500 31.04600
C  3.68500 11.47600 32.07300
H  0.79200 4.17700 27.13300
H  0.14900 5.99100 20.97900
H  0.98000 11.94700 22.65900
H  2.04200 8.04200 30.08300
H  0.55400 5.55300 29.49100
H  3.18800 5.04900 28.42200
H  2.66900 4.43000 29.97100
H  3.47000 5.99700 29.83700
H  -0.83000 7.21600 30.09500
H  -0.38000 8.87300 29.87900
H  -0.95700 7.33400 32.04700
H  0.03000 8.89200 32.05900
H  0.69000 1.63000 24.33000
H  0.04900 2.31700 25.87000
H  1.81100 2.41600 25.47500
H  -0.69700 1.34600 22.61600
H  1.02200 1.59500 22.00100
H  -0.25200 1.37000 20.97500
H  -0.75700 8.34400 20.01700
H  1.06600 10.62000 20.34800
H  1.20300 8.96700 18.56700
H  0.75400 7.18300 18.89600
H  2.13700 7.91900 19.62100
H  -1.09200 11.22000 19.76600
H  -0.95100 11.77400 21.44100
H  -2.91900 9.68900 20.41500
H  -3.09900 11.20700 21.37700
H  -2.33400 9.58700 21.86800
H  1.04800 13.79800 23.97000
H  2.66500 13.94600 24.40300
H  1.48900 14.45400 25.61700
H  0.98300 11.11100 29.50900
H  3.47500 10.66000 32.76400
H  3.60700 12.40400 32.63800
H  4.72700 11.38300 31.76800
Mg -11.37200 16.60700 41.59200
C  -8.39100 14.99200 40.94100
C  -10.27000 19.35000 39.75400
C  -14.52400 17.83900 41.63600
C  -12.69200 13.48200 42.42000
N  -9.49200 17.14600 40.55300
C  -8.42800 16.26800 40.32400
C  -7.26600 16.91800 39.52800
C  -7.91700 18.24900 39.02400
C  -9.27700 18.29400 39.81600
C  -6.95500 19.50600 39.09600
C  -6.79000 15.97800 38.37300
C  -5.28600 15.94800 38.19100
H  -4.71800 15.83500 36.80800
N  -12.27600 18.38900 40.89100
C  -11.65100 19.40600 40.21400
C  -12.53700 20.56100 39.96400
C  -13.79300 20.15500 40.52700
C  -13.59100 18.72800 41.01600
C  -12.15300 21.83800 39.18200
C  -15.06800 20.98400 40.56000
O  -15.16500 22.03300 39.95300
C  -16.23600 20.58500 41.34500
N  -13.33800 15.72300 41.77600
C  -14.41200 16.53700 42.05600
C  -15.58200 15.75400 42.62600
C  -15.16900 14.33900 42.32600
C  -13.65300 14.46900 42.20100
C  -15.79300 15.96600 44.13300
C  -15.87800 13.67600 41.03300
C  -16.37100 12.19300 41.30600
N  -10.66200 14.77700 41.86800
C  -11.33100 13.59000 42.24400
C  -10.38500 12.57000 42.49500
C  -9.21400 13.12400 42.03400
C  -9.46400 14.43300 41.62800
C  -10.52700 11.17000 42.93300
C  -7.81600 12.84500 41.84400
O  -7.19000 11.84400 42.08900
C  -7.23200 14.03000 41.06800
C  -6.16700 14.61900 41.95600
O  -6.31500 15.11000 43.07600
O  -4.89500 14.55400 41.33900
C  -3.80100 15.38100 41.89700
H  -9.88100 20.12600 39.09000
H  -15.55900 18.13300 41.82100
H  -13.23300 12.58700 42.73300
H  -6.48100 17.14800 40.24900
H  -8.24800 18.14500 37.99100
H  -6.02200 19.12400 39.51100
H  -7.37400 20.33600 39.66500
H  -6.81100 19.89100 38.08700
H  -7.19500 16.31000 37.41700
H  -7.22100 14.97900 38.43300
H  -4.79500 15.20000 38.81400
H  -4.95900 16.95500 38.45200
H  -12.96700 22.56100 39.23800
H  -11.81100 21.57200 38.18200
H  -11.27100 22.22800 39.69200
H  -16.99600 21.36500 41.39900
H  -15.96900 20.20400 42.33100
H  -16.68100 19.81700 40.71200
H  -16.45500 15.92800 41.99800
H  -15.30900 13.67700 43.18100
H  -16.55600 16.73900 44.22200
H  -14.85800 16.16400 44.65700
H  -16.25000 15.03900 44.48000
H  -15.21500 13.74700 40.17100
H  -16.74100 14.29800 40.79500
H  -15.79400 11.57400 41.99300
H  -16.46400 11.70200 40.33800
H  -17.36400 12.11700 41.75000
H  -9.64000 10.73400 43.39400
H  -10.66300 10.47000 42.10900
H  -11.33600 11.16800 43.66400
H  -6.76900 13.58500 40.18700
H  -2.82800 15.24500 41.42600
H  -3.72300 15.25900 42.97700
H  -4.01300 16.45000 41.87800

