158

Mg 2.10500 -1.84600 44.69800
C  5.38100 -0.66600 44.38500
C  0.99000 0.92100 43.03000
C  -0.82300 -3.45600 44.16300
C  3.48200 -4.94400 45.79400
N  3.10500 -0.22500 43.72500
C  4.39400 0.15600 43.80000
C  4.54900 1.59900 43.31800
C  3.15900 2.12000 43.35100
C  2.37400 0.84500 43.31600
C  2.65400 2.91400 44.55800
C  5.35500 1.71400 41.96200
C  6.88800 2.06900 41.99100
H  7.82300 1.40500 41.08200
N  0.32200 -1.38000 43.69800
C  0.05300 -0.10600 43.11600
C  -1.23900 -0.11200 42.54700
C  -1.78700 -1.41200 42.87100
C  -0.74200 -2.15100 43.58500
C  -1.74600 1.09500 41.77600
C  -3.25200 -1.81000 42.59200
O  -3.98300 -1.14900 41.86300
C  -3.92000 -2.96400 43.27000
N  1.39300 -4.05800 44.72400
C  0.12300 -4.37400 44.65200
C  -0.09200 -5.87100 45.03200
C  1.32000 -6.36300 45.53100
C  2.11000 -5.01400 45.35300
C  -1.09500 -6.11300 46.14100
C  1.86600 -7.54100 44.73800
C  2.53700 -8.75600 45.41600
N  4.03500 -2.60400 45.26700
C  4.41800 -3.86000 45.65400
C  5.89500 -3.90300 45.86800
C  6.30700 -2.57800 45.46900
C  5.15100 -1.93500 44.98000
C  6.70500 -5.03700 46.21400
C  7.44400 -1.63800 45.28200
O  8.63800 -1.80100 45.48200
C  6.81300 -0.37400 44.72200
C  7.01000 0.74000 45.85300
O  6.15600 1.09800 46.66700
O  8.08500 1.40900 45.47500
C  8.16200 2.78500 46.05500
H  0.60900 1.86400 42.63300
H  -1.76100 -3.99700 44.02100
H  3.86900 -5.92000 46.09700
H  5.11500 2.05600 44.13000
H  3.05000 2.65100 42.40500
H  1.79400 3.51700 44.26600
H  3.43300 3.56400 44.95500
H  2.33400 2.23600 45.34900
H  4.88600 2.57300 41.48200
H  5.21500 0.74700 41.47700
H  7.30100 1.96400 42.99400
H  7.02600 3.12400 41.75200
H  -1.35400 1.01300 40.76200
H  -1.50400 2.03400 42.27400
H  -2.83200 1.07900 41.68700
H  -3.62100 -3.87000 42.74200
H  -5.00500 -2.87300 43.22700
H  -3.61100 -2.93400 44.31500
H  -0.39600 -6.39500 44.12600
H  1.29100 -6.59600 46.59500
H  -0.74800 -6.93700 46.76300
H  -2.02500 -6.47000 45.69900
H  -1.22600 -5.15600 46.64600
H  2.61100 -7.17200 44.03300
H  1.06000 -7.92700 44.11400
H  2.08400 -8.83000 46.40400
H  3.62700 -8.73300 45.43800
H  2.25600 -9.66400 44.88100
H  6.57900 -5.72100 45.37400
H  6.25500 -5.35200 47.15500
H  7.77600 -4.85600 46.30700
H  7.36000 0.02600 43.86700
H  9.20800 3.01700 45.85400
H  7.82000 3.00900 47.06600
H  7.53000 3.32800 45.35300
Mg 17.02000 51.72700 25.99100
C  18.89800 50.25300 28.46500
C  14.59500 52.59800 28.17100
C  15.22000 52.83900 23.36600
C  19.28700 50.32500 23.63000
N  16.73700 51.32000 28.12100
C  17.70300 50.80900 28.96000
C  17.29700 50.99400 30.39600
C  15.81200 51.28800 30.22800
C  15.63300 51.73500 28.74700
C  14.92000 50.11100 30.68000
C  18.11700 52.19800 31.12000
C  18.31100 52.24300 32.67400
H  17.27700 51.58700 33.63300
N  15.24600 52.66100 25.82600
C  14.44400 53.02300 26.86600
C  13.37000 53.85100 26.34900
C  13.59200 53.93000 24.93700
C  14.68400 53.13900 24.62500
C  12.14700 54.38600 27.18500
C  12.85300 54.69500 23.84900
O  13.42500 55.02300 22.77000
C  11.55900 55.40500 24.12000
N  17.14200 51.43100 23.86700
C  16.34900 52.08800 23.00900
C  16.72300 51.92500 21.47300
C  18.16600 51.23600 21.67200
C  18.17700 50.88900 23.13200
C  15.71100 50.94200 20.73900
C  19.22200 52.29000 21.27300
C  20.00400 51.88100 20.05600
N  18.71900 50.48100 26.01500
C  19.56000 50.11400 24.95600
C  20.72100 49.46300 25.60600
C  20.46900 49.43700 26.96000
C  19.23200 50.01300 27.16700
C  21.85500 48.82500 24.90800
C  20.98400 49.01500 28.20100
O  21.99400 48.41300 28.51000
C  20.01200 49.47900 29.28300
C  19.50000 48.23000 30.06100
O  19.12600 47.14200 29.72700
O  19.53800 48.66000 31.35600
C  19.23200 47.64200 32.36200
H  13.81900 52.87700 28.88600
H  14.77800 53.35800 22.51300
H  20.02100 50.09200 22.85600
H  17.40000 50.07800 30.97800
H  15.56100 52.17900 30.80400
H  13.91000 50.38700 30.37700
H  14.85800 49.93100 31.75300
H  15.16700 49.20900 30.12100
H  17.71300 53.12600 30.71600
H  19.12700 52.06300 30.73200
H  18.31000 53.30400 32.92400
H  19.29200 51.77700 32.76200
H  12.56600 55.00500 27.97800
H  11.55100 53.57000 27.59300
H  11.32700 54.80200 26.60000
H  11.86600 56.19200 24.80900
H  10.74600 54.79400 24.51300
H  11.22100 55.74300 23.14000
H  16.81500 52.81400 20.84900
H  18.21400 50.35000 21.03900
H  14.91900 50.65500 21.43000
H  16.23900 50.06200 20.37200
H  15.40700 51.47000 19.83500
H  20.00600 52.43700 22.01600
H  18.87800 53.28200 20.98200
H  20.44300 52.87100 19.92600
H  19.38200 51.48300 19.25500
H  20.68400 51.14400 20.48300
H  22.00200 49.25000 23.91500
H  21.59800 47.76700 24.84900
H  22.78600 48.97500 25.45300
H  20.50000 50.19700 29.94300
H  19.57900 48.02800 33.32100
H  19.65700 46.65200 32.19300
H  18.14600 47.65800 32.44800

