158

Mg 40.56600 9.68900 29.45500
C  42.47700 10.73400 32.21600
C  38.35200 8.29700 31.56100
C  39.08400 8.41400 26.73100
C  42.97200 11.21100 27.33600
N  40.57400 9.40300 31.67700
C  41.28700 10.09500 32.66400
C  40.60100 9.88900 34.04800
C  39.30700 9.11900 33.74200
C  39.36600 9.00400 32.17000
C  39.03300 7.79100 34.52300
C  40.34700 11.23300 34.89200
C  40.94200 11.24800 36.28200
H  40.60200 12.26800 37.27300
N  38.97900 8.55100 29.17900
C  38.14700 8.09000 30.17400
C  37.10000 7.32400 29.56400
C  37.28000 7.37400 28.18000
C  38.52100 8.13100 27.95600
C  36.06400 6.59400 30.44400
C  36.45900 6.82600 27.08300
O  36.55900 7.22100 25.95800
C  35.21100 5.92700 27.36600
N  40.97400 9.80700 27.29300
C  40.18100 9.21100 26.38100
C  40.67700 9.47600 24.94100
C  41.99800 10.30900 25.14900
C  41.90600 10.57300 26.66900
C  40.91000 8.23700 24.04900
C  42.07600 11.48100 24.27300
C  41.16100 12.75900 24.54100
N  42.32100 10.70900 29.63100
C  43.15300 11.28400 28.74300
C  44.21100 12.02600 29.39900
C  44.06500 11.67600 30.75900
C  42.85100 10.96400 30.90600
C  45.25500 12.86700 28.78700
C  44.50800 11.98500 32.06400
O  45.48600 12.66600 32.41100
C  43.53200 11.41400 33.06800
C  44.35300 10.48500 33.92400
O  44.68500 9.34200 33.68000
O  44.55600 11.05300 35.16700
C  45.23800 10.26500 36.13400
H  37.43300 8.30800 32.15000
H  38.70600 7.93400 25.82600
H  43.75300 11.58900 26.67300
H  41.30100 9.33000 34.66900
H  38.50600 9.82400 33.96500
H  37.98100 7.58300 34.32900
H  39.09300 7.87600 35.60800
H  39.67600 6.98600 34.16700
H  39.27500 11.34900 35.05100
H  40.59900 12.15400 34.36700
H  42.02300 11.33000 36.16800
H  40.75600 10.24200 36.65700
H  35.07400 6.85800 30.07300
H  36.18700 6.96300 31.46200
H  36.15100 5.50800 30.39500
H  35.54200 4.95600 27.73100
H  34.79400 5.69200 26.38600
H  34.45600 6.43600 27.96600
H  39.99100 10.16100 24.44200
H  42.91700 9.76100 24.94100
H  40.54800 7.38700 24.62700
H  41.94700 8.12100 23.73400
H  40.28400 8.31400 23.16000
H  41.81700 11.18300 23.25700
H  43.07200 11.92300 24.26200
H  40.35300 12.85400 23.81600
H  41.76300 13.66200 24.63500
H  40.74300 12.63500 25.54000
H  44.89000 13.13300 27.79500
H  46.09600 12.17400 28.76600
H  45.26000 13.73800 29.44300
H  43.06000 12.22100 33.62900
H  44.83100 9.25400 36.13100
H  45.04700 10.64700 37.13700
H  46.31000 10.20900 35.94400
Mg -11.87000 38.43100 41.01500
C  -9.63900 35.76600 40.62500
C  -9.51200 40.45800 39.52500
C  -14.23700 40.78100 40.64800
C  -14.21100 36.03500 42.03500
N  -9.77000 38.13000 40.21700
C  -9.18900 36.96200 39.99500
C  -7.88800 37.15700 39.24900
C  -7.65700 38.76300 39.24300
C  -9.02800 39.18700 39.72700
C  -6.37900 39.28100 40.00300
C  -7.99500 36.58500 37.84700
C  -7.01900 35.37900 37.57000
H  -5.80500 35.80300 36.75000
N  -11.77600 40.40500 40.34300
C  -10.73400 41.05500 39.84000
C  -11.12200 42.46500 39.63500
C  -12.47300 42.57600 40.01100
C  -12.88800 41.23300 40.35500
C  -10.32400 43.54800 39.13700
C  -13.22600 43.89600 39.98200
O  -12.63500 44.94200 39.65400
C  -14.69100 44.03100 40.27900
N  -13.92200 38.41600 41.39000
C  -14.70000 39.54800 41.13600
C  -16.16300 39.26400 41.42900
C  -16.17100 37.70300 41.81900
C  -14.72700 37.29100 41.69300
C  -16.83200 40.20600 42.46300
C  -17.04600 36.82000 40.94200
C  -18.05200 35.92900 41.72500
N  -11.91000 36.38100 41.42700
C  -12.88000 35.54000 41.89400
C  -12.34600 34.19400 42.20500
C  -11.09800 34.26100 41.67500
C  -10.85400 35.59100 41.24600
C  -13.10600 33.08800 42.81100
C  -9.90600 33.49700 41.43600
O  -9.78600 32.34500 41.79200
C  -8.95600 34.39400 40.60500
C  -7.56200 34.18700 41.22800
O  -6.91300 33.16500 41.18300
O  -7.17300 35.29900 42.07500
C  -5.89600 35.29900 42.82400
H  -8.78300 41.12200 39.05500
H  -15.05400 41.46600 40.41100
H  -14.97200 35.28300 42.25200
H  -7.02500 36.71600 39.74700
H  -7.41900 39.11100 38.23800
H  -6.73000 40.12200 40.60200
H  -5.63700 39.71100 39.33000
H  -5.94400 38.46400 40.57900
H  -7.69500 37.37800 37.16200
H  -9.05400 36.33800 37.77200
H  -7.50900 34.65800 36.91600
H  -6.61200 34.95200 38.48700
H  -10.71600 44.03900 38.24600
H  -9.32900 43.18200 38.88600
H  -9.99500 44.27200 39.88300
H  -14.97600 45.07500 40.41100
H  -14.80200 43.49800 41.22300
H  -15.29200 43.67400 39.44300
H  -16.63000 39.33200 40.44600
H  -16.44800 37.63500 42.87100
H  -17.44100 40.99900 42.03000
H  -16.07700 40.56100 43.16500
H  -17.54500 39.60500 43.02800
H  -16.46700 36.17100 40.28600
H  -17.62700 37.51200 40.33200
H  -17.76800 35.95500 42.77700
H  -18.05600 34.85100 41.56900
H  -19.00100 36.46600 41.73600
H  -13.72500 32.61100 42.05100
H  -13.85900 33.55000 43.44900
H  -12.46000 32.33200 43.25600
H  -8.89300 33.96300 39.60500
H  -5.14700 36.01200 42.47800
H  -5.40000 34.32900 42.82700
H  -6.15500 35.52200 43.85900

