158

Mg 35.54300 3.17700 30.23300
C  32.90900 4.38200 32.33500
C  37.60800 3.46800 32.93800
C  38.07300 2.30900 28.22000
C  33.30900 3.01000 27.52300
N  35.27400 3.90400 32.40400
C  34.13900 4.27000 33.08300
C  34.36900 4.29500 34.60600
C  35.92900 4.40700 34.70200
C  36.30300 3.88500 33.28300
C  36.50600 5.83400 34.90200
C  33.73400 3.12400 35.35400
C  33.22700 3.45000 36.77900
H  33.82700 4.58700 37.55500
N  37.60300 2.89500 30.55200
C  38.25800 2.96200 31.75500
C  39.64600 2.49900 31.60400
C  39.86500 2.16800 30.22900
C  38.50500 2.49400 29.59000
C  40.73300 2.56200 32.69800
C  41.11600 1.62000 29.55800
O  41.22100 1.42600 28.35700
C  42.35000 1.33100 30.37500
N  35.74900 3.09300 28.09300
C  36.84300 2.54200 27.57100
C  36.58000 2.04800 26.11600
C  35.05800 2.05700 26.07500
C  34.68100 2.80600 27.25700
C  37.35300 3.04900 25.14300
C  34.41400 0.66200 25.90800
C  33.98300 0.31600 24.47200
N  33.59600 3.61100 29.92400
C  32.75200 3.46100 28.76800
C  31.50100 4.00800 29.01700
C  31.46600 4.27400 30.40100
C  32.74900 4.06200 30.94500
C  30.34800 3.96100 28.03100
C  30.61400 4.74100 31.56600
O  29.43900 5.07000 31.62000
C  31.52100 4.61600 32.81600
C  31.42700 5.77800 33.73800
O  32.09400 6.79400 33.70500
O  30.42700 5.53100 34.65800
C  30.38000 6.46300 35.83700
H  38.27500 3.47100 33.80300
H  38.74700 1.68300 27.63100
H  32.50200 2.91700 26.79300
H  33.80400 5.14100 34.99800
H  36.24200 3.81900 35.56500
H  37.08100 6.09800 34.01500
H  37.15800 5.89300 35.77400
H  35.72300 6.58300 35.01900
H  34.39100 2.27400 35.53300
H  32.90500 2.91800 34.67700
H  33.37700 2.63000 37.48100
H  32.14100 3.54600 36.74200
H  41.12800 1.57900 32.95200
H  40.35800 2.95100 33.64500
H  41.53800 3.27600 32.51800
H  43.14500 0.95800 29.73000
H  42.04900 0.52300 31.04200
H  42.78200 2.13800 30.96700
H  36.99200 1.04600 25.99200
H  34.80400 2.75100 25.27400
H  38.12900 3.56300 25.71000
H  36.78200 3.89000 24.75100
H  37.93700 2.48000 24.42000
H  33.54700 0.47900 26.54300
H  35.11200 -0.15000 26.11100
H  34.07400 1.19600 23.83500
H  32.92400 0.06000 24.44300
H  34.56100 -0.49900 24.03700
H  30.18200 2.96700 27.61500
H  30.64700 4.69400 27.28100
H  29.46100 4.21700 28.61000
H  31.17700 3.74400 33.37300
H  29.74600 7.32100 35.61300
H  31.38500 6.71800 36.17200
H  29.93700 5.96400 36.69900
Mg 54.69600 24.55100 44.63700
C  51.95900 26.69000 43.71300
C  53.07700 22.00500 43.04800
C  57.66300 22.91900 44.41300
C  56.24800 27.39900 45.99500
N  52.77200 24.46400 43.53800
C  51.88400 25.41300 43.11600
C  50.84700 24.93400 42.17600
C  50.98500 23.33400 42.37300
C  52.38000 23.22600 43.04000
C  49.81300 22.68700 43.27400
C  51.14800 25.28000 40.62100
C  50.08200 25.97200 39.60900
H  49.70000 25.29000 38.26400
N  55.26100 22.54700 44.08800
C  54.40900 21.65500 43.42100
C  55.24200 20.41400 43.19200
C  56.61100 20.73600 43.55500
C  56.56000 22.12700 44.05600
C  54.62300 19.15800 42.63000
C  57.78300 19.81200 43.45300
O  57.65400 18.73500 42.88000
C  59.13200 20.10500 43.99200
N  56.71400 25.11600 45.15500
C  57.74200 24.25900 44.92600
C  59.06000 24.90600 45.35100
C  58.62300 26.33600 45.79800
C  57.11600 26.28000 45.71400
C  59.87600 24.08500 46.38400
C  59.25700 27.46400 44.94400
C  59.63900 28.61700 45.85100
N  54.22000 26.61500 44.90000
C  54.92900 27.57300 45.58200
C  54.12600 28.78600 45.65200
C  52.97000 28.52900 44.89700
C  53.02700 27.16100 44.50400
C  54.41000 30.02400 46.42900
C  51.78100 29.04200 44.26400
O  51.36100 30.22000 44.14200
C  51.13500 27.86500 43.55800
C  50.76800 28.22900 42.18700
O  51.44400 28.80100 41.32200
O  49.43600 28.14600 42.11700
C  48.68900 28.78500 41.01100
H  52.48100 21.18900 42.63500
H  58.71600 22.63200 44.43300
H  56.72900 28.34000 46.27100
H  49.84400 25.30400 42.38600
H  51.07100 22.79700 41.42800
H  50.14600 22.39300 44.27000
H  49.45800 21.74400 42.85700
H  48.99300 23.40200 43.34200
H  51.44200 24.38900 40.06600
H  52.00800 25.94300 40.71600
H  50.52900 26.95700 39.47700
H  49.17600 26.08000 40.20400
H  53.69600 19.45600 42.14000
H  54.50200 18.40700 43.41100
H  55.28300 18.73500 41.87300
H  59.76200 19.22600 43.85100
H  59.10300 20.48100 45.01400
H  59.46100 20.96400 43.40600
H  59.66900 25.13100 44.47600
H  58.83500 26.49800 46.85500
H  59.27400 23.22900 46.69100
H  60.05700 24.68700 47.27500
H  60.76500 23.65700 45.92000
H  58.58300 27.91600 44.21700
H  60.12400 27.04400 44.43400
H  59.12100 29.53900 45.58600
H  60.70500 28.73300 45.65800
H  59.30700 28.54700 46.88700
H  55.11800 30.61300 45.84700
H  54.85100 29.84000 47.40900
H  53.46700 30.56800 46.47400
H  50.23800 27.92800 44.17400
H  47.94400 28.09100 40.62200
H  49.28900 29.06200 40.14500
H  48.28200 29.69400 41.45500

