158

Mg 25.48400 1.65300 29.87000
C  27.62600 1.52500 32.76900
C  22.91400 2.08700 31.95500
C  23.51900 1.61800 27.27100
C  28.23700 0.62500 27.98200
N  25.46700 1.64300 32.21400
C  26.36700 1.83100 33.16900
C  25.79600 2.21600 34.50500
C  24.24700 2.31600 34.23100
C  24.19300 1.95300 32.71100
C  23.41300 1.30600 35.16200
C  26.47700 3.54900 35.04700
C  27.30400 3.41600 36.34100
H  27.09900 4.42000 37.49100
N  23.50800 1.79900 29.66200
C  22.60600 1.97800 30.65900
C  21.26200 2.10800 30.08900
C  21.44000 2.00200 28.66500
C  22.83500 1.82900 28.46200
C  20.05300 2.36500 30.90700
C  20.34600 2.06500 27.56600
O  20.61700 2.02000 26.37000
C  18.84900 2.08800 27.84400
N  25.79900 1.20300 27.93600
C  24.88900 1.36600 27.00300
C  25.48800 1.36600 25.62700
C  26.96900 0.98000 25.79600
C  27.02400 0.96500 27.35600
C  24.74800 0.42000 24.54500
C  28.03600 1.82700 25.17000
C  28.14700 3.34100 25.51000
N  27.49800 1.19400 30.22200
C  28.52000 0.76600 29.38000
C  29.76000 0.56300 30.14200
C  29.44100 0.82500 31.45400
C  28.12900 1.29100 31.44700
C  31.00300 0.08700 29.54300
C  29.92000 0.89600 32.79400
O  31.05500 0.64400 33.18700
C  28.81200 1.40200 33.70000
C  28.67900 0.47400 34.78400
O  28.20400 -0.69100 34.76400
O  29.22000 1.08200 35.86200
C  29.37000 0.24500 37.00200
H  22.13100 2.42100 32.63800
H  22.82400 1.69600 26.43200
H  29.04900 0.16100 27.41900
H  26.08400 1.30700 35.03400
H  23.94400 3.32700 34.50100
H  22.76000 0.72700 34.51100
H  22.75100 1.92000 35.77400
H  23.99400 0.66100 35.82100
H  25.65000 4.22600 35.26600
H  27.09400 3.99700 34.26700
H  28.36700 3.44900 36.10100
H  26.98200 2.42700 36.66900
H  19.15400 1.87600 30.53300
H  19.93000 3.42800 30.70000
H  20.22300 2.20100 31.97100
H  18.72200 3.00200 28.42400
H  18.63600 1.29100 28.55600
H  18.25900 1.99000 26.93300
H  25.35500 2.38900 25.27500
H  27.12200 -0.03800 25.43900
H  23.83200 -0.05100 24.90100
H  25.28600 -0.46200 24.19500
H  24.58200 1.01200 23.64500
H  27.80300 1.89900 24.10800
H  28.99900 1.31900 25.21100
H  29.03000 3.31100 26.14800
H  27.19100 3.67400 25.91400
H  28.32800 3.90300 24.59300
H  31.09900 0.36600 28.49300
H  31.18200 -0.97800 29.69100
H  31.79500 0.57100 30.11300
H  29.07800 2.40100 34.04500
H  29.59600 -0.80600 36.82400
H  28.37600 0.29900 37.44700
H  30.13000 0.68600 37.64800
Mg 50.44200 46.62700 41.15300
C  47.08700 47.36300 40.02600
C  49.82700 43.34400 40.16500
C  53.77400 46.18900 41.04900
C  50.85500 50.14000 41.59100
N  48.57800 45.52100 40.32100
C  47.43700 46.00100 39.83400
C  46.56300 44.93700 39.17900
C  47.34900 43.62100 39.66900
C  48.68300 44.19100 40.05200
C  46.81000 42.81200 40.79900
C  46.40000 45.15800 37.63800
C  44.94600 45.16700 37.15500
H  44.66300 43.99800 36.13000
N  51.69300 44.93600 40.71100
C  51.16900 43.65600 40.38000
C  52.34700 42.83600 40.30600
C  53.53600 43.62800 40.51300
C  53.05900 44.94900 40.80300
C  52.32200 41.35900 40.04200
C  54.94600 43.00600 40.46700
O  55.16800 41.84000 40.12500
C  56.04100 43.95200 40.76400
N  52.11700 48.05200 41.16400
C  53.33300 47.52800 41.24800
C  54.33400 48.65000 41.72700
C  53.42200 49.90600 41.98100
C  52.01800 49.38400 41.52000
C  55.20100 48.27400 42.98900
C  53.91900 51.25800 41.28300
C  54.08400 52.49700 42.21500
N  49.19200 48.42600 41.10800
C  49.51300 49.74900 41.23300
C  48.31900 50.53300 41.06700
C  47.34200 49.66200 40.51700
C  47.96400 48.37400 40.50300
C  48.34100 52.02300 41.24800
C  46.07200 49.59900 39.90800
O  45.32600 50.53500 39.62900
C  45.80400 48.06100 39.69500
C  44.71100 47.70600 40.66600
O  44.86300 47.41200 41.80000
O  43.50600 47.98200 40.11500
C  42.41700 48.13300 41.07900
H  49.55400 42.31800 39.91100
H  54.86200 46.23300 41.13000
H  50.98400 51.20400 41.79900
H  45.53700 44.94400 39.54700
H  47.61700 42.91400 38.88400
H  46.59900 41.81800 40.40700
H  45.89300 43.18200 41.25700
H  47.54300 42.69400 41.59700
H  46.91700 44.32500 37.16300
H  46.81900 46.04300 37.15800
H  44.69600 46.13400 36.71700
H  44.14300 45.04100 37.88100
H  51.34500 41.00800 39.71200
H  52.57200 40.93800 41.01600
H  53.00000 41.08200 39.23500
H  55.82800 44.41900 41.72600
H  55.98600 44.67300 39.94900
H  56.94300 43.34400 40.69600
H  55.05500 48.81900 40.92700
H  53.49600 50.09300 43.05200
H  56.21400 48.28600 42.58700
H  54.93300 47.31200 43.42600
H  55.18700 48.91800 43.86900
H  53.23300 51.36200 40.44300
H  54.93600 51.06300 40.94100
H  53.70000 53.28200 41.56500
H  55.13200 52.65900 42.46700
H  53.56500 52.50200 43.17300
H  49.22700 52.39600 40.73600
H  48.23000 52.34400 42.28400
H  47.51300 52.54300 40.76700
H  45.47900 47.95800 38.66000
H  41.50300 47.57600 40.87200
H  42.16600 49.18900 40.97800
H  42.64400 47.78500 42.08600

