158

Mg -0.96800 17.80700 27.37000
C  -1.85900 15.56600 29.85100
C  -1.84000 20.37000 29.37900
C  -0.85500 19.67800 24.60900
C  -0.62900 14.90900 25.15200
N  -1.72800 17.92200 29.44600
C  -1.79400 16.88100 30.32700
C  -2.22000 17.41100 31.75700
C  -2.14000 19.00800 31.53500
C  -1.87700 19.16500 30.00600
C  -3.44400 19.72900 32.02000
C  -1.63200 16.96000 33.07900
C  -2.56200 16.85600 34.31500
H  -1.96100 16.29200 35.58300
N  -1.23000 19.75800 27.00200
C  -1.45900 20.67100 28.00000
C  -1.40700 21.98800 27.45600
C  -1.31500 21.81500 25.99400
C  -1.13300 20.33700 25.79800
C  -1.37700 23.23100 28.31000
C  -1.17200 22.85400 24.84700
O  -1.01500 22.58200 23.65500
C  -1.08000 24.30000 25.29700
N  -0.80000 17.27900 25.18400
C  -0.67000 18.28500 24.26200
C  -0.64000 17.76200 22.84000
C  -0.21300 16.30800 23.05700
C  -0.57500 16.15500 24.54400
C  -1.92300 18.05400 21.99000
C  1.27500 15.97900 22.72200
C  2.42600 16.24600 23.71300
N  -1.15900 15.73700 27.39300
C  -0.97100 14.69200 26.46000
C  -1.25000 13.46100 27.09700
C  -1.66700 13.71300 28.38500
C  -1.55100 15.14300 28.54600
C  -1.27900 12.13100 26.44700
C  -2.06400 13.14100 29.66500
O  -2.05400 11.95700 30.04800
C  -2.30000 14.36100 30.63200
C  -1.44000 14.01600 31.91200
O  -0.21700 14.18200 32.05200
O  -2.26500 13.37400 32.87200
C  -1.45200 12.79600 33.96400
H  -1.84400 21.14500 30.14800
H  -0.88200 20.27500 23.69500
H  -0.30300 14.12700 24.46300
H  -3.23800 17.02200 31.80100
H  -1.29300 19.46300 32.04700
H  -3.15800 20.59800 32.61400
H  -4.08400 19.09600 32.63500
H  -4.11200 20.08500 31.23600
H  -0.95300 17.77600 33.32400
H  -1.01100 16.06400 33.10900
H  -3.21000 16.03000 34.02200
H  -3.12300 17.78100 34.44900
H  -0.54100 23.90700 28.13200
H  -1.37300 23.10700 29.39300
H  -2.32200 23.74800 28.14800
H  -1.00300 24.96700 24.43900
H  -0.11500 24.57500 25.72300
H  -1.91000 24.68600 25.88900
H  0.21700 18.19400 22.32400
H  -0.76500 15.57900 22.46400
H  -2.32100 17.07400 21.72800
H  -1.68600 18.64800 21.10700
H  -2.70200 18.59100 22.53200
H  1.61900 16.60100 21.89600
H  1.42800 14.93100 22.46300
H  2.06400 16.71600 24.62700
H  3.24600 16.87700 23.37000
H  2.93300 15.29500 23.87700
H  -0.71400 11.43700 27.06900
H  -0.83300 12.04800 25.45500
H  -2.31500 11.79300 26.46500
H  -3.37900 14.37400 30.78700
H  -0.53100 13.29500 34.26700
H  -1.21300 11.77000 33.68600
H  -2.08800 12.62400 34.83200
Mg 0.84600 42.87400 25.12400
C  2.10400 43.09800 28.45000
C  -2.03100 41.69700 26.54600
C  -0.05400 42.14700 22.02200
C  4.09900 43.73800 23.92900
N  0.17100 42.44000 27.24300
C  0.81000 42.73400 28.45100
C  -0.08300 42.59400 29.69300
C  -1.29900 41.91100 29.02500
C  -1.08800 42.05000 27.50000
C  -1.48300 40.44000 29.43300
C  -0.37100 43.93600 30.42400
C  -1.56100 44.05400 31.45500
H  -2.18600 42.67400 31.80200
N  -0.97200 42.16100 24.33200
C  -2.03000 41.66600 25.06100
C  -2.91900 40.94700 24.13000
C  -2.44500 41.20600 22.79900
C  -1.12100 41.90900 23.00700
C  -4.21800 40.27200 24.53600
C  -3.03900 40.99100 21.45900
O  -2.49800 41.33100 20.43100
C  -4.36200 40.32200 21.34300
N  1.93500 42.82700 23.23900
C  1.28900 42.55200 22.14700
C  2.17700 42.53400 20.95300
C  3.34800 43.48200 21.47700
C  3.17500 43.27900 22.99400
C  2.57200 41.04600 20.51900
C  3.28800 44.89700 20.94500
C  3.03500 46.13600 21.85700
N  2.71300 43.31400 25.92500
C  3.86700 43.78800 25.30700
C  4.84700 44.08100 26.36600
C  4.23100 43.76000 27.53300
C  2.92000 43.31800 27.27800
C  6.21200 44.66900 26.14400
C  4.48000 43.72200 28.94100
O  5.47600 43.96600 29.59800
C  3.08300 43.38300 29.63600
C  3.25500 42.15200 30.42400
O  3.88000 41.14600 30.03900
O  2.60900 42.27800 31.65400
C  2.23700 41.00100 32.44900
H  -2.90000 41.30400 27.07700
H  -0.40500 41.80500 21.04600
H  5.00900 44.04400 23.40900
H  0.34400 41.80000 30.30700
H  -2.23500 42.40200 29.29000
H  -1.03900 39.89800 28.59800
H  -2.54700 40.22800 29.53400
H  -1.00900 40.16100 30.37400
H  -0.46600 44.76600 29.72400
H  0.55800 44.20200 30.92800
H  -2.41400 44.58600 31.03400
H  -1.31500 44.58400 32.37600
H  -4.83300 41.07500 24.12800
H  -4.31700 40.24400 25.62100
H  -4.43200 39.30600 24.07800
H  -5.15500 41.03500 21.56800
H  -4.42600 39.40100 21.92300
H  -4.43900 39.99200 20.30600
H  1.52200 42.82000 20.13000
H  4.33800 43.13500 21.18100
H  2.07100 40.37700 21.21900
H  3.61500 40.81100 20.73600
H  2.30800 40.86300 19.47800
H  2.49000 44.97700 20.20700
H  4.25500 45.06600 20.47200
H  2.43000 46.74700 21.18800
H  3.98800 46.64500 21.99900
H  2.65500 45.89500 22.85000
H  6.91500 43.91200 26.48900
H  6.30000 45.58300 26.73100
H  6.40000 44.82200 25.08100
H  2.82400 44.29200 30.17800
H  1.19000 41.11700 32.73000
H  2.91500 40.85300 33.29000
H  2.30600 40.11400 31.81800

