158

Mg 39.62700 10.38400 29.16700
C  41.65200 11.86400 31.65700
C  37.68200 9.09000 31.75600
C  38.06900 8.67500 26.83700
C  42.20000 11.03400 26.90200
N  39.58400 10.62800 31.43800
C  40.49200 11.36800 32.21000
C  40.13000 11.32300 33.69500
C  38.98200 10.19900 33.69000
C  38.76800 9.86000 32.22400
C  39.16600 8.91200 34.57900
C  39.61300 12.62200 34.35000
C  39.11800 12.48100 35.80300
H  39.90300 13.26500 36.80200
N  37.98000 9.21400 29.24900
C  37.33600 8.68000 30.35800
C  36.23500 7.87200 29.89500
C  36.28400 7.89000 28.46000
C  37.50900 8.57000 28.10900
C  35.25500 7.16000 30.80000
C  35.23700 7.34000 27.47700
O  35.29200 7.55500 26.28500
C  34.03800 6.65200 28.01900
N  40.15400 9.83400 27.10800
C  39.26800 9.18300 26.35000
C  39.73900 9.26100 24.85300
C  40.99300 10.24700 24.93600
C  41.12800 10.36900 26.39300
C  40.14100 7.85500 24.20600
C  40.81900 11.53200 24.16700
C  40.08100 12.79000 24.96500
N  41.50900 11.20400 29.23200
C  42.41500 11.41900 28.18900
C  43.59000 12.15600 28.69700
C  43.34500 12.35000 30.06200
C  42.11600 11.77100 30.33500
C  44.82000 12.64200 27.92300
C  43.85800 12.90900 31.25200
O  44.88700 13.60400 31.40400
C  42.75600 12.73000 32.28100
C  43.32200 12.17800 33.61000
O  43.72500 11.05300 33.78900
O  43.19900 13.08900 34.60400
C  43.56600 12.70600 35.91800
H  37.00200 8.77000 32.54900
H  37.53700 8.08900 26.08400
H  42.96100 11.35500 26.18800
H  40.95500 10.87100 34.24500
H  38.04600 10.60800 34.06900
H  38.28400 8.67500 35.17400
H  39.96700 9.11600 35.29000
H  39.37800 8.02900 33.97700
H  38.86200 13.09800 33.71900
H  40.50900 13.24100 34.41100
H  39.08900 11.50200 36.28100
H  38.09800 12.84300 35.66900
H  34.35500 7.77500 30.82400
H  35.71100 7.17900 31.79000
H  34.94400 6.14700 30.54700
H  33.47000 6.32000 27.15000
H  33.47400 7.24000 28.74300
H  34.41400 5.72000 28.44200
H  38.90500 9.67300 24.28600
H  41.80000 9.74800 24.39900
H  41.22800 7.78000 24.17600
H  39.74200 7.75900 23.19700
H  39.52800 7.21400 24.84000
H  40.12800 11.42500 23.33000
H  41.75600 11.82800 23.69500
H  40.11000 12.51700 26.02000
H  39.12800 13.12300 24.55300
H  40.69700 13.68400 24.87200
H  44.65800 13.52400 27.30400
H  45.28000 11.84300 27.34000
H  45.56400 12.82200 28.69900
H  42.22800 13.66900 32.44700
H  44.64900 12.66000 36.03100
H  43.11700 11.76600 36.23700
H  43.24500 13.45000 36.64700
Mg 47.64000 26.43800 28.15800
C  48.87700 28.50700 30.82100
C  46.42000 24.27300 30.52300
C  47.08900 24.21100 25.74000
C  49.41700 28.52100 25.93600
N  47.72300 26.41600 30.46000
C  48.15700 27.36500 31.35200
C  47.70600 27.08500 32.80700
C  47.08400 25.65600 32.64400
C  47.02900 25.42400 31.10100
C  47.84600 24.54500 33.52500
C  46.64400 28.11700 33.25500
C  45.68200 27.64400 34.44300
H  45.50700 28.52100 35.64200
N  46.89000 24.46000 28.11900
C  46.45900 23.77700 29.23500
C  46.09800 22.44600 28.82200
C  46.30500 22.36200 27.39100
C  46.78200 23.68800 27.00500
C  45.61800 21.41100 29.84000
C  46.22300 21.13700 26.44400
O  46.55400 21.26400 25.26500
C  45.78700 19.79900 26.91800
N  48.07400 26.44300 26.11800
C  47.58600 25.46500 25.34500
C  47.83700 25.88400 23.83800
C  48.65700 27.24300 23.90500
C  48.71200 27.48000 25.37800
C  48.56300 24.91800 22.82500
C  47.99000 28.36500 23.14900
C  48.91600 29.44500 22.54800
N  48.85100 28.21200 28.30300
C  49.51500 28.87400 27.29300
C  50.30600 29.90500 27.84000
C  50.02400 29.89200 29.23000
C  49.16700 28.76200 29.48300
C  51.26500 30.81300 27.08900
C  50.29400 30.55900 30.42000
O  51.06900 31.50600 30.66700
C  49.40000 29.77300 31.48400
C  50.33300 29.35200 32.57900
O  51.23600 28.58500 32.42000
O  50.06500 30.06800 33.69000
C  51.13600 29.93200 34.73100
H  45.98200 23.64800 31.30500
H  46.91100 23.51500 24.91800
H  50.18900 28.95700 25.30000
H  48.61700 27.08400 33.40500
H  46.06300 25.72100 33.02100
H  48.58400 25.08600 34.11600
H  48.36500 23.82400 32.89400
H  47.12200 24.06000 34.18000
H  46.12900 28.41800 32.34300
H  47.20200 29.01700 33.51400
H  46.04000 26.72700 34.91000
H  44.65500 27.55500 34.08600
H  44.54000 21.29300 29.73700
H  45.81000 21.59600 30.89700
H  46.02500 20.42900 29.59600
H  46.60900 19.47000 27.55400
H  45.68900 19.23200 25.99200
H  44.87100 19.79400 27.50900
H  46.82000 26.16400 23.56100
H  49.68600 27.14400 23.55900
H  47.81600 24.56900 22.11200
H  48.95600 24.14300 23.48200
H  49.28500 25.44700 22.20300
H  47.36500 28.87700 23.88100
H  47.31500 27.95800 22.39600
H  48.70900 30.47400 22.84100
H  48.84800 29.38500 21.46200
H  49.96000 29.23000 22.77700
H  51.56500 31.51400 27.86900
H  50.83700 31.25000 26.18700
H  52.14400 30.21000 26.86200
H  48.61400 30.48000 31.75000
H  52.11800 29.89200 34.26000
H  51.00100 29.06800 35.38200
H  51.07500 30.75700 35.44100

