158

Mg 53.59500 24.16400 44.19300
C  50.89200 26.46900 43.38300
C  51.73200 21.69800 42.63100
C  56.28600 22.39600 44.26900
C  55.42400 26.95600 45.46900
N  51.65000 24.22300 43.00200
C  50.67400 25.17000 42.86100
C  49.50700 24.62500 42.07500
C  49.66900 23.05400 42.38800
C  51.13500 22.94500 42.62100
C  48.79000 22.47600 43.51600
C  49.56300 24.95600 40.52200
C  50.67300 25.82200 39.87500
H  51.71800 25.11600 39.03300
N  53.96600 22.23400 43.57100
C  53.04600 21.34500 43.02500
C  53.65900 20.00300 43.09000
C  54.96800 20.18400 43.62700
C  55.13500 21.69200 43.79500
C  52.96800 18.73100 42.65000
C  55.88100 19.13600 44.02400
O  55.62300 17.98700 43.66400
C  57.17500 19.27400 44.82200
N  55.66500 24.61100 44.68100
C  56.59000 23.72200 44.49000
C  57.95600 24.31500 45.00300
C  57.72200 25.82800 45.25700
C  56.18400 25.79800 45.22900
C  58.55000 23.70100 46.27600
C  58.20800 26.88700 44.25400
C  58.86200 28.24700 44.78500
N  53.21300 26.25100 44.53600
C  54.02900 27.22800 45.10800
C  53.23900 28.45400 45.23800
C  52.02600 28.16600 44.56500
C  52.09000 26.85700 44.03100
C  53.74500 29.63900 45.97700
C  50.73000 28.77800 44.23400
O  50.26000 29.88300 44.49300
C  49.96500 27.67600 43.37200
C  49.68500 28.26900 42.08000
O  50.53600 28.70400 41.34300
O  48.35600 28.21400 41.75300
C  47.75400 28.74500 40.48700
H  51.17300 20.84600 42.23900
H  57.20900 21.81900 44.35000
H  55.89200 27.89300 45.77900
H  48.57500 25.08800 42.39600
H  49.40500 22.59200 41.43600
H  47.98000 23.13700 43.82300
H  49.40900 22.11800 44.33900
H  48.21700 21.63900 43.11500
H  48.69800 25.56000 40.24600
H  49.40800 23.98200 40.05700
H  51.19700 26.46000 40.58600
H  50.23600 26.64400 39.30700
H  52.83300 18.32400 43.65200
H  53.57600 18.02700 42.08100
H  52.03700 18.87900 42.10200
H  57.32700 18.35700 45.39100
H  57.02700 20.10300 45.51400
H  57.93200 19.51700 44.07500
H  58.68700 24.18100 44.20500
H  58.02900 26.20600 46.23200
H  59.63300 23.61100 46.18600
H  58.15000 22.71600 46.51700
H  58.37500 24.24900 47.20200
H  57.40000 26.97500 43.52700
H  59.01900 26.41500 43.70000
H  58.68900 28.36600 45.85400
H  58.41000 29.08500 44.25500
H  59.91300 28.34300 44.51100
H  54.57200 30.05600 45.40100
H  54.00800 29.36000 46.99700
H  52.86800 30.26800 46.12900
H  49.02100 27.44100 43.86400
H  48.38100 28.48200 39.63500
H  47.53800 29.81200 40.52000
H  46.73100 28.37200 40.45100
Mg 27.24600 50.47500 26.19800
C  25.25200 51.37800 28.98000
C  29.56200 49.44700 28.63000
C  29.39000 50.05600 23.74700
C  24.82700 51.45100 24.07800
N  27.38100 50.42300 28.54800
C  26.46500 50.86600 29.44900
C  26.84000 50.64400 30.95100
C  28.35100 50.39000 30.73800
C  28.40800 49.96200 29.22900
C  29.44700 51.54000 31.01600
C  26.06800 49.38900 31.57500
C  25.00200 49.75700 32.64500
H  25.33400 49.24200 34.08300
N  29.10400 49.62500 26.13200
C  29.91400 49.27200 27.27100
C  31.21000 48.86700 26.81100
C  31.17000 49.04600 25.35100
C  29.90300 49.60500 25.00500
C  32.36800 48.35700 27.74400
C  32.28400 48.74600 24.38300
O  32.12100 48.94200 23.17200
C  33.73100 48.28000 24.75900
N  27.19000 50.81300 24.24900
C  28.15900 50.52900 23.35100
C  27.77900 50.93700 21.85600
C  26.19800 50.96600 22.07900
C  26.05000 51.11500 23.59200
C  28.36900 52.22900 21.26100
C  25.39700 49.68100 21.63500
C  24.10000 50.01200 20.94600
N  25.37900 51.26300 26.39700
C  24.47200 51.58100 25.43100
C  23.35300 52.20200 26.11400
C  23.61600 52.11400 27.48300
C  24.87200 51.56100 27.64000
C  22.26400 52.99600 25.45600
C  23.14000 52.49300 28.71800
O  22.02800 53.01000 29.03500
C  24.05400 51.88000 29.73400
C  24.41000 52.91900 30.77900
O  25.34600 53.68700 30.77300
O  23.31800 52.96000 31.66700
C  23.49800 54.07400 32.63600
H  30.35400 49.18100 29.33300
H  30.02400 49.92600 22.86800
H  24.03100 51.74000 23.38800
H  26.76700 51.57000 31.52200
H  28.74500 49.52500 31.27000
H  30.21200 51.16800 31.69700
H  29.06100 52.48400 31.40100
H  29.92500 51.91600 30.11100
H  26.70000 48.61100 32.00200
H  25.43100 48.97800 30.79300
H  24.07200 49.30600 32.29800
H  24.82500 50.83200 32.67700
H  32.19500 48.29000 28.81800
H  33.30900 48.90100 27.65700
H  32.66500 47.35100 27.44900
H  34.25600 48.84200 25.53100
H  34.26900 48.33300 23.81200
H  33.87600 47.23800 25.04500
H  27.95700 50.15400 21.12000
H  25.83100 51.84400 21.54600
H  29.13400 52.52500 21.97900
H  27.60100 53.00000 21.19700
H  28.83100 52.03400 20.29300
H  25.16800 49.02800 22.47700
H  26.01000 48.96900 21.08300
H  23.95000 49.60300 19.94600
H  23.97100 51.08100 20.77400
H  23.24700 49.78200 21.58400
H  21.22900 52.83200 25.75600
H  22.20500 52.85500 24.37700
H  22.58000 54.00800 25.70900
H  23.59700 51.02500 30.23200
H  23.61400 54.93600 31.97800
H  24.39300 53.81800 33.20300
H  22.60300 54.08900 33.25700

