158

Mg 50.32000 47.18400 42.79000
C  47.11300 48.17400 41.59400
C  49.75700 44.06500 41.03000
C  53.58200 46.49600 42.92800
C  50.86600 50.56300 43.61400
N  48.60500 46.20400 41.54600
C  47.43100 46.83300 41.24500
C  46.63600 45.95500 40.29100
C  47.30000 44.50600 40.53100
C  48.65800 44.95300 41.00700
C  46.63700 43.73900 41.62300
C  46.52500 46.37700 38.75100
C  45.16100 46.07500 38.11300
H  45.28700 44.96800 37.05300
N  51.50600 45.51700 42.14500
C  51.09900 44.28200 41.51100
C  52.21200 43.41300 41.30800
C  53.26900 44.02000 42.09100
C  52.81000 45.41600 42.42800
C  52.18400 42.07800 40.62200
C  54.64100 43.38700 42.31000
O  54.90200 42.26200 41.95700
C  55.80300 44.10400 42.94500
N  51.98900 48.32600 43.09700
C  53.26200 47.81200 43.14500
C  54.31200 48.86100 43.55100
C  53.40900 50.12300 43.81500
C  52.01300 49.66200 43.50700
C  55.24900 48.47700 44.72400
C  53.72400 51.45100 43.05600
C  55.19200 51.89300 43.03400
N  49.30600 49.03900 42.72600
C  49.56300 50.27100 43.14200
C  48.52000 51.13900 42.95200
C  47.48600 50.36700 42.40400
C  48.01700 49.06400 42.26400
C  48.47900 52.59600 43.25800
C  46.14300 50.32900 41.78000
O  45.36500 51.21700 41.56900
C  45.87600 48.89700 41.24000
C  44.55300 48.45100 41.86600
O  44.38500 47.89600 42.93500
O  43.53700 48.53000 40.98600
C  42.19300 48.47100 41.51800
H  49.54900 43.05600 40.66800
H  54.65600 46.31600 43.01000
H  51.05700 51.53400 44.07600
H  45.60100 45.83800 40.61400
H  47.23100 43.97000 39.58400
H  47.39000 43.37300 42.32100
H  46.12500 42.86100 41.22900
H  45.88200 44.33200 42.13900
H  47.24400 45.79200 38.17600
H  46.82400 47.42400 38.70800
H  44.81700 46.93600 37.53900
H  44.38100 45.85100 38.84100
H  52.63000 42.23600 39.64000
H  51.17200 41.67400 40.64600
H  52.70900 41.25700 41.11100
H  55.38400 44.60500 43.81700
H  56.08000 44.83300 42.18400
H  56.50000 43.33800 43.28600
H  54.89300 49.10700 42.66200
H  53.44800 50.31900 44.88600
H  55.00700 48.91800 45.69100
H  56.25000 48.81900 44.46100
H  55.28300 47.41900 44.98400
H  53.11300 52.18400 43.58500
H  53.43500 51.35200 42.01000
H  55.50400 51.93800 41.99100
H  55.80900 51.24800 43.66000
H  55.08500 52.89400 43.45400
H  48.50500 52.70400 44.34200
H  47.59900 53.15700 42.94500
H  49.35100 53.12000 42.86500
H  45.78600 48.95400 40.15500
H  42.05500 48.85800 42.52800
H  41.88300 47.42900 41.60100
H  41.51600 49.05200 40.89200
Mg 27.08700 49.05300 26.35900
C  24.79100 50.34100 28.90600
C  29.20800 48.02800 28.93500
C  29.13200 47.86900 24.12900
C  25.00900 50.45900 23.96300
N  26.97100 49.19200 28.66800
C  25.87700 49.66800 29.48700
C  26.19200 49.42600 30.99800
C  27.64700 48.83900 30.95100
C  27.98000 48.69600 29.45100
C  28.70800 49.69700 31.73200
C  25.16600 48.43900 31.67300
C  24.36200 49.04100 32.83400
H  24.19400 48.24700 34.11700
N  28.98500 48.20200 26.50400
C  29.68900 47.79500 27.62300
C  30.89000 47.09200 27.29600
C  30.84100 46.97000 25.84400
C  29.61300 47.67900 25.45600
C  31.87600 46.53300 28.29800
C  31.75000 46.34700 24.87000
O  31.60000 46.41300 23.62500
C  32.89700 45.65100 25.38200
N  27.13800 49.22200 24.27000
C  28.06700 48.55900 23.54600
C  27.65800 48.65700 21.98900
C  26.31500 49.39000 22.03900
C  26.08300 49.66300 23.51300
C  28.73000 49.37200 21.10600
C  25.19900 48.53600 21.38900
C  24.36400 47.51300 22.27000
N  25.27400 50.26600 26.36800
C  24.57100 50.72900 25.30200
C  23.38300 51.46700 25.79500
C  23.45500 51.41400 27.22100
C  24.56200 50.61100 27.52000
C  22.30000 52.04000 24.94900
C  22.74500 51.69700 28.46200
O  21.70300 52.27500 28.61500
C  23.66600 51.11100 29.63200
C  24.08200 52.21800 30.49200
O  24.78600 53.19800 30.16500
O  23.59500 52.01500 31.71400
C  24.06300 52.90900 32.78200
H  29.80600 47.63500 29.76000
H  29.64700 47.36500 23.30900
H  24.40800 50.88200 23.15500
H  26.12100 50.40600 31.46900
H  27.63500 47.85800 31.42600
H  28.22200 50.26400 32.52600
H  29.16000 50.42700 31.06200
H  29.51900 49.07800 32.11600
H  25.61300 47.49800 31.99300
H  24.50800 48.05300 30.89500
H  23.35600 49.12600 32.42200
H  24.63700 50.04700 33.15100
H  32.89000 46.79700 27.99700
H  31.92100 45.44500 28.33700
H  31.74600 46.85700 29.33100
H  33.59300 46.38200 25.79400
H  33.13300 44.95100 24.58000
H  32.58800 45.01900 26.21400
H  27.45100 47.62400 21.70800
H  26.34400 50.40000 21.62900
H  29.01100 48.71100 20.28500
H  29.66500 49.60600 21.61500
H  28.34100 50.29500 20.67700
H  25.57700 48.00400 20.51600
H  24.44300 49.09300 20.83500
H  23.33000 47.84700 22.34800
H  24.68200 47.29900 23.29000
H  24.42900 46.62300 21.64400
H  21.74900 51.39800 24.26200
H  22.77800 52.79800 24.32900
H  21.61100 52.34400 25.73700
H  23.04900 50.36000 30.12500
H  24.02900 53.93800 32.42300
H  25.11000 52.69200 32.99300
H  23.29500 52.84500 33.55200

