158

Mg -1.82600 17.71100 26.99600
C  -2.88300 15.53200 29.49800
C  -2.83600 20.30400 28.81900
C  -1.15700 19.59900 24.32800
C  -1.93500 14.82600 24.67900
N  -2.71500 17.83900 28.99900
C  -2.88500 16.86400 29.92200
C  -3.19200 17.48000 31.34100
C  -3.47500 18.97600 30.99100
C  -2.96600 19.07600 29.50300
C  -4.90300 19.51600 31.32400
C  -2.06900 17.37800 32.31000
C  -2.41000 16.71100 33.61500
H  -1.46500 16.78200 34.79100
N  -2.00100 19.72800 26.66300
C  -2.32900 20.64100 27.57300
C  -2.02500 21.93500 27.01400
C  -1.39900 21.74500 25.79000
C  -1.49000 20.32700 25.48600
C  -2.32000 23.28000 27.77200
C  -0.79400 22.78400 24.96000
O  -0.25600 22.52800 23.84200
C  -0.59300 24.13500 25.41400
N  -1.73700 17.23400 24.77600
C  -1.25800 18.26800 23.92900
C  -1.03700 17.72100 22.57900
C  -1.10200 16.18400 22.68500
C  -1.73500 16.08500 24.12900
C  -1.88500 18.28500 21.35200
C  0.22700 15.58800 22.46400
C  1.35000 15.91900 23.46100
N  -2.29100 15.59400 27.05500
C  -2.22700 14.63000 26.07900
C  -2.54700 13.32600 26.72700
C  -2.79700 13.62100 28.07100
C  -2.70300 15.07300 28.19900
C  -2.26500 12.00800 26.21300
C  -3.04400 12.98400 29.36500
O  -3.24000 11.77300 29.66700
C  -2.93700 14.27600 30.38800
C  -1.71100 14.17500 31.33100
O  -0.53000 14.50100 31.16800
O  -2.18100 13.39200 32.36900
C  -1.13700 13.17200 33.45100
H  -3.00000 21.18800 29.43900
H  -0.75800 20.31600 23.60800
H  -1.95000 13.96000 24.01400
H  -4.11400 17.00600 31.67700
H  -2.79200 19.68200 31.46400
H  -4.88000 20.34200 32.03500
H  -5.63500 18.79300 31.68200
H  -5.29500 19.90700 30.38500
H  -1.61000 18.32300 32.60100
H  -1.27300 16.80700 31.83200
H  -2.64100 15.66600 33.40800
H  -3.33500 17.20000 33.92100
H  -3.04300 23.21900 28.58600
H  -2.70400 23.87300 26.94200
H  -1.37900 23.74100 28.07300
H  -0.04800 24.12400 26.35700
H  -1.54800 24.64600 25.53600
H  0.00900 24.72600 24.72400
H  -0.01000 17.88000 22.25200
H  -1.85800 15.72100 22.05100
H  -1.14900 18.37100 20.55300
H  -2.39000 19.21800 21.60400
H  -2.62900 17.60300 20.94100
H  0.58900 16.02800 21.53500
H  0.17400 14.51100 22.30900
H  0.92900 16.23700 24.41500
H  2.11200 16.61400 23.10900
H  1.92900 15.00600 23.59800
H  -1.26300 11.92500 25.79300
H  -2.85600 11.69000 25.35500
H  -2.34600 11.31400 27.05000
H  -3.82900 14.47200 30.98300
H  -1.06700 12.11600 33.19400
H  -1.58700 13.32700 34.43200
H  -0.22200 13.72500 33.24200
Mg 16.41700 51.97800 26.14800
C  18.36000 51.06600 28.99000
C  13.90200 52.74000 28.34600
C  14.67700 52.90000 23.52600
C  19.01800 50.79700 24.15700
N  16.18300 51.75200 28.44500
C  17.14800 51.65400 29.37800
C  16.76100 51.99200 30.76100
C  15.22300 52.26600 30.47600
C  15.07500 52.28300 28.99400
C  14.28400 51.32200 31.23400
C  17.57700 53.10900 31.41800
C  18.14500 52.84400 32.83600
H  17.39500 52.09900 33.81900
N  14.61300 52.66900 25.94900
C  13.71700 52.98500 26.96800
C  12.52000 53.63200 26.37100
C  12.77400 53.81800 25.01800
C  14.06800 53.05700 24.76600
C  11.36100 54.15600 27.20900
C  11.99500 54.53300 23.95700
O  12.37100 54.61200 22.80400
C  10.72900 55.19000 24.31700
N  16.75900 51.91500 24.08600
C  15.90000 52.34200 23.18500
C  16.40900 52.20500 21.73800
C  17.89500 51.86800 22.06000
C  17.94800 51.47000 23.53500
C  15.68900 51.14600 20.80500
C  18.91700 53.02500 21.77600
C  19.93900 52.76700 20.62700
N  18.24700 51.01400 26.39600
C  19.17200 50.58300 25.45400
C  20.24500 49.88900 26.18100
C  19.96000 50.11600 27.54000
C  18.73900 50.77200 27.64300
C  21.48300 49.24100 25.55100
C  20.44100 49.91600 28.85100
O  21.43900 49.29300 29.23800
C  19.45200 50.50900 29.85300
C  19.01800 49.39300 30.70300
O  18.36000 48.46000 30.36100
O  19.53400 49.54900 31.95200
C  19.11000 48.46200 32.86100
H  13.16600 52.99700 29.11000
H  14.25000 53.37000 22.63800
H  19.85200 50.48600 23.52400
H  16.85000 51.15500 31.45300
H  14.92800 53.23900 30.86800
H  13.89200 50.53000 30.59700
H  13.45500 51.91600 31.61900
H  14.76000 50.77800 32.05000
H  16.98600 54.02200 31.49600
H  18.47300 53.33000 30.83900
H  18.44600 53.81700 33.22500
H  19.10400 52.33500 32.73500
H  11.52900 54.00300 28.27500
H  10.54700 53.47100 26.97300
H  11.02200 55.18600 27.09900
H  10.31700 55.45700 23.34400
H  10.89300 56.06800 24.94200
H  9.99400 54.49300 24.71900
H  16.26600 53.18300 21.27900
H  18.23100 50.99300 21.50300
H  16.41000 50.41300 20.44400
H  15.00700 51.54700 20.05600
H  15.13900 50.51300 21.50200
H  19.54800 53.27800 22.62700
H  18.43200 53.99500 21.67100
H  19.49800 52.47900 19.67300
H  20.54100 51.92000 20.95500
H  20.52800 53.66000 20.41600
H  21.73900 48.36900 26.15300
H  22.25400 50.01000 25.50800
H  21.29800 48.93700 24.52100
H  19.96500 51.26900 30.44300
H  19.45500 47.46400 32.58900
H  18.02500 48.38100 32.79600
H  19.44900 48.75900 33.85300

