158

Mg 35.61200 0.82800 29.73500
C  33.42100 2.54400 31.97400
C  38.05600 1.20900 32.32900
C  37.90200 -0.17900 27.56600
C  33.25500 1.29900 27.32700
N  35.72300 1.71600 31.90400
C  34.63700 2.26900 32.55700
C  34.88900 2.34500 34.03900
C  36.46600 2.26400 34.10100
C  36.77200 1.62500 32.74900
C  37.25000 3.71600 34.31300
C  34.14300 1.11100 34.78600
C  33.67500 1.41700 36.24100
H  34.15400 2.65500 36.96700
N  37.69100 0.39100 29.95700
C  38.49100 0.63500 31.07800
C  39.86800 0.18000 30.78400
C  39.79200 -0.23600 29.41900
C  38.40700 -0.00000 28.94000
C  40.83900 0.02600 31.90100
C  40.81600 -0.79200 28.49200
O  40.61600 -1.12600 27.33900
C  42.08300 -1.16800 29.08600
N  35.57800 0.64800 27.73300
C  36.64500 0.14200 27.07500
C  36.35400 0.19300 25.54700
C  34.80000 0.47600 25.56600
C  34.48500 0.77700 26.96100
C  37.05600 1.28800 24.71700
C  33.95000 -0.66300 24.92500
C  32.85000 -0.14800 23.87400
N  33.67400 1.67000 29.64800
C  32.82400 1.72200 28.62300
C  31.49100 2.25300 29.01500
C  31.70300 2.66000 30.31000
C  33.02700 2.22400 30.63300
C  30.20900 2.16500 28.22200
C  31.07600 3.25000 31.46000
O  29.92200 3.64400 31.60900
C  32.20600 3.20900 32.63300
C  32.41500 4.61600 32.94700
O  33.24700 5.35400 32.52700
O  31.59200 4.89600 34.02400
C  31.68000 6.25400 34.60500
H  38.81500 1.27700 33.11100
H  38.60500 -0.50400 26.79600
H  32.58400 1.29100 26.46500
H  34.54900 3.33300 34.34900
H  36.82300 1.56900 34.86100
H  36.54200 4.47900 34.63300
H  37.61900 4.07300 33.35100
H  38.01400 3.67500 35.08900
H  34.76800 0.21800 34.75000
H  33.21500 0.84000 34.28100
H  33.94300 0.48800 36.74400
H  32.59100 1.52900 36.26900
H  41.64000 0.75600 32.01800
H  41.48900 -0.83000 31.72000
H  40.52100 -0.11800 32.93400
H  41.95900 -2.08200 29.66800
H  42.57700 -0.39200 29.67100
H  42.73500 -1.49300 28.27500
H  36.48500 -0.80700 25.13400
H  34.53100 1.39600 25.04800
H  37.90800 1.75400 25.21200
H  36.37300 2.12100 24.55200
H  37.27000 0.71200 23.81700
H  33.52500 -1.34200 25.66500
H  34.66300 -1.24200 24.33800
H  33.25900 -0.34000 22.88200
H  32.55700 0.89700 23.97000
H  31.87100 -0.57300 24.09500
H  30.38300 1.26200 27.63700
H  30.03100 3.03000 27.58300
H  29.36100 2.16500 28.90700
H  31.76400 2.59000 33.41400
H  32.13000 6.17800 35.59500
H  30.65900 6.63200 34.65500
H  32.33900 6.94100 34.07400
Mg 16.40900 51.53200 25.70600
C  18.17900 50.49900 28.54800
C  13.75000 52.26900 27.83900
C  14.74900 52.41500 22.91100
C  18.97800 50.05800 23.78400
N  16.05400 51.43400 28.03900
C  16.97600 51.08900 28.97500
C  16.45900 51.41300 30.34700
C  14.92400 51.84200 30.11500
C  14.84700 51.79900 28.55700
C  13.88400 50.91700 30.89000
C  17.46500 52.49100 30.99400
C  17.82400 52.11300 32.45400
H  17.00900 51.04600 33.23800
N  14.55500 52.37700 25.42300
C  13.59400 52.54900 26.39300
C  12.39700 53.05400 25.72200
C  12.60500 53.02400 24.32400
C  13.97500 52.54700 24.13900
C  11.14300 53.57600 26.49800
C  11.73200 53.53700 23.22500
O  12.02400 53.49800 22.01200
C  10.30200 54.10800 23.46600
N  16.67600 51.14800 23.66900
C  16.00900 51.80300 22.71700
C  16.60000 51.71300 21.28100
C  17.95800 50.96600 21.63000
C  17.88800 50.71900 23.09800
C  15.65200 50.69000 20.45900
C  19.25400 51.75900 21.39400
C  20.33900 50.94700 20.69100
N  18.03800 50.40800 25.98800
C  19.05500 49.93400 25.12300
C  20.12400 49.36000 25.87700
C  19.77600 49.50900 27.19000
C  18.56900 50.23100 27.23900
C  21.40900 48.77100 25.32800
C  20.33600 49.34100 28.52200
O  21.44400 48.82300 28.87600
C  19.26900 49.94300 29.51700
C  18.76500 48.85600 30.36700
O  17.81100 48.13300 30.12400
O  19.68600 48.56200 31.38800
C  19.48800 47.26600 32.12400
H  12.90900 52.43100 28.51600
H  14.36800 52.66100 21.91800
H  19.72800 49.58700 23.14600
H  16.44700 50.51100 30.95900
H  14.75400 52.88200 30.39200
H  14.20600 50.73800 31.91600
H  13.78400 49.94100 30.41400
H  12.82400 51.16900 30.88800
H  16.85000 53.38900 31.05800
H  18.33000 52.75600 30.38600
H  17.68100 53.00300 33.06700
H  18.88100 51.86800 32.55900
H  11.15100 54.61700 26.17400
H  11.26900 53.71800 27.57200
H  10.21000 53.06900 26.25400
H  9.70200 53.46400 24.11000
H  9.82800 54.16500 22.48600
H  10.56700 55.04800 23.94900
H  16.62700 52.72700 20.88000
H  17.93000 49.98300 21.15900
H  14.89100 51.26800 19.93400
H  15.20800 49.98800 21.16500
H  16.27300 50.06200 19.82000
H  19.62700 52.25600 22.29000
H  19.07700 52.65600 20.79900
H  20.08400 50.02600 20.16600
H  21.07500 50.63800 21.43400
H  20.89900 51.59000 20.01200
H  22.32300 49.32100 25.55300
H  21.46300 48.61300 24.25100
H  21.50600 47.79500 25.80200
H  19.62700 50.76500 30.13700
H  19.12400 47.46600 33.13200
H  20.43000 46.74600 32.29900
H  18.86600 46.53900 31.60200

