158

Mg -2.01700 17.26400 27.44500
C  -2.62300 14.90700 30.10500
C  -2.35100 19.75900 29.86100
C  -1.67300 19.44400 24.99300
C  -1.92400 14.60300 25.23900
N  -2.33200 17.26100 29.80600
C  -2.49100 16.21700 30.62800
C  -2.62700 16.73800 32.01300
C  -2.94600 18.31100 31.84400
C  -2.56100 18.48900 30.39100
C  -4.35500 18.82400 32.28700
C  -1.46500 16.28900 32.97300
C  -1.01200 17.17800 34.11700
H  -0.49600 16.57300 35.40400
N  -1.91500 19.31700 27.43500
C  -2.08000 20.12300 28.54400
C  -2.01300 21.48800 28.05800
C  -1.75700 21.48700 26.64700
C  -1.76300 20.07300 26.30600
C  -2.27400 22.66500 28.97200
C  -1.64700 22.58200 25.68200
O  -1.38500 22.43100 24.52900
C  -1.95900 23.95300 26.18000
N  -1.78000 17.04900 25.34800
C  -1.71700 18.11800 24.57000
C  -1.82900 17.70900 23.11700
C  -1.64100 16.20200 23.19800
C  -1.79800 15.92100 24.65000
C  -3.08100 18.27300 22.41400
C  -0.27000 15.64400 22.72900
C  0.98300 16.34000 23.34400
N  -2.26300 15.20300 27.56700
C  -2.22400 14.24900 26.57000
C  -2.42100 12.95700 27.11400
C  -2.51000 13.15300 28.53100
C  -2.46100 14.53000 28.75600
C  -2.46600 11.68900 26.34900
C  -2.76400 12.53500 29.77200
O  -3.08600 11.35600 29.95200
C  -2.77900 13.62300 30.82600
C  -1.60300 13.26800 31.71900
O  -0.42600 13.54200 31.50400
O  -1.98900 12.68300 32.89500
C  -0.98000 12.40300 33.92600
H  -2.60200 20.43900 30.67800
H  -1.63400 20.11500 24.13200
H  -1.92600 13.72000 24.59600
H  -3.51400 16.30200 32.47300
H  -2.15700 18.82000 32.39600
H  -4.39600 19.79300 32.78300
H  -4.85800 18.09600 32.92400
H  -5.01300 19.01400 31.43800
H  -0.58500 15.90400 32.45700
H  -1.85700 15.44700 33.54400
H  -1.90700 17.63500 34.53900
H  -0.59900 18.15800 33.87700
H  -1.44300 23.36900 28.93500
H  -2.33900 22.40000 30.02800
H  -3.20100 23.22000 28.82100
H  -2.96700 24.10500 26.56400
H  -1.73500 24.59100 25.32500
H  -1.25100 24.25900 26.95000
H  -0.93700 17.93700 22.53300
H  -2.44300 15.79900 22.57900
H  -3.85700 17.53500 22.20800
H  -2.80700 18.68900 21.44400
H  -3.61600 19.03200 22.98400
H  -0.19900 15.68500 21.64200
H  -0.47000 14.60100 22.97200
H  1.55500 16.87800 22.58800
H  1.67700 15.73500 23.92800
H  0.73000 17.17600 23.99600
H  -1.87800 11.66700 25.43100
H  -3.51900 11.44600 26.21000
H  -2.09200 10.92100 27.02600
H  -3.66700 13.54600 31.45300
H  -1.02200 13.18200 34.68700
H  -0.04900 12.19200 33.40000
H  -1.31500 11.45800 34.35500
Mg 23.68400 -5.79100 45.98300
C  25.86100 -3.55700 44.38600
C  21.10900 -4.68800 44.06800
C  21.99000 -8.63500 46.77700
C  26.61800 -7.18200 47.50400
N  23.54900 -4.45000 44.29600
C  24.54800 -3.52300 43.98100
C  24.05300 -2.50800 42.89300
C  22.49200 -2.80200 42.99200
C  22.35600 -4.04300 43.85500
C  21.60800 -1.60400 43.61400
C  24.64000 -2.79400 41.51900
C  25.26200 -1.62300 40.76200
H  25.11000 -1.57600 39.25300
N  21.76500 -6.56500 45.54400
C  20.80300 -5.91600 44.78000
C  19.56900 -6.68900 44.69600
C  19.92000 -7.94800 45.27000
C  21.27400 -7.82000 45.88400
C  18.29200 -6.25800 43.89000
C  19.06800 -9.16000 45.29400
O  17.93100 -9.09700 44.95400
C  19.65400 -10.53300 45.61600
N  24.29500 -7.70700 46.89700
C  23.33400 -8.63900 47.23100
C  23.92800 -9.68300 48.12400
C  25.36000 -9.12500 48.52300
C  25.49200 -7.97300 47.54000
C  23.11100 -10.05800 49.29600
C  26.35800 -10.25800 48.28400
C  27.46500 -10.27800 49.36100
N  25.82600 -5.38500 46.02800
C  26.82100 -6.00400 46.78400
C  28.04400 -5.26500 46.58300
C  27.75600 -4.27800 45.65300
C  26.40000 -4.44500 45.25100
C  29.40800 -5.51500 47.19500
C  28.36500 -3.18900 44.83800
O  29.45100 -2.63900 44.77300
C  27.08300 -2.67400 43.98500
C  26.80500 -1.25600 44.36400
O  26.39000 -0.92900 45.47100
O  27.17200 -0.51600 43.32400
C  27.13100 0.98100 43.56000
H  20.25400 -4.24400 43.55300
H  21.43200 -9.46900 47.20700
H  27.42700 -7.54600 48.14100
H  24.38500 -1.51300 43.18900
H  22.10500 -3.03600 42.00000
H  21.02400 -1.22600 42.77400
H  22.32000 -0.81300 43.84600
H  20.97800 -1.87100 44.46200
H  23.87300 -3.24100 40.88700
H  25.43700 -3.53600 41.52000
H  26.32500 -1.49300 40.96300
H  24.88100 -0.71700 41.23300
H  18.19100 -7.18700 43.32900
H  18.41300 -5.45100 43.16600
H  17.46500 -5.98600 44.54500
H  19.00200 -11.26700 45.14400
H  19.52100 -10.67300 46.68900
H  20.67400 -10.68700 45.26400
H  24.09100 -10.57900 47.52500
H  25.40600 -8.68900 49.52100
H  22.16600 -9.51400 49.30400
H  23.64200 -9.78400 50.20700
H  22.99300 -11.14100 49.31300
H  26.80300 -10.29800 47.29000
H  25.95200 -11.27000 48.31200
H  27.39100 -11.32700 49.64800
H  27.29500 -9.59700 50.19500
H  28.39700 -10.03400 48.85000
H  29.62200 -6.54800 46.92200
H  29.18700 -5.46300 48.26100
H  30.13100 -4.80000 46.80200
H  27.41000 -2.72200 42.94700
H  26.18500 1.23400 44.03800
H  27.21900 1.58000 42.65300
H  27.94900 1.16100 44.25700

