158

Mg 40.94600 7.81300 29.66200
C  42.60200 9.49500 32.35800
C  38.53700 6.75900 31.93800
C  39.70000 5.93400 27.29600
C  43.70800 8.68000 27.55700
N  40.66100 8.03700 31.87300
C  41.42000 8.82200 32.73200
C  40.82500 8.84500 34.15200
C  39.62600 7.88200 33.93500
C  39.62900 7.48900 32.51100
C  39.38800 6.68100 34.88600
C  40.53800 10.33500 34.54400
C  39.89000 10.68600 35.87900
H  40.67400 11.58200 36.94300
N  39.30400 6.58500 29.61500
C  38.40000 6.33900 30.58200
C  37.30800 5.55200 30.10100
C  37.59600 5.46900 28.72100
C  38.94000 5.98900 28.46700
C  36.10400 5.02800 30.93500
C  36.71200 4.88300 27.65200
O  37.00300 4.79800 26.47100
C  35.32000 4.65200 27.98400
N  41.69900 7.24800 27.70100
C  40.96000 6.39500 26.93300
C  41.51900 6.30400 25.42300
C  42.82500 7.25200 25.55200
C  42.75200 7.79000 27.00200
C  41.66900 4.80800 24.80500
C  42.92200 8.36300 24.48900
C  42.06100 9.59400 24.66500
N  42.80300 8.86300 29.88500
C  43.73100 9.14000 28.89600
C  44.74800 9.94500 29.49100
C  44.37700 10.08600 30.88600
C  43.11900 9.48700 31.01400
C  45.92100 10.40200 28.68300
C  44.71600 10.75300 32.13200
O  45.71200 11.33200 32.46600
C  43.61400 10.35900 33.14900
C  44.23800 9.51100 34.16900
O  45.22600 8.79600 34.01300
O  43.74800 9.89000 35.39900
C  44.34000 9.32900 36.61000
H  37.68700 6.43600 32.54300
H  39.26800 5.31000 26.51100
H  44.49400 9.07300 26.90800
H  41.54700 8.39600 34.83500
H  38.79600 8.55400 34.15500
H  40.21900 6.39400 35.53100
H  39.19100 5.75100 34.35400
H  38.45000 6.77000 35.43400
H  39.93800 10.69300 33.70800
H  41.43600 10.94600 34.46800
H  39.67900 9.72800 36.35600
H  39.01200 11.27900 35.62600
H  36.30400 4.91700 32.00100
H  35.96100 3.98200 30.66400
H  35.26800 5.69500 30.72400
H  34.78500 4.37300 27.07700
H  34.87900 5.45900 28.56900
H  35.45800 3.73200 28.55400
H  40.74400 6.77600 24.82000
H  43.76600 6.70900 25.45600
H  41.10800 4.71400 23.87500
H  41.23600 4.01800 25.41800
H  42.72500 4.54700 24.73000
H  42.72200 8.01300 23.47600
H  43.98000 8.62400 24.50000
H  42.78100 10.29900 25.08000
H  41.33600 9.47400 25.47000
H  41.66000 9.97300 23.72400
H  46.63000 9.58800 28.53300
H  46.45100 11.07900 29.35300
H  45.70900 10.85800 27.71600
H  43.36500 11.35800 33.50800
H  45.35300 9.61200 36.89300
H  44.33100 8.25200 36.44400
H  43.63500 9.52300 37.41900
Mg -5.18700 25.15500 25.92300
C  -3.38300 26.31900 28.63500
C  -6.21200 22.51200 28.11900
C  -6.87300 23.64300 23.41400
C  -3.65500 27.31500 23.88400
N  -4.87000 24.51900 28.18500
C  -4.16500 25.30800 29.04300
C  -4.55000 24.95900 30.45500
C  -4.95600 23.51900 30.25300
C  -5.34900 23.45100 28.78800
C  -3.81200 22.55100 30.56100
C  -5.79700 25.82700 30.90900
C  -6.15700 25.91900 32.43500
H  -5.69400 24.83500 33.35300
N  -6.44100 23.44100 25.74700
C  -6.73000 22.45800 26.76100
C  -7.64900 21.54400 26.27900
C  -7.89200 21.84300 24.88200
C  -7.10700 23.07500 24.65300
C  -8.13000 20.38000 27.18800
C  -8.78900 21.09300 23.92400
O  -9.01900 21.51400 22.81500
C  -9.43000 19.77300 24.26100
N  -5.12700 25.28000 23.87400
C  -5.88200 24.57100 22.98100
C  -5.64900 25.11400 21.54300
C  -4.82100 26.48100 21.83700
C  -4.55500 26.33100 23.32800
C  -4.88600 24.15600 20.60200
C  -5.59600 27.80700 21.61000
C  -6.32900 28.00100 20.29700
N  -3.69400 26.46200 26.08200
C  -3.07300 27.34200 25.12300
C  -2.17000 28.19000 25.85000
C  -2.19000 27.83800 27.20000
C  -3.15000 26.75300 27.27800
C  -1.39400 29.42800 25.28600
C  -1.76800 28.19600 28.51100
O  -0.86800 28.94800 28.86500
C  -2.57000 27.30100 29.47200
C  -1.60000 26.63000 30.32200
O  -0.95600 25.65800 29.97200
O  -1.65100 27.23100 31.60900
C  -0.70200 26.74500 32.57800
H  -6.51900 21.64200 28.70300
H  -7.42200 23.27400 22.54500
H  -3.42300 28.18500 23.26700
H  -3.76000 25.15300 31.18000
H  -5.79900 23.27800 30.89900
H  -2.91600 22.88200 30.03500
H  -3.96800 21.54100 30.18300
H  -3.51100 22.45700 31.60400
H  -6.65200 25.47600 30.33100
H  -5.62700 26.82000 30.49300
H  -7.21900 26.11100 32.58300
H  -5.75500 26.91000 32.64500
H  -7.61700 19.43900 26.99000
H  -9.10300 19.95200 26.94500
H  -8.13000 20.65000 28.24400
H  -8.64300 19.11600 24.63100
H  -9.87400 19.38100 23.34600
H  -10.08800 19.99600 25.10100
H  -6.62000 25.35200 21.10700
H  -3.92200 26.56100 21.22600
H  -5.29100 23.15800 20.76900
H  -3.81900 24.17200 20.82500
H  -4.98700 24.58000 19.60300
H  -4.93400 28.65800 21.77100
H  -6.41700 27.67600 22.31500
H  -6.10400 29.04000 20.05300
H  -7.40500 28.00400 20.46900
H  -6.02000 27.27300 19.54700
H  -0.57000 29.59700 25.97800
H  -1.91000 30.36800 25.09300
H  -0.78800 29.22500 24.40300
H  -3.11900 27.79600 30.27400
H  -0.55400 27.50700 33.34300
H  0.29700 26.62500 32.15700
H  -0.96200 25.83700 33.12200

