158

Mg 39.49500 10.31900 29.70400
C  41.45500 11.75200 32.23900
C  37.37800 9.12600 32.04100
C  37.72600 8.81000 27.09900
C  42.19300 10.66700 27.58300
N  39.48500 10.34600 31.96600
C  40.33600 11.05600 32.74600
C  39.78400 11.08500 34.22900
C  38.64300 9.99500 34.15900
C  38.46400 9.77300 32.59500
C  38.85000 8.62300 34.85300
C  39.42400 12.52500 34.78600
C  40.14700 12.96200 36.05000
H  39.33300 13.57300 37.21600
N  37.73900 9.24800 29.57700
C  37.05300 8.75500 30.70700
C  35.77700 8.25600 30.23600
C  35.87200 8.11500 28.79500
C  37.19000 8.68800 28.44600
C  34.74800 7.87800 31.27100
C  34.84900 7.67300 27.78500
O  34.98700 7.61000 26.58000
C  33.58700 7.22500 28.35700
N  39.91000 9.77600 27.64100
C  38.95600 9.39000 26.71500
C  39.50600 9.44800 25.28800
C  40.98300 9.70600 25.57800
C  41.05300 10.11700 27.01500
C  39.27600 8.15600 24.43200
C  41.61200 10.71000 24.54400
C  41.36000 12.19700 24.73400
N  41.43600 11.05600 29.80500
C  42.41800 11.14800 28.87900
C  43.55100 11.81800 29.32100
C  43.25700 12.05200 30.66700
C  41.95300 11.52900 30.94400
C  44.69200 12.12100 28.56300
C  43.73400 12.61800 31.88300
O  44.79200 13.23200 31.98000
C  42.69000 12.35900 32.99700
C  43.20000 11.30400 33.93100
O  43.55900 10.17200 33.64300
O  43.29100 11.73000 35.25300
C  43.72100 10.76900 36.30200
H  36.67300 8.69100 32.75300
H  37.12800 8.39700 26.28400
H  43.03000 10.77500 26.88900
H  40.50300 10.74000 34.97200
H  37.68100 10.27700 34.58800
H  39.77100 8.62600 35.43700
H  38.92400 7.85000 34.08900
H  37.98800 8.30200 35.43700
H  38.35800 12.57600 35.00700
H  39.55900 13.23300 33.96800
H  41.01300 13.55800 35.76200
H  40.45500 12.01000 36.48200
H  34.91000 6.82600 31.50600
H  33.74900 8.04100 30.86600
H  34.75500 8.54200 32.13400
H  32.99400 7.91100 28.96100
H  33.78500 6.38200 29.01900
H  32.88600 6.82100 27.62600
H  39.11100 10.30000 24.73500
H  41.49900 8.74800 25.64900
H  39.15200 8.28800 23.35700
H  38.29300 7.77100 24.70200
H  39.90800 7.28400 24.60500
H  41.21000 10.37200 23.58900
H  42.68300 10.52300 24.46600
H  40.46100 12.46500 25.28900
H  41.26100 12.64400 23.74400
H  42.20600 12.65200 25.24800
H  45.47200 12.45700 29.24600
H  44.49700 12.99000 27.93400
H  44.93500 11.23900 27.97100
H  42.38400 13.24100 33.56100
H  44.73800 10.50200 36.01500
H  43.03200 9.92600 36.23700
H  43.73300 11.17700 37.31200
Mg 46.52600 16.83500 28.32900
C  44.51000 16.87600 31.11600
C  49.03700 18.33000 30.25000
C  48.42600 17.45500 25.44000
C  43.89700 15.74500 26.41200
N  46.69300 17.62100 30.33800
C  45.82400 17.38700 31.38100
C  46.29200 17.63700 32.76300
C  47.65200 18.35300 32.42600
C  47.82700 18.10700 30.87000
C  47.73800 19.91200 32.76400
C  46.26500 16.31100 33.64600
C  45.39700 16.30700 34.88800
H  45.12800 17.67300 35.50500
N  48.50400 17.65000 27.84900
C  49.32800 18.18300 28.81600
C  50.62500 18.55000 28.13500
C  50.50100 18.30700 26.78100
C  49.09600 17.78300 26.59400
C  51.76800 19.34200 28.87600
C  51.48300 18.55200 25.59200
O  51.19100 18.29800 24.43800
C  52.84500 19.11100 25.88800
N  46.20200 16.63400 26.22900
C  47.09300 16.94700 25.22700
C  46.52400 16.73100 23.84300
C  45.16700 16.13200 24.18400
C  45.12300 16.03000 25.72300
C  46.41600 18.02200 22.97800
C  44.96200 14.80600 23.40500
C  45.52300 13.52100 23.88900
N  44.68800 16.30100 28.66000
C  43.81000 15.79200 27.82900
C  42.62900 15.33600 28.56100
C  42.79600 15.86200 29.86800
C  44.07300 16.38700 29.86500
C  41.49100 14.59300 28.06500
C  42.14600 16.02400 31.10600
O  40.99900 15.63200 31.44000
C  43.22800 16.69200 31.99400
C  42.60100 17.90400 32.65000
O  42.52400 19.07400 32.23600
O  41.98200 17.48300 33.84900
C  41.06900 18.44400 34.50000
H  49.84000 18.79800 30.82400
H  48.79300 17.79800 24.47000
H  43.08800 15.31300 25.81900
H  45.54000 18.26500 33.24100
H  48.55300 17.93600 32.87600
H  46.82300 20.19600 33.28400
H  47.63400 20.50600 31.85600
H  48.63700 20.16200 33.32800
H  47.25600 16.21700 34.09000
H  45.94900 15.43700 33.07800
H  45.90400 15.74300 35.67100
H  44.46600 15.75000 34.77700
H  52.75600 18.91800 28.69800
H  51.54000 19.26900 29.93900
H  51.67100 20.40200 28.64100
H  53.28400 18.51000 26.68500
H  52.71000 20.15300 26.17700
H  53.43300 19.17900 24.97300
H  47.16300 15.99300 23.35800
H  44.35600 16.78200 23.85700
H  45.45100 18.52600 23.03600
H  46.53000 17.74400 21.93100
H  47.18200 18.77200 23.17800
H  45.44100 14.97800 22.44200
H  43.89800 14.71300 23.18900
H  46.25400 13.08700 23.20700
H  44.67000 12.84900 23.98100
H  46.08600 13.56700 24.82200
H  41.29300 13.82700 28.81500
H  41.60900 14.15900 27.07200
H  40.65300 15.28600 27.99000
H  43.50700 15.95900 32.75100
H  40.14300 18.54400 33.93500
H  41.54700 19.42400 34.48900
H  40.87000 18.14500 35.52900

