158

Mg 35.38300 2.67800 29.99000
C  33.07800 3.76400 32.32200
C  37.82200 2.75700 32.69400
C  37.78600 1.64400 27.98300
C  32.96400 2.77200 27.52400
N  35.47800 3.21700 32.26000
C  34.32600 3.61700 32.93200
C  34.61300 3.72200 34.47100
C  36.20600 3.91800 34.51900
C  36.60200 3.30900 33.08200
C  36.95300 5.24000 34.86300
C  33.96300 2.48400 35.27100
C  33.32700 2.91900 36.63400
H  34.09200 4.03700 37.36200
N  37.49100 2.26200 30.25400
C  38.23900 2.28600 31.45300
C  39.50200 1.68900 31.19100
C  39.58700 1.41600 29.73200
C  38.24100 1.79300 29.23800
C  40.56100 1.50900 32.27600
C  40.76700 0.94300 28.84400
O  40.71000 0.73300 27.62900
C  42.03400 0.60500 29.50600
N  35.36400 2.32100 28.05200
C  36.52000 1.83500 27.48800
C  36.24200 1.56000 25.94600
C  34.65100 1.82300 25.82100
C  34.27800 2.37000 27.19800
C  37.09500 2.46100 24.96700
C  33.77500 0.64500 25.38400
C  33.24500 0.65500 23.90400
N  33.49900 3.24400 29.86400
C  32.56300 3.14700 28.85800
C  31.23500 3.54100 29.33800
C  31.37100 3.79800 30.65600
C  32.77900 3.59400 30.97700
C  30.09700 3.69400 28.43200
C  30.70000 4.18000 31.85700
O  29.54000 4.47700 32.10900
C  31.74000 4.08400 33.02500
C  31.80300 5.39800 33.68100
O  32.25200 6.39300 33.14400
O  31.34300 5.29800 34.96300
C  31.10600 6.59400 35.54200
H  38.58200 2.86700 33.47100
H  38.36500 1.07700 27.25100
H  32.13600 2.64400 26.82400
H  34.11200 4.63700 34.78800
H  36.54400 3.21700 35.28200
H  37.96300 5.31000 34.45900
H  36.96900 5.35100 35.94700
H  36.40500 6.04800 34.37700
H  34.70400 1.69400 35.39600
H  33.19600 2.10200 34.59700
H  33.21000 2.04200 37.27000
H  32.34000 3.25800 36.32100
H  40.12500 1.55100 33.27400
H  41.35200 2.25500 32.20900
H  41.06700 0.54800 32.18800
H  41.89400 -0.25900 30.15700
H  42.18500 1.59500 29.93600
H  42.73900 0.31100 28.72800
H  36.44400 0.51300 25.71800
H  34.56600 2.58600 25.04700
H  37.40800 3.44100 25.32800
H  36.44600 2.63900 24.11000
H  37.98200 1.92100 24.63400
H  32.90900 0.51700 26.03400
H  34.37900 -0.23800 25.59400
H  33.08600 -0.36300 23.54700
H  34.01100 1.07300 23.25100
H  32.42900 1.37600 23.85600
H  29.24300 3.98400 29.04400
H  29.95300 2.67300 28.08100
H  30.26400 4.36200 27.58700
H  31.39300 3.29000 33.68600
H  30.57100 7.16700 34.78500
H  32.08700 7.01900 35.75400
H  30.54800 6.50300 36.47400
Mg 41.48300 41.83500 26.79900
C  40.84200 44.23100 29.57400
C  42.48100 39.73100 29.24900
C  42.51500 39.81300 24.46600
C  41.18600 44.59000 24.59200
N  41.75700 42.05500 29.19700
C  41.30300 43.01400 30.08400
C  41.24600 42.46600 31.51600
C  41.80500 41.00100 31.34200
C  42.02700 40.90300 29.82100
C  43.14300 40.76600 32.06700
C  39.80600 42.52100 32.05500
C  39.59700 43.24600 33.38800
H  38.75600 42.50600 34.45400
N  42.29300 39.93800 26.78400
C  42.61100 39.26100 27.93800
C  43.13600 37.97300 27.57400
C  42.99900 37.84500 26.13500
C  42.60400 39.21700 25.72400
C  43.56700 36.96700 28.53900
C  43.23500 36.77800 25.13100
O  43.28500 36.94100 23.91500
C  43.53600 35.35900 25.69600
N  41.94700 42.23300 24.85600
C  42.22300 41.12700 24.02600
C  42.23700 41.56300 22.51300
C  41.72400 43.04900 22.63900
C  41.57800 43.31200 24.13600
C  43.57900 41.29900 21.75000
C  40.50600 43.43000 21.87700
C  39.23500 42.97200 22.49900
N  41.04600 43.94100 26.94900
C  40.97000 44.91000 25.99600
C  40.69400 46.15900 26.72800
C  40.51400 45.86700 28.07400
C  40.82500 44.53500 28.18700
C  40.36700 47.37300 25.93500
C  40.08300 46.54800 29.29000
O  39.70100 47.71000 29.48000
C  40.23600 45.43100 30.39300
C  41.11000 46.03200 31.33700
O  42.31800 46.06000 31.25500
O  40.41600 46.60500 32.36800
C  41.20200 47.06500 33.51500
H  42.68400 38.98300 30.01800
H  42.71700 39.18600 23.59600
H  40.96900 45.40500 23.89800
H  41.89200 43.10900 32.11400
H  41.09200 40.30000 31.77600
H  43.93900 40.34900 31.45100
H  42.89600 40.16800 32.94500
H  43.57700 41.72600 32.34700
H  39.40000 41.53900 32.29600
H  39.14400 42.92600 31.29000
H  38.97600 44.12900 33.23600
H  40.51800 43.65200 33.80600
H  44.17800 37.46000 29.29500
H  44.25600 36.24700 28.09800
H  42.69300 36.51900 29.01300
H  42.76800 35.32500 26.46800
H  44.52100 35.33600 26.16200
H  43.45500 34.67900 24.84800
H  41.35600 41.04400 22.13600
H  42.52500 43.60400 22.15000
H  43.34300 40.48300 21.06700
H  44.35900 41.01400 22.45600
H  43.69900 42.21700 21.17500
H  40.68100 42.90500 20.93800
H  40.37100 44.45300 21.52400
H  38.68200 42.46800 21.70500
H  38.54900 43.78700 22.73100
H  39.34600 42.19900 23.26000
H  40.64700 48.27800 26.47500
H  39.36400 47.48900 25.52500
H  41.03400 47.24700 25.08300
H  39.26700 45.18400 30.82800
H  42.09300 47.67900 33.37700
H  41.41100 46.13400 34.04100
H  40.44500 47.59600 34.09100

