158

Mg 26.25400 49.85000 26.48800
C  24.27900 51.12500 29.00200
C  28.57800 48.87200 28.77100
C  28.34200 49.21700 23.95700
C  24.14700 51.55300 24.13800
N  26.35200 49.92500 28.63800
C  25.39000 50.36300 29.49200
C  25.65600 49.97100 30.97700
C  27.19200 49.46900 30.83700
C  27.38200 49.45200 29.32900
C  28.13400 50.45800 31.68200
C  24.63600 48.93400 31.53800
C  23.92400 49.31400 32.82700
H  24.74900 49.98300 34.04400
N  28.17800 49.07300 26.40600
C  28.99600 48.67600 27.44800
C  30.18000 48.11700 26.94200
C  30.04600 48.08900 25.51900
C  28.86900 48.84000 25.22000
C  31.26000 47.54500 27.84100
C  31.00800 47.53800 24.49200
O  30.86400 47.58100 23.25400
C  32.16500 46.79900 24.93200
N  26.28200 50.32300 24.45600
C  27.19400 49.81400 23.56300
C  26.88900 49.92800 21.98600
C  25.48800 50.68200 22.19300
C  25.25200 50.81500 23.68300
C  27.92300 50.66500 21.07300
C  24.30700 49.84800 21.41300
C  23.94600 50.21400 19.91900
N  24.49100 50.98600 26.47200
C  23.80100 51.69100 25.46800
C  22.63100 52.34000 26.05900
C  22.83500 52.13400 27.39500
C  23.97400 51.35400 27.63100
C  21.53800 53.23000 25.37800
C  22.30400 52.48600 28.70800
O  21.29600 53.04500 29.04000
C  23.14200 51.68900 29.84400
C  23.50400 52.65000 30.91000
O  24.53100 53.26300 30.95400
O  22.58800 52.71000 31.94700
C  22.80500 53.73000 33.00400
H  29.23000 48.49400 29.56100
H  28.96100 48.77000 23.17700
H  23.51600 51.89200 23.31400
H  25.54600 50.86400 31.59200
H  27.35300 48.45000 31.18900
H  27.87100 51.49300 31.46400
H  29.07500 50.18000 31.20600
H  28.06200 50.16200 32.72900
H  25.19200 48.01500 31.72200
H  23.92800 48.75000 30.72900
H  23.45600 48.37400 33.11800
H  23.09700 49.99700 32.63100
H  32.25900 47.78600 27.47700
H  31.25100 46.46300 27.96800
H  31.17100 47.98400 28.83500
H  32.97600 47.41900 25.31400
H  32.51600 46.27100 24.04600
H  31.86800 46.03700 25.65400
H  26.89300 48.89900 21.62400
H  25.53300 51.64000 21.67400
H  28.51400 51.30300 21.73100
H  27.50800 51.38100 20.36300
H  28.58300 50.01100 20.50300
H  23.43600 50.02800 22.04200
H  24.50700 48.78200 21.51900
H  24.52900 49.51200 19.32300
H  24.27700 51.22600 19.68900
H  22.86800 50.14200 19.77100
H  21.38400 52.82400 24.37800
H  21.58700 54.31300 25.49400
H  20.57200 52.92100 25.77900
H  22.68800 50.79900 30.28000
H  23.73300 53.63000 33.56700
H  22.03100 53.74800 33.77200
H  22.76900 54.72500 32.56200
Mg -1.32800 34.91500 27.53900
C  -3.35500 33.18600 29.83600
C  -0.50300 37.13400 30.14600
C  0.31600 36.75400 25.21600
C  -2.67400 32.94000 24.95800
N  -1.83900 35.03700 29.77100
C  -2.58100 34.20000 30.43700
C  -2.47800 34.46500 31.91500
C  -1.95200 35.94200 31.90700
C  -1.23600 36.01900 30.60000
C  -3.02200 37.08200 32.04400
C  -1.64400 33.32400 32.60900
C  -2.47700 32.67500 33.70600
H  -1.82700 32.25100 35.02700
N  -0.34700 36.76500 27.64500
C  -0.11800 37.50800 28.78500
C  0.72000 38.63700 28.46100
C  1.05900 38.56100 27.04700
C  0.34800 37.31000 26.57000
C  1.12100 39.72900 29.41100
C  1.85100 39.42000 26.12200
O  2.12400 39.16800 24.91100
C  2.47600 40.56000 26.66700
N  -1.05300 34.74100 25.49200
C  -0.31000 35.60600 24.67000
C  -0.19800 35.18100 23.22800
C  -1.03000 33.82600 23.18900
C  -1.66700 33.84700 24.64900
C  -0.61100 36.23300 22.12000
C  -0.30200 32.50900 22.98700
C  -1.01400 31.35900 22.18800
N  -2.64800 33.34700 27.36400
C  -3.11900 32.69100 26.27200
C  -4.05100 31.59100 26.66000
C  -4.15800 31.77000 28.06100
C  -3.32100 32.84100 28.45000
C  -4.76100 30.55100 25.77300
C  -4.78200 31.25100 29.24700
O  -5.60400 30.30700 29.32500
C  -4.28300 32.12500 30.48200
C  -5.56900 32.74100 31.04400
O  -6.11800 33.77900 30.76000
O  -5.83700 32.03800 32.21800
C  -6.57400 32.59100 33.33200
H  -0.36300 37.87800 30.93400
H  0.83300 37.25200 24.39300
H  -3.07800 32.30400 24.16900
H  -3.53000 34.55400 32.18600
H  -1.15100 36.02700 32.64100
H  -3.91300 36.49300 32.26100
H  -3.00300 37.82300 31.24500
H  -2.74200 37.65400 32.92900
H  -0.78000 33.78600 33.08700
H  -1.27500 32.54700 31.94000
H  -2.67900 31.68500 33.29800
H  -3.42800 33.11300 34.00700
H  0.44300 39.81200 30.26000
H  1.24300 40.72200 28.97800
H  2.15400 39.48600 29.66000
H  3.22700 41.01300 26.02000
H  3.12900 40.18600 27.45600
H  1.71200 41.30400 26.89300
H  0.85700 34.99900 23.02300
H  -1.82300 33.91500 22.44600
H  -1.38400 35.85300 21.45100
H  0.26800 36.35600 21.48800
H  -1.05400 37.13700 22.53800
H  -0.06400 32.02400 23.93400
H  0.58800 32.63500 22.37000
H  -2.00500 31.72600 21.92000
H  -1.03100 30.40200 22.70900
H  -0.56200 31.23800 21.20300
H  -4.67000 29.71700 26.46900
H  -4.23600 30.40400 24.83000
H  -5.82700 30.75500 25.66400
H  -3.83400 31.39000 31.14900
H  -5.89600 32.81500 34.15500
H  -7.28700 31.88800 33.76200
H  -7.07800 33.50300 33.01200

