158

Mg 41.18400 8.86900 29.39300
C  43.04200 10.03200 32.05900
C  38.89200 7.63400 31.70900
C  39.27100 7.69800 26.89600
C  43.71700 9.71100 27.12200
N  41.15800 8.70800 31.70400
C  41.91600 9.38000 32.56900
C  41.30500 9.41500 34.01300
C  40.17200 8.34300 33.83000
C  40.01000 8.24500 32.30800
C  40.44000 6.92400 34.39400
C  40.78300 10.81100 34.36700
C  39.86200 10.88300 35.67600
H  40.30300 11.82600 36.80800
N  39.32000 7.80900 29.37000
C  38.55400 7.45000 30.37400
C  37.33500 6.86600 29.89900
C  37.34800 7.05800 28.46400
C  38.65400 7.51800 28.24400
C  36.20200 6.34900 30.82000
C  36.28300 6.86900 27.45300
O  36.55500 6.99100 26.27200
C  34.86900 6.60600 27.92600
N  41.50600 8.69400 27.33700
C  40.51300 8.15600 26.49400
C  41.09600 8.05600 25.02600
C  42.33000 8.92300 25.08300
C  42.50700 9.17800 26.57900
C  41.28500 6.54300 24.58800
C  42.28100 10.17000 24.28100
C  41.65100 11.44700 24.87400
N  43.04000 9.69800 29.47800
C  43.96400 10.05400 28.50100
C  45.02200 10.83400 29.05000
C  44.67800 10.87000 30.44900
C  43.44800 10.10900 30.65200
C  46.13400 11.46100 28.31800
C  45.19500 11.25300 31.79000
O  46.23800 11.80300 32.01200
C  44.08400 10.80200 32.83500
C  44.80400 9.95900 33.84000
O  45.14800 8.81600 33.70000
O  44.82300 10.61100 34.99800
C  45.22900 9.89500 36.25000
H  38.24500 7.31700 32.53000
H  38.69800 7.58500 25.97300
H  44.50400 10.00700 26.42500
H  42.10400 9.01500 34.63700
H  39.24400 8.71900 34.26100
H  40.83600 6.34700 33.55900
H  39.64700 6.45700 34.97900
H  41.37200 7.05800 34.94400
H  40.27200 11.28300 33.52800
H  41.64900 11.43600 34.58400
H  39.68500 9.87800 36.05900
H  38.96500 11.42200 35.37100
H  36.56800 6.00800 31.78800
H  35.70900 5.45900 30.42600
H  35.38300 7.05300 30.96700
H  34.85500 5.56600 28.25100
H  34.13400 6.73200 27.13100
H  34.53000 7.36600 28.63000
H  40.32100 8.54500 24.43500
H  43.11600 8.35500 24.58400
H  40.78800 5.81700 25.23200
H  42.35900 6.36100 24.55700
H  40.85400 6.41100 23.59600
H  41.86200 10.10000 23.27700
H  43.30200 10.41800 23.99100
H  42.20300 11.76100 25.76000
H  40.60300 11.20500 25.05000
H  41.68000 12.22900 24.11500
H  45.74600 11.81000 27.36100
H  46.83300 10.66000 28.07500
H  46.61300 12.27500 28.86100
H  43.58200 11.68600 33.23000
H  44.46300 10.18300 36.97000
H  46.29800 10.02000 36.42200
H  45.04000 8.83600 36.07500
Mg 48.38500 34.74100 26.71000
C  46.21800 33.54500 29.23300
C  48.79000 37.74900 28.61400
C  49.74500 36.32200 24.08300
C  47.36800 31.99800 24.80200
N  47.65800 35.47800 28.65400
C  46.93600 34.69400 29.55100
C  47.03200 35.34300 30.97500
C  47.45300 36.82600 30.68100
C  47.99300 36.72700 29.22400
C  46.37200 37.89000 30.94700
C  47.99800 34.61500 31.90100
C  47.92300 34.89100 33.35400
H  46.82400 35.83500 33.87600
N  49.26300 36.73700 26.38200
C  49.31800 37.82000 27.33300
C  50.15200 38.81900 26.74800
C  50.36500 38.42100 25.42400
C  49.79100 37.12000 25.25100
C  50.49000 40.07300 27.57900
C  51.06000 39.14000 24.28400
O  51.16100 38.64400 23.12900
C  51.67100 40.54100 24.46500
N  48.60100 34.14300 24.78000
C  49.23900 35.02800 23.92900
C  49.35100 34.27500 22.50500
C  48.78300 32.80000 22.77100
C  48.23300 32.97200 24.15900
C  48.69900 34.97500 21.29100
C  49.72800 31.57000 22.75500
C  50.19600 31.20100 21.39200
N  47.05300 33.06700 26.86400
C  46.76400 32.01400 26.05500
C  45.86100 31.09100 26.67600
C  45.56200 31.68000 27.89200
C  46.30300 32.90900 27.97400
C  45.47800 29.77800 26.06600
C  44.82600 31.43600 29.13300
O  44.14100 30.51100 29.52200
C  45.20100 32.69700 30.09800
C  45.61200 32.26900 31.46800
O  46.55500 31.57900 31.73200
O  44.71900 32.72000 32.40300
C  44.71900 31.99100 33.68400
H  48.95700 38.67000 29.17600
H  49.99200 36.78900 23.12700
H  47.11300 31.11500 24.21100
H  46.01300 35.33200 31.36000
H  48.31200 37.19100 31.24300
H  46.50700 38.65800 31.70800
H  45.46300 37.30200 31.08000
H  46.26500 38.43400 30.00800
H  48.94800 34.96200 31.49500
H  47.93500 33.53700 31.75400
H  48.89700 35.28600 33.64200
H  47.70900 33.95300 33.86500
H  51.54900 40.27800 27.73700
H  50.08700 40.06100 28.59100
H  49.91300 40.88700 27.13900
H  50.80000 41.05800 24.86800
H  51.95000 41.06100 23.54900
H  52.47400 40.62500 25.19600
H  50.42500 34.28600 22.32200
H  47.91100 32.61600 22.14400
H  48.03900 35.75900 21.66300
H  48.12400 34.24400 20.72200
H  49.41700 35.60600 20.76700
H  49.19900 30.75500 23.24800
H  50.56100 31.86600 23.39200
H  51.28000 31.12800 21.47600
H  49.79700 31.76200 20.54700
H  50.03800 30.13300 21.24500
H  44.74100 29.72500 25.26400
H  45.24000 29.12000 26.90200
H  46.37800 29.45700 25.54200
H  44.22300 33.15800 30.23500
H  45.75600 31.80800 33.96600
H  44.07200 31.11400 33.69800
H  44.17900 32.58500 34.42100

