158

Mg 53.16500 24.63800 44.57700
C  50.62100 26.83000 43.80300
C  51.30200 22.11100 42.97100
C  55.79700 22.68200 44.67500
C  55.04900 27.24800 45.76900
N  51.29500 24.62100 43.41600
C  50.47900 25.60600 43.20500
C  49.27900 25.16500 42.33400
C  49.32300 23.64600 42.61900
C  50.76700 23.40200 42.96700
C  48.41000 23.22200 43.78600
C  49.30400 25.57800 40.84000
C  50.71700 25.74500 40.29100
H  50.82400 26.46500 38.92500
N  53.57000 22.70800 43.82300
C  52.62000 21.76500 43.33500
C  53.20100 20.45500 43.27000
C  54.55800 20.56500 43.67900
C  54.74100 22.04700 43.99900
C  52.50200 19.32200 42.55200
C  55.62200 19.46700 43.66700
O  55.21600 18.33900 43.45200
C  57.12200 19.76400 43.90900
N  55.28100 24.97900 44.93400
C  56.17400 23.96100 45.00500
C  57.46800 24.41300 45.59900
C  57.22000 25.91200 45.85800
C  55.71200 26.04300 45.57000
C  57.93900 23.57500 46.88000
C  58.24000 26.88900 45.10000
C  58.07500 26.95900 43.57900
N  52.91000 26.62400 44.97100
C  53.73400 27.61100 45.50000
C  52.98100 28.85000 45.57400
C  51.71300 28.61200 44.93600
C  51.74300 27.25800 44.54900
C  53.52700 30.09700 46.29100
C  50.43700 29.17900 44.65700
O  49.91400 30.24800 44.87600
C  49.73100 28.05700 43.81100
C  49.35700 28.62400 42.49100
O  50.13000 28.97600 41.56300
O  47.95700 28.84700 42.39900
C  47.45500 29.43000 41.16200
H  50.51600 21.40400 42.69900
H  56.56800 22.01300 45.06500
H  55.79100 27.95500 46.14600
H  48.33900 25.53900 42.74100
H  48.92500 23.16300 41.72700
H  47.76400 22.40500 43.46200
H  47.85300 24.06200 44.19900
H  49.07000 22.83200 44.56100
H  48.83300 26.54500 40.66600
H  48.66300 24.95000 40.22000
H  51.22900 24.78400 40.33400
H  51.36600 26.29200 40.97500
H  51.51800 19.67900 42.24800
H  52.49500 18.50800 43.27700
H  53.04500 19.09600 41.63400
H  57.72900 18.89600 43.65100
H  57.36100 20.05800 44.93100
H  57.44900 20.66300 43.38500
H  58.25900 24.21400 44.87600
H  57.41400 26.14300 46.90500
H  57.27600 22.72900 47.06300
H  57.96900 24.11100 47.82900
H  58.95500 23.24900 46.65800
H  59.24100 26.52100 45.32400
H  58.32700 27.87600 45.55300
H  57.03300 26.89500 43.26400
H  58.68400 26.22500 43.05300
H  58.36600 27.93100 43.18000
H  54.24000 30.65200 45.68100
H  53.88300 29.66700 47.22700
H  52.79300 30.79200 46.70000
H  48.78700 27.85900 44.31700
H  47.67000 28.80600 40.29500
H  47.81700 30.45600 41.10600
H  46.37000 29.53600 41.17400
Mg -1.63700 33.70200 26.51700
C  -3.85200 32.21600 28.74700
C  -0.51400 35.69500 29.05700
C  0.05600 35.50100 24.23100
C  -3.40700 32.08200 23.75700
N  -2.37000 34.08300 28.54000
C  -3.07100 33.14400 29.34300
C  -2.87300 33.42300 30.85100
C  -2.16500 34.81600 30.84600
C  -1.59900 34.85400 29.42500
C  -3.08600 36.11600 30.96700
C  -2.06100 32.24000 31.48600
C  -1.41800 32.40300 32.92800
H  -1.83600 31.55300 34.16000
N  -0.28500 35.26000 26.60800
C  0.00300 35.96300 27.73600
C  1.06000 36.88800 27.44100
C  1.19700 36.83600 26.04400
C  0.23600 35.91300 25.53700
C  1.79700 37.68700 28.43900
C  2.19300 37.60900 25.20000
O  2.15200 37.66500 23.96600
C  3.36400 38.34300 25.86300
N  -1.67000 33.85700 24.33500
C  -0.80300 34.55700 23.66200
C  -0.84300 34.32000 22.15700
C  -1.65600 32.97500 22.10000
C  -2.38000 32.96900 23.46300
C  -1.29700 35.50600 21.26600
C  -0.71000 31.74700 21.66100
C  -0.06400 30.90700 22.78200
N  -3.42100 32.50600 26.27600
C  -3.91500 31.85100 25.15400
C  -4.93500 30.95300 25.63600
C  -4.96800 31.03900 27.02000
C  -3.97800 31.96900 27.35800
C  -5.84100 30.08500 24.68000
C  -5.63600 30.55900 28.20200
O  -6.60500 29.89200 28.28400
C  -4.86500 31.21600 29.38400
C  -5.81800 31.95500 30.31700
O  -6.46700 32.93200 30.00600
O  -5.93800 31.37400 31.56100
C  -6.88600 31.93000 32.55200
H  -0.16400 36.19200 29.96400
H  0.68100 36.02500 23.50400
H  -3.77700 31.36100 23.02400
H  -3.79200 33.52300 31.42900
H  -1.30900 34.94400 31.50800
H  -2.97000 36.75500 30.09200
H  -2.68500 36.64600 31.83100
H  -4.15500 35.90400 30.99600
H  -1.21900 31.90400 30.88100
H  -2.81500 31.45300 31.50700
H  -1.66200 33.41300 33.25700
H  -0.33100 32.37000 32.99600
H  2.69300 37.21600 28.84400
H  1.18400 37.94500 29.30200
H  2.07000 38.65600 28.02200
H  3.00800 39.34700 26.09600
H  4.17500 38.57100 25.17100
H  3.85900 37.81800 26.67900
H  0.21600 34.07500 22.08200
H  -2.38400 32.96700 21.29000
H  -1.67100 35.12100 20.31800
H  -0.42700 36.15700 21.17700
H  -2.23400 35.90400 21.65500
H  0.16500 32.07100 21.09800
H  -1.28100 31.13200 20.96600
H  1.01300 30.79400 22.66300
H  -0.49800 29.91300 22.67500
H  -0.27600 31.24300 23.79700
H  -6.85100 29.99600 25.08100
H  -5.46800 29.06100 24.69600
H  -5.89300 30.47600 23.66400
H  -4.43100 30.44900 30.02600
H  -6.26300 32.55400 33.19300
H  -7.20000 31.06500 33.13600
H  -7.66600 32.53300 32.08600

