158

Mg 8.69200 3.03500 27.57100
C  9.87600 1.38700 30.47700
C  7.08900 5.24000 29.58400
C  7.51900 4.47200 24.84400
C  10.08400 0.40900 25.58800
N  8.33800 3.08000 29.93800
C  9.03700 2.38400 30.89200
C  8.82500 3.02600 32.24600
C  7.87500 4.31500 31.93200
C  7.76200 4.24500 30.38300
C  6.43300 4.40800 32.52300
C  10.09800 3.34200 33.06000
C  9.89400 3.75900 34.47800
H  11.03500 3.51600 35.47800
N  7.37500 4.57300 27.25900
C  6.90500 5.41500 28.17300
C  6.00000 6.39400 27.54600
C  6.27100 6.26800 26.16200
C  7.06700 5.03600 26.00500
C  5.02400 7.34500 28.32900
C  5.69200 7.03600 25.01100
O  5.63500 6.63500 23.85800
C  5.03500 8.27700 25.26400
N  8.90700 2.42100 25.49100
C  8.20600 3.26000 24.60700
C  8.19700 2.62500 23.20100
C  9.22000 1.48300 23.39400
C  9.32300 1.35000 24.90200
C  6.81000 2.08900 22.86800
C  10.58700 1.77500 22.68300
C  11.51400 0.56600 22.35300
N  9.93800 1.40700 27.82300
C  10.39700 0.46600 26.94000
C  11.18100 -0.54200 27.62500
C  10.95300 -0.25000 29.04900
C  10.22500 0.95600 29.12100
C  12.06100 -1.55900 27.00700
C  11.23900 -0.67700 30.38600
O  11.91200 -1.62500 30.82700
C  10.60600 0.38200 31.34800
C  9.78000 -0.30100 32.43900
O  8.60400 -0.58700 32.33900
O  10.50000 -0.48000 33.60100
C  9.80200 -0.88300 34.83300
H  6.80200 6.03100 30.27900
H  7.19600 5.05200 23.97700
H  10.57600 -0.36900 25.00000
H  8.20000 2.41400 32.89600
H  8.38100 5.24400 32.19500
H  6.21800 5.34200 33.04300
H  6.29200 3.63800 33.28000
H  5.68400 4.36700 31.73200
H  10.65200 4.21200 32.70900
H  10.79300 2.50400 33.12100
H  8.97800 3.24100 34.76400
H  9.64500 4.81700 34.39200
H  4.92700 7.24200 29.40900
H  3.99600 7.21200 27.99400
H  5.29800 8.39600 28.23200
H  5.63900 8.84600 25.97100
H  4.02000 8.17300 25.64800
H  4.99200 8.92300 24.38700
H  8.38800 3.31000 22.37600
H  8.91500 0.49400 23.05000
H  6.85600 1.03000 23.12400
H  6.62300 2.25600 21.80700
H  5.97500 2.63200 23.31200
H  11.17400 2.38500 23.37000
H  10.33800 2.35400 21.79400
H  11.79900 0.55200 21.30200
H  11.02000 -0.39200 22.51300
H  12.34600 0.68300 23.04800
H  11.42100 -2.32500 26.57100
H  12.67200 -2.03900 27.77200
H  12.74800 -1.09300 26.30000
H  11.47600 0.77700 31.87300
H  8.83900 -1.30900 34.54900
H  9.54100 -0.02700 35.45700
H  10.29300 -1.58000 35.51200
Mg 40.62500 8.40600 29.33500
C  42.19100 9.65900 32.08900
C  38.27900 6.95900 31.26000
C  39.39000 6.77600 26.56700
C  43.37900 9.27300 27.36200
N  40.28300 8.31400 31.44400
C  40.93000 9.14200 32.36200
C  40.13500 9.15800 33.66200
C  38.89500 8.17900 33.43300
C  39.17500 7.75600 31.97400
C  38.58600 6.97900 34.37600
C  39.67800 10.55800 34.10000
C  38.78300 10.72200 35.31400
H  39.42800 11.39900 36.53200
N  39.00700 7.08600 28.99500
C  38.23900 6.55100 29.91200
C  37.27500 5.75700 29.27900
C  37.49700 5.79300 27.88900
C  38.76600 6.53200 27.78400
C  36.28800 4.74900 30.06400
C  36.74700 5.06200 26.78600
O  37.18800 4.79100 25.64800
C  35.32200 4.59400 27.08300
N  41.35000 7.95200 27.29300
C  40.56800 7.44200 26.33400
C  41.22900 7.49700 24.87700
C  42.37800 8.42600 25.14900
C  42.33500 8.58200 26.70300
C  41.67200 6.11800 24.34600
C  42.08700 9.92100 24.64700
C  40.66500 10.45100 24.45200
N  42.47200 9.17200 29.64500
C  43.41200 9.60100 28.76800
C  44.45200 10.37200 29.40400
C  44.01800 10.35700 30.74500
C  42.75800 9.65900 30.81600
C  45.67300 10.82500 28.67400
C  44.34100 10.83200 32.10600
O  45.35300 11.40600 32.57100
C  43.16200 10.45200 33.01900
C  43.60300 9.70300 34.26500
O  43.76200 8.45400 34.34000
O  43.76800 10.62300 35.29100
C  44.03600 10.10500 36.60300
H  37.44600 6.55200 31.83600
H  38.80200 6.39800 25.72700
H  44.19300 9.69100 26.76800
H  40.78400 8.67600 34.39400
H  38.00200 8.79500 33.32300
H  39.35500 6.98300 35.14800
H  38.59200 6.00800 33.88100
H  37.58100 7.22200 34.72200
H  39.07500 11.02200 33.31900
H  40.52200 11.19200 34.37500
H  38.39000 9.77000 35.67100
H  37.88000 11.30100 35.11900
H  35.39300 5.36100 30.17800
H  36.66500 4.54900 31.06600
H  36.16100 3.82600 29.49800
H  34.92400 4.30900 26.10900
H  34.81200 5.48400 27.45100
H  35.28300 3.63900 27.60700
H  40.57900 7.86600 24.08400
H  43.29500 7.96400 24.78400
H  42.76000 6.07500 24.40600
H  41.39700 6.02400 23.29500
H  41.38400 5.36000 25.07300
H  42.46000 9.92400 23.62300
H  42.65300 10.61400 25.27100
H  39.94800 9.79800 24.94900
H  40.35400 10.55600 23.41200
H  40.63700 11.44400 24.90100
H  46.00500 10.15700 27.87900
H  46.46400 10.75600 29.42000
H  45.57000 11.87200 28.38900
H  42.81200 11.43600 33.33200
H  43.27200 10.36500 37.33500
H  44.98400 10.43000 37.03100
H  43.95600 9.01800 36.59900

