158

Mg 7.54200 3.04500 26.96600
C  8.68300 1.53800 29.83400
C  5.44000 4.86800 28.92900
C  6.58900 4.67100 24.21300
C  9.03900 0.53500 25.09300
N  7.12800 3.23200 29.19000
C  7.81100 2.59100 30.12700
C  7.45100 3.01900 31.48600
C  6.19000 3.95200 31.18400
C  6.22900 4.04700 29.65100
C  4.86400 3.36600 31.81100
C  8.53400 3.69800 32.24500
C  8.40400 3.78300 33.74400
H  9.65500 3.93500 34.68500
N  6.19100 4.52700 26.62200
C  5.45200 5.25600 27.55900
C  4.73400 6.26000 26.92100
C  5.05700 6.24600 25.52500
C  6.05500 5.16600 25.39600
C  3.95400 7.28900 27.65100
C  4.57600 7.15300 24.34300
O  4.92200 7.05500 23.17300
C  3.68600 8.28200 24.64700
N  7.73400 2.56300 24.92900
C  7.39700 3.48700 24.00900
C  7.60200 2.89600 22.58300
C  8.27600 1.46000 22.83500
C  8.38000 1.44800 24.35900
C  6.25000 3.05200 21.74100
C  9.51000 1.16400 21.92300
C  9.27100 -0.17100 21.17300
N  8.56100 1.38300 27.33900
C  9.15500 0.48900 26.49600
C  10.03600 -0.38800 27.26800
C  9.75800 -0.07100 28.61500
C  8.92000 0.97500 28.57600
C  10.92500 -1.41800 26.75500
C  10.17800 -0.35700 29.95400
O  10.89500 -1.24000 30.38600
C  9.59200 0.71900 30.79100
C  8.84700 0.10900 31.98500
O  7.78000 -0.47000 31.92500
O  9.66100 0.12300 33.09100
C  9.10700 -0.49500 34.37200
H  4.72100 5.41500 29.54300
H  6.28300 5.09900 23.25600
H  9.54700 -0.22400 24.49300
H  7.07600 2.24700 32.15800
H  6.27800 4.95900 31.59300
H  4.01900 3.48400 31.13200
H  4.79700 3.95200 32.72800
H  4.81100 2.28600 31.94400
H  8.56100 4.75000 31.96000
H  9.56000 3.50200 31.93600
H  7.99600 2.81000 34.01700
H  7.68600 4.56600 33.98700
H  3.51400 7.04400 28.61800
H  3.08800 7.44300 27.00700
H  4.34800 8.30500 27.66100
H  3.44700 8.76700 23.70000
H  4.17900 8.95500 25.34800
H  2.69500 7.93600 24.94100
H  8.27000 3.50200 21.97100
H  7.48200 0.78100 22.52500
H  5.34500 3.26100 22.31200
H  6.13400 2.02800 21.38700
H  6.43700 3.79400 20.96500
H  10.47500 1.05500 22.41800
H  9.52100 1.86900 21.09100
H  9.22000 -0.04000 20.09200
H  8.40800 -0.74000 21.52000
H  10.12900 -0.83300 21.29600
H  11.34500 -1.14400 25.78800
H  10.48900 -2.40800 26.61500
H  11.80700 -1.30400 27.38500
H  10.37800 1.28200 31.29400
H  8.43400 0.13400 34.95500
H  9.90700 -0.76500 35.06100
H  8.65800 -1.43400 34.04800
Mg 53.50800 25.78200 45.87300
C  50.75500 27.65600 44.76100
C  52.16800 23.08800 44.16200
C  56.51200 24.15800 46.13100
C  54.96200 28.68600 46.92500
N  51.87100 25.52600 44.27700
C  50.83100 26.39000 44.16300
C  49.70400 25.75000 43.23000
C  49.96200 24.27700 43.58300
C  51.43900 24.27400 44.03500
C  49.01700 23.67900 44.66700
C  49.87100 26.05000 41.72400
C  48.66500 25.92500 40.75600
H  48.83800 25.27900 39.33000
N  54.20700 23.82600 45.35700
C  53.47400 22.87600 44.72100
C  54.21200 21.65800 44.70100
C  55.42600 21.95400 45.29900
C  55.41800 23.36600 45.67200
C  53.60300 20.36900 44.09600
C  56.58400 21.00400 45.37400
O  56.44900 19.91200 44.84200
C  57.90200 21.25800 46.03500
N  55.48000 26.31300 46.22800
C  56.49900 25.52500 46.33700
C  57.78800 26.20200 46.89100
C  57.31400 27.67700 46.96200
C  55.78300 27.60100 46.64300
C  58.52800 25.64000 48.18700
C  58.14300 28.65100 46.08400
C  58.38400 30.03400 46.64800
N  52.93700 27.80700 45.92100
C  53.55500 28.83800 46.55100
C  52.73900 29.95300 46.58300
C  51.57600 29.56400 45.91700
C  51.78200 28.22500 45.47500
C  53.02000 31.32500 47.20800
C  50.25200 29.99800 45.45800
O  49.62700 31.04500 45.62100
C  49.73900 28.78500 44.63400
C  49.66500 29.32900 43.27400
O  50.43300 30.04500 42.71600
O  48.40500 29.03400 42.77300
C  48.06200 29.62200 41.50700
H  51.57800 22.23800 43.81400
H  57.50000 23.69100 46.12500
H  55.42300 29.55000 47.40800
H  48.75200 26.05600 43.66500
H  49.80300 23.73700 42.65000
H  49.57400 22.95400 45.26100
H  48.18800 23.12000 44.23200
H  48.56000 24.42200 45.32100
H  50.66800 25.38900 41.38300
H  50.33800 27.01400 41.52300
H  48.27100 26.91300 40.51800
H  47.86000 25.35300 41.21800
H  53.94000 20.08100 43.10000
H  52.52900 20.41500 43.91500
H  53.68100 19.60000 44.86500
H  58.44300 20.34300 46.27600
H  57.73900 21.86700 46.92400
H  58.52100 21.80600 45.32500
H  58.41000 26.02200 46.01400
H  57.41900 28.02700 47.98900
H  58.30500 24.58500 48.34700
H  58.30000 26.20300 49.09200
H  59.60100 25.80700 48.08700
H  57.55600 28.71800 45.16800
H  59.05800 28.18200 45.72300
H  59.43300 30.32600 46.68600
H  58.01800 30.08800 47.67400
H  57.72400 30.68400 46.07400
H  52.11000 31.56400 47.75800
H  53.35400 32.08500 46.50200
H  53.78900 31.19600 47.97000
H  48.75700 28.49400 45.00800
H  47.08200 29.30400 41.15300
H  48.78400 29.61000 40.69000
H  47.74600 30.62900 41.77900

