158

Mg 45.28200 2.95500 47.04100
C  43.03700 5.72300 46.56500
C  42.57200 0.83100 46.94900
C  47.43200 0.39800 46.86400
C  47.97700 5.22600 46.59400
N  43.07700 3.30300 46.70400
C  42.39200 4.51600 46.66300
C  40.90200 4.22700 46.91000
C  40.78800 2.75700 47.28800
C  42.25200 2.24500 46.96600
C  40.25400 2.41800 48.66400
C  40.06000 4.58700 45.71600
C  40.58500 4.22200 44.27500
H  40.74800 5.48900 43.34900
N  45.03100 0.85400 46.82700
C  43.86500 0.20500 46.87900
C  44.09100 -1.22500 46.79400
C  45.52500 -1.38800 46.85000
C  46.07700 -0.02600 46.82300
C  43.05900 -2.25900 46.77400
C  46.30700 -2.67900 46.65300
O  45.63900 -3.76100 46.68500
C  47.82600 -2.78900 46.41700
N  47.35400 2.83300 46.64000
C  47.97900 1.66200 46.86600
C  49.48500 1.83700 47.00100
C  49.71500 3.37200 46.74200
C  48.29900 3.85800 46.60200
C  50.05000 1.31300 48.32300
C  50.51700 3.81900 45.43900
C  51.87400 3.01600 45.29800
N  45.56000 5.10500 46.86200
C  46.71100 5.88600 46.64700
C  46.38400 7.24400 46.65700
C  44.95800 7.23300 46.61400
C  44.51400 5.95500 46.75000
C  47.33100 8.36100 46.50300
C  43.78800 8.11500 46.71100
O  43.76300 9.33900 46.94900
C  42.51700 7.17600 46.60900
C  41.63100 7.47000 47.76000
O  41.70500 6.95900 48.89800
O  40.82200 8.50200 47.43700
C  39.80400 8.95600 48.42700
H  41.67700 0.20700 46.98300
H  48.18600 -0.39100 46.89100
H  48.88200 5.83100 46.68400
H  40.60300 4.82500 47.77100
H  40.16000 2.25000 46.55500
H  40.05100 3.29300 49.28000
H  41.06600 1.83900 49.10400
H  39.34700 1.81600 48.60300
H  40.06200 5.67200 45.81100
H  39.02900 4.23700 45.76700
H  39.92300 3.49700 43.80200
H  41.55100 3.76400 44.48700
H  43.38000 -3.06300 46.11200
H  42.04500 -1.90900 46.58300
H  43.05100 -2.67400 47.78200
H  48.14400 -2.12400 45.61500
H  48.04000 -3.82800 46.16800
H  48.39400 -2.59500 47.32700
H  50.05300 1.32700 46.22300
H  50.16300 3.87200 47.60000
H  49.26900 0.90700 48.96700
H  50.59200 2.10100 48.84500
H  50.67700 0.43900 48.14800
H  50.69200 4.85300 45.73900
H  49.85900 3.65800 44.58600
H  52.62700 3.74000 44.98700
H  51.82800 2.27500 44.50000
H  52.13400 2.62300 46.28100
H  48.05000 7.94100 45.79900
H  47.88400 8.55400 47.42200
H  46.86100 9.31300 46.25700
H  41.95400 7.48300 45.72800
H  39.68700 8.40200 49.35900
H  38.83400 8.87000 47.93700
H  39.84700 10.02800 48.61800
Mg 25.69300 50.57000 27.14600
C  23.63600 51.47100 29.70600
C  28.14700 49.76800 29.46400
C  27.74500 49.98000 24.48900
C  23.17300 51.52300 24.73700
N  25.93700 50.70400 29.40400
C  24.82600 50.95100 30.18000
C  25.20000 50.63800 31.69400
C  26.68400 50.27900 31.58700
C  26.97200 50.21200 30.05000
C  27.72800 51.12800 32.40500
C  24.27400 49.48900 32.34000
C  23.24600 49.93300 33.33600
H  23.33200 49.29000 34.72300
N  27.64300 49.95500 26.95700
C  28.44900 49.71400 28.06600
C  29.75200 49.25900 27.54800
C  29.71800 49.27900 26.08400
C  28.33500 49.76800 25.77500
C  30.89700 48.93800 28.42400
C  30.73900 48.70300 25.10200
O  30.52800 48.83000 23.88400
C  31.90200 47.72700 25.53100
N  25.51100 50.90400 24.96200
C  26.50800 50.48700 24.14700
C  26.07600 50.48600 22.63200
C  24.55200 50.92700 22.72300
C  24.40400 51.14400 24.22300
C  27.05300 51.23800 21.70400
C  23.53800 49.91700 22.15500
C  22.62800 50.35200 20.95000
N  23.89900 51.52000 27.18500
C  22.97600 51.80600 26.15700
C  21.82900 52.44900 26.79100
C  22.02000 52.29800 28.16400
C  23.28400 51.70200 28.34600
C  20.67600 53.18400 26.09600
C  21.44700 52.46300 29.48300
O  20.41900 53.01500 29.88300
C  22.44000 51.94600 30.50300
C  22.71400 53.17200 31.42400
O  23.30200 54.17300 31.06800
O  22.09600 52.94300 32.63600
C  22.22200 54.04900 33.63100
H  28.85800 49.41800 30.21600
H  28.33600 49.68500 23.61900
H  22.35400 51.87100 24.10500
H  25.08200 51.58900 32.21200
H  26.85000 49.27300 31.97300
H  28.14600 51.93400 31.80100
H  28.53200 50.48900 32.76800
H  27.27400 51.69500 33.21700
H  24.94100 48.81200 32.87400
H  23.87600 48.97500 31.46500
H  22.24000 49.85100 32.92500
H  23.50900 50.96700 33.56000
H  31.14000 47.87800 28.48800
H  30.88000 49.33500 29.43900
H  31.58800 49.46300 27.76300
H  32.56100 48.16400 26.28100
H  32.33100 47.29800 24.62600
H  31.43500 46.88200 26.03700
H  26.05200 49.45300 22.28800
H  24.35200 51.90900 22.29500
H  27.42800 50.50200 20.99200
H  27.87100 51.66600 22.28300
H  26.56600 52.04200 21.15200
H  22.91500 49.66800 23.01400
H  23.94000 48.91700 21.99200
H  22.57600 49.50200 20.27000
H  23.02400 51.24400 20.46500
H  21.65300 50.51200 21.41100
H  20.28300 53.88900 26.82800
H  20.03000 52.45500 25.60700
H  21.09800 53.69600 25.23000
H  21.91400 51.12100 30.98500
H  22.71700 54.93900 33.24200
H  22.76900 53.72700 34.51700
H  21.21100 54.35700 33.89600

