158

Mg 17.39600 -1.13100 28.11300
C  16.20000 0.81100 30.80700
C  19.18000 -2.95200 30.38100
C  18.85900 -2.73900 25.57400
C  15.82800 1.06300 25.91300
N  17.61800 -0.98600 30.24700
C  17.02000 -0.25800 31.18400
C  17.52500 -0.50100 32.61600
C  18.60300 -1.54300 32.33700
C  18.44800 -1.85700 30.86300
C  20.10400 -1.31800 32.74000
C  16.43100 -0.98800 33.55500
C  16.72200 -0.52100 35.00600
H  18.09400 0.10400 35.39400
N  18.67500 -2.68600 28.00000
C  19.22500 -3.35000 29.01000
C  19.87700 -4.49100 28.53300
C  19.72100 -4.52100 27.09800
C  19.02100 -3.26600 26.83200
C  20.56400 -5.58500 29.51500
C  20.24100 -5.52500 26.08500
O  20.09500 -5.38200 24.88200
C  21.01300 -6.81600 26.61000
N  17.53100 -0.78300 26.02000
C  18.07600 -1.68100 25.17100
C  17.82800 -1.28100 23.71000
C  16.80300 -0.06400 23.82300
C  16.82300 0.18400 25.36400
C  19.10100 -1.03200 22.90700
C  15.43100 -0.24400 23.11300
C  14.13700 -0.79700 23.80400
N  16.18300 0.58700 28.27800
C  15.58200 1.31800 27.26700
C  14.83200 2.36500 27.89200
C  14.97100 2.22800 29.23600
C  15.86700 1.15200 29.45200
C  14.14800 3.49800 27.23400
C  14.58900 2.78200 30.54800
O  13.84900 3.73900 30.87000
C  15.55200 1.95600 31.62200
C  16.54900 2.80400 32.30500
O  17.73500 2.60100 32.15100
O  15.99600 3.71400 33.23800
C  16.97400 4.45600 34.06100
H  19.69800 -3.60200 31.08900
H  19.27000 -3.27900 24.71800
H  15.22300 1.58800 25.17100
H  17.99400 0.42100 32.95700
H  18.36800 -2.48400 32.83500
H  20.44600 -2.23200 33.22700
H  20.14400 -0.39500 33.31700
H  20.66400 -1.23700 31.80800
H  16.43700 -2.07700 33.49800
H  15.50000 -0.56000 33.18300
H  16.39900 -1.30100 35.69500
H  15.94300 0.23400 35.11700
H  20.02800 -5.68900 30.45800
H  21.63100 -5.38600 29.61800
H  20.40100 -6.55500 29.04600
H  21.39100 -7.26400 25.69100
H  20.22100 -7.44300 27.01900
H  21.86700 -6.61300 27.25700
H  17.31000 -2.06300 23.15500
H  17.29000 0.80600 23.38200
H  19.36800 0.02400 22.94100
H  18.92500 -1.44100 21.91200
H  19.97400 -1.52100 23.34100
H  15.46400 -0.85000 22.20800
H  15.22600 0.77400 22.78000
H  13.69300 -1.50000 23.10000
H  13.30400 -0.12200 24.00200
H  14.37300 -1.37300 24.69900
H  13.08400 3.27900 27.13500
H  14.60800 3.81600 26.29900
H  14.35400 4.27900 27.96600
H  14.85500 1.63800 32.39700
H  17.78100 4.95700 33.52600
H  17.48400 3.90800 34.85300
H  16.40500 5.21400 34.59900
Mg 35.75400 48.59900 25.27000
C  35.74400 46.60700 28.26900
C  34.66400 51.25200 27.15400
C  35.36700 50.32700 22.42200
C  36.73800 45.80200 23.45400
N  35.22500 48.80200 27.52700
C  35.26600 47.91100 28.52600
C  35.08100 48.59700 29.91100
C  34.63700 50.01700 29.45900
C  34.69600 50.03100 27.93500
C  33.26600 50.42700 29.93800
C  36.29700 48.57100 30.79200
C  36.09800 48.56600 32.30800
H  34.71600 48.67100 32.97800
N  35.34000 50.58200 24.83900
C  34.83800 51.51500 25.77700
C  34.63800 52.80200 25.09300
C  34.82000 52.50100 23.74700
C  35.20600 51.09900 23.61900
C  34.16400 54.06100 25.77800
C  34.80000 53.43200 22.57500
O  35.06900 53.02900 21.47300
C  34.52800 54.85900 22.76500
N  35.85000 48.08000 23.20900
C  35.78900 49.03000 22.23800
C  36.28500 48.46700 20.85300
C  36.67100 47.03100 21.22700
C  36.50500 47.00800 22.76300
C  35.22200 48.55500 19.65200
C  38.07700 46.63600 20.74700
C  39.24000 47.17700 21.52900
N  36.00600 46.55700 25.65600
C  36.54200 45.56300 24.85600
C  36.69700 44.34900 25.70800
C  36.45200 44.75700 26.96700
C  35.99600 46.08300 26.93600
C  37.16000 42.92200 25.18700
C  36.35500 44.22100 28.30500
O  36.33800 43.05900 28.59000
C  36.03600 45.39100 29.23700
C  34.90500 45.17400 30.14500
O  33.74900 45.39300 29.91800
O  35.47300 44.72900 31.30700
C  34.45700 44.56900 32.40200
H  34.33200 52.09500 27.76400
H  35.30000 50.83900 21.46000
H  37.07400 45.02300 22.76600
H  34.27600 48.07700 30.43100
H  35.42200 50.72100 29.73500
H  33.32900 51.31400 30.56800
H  32.82900 49.66800 30.58800
H  32.57500 50.73500 29.15400
H  36.98100 49.40900 30.65600
H  36.85400 47.67900 30.50500
H  36.70800 49.35000 32.75700
H  36.52100 47.64900 32.71900
H  35.02900 54.72000 25.85300
H  33.78600 53.69300 26.73200
H  33.36000 54.57900 25.25500
H  34.84300 55.46000 21.91200
H  35.10500 55.22500 23.61400
H  33.46100 55.04100 22.89100
H  37.13900 49.08000 20.56400
H  35.91600 46.34600 20.84000
H  35.10500 47.65000 19.05500
H  35.50200 49.28500 18.89300
H  34.23700 48.85200 20.01200
H  38.05700 47.11000 19.76600
H  38.13900 45.54800 20.76400
H  39.67500 46.38100 22.13400
H  38.80000 47.92700 22.18600
H  40.08000 47.59000 20.97100
H  36.73300 42.73600 24.20200
H  36.76900 42.13100 25.82800
H  38.24600 42.97300 25.26600
H  36.90900 45.62200 29.84700
H  34.17500 43.53300 32.58700
H  33.57700 45.17500 32.18900
H  34.82100 44.85500 33.38900

