158

Mg 30.91900 59.80200 39.44900
C  27.98900 58.32200 38.20200
C  32.71700 56.88600 38.48900
C  33.83400 61.46700 39.90000
C  29.19900 62.81700 39.71600
N  30.37200 57.90700 38.33700
C  29.10600 57.46800 38.04000
C  29.14200 56.17300 37.28500
C  30.62700 55.65100 37.56700
C  31.29300 56.84200 38.29100
C  30.75100 54.36800 38.49700
C  28.79700 56.08900 35.74900
C  27.50500 55.32600 35.40100
H  26.64400 55.83800 34.33500
N  33.05900 59.27000 39.15800
C  33.49400 58.00500 38.83600
C  34.87700 58.06800 38.80500
C  35.30400 59.43300 39.06600
C  34.08800 60.19200 39.41000
C  35.77400 56.85600 38.53400
C  36.77700 59.85500 39.13100
O  37.69700 59.12300 38.81500
C  37.09700 61.23500 39.57100
N  31.40800 61.65300 39.72200
C  32.65500 62.14200 39.99200
C  32.76600 63.68800 40.09400
C  31.24600 64.04800 39.99100
C  30.57100 62.74600 39.82000
C  33.44300 64.15800 41.44200
C  30.95200 65.13900 38.94800
C  30.22700 66.43200 39.46300
N  28.90900 60.52200 39.12400
C  28.38100 61.76500 39.19400
C  27.00300 61.68100 39.05200
C  26.74800 60.36200 38.57700
C  28.01100 59.67800 38.64700
C  26.07100 62.77300 39.46700
C  25.71900 59.35600 38.19000
O  24.51900 59.45500 38.17800
C  26.52600 58.06700 37.84900
C  25.95700 57.00200 38.68000
O  26.20100 56.83000 39.84200
O  25.23300 56.14600 37.87000
C  24.64000 55.03400 38.57000
H  33.23200 55.97800 38.16700
H  34.77000 62.00400 40.07100
H  28.70600 63.78000 39.86600
H  28.48200 55.50900 37.84200
H  31.09900 55.50500 36.59500
H  31.07300 53.46900 37.97300
H  29.81900 54.09900 38.99500
H  31.41500 54.63600 39.31800
H  29.58100 55.59800 35.17400
H  28.64900 57.12900 35.45500
H  27.00900 55.02100 36.32200
H  27.95500 54.42400 34.98800
H  36.48200 56.66400 39.34100
H  36.38500 57.23300 37.71400
H  35.28300 55.92400 38.25200
H  38.15200 61.50600 39.53400
H  36.61600 61.48600 40.51600
H  36.72200 61.89900 38.79200
H  33.30900 64.14400 39.26600
H  31.01300 64.34200 41.01500
H  33.81100 63.34700 42.07000
H  32.77000 64.78100 42.03200
H  34.27400 64.81800 41.19100
H  30.53400 64.54400 38.13500
H  31.91700 65.48200 38.57500
H  29.27100 66.21800 38.98500
H  30.70700 67.33200 39.07700
H  30.03600 66.33100 40.53200
H  26.54500 63.73200 39.67600
H  25.53600 62.46600 40.36500
H  25.26100 62.92800 38.75400
H  26.42300 57.76600 36.80600
H  23.88500 55.35000 39.28900
H  25.42000 54.40600 39.00000
H  24.24400 54.31900 37.84800
Mg 0.59100 41.99900 25.87000
C  3.17700 41.78400 28.38700
C  -1.56100 40.95600 28.27400
C  -1.66900 41.64700 23.48500
C  3.16200 42.21000 23.53500
N  0.80400 41.63600 28.15200
C  1.90100 41.64300 28.91900
C  1.59400 41.52400 30.40300
C  0.14900 40.92700 30.30600
C  -0.31700 41.24300 28.82900
C  0.14300 39.38200 30.54200
C  1.74700 42.92300 31.07500
C  1.82500 42.91200 32.63900
H  1.21800 41.70900 33.35900
N  -1.32800 41.55900 25.90300
C  -2.06100 41.14700 26.96300
C  -3.46400 41.19100 26.59600
C  -3.49000 41.44400 25.15300
C  -2.10600 41.51800 24.83000
C  -4.66700 40.94700 27.58100
C  -4.69500 41.58400 24.28100
O  -4.62300 41.79300 23.09800
C  -6.12000 41.55400 24.89400
N  0.73200 42.01000 23.81900
C  -0.36500 41.96700 22.99500
C  -0.02100 42.28000 21.58700
C  1.43800 42.82500 21.70200
C  1.81700 42.36700 23.11000
C  -0.13900 41.08700 20.56700
C  1.67700 44.38700 21.51100
C  1.74100 45.35500 22.72800
N  2.78800 42.02800 25.87000
C  3.66900 42.04700 24.85000
C  5.05200 41.88400 25.35600
C  4.91200 41.81700 26.80700
C  3.47700 41.77600 27.01900
C  6.24300 41.72000 24.50000
C  5.59200 41.74500 28.03500
O  6.78500 41.61000 28.20600
C  4.50000 41.80400 29.13800
C  4.59600 40.71900 30.20600
O  4.28800 39.54400 30.09700
O  5.03100 41.27100 31.38800
C  4.79900 40.40400 32.55900
H  -2.31900 40.59900 28.97400
H  -2.42400 41.67800 22.69700
H  3.96400 42.41100 22.82200
H  2.20300 40.80000 30.94400
H  -0.62200 41.30100 30.98000
H  1.13900 39.04800 30.83300
H  -0.05500 38.97000 29.55200
H  -0.61400 39.08800 31.26900
H  0.90000 43.51800 30.73600
H  2.65100 43.39100 30.68600
H  1.29900 43.80100 32.98700
H  2.87500 42.92200 32.92800
H  -5.25400 41.82300 27.86100
H  -4.26900 40.65500 28.55300
H  -5.30300 40.19900 27.10800
H  -6.36800 40.51500 25.11200
H  -6.84900 41.84000 24.13600
H  -6.25500 42.12100 25.81500
H  -0.71200 43.04600 21.23300
H  2.04200 42.27400 20.98100
H  0.54900 40.25100 20.69400
H  -0.10000 41.44200 19.53700
H  -1.14100 40.68600 20.72000
H  0.89900 44.75600 20.84300
H  2.60700 44.40300 20.94300
H  1.73800 44.90100 23.71900
H  0.77500 45.86000 22.72400
H  2.46100 46.15200 22.54400
H  6.55900 42.72300 24.21400
H  6.00000 41.05300 23.67300
H  7.07000 41.28300 25.06000
H  4.62100 42.80100 29.56300
H  5.04400 40.83700 33.52900
H  5.49500 39.56500 32.58900
H  3.78300 40.01100 32.60700

