158

Mg 41.27500 40.93100 26.93700
C  40.76500 43.32100 29.54800
C  42.79700 39.06100 29.25200
C  42.07100 38.98000 24.41400
C  40.42800 43.51000 24.61700
N  41.79000 41.27600 29.13900
C  41.35000 42.17900 30.01700
C  41.57100 41.76400 31.52100
C  42.52800 40.52100 31.30000
C  42.38600 40.23500 29.79300
C  43.98400 40.74300 31.75800
C  40.19500 41.51300 32.19600
C  39.96600 42.34400 33.43800
H  39.18000 41.84100 34.58800
N  42.22000 39.16100 26.88300
C  42.83200 38.50400 27.90900
C  43.34500 37.26800 27.51000
C  43.17400 37.20000 26.08300
C  42.43900 38.47900 25.73000
C  44.05200 36.24900 28.49000
C  43.52200 36.11200 25.08300
O  43.37500 36.22100 23.86300
C  44.27000 34.86900 25.57200
N  41.30200 41.20300 24.80200
C  41.67000 40.19200 23.98700
C  41.46600 40.64800 22.47900
C  40.73000 42.02200 22.62400
C  40.81700 42.27000 24.09300
C  42.78800 40.60500 21.59800
C  39.24800 41.92300 22.02600
C  38.20400 41.09200 22.84000
N  40.60900 42.92500 26.98600
C  40.32500 43.83300 26.00000
C  39.89700 45.11700 26.57000
C  40.02300 44.99300 27.92100
C  40.57900 43.66400 28.13900
C  39.39700 46.31900 25.74600
C  39.84200 45.60900 29.24100
O  39.39700 46.74400 29.44000
C  40.28200 44.49600 30.34300
C  41.36300 45.04300 31.25600
O  42.57100 45.07300 30.97200
O  40.78800 45.53700 32.46000
C  41.61600 46.19800 33.39000
H  43.23200 38.37100 29.97700
H  42.41300 38.38000 23.56900
H  40.05400 44.20800 23.86600
H  42.10900 42.53000 32.08000
H  42.10100 39.61500 31.72800
H  44.10400 40.09800 32.62900
H  44.17300 41.77800 32.04300
H  44.63100 40.49400 30.91700
H  40.22800 40.49500 32.58400
H  39.32100 41.61600 31.55200
H  39.44300 43.26600 33.18500
H  40.93700 42.64800 33.82900
H  45.08200 35.98600 28.25200
H  43.58400 35.26400 28.47300
H  44.03500 36.68800 29.48700
H  43.77700 34.44600 26.44700
H  45.28000 35.14400 25.87700
H  44.26600 34.03000 24.87600
H  40.79100 39.88600 22.09000
H  41.37500 42.68900 22.05100
H  43.38700 41.51400 21.64700
H  42.46700 40.58300 20.55700
H  43.25800 39.68800 21.95400
H  39.21900 41.54500 21.00300
H  38.91300 42.94500 21.84700
H  37.65900 41.70700 23.55600
H  38.69100 40.21600 23.26800
H  37.38200 40.83300 22.17300
H  39.18800 45.93200 24.74900
H  40.20500 47.04600 25.66300
H  38.65700 46.80900 26.37800
H  39.43900 44.28900 31.00200
H  42.01500 45.43200 34.05500
H  41.02000 46.95500 33.90000
H  42.42300 46.75000 32.90900
Mg -11.86400 38.80700 41.90300
C  -9.50900 36.22200 41.26700
C  -9.78900 40.83400 40.25600
C  -14.34100 40.97100 41.91100
C  -14.11000 36.21900 42.78200
N  -10.05200 38.45600 40.54700
C  -9.23600 37.37000 40.55100
C  -8.07400 37.59600 39.56900
C  -8.08400 39.12700 39.34000
C  -9.43000 39.51800 40.02800
C  -6.91100 39.96900 40.02400
C  -8.27300 36.70700 38.28200
C  -6.97800 36.06100 37.77100
H  -6.19900 36.79200 36.73400
N  -11.95100 40.70400 41.27300
C  -10.93200 41.42200 40.75600
C  -11.22200 42.79500 40.68400
C  -12.60900 42.82000 41.02900
C  -13.05700 41.42700 41.45900
C  -10.34900 43.99100 40.22200
C  -13.51000 44.02900 40.96300
O  -13.01500 45.09700 40.64300
C  -14.95500 44.09800 41.38600
N  -13.92100 38.57400 42.20800
C  -14.68100 39.69400 42.24800
C  -16.13800 39.35400 42.55700
C  -16.09100 37.84500 42.78900
C  -14.64200 37.48200 42.58700
C  -16.70300 40.30600 43.67900
C  -17.03600 36.96600 41.89500
C  -17.56800 35.56700 42.50700
N  -11.83700 36.62300 42.07400
C  -12.78400 35.76500 42.53800
C  -12.25900 34.45900 42.73900
C  -10.89900 34.58300 42.29100
C  -10.76600 35.87000 41.77900
C  -13.01500 33.26500 43.52100
C  -9.60200 33.94000 42.20600
O  -9.27300 32.81200 42.46900
C  -8.64700 34.89900 41.36900
C  -7.38800 34.98900 42.11300
O  -6.61400 34.01200 42.14600
O  -7.18400 36.27200 42.59000
C  -6.05200 36.45100 43.50600
H  -9.12600 41.60600 39.85900
H  -15.10000 41.74100 42.06500
H  -14.73400 35.35500 43.01800
H  -7.20900 37.43100 40.21200
H  -8.20000 39.47100 38.31300
H  -7.10900 40.36000 41.02200
H  -6.71500 40.75100 39.29100
H  -5.98200 39.40000 40.02400
H  -8.60900 37.34100 37.46200
H  -8.90500 35.83400 38.44600
H  -7.24300 35.03100 37.53000
H  -6.27600 35.98000 38.60100
H  -10.76000 44.57100 39.39500
H  -9.36100 43.63200 39.93200
H  -10.00900 44.68400 40.99100
H  -15.30200 45.12300 41.25900
H  -15.00900 43.81900 42.43800
H  -15.49400 43.35100 40.80200
H  -16.58300 39.63500 41.60200
H  -16.47500 37.54200 43.76300
H  -17.20800 41.21900 43.36300
H  -15.88800 40.56300 44.35500
H  -17.36800 39.69400 44.28800
H  -16.34800 36.80200 41.06600
H  -17.81300 37.59800 41.46400
H  -18.65000 35.50000 42.39500
H  -17.27600 35.39900 43.54400
H  -17.30100 34.74400 41.84400
H  -12.35100 32.51100 43.94300
H  -13.74500 32.81500 42.84800
H  -13.45600 33.72800 44.40300
H  -8.48600 34.46700 40.38200
H  -5.26600 36.90300 42.90100
H  -5.63000 35.49100 43.80200
H  -6.30800 37.08000 44.35800

