158

Mg -2.01100 35.36500 26.40900
C  -3.11300 33.62100 29.27300
C  -0.53700 37.74100 28.37500
C  -1.11100 37.04300 23.65000
C  -3.68900 32.91800 24.44400
N  -1.91600 35.64500 28.57800
C  -2.38700 34.80500 29.61800
C  -1.85500 35.27700 30.97900
C  -1.18900 36.71100 30.70800
C  -1.17300 36.72500 29.12700
C  -1.94900 37.95500 31.35000
C  -0.98200 34.25900 31.70900
C  -1.36800 33.78600 33.14400
H  -0.29500 33.70000 34.29300
N  -1.06800 37.20800 26.05600
C  -0.56900 38.00900 27.02700
C  0.00700 39.11400 26.43600
C  -0.05100 38.95200 25.02200
C  -0.72500 37.64100 24.81700
C  0.67500 40.24500 27.24700
C  0.38900 39.93000 23.87100
O  0.20900 39.59500 22.72000
C  1.00600 41.27000 24.10000
N  -2.42500 35.11300 24.31300
C  -1.88400 35.88500 23.40300
C  -1.91300 35.25400 22.05000
C  -2.73700 33.91100 22.21500
C  -2.97900 33.94300 23.77200
C  -2.46700 36.04900 20.82400
C  -2.04300 32.73700 21.53300
C  -1.04600 31.93800 22.39000
N  -3.15900 33.61000 26.71200
C  -3.80500 32.76500 25.80800
C  -4.53000 31.79400 26.55100
C  -4.23400 32.08200 27.89200
C  -3.34100 33.10900 27.93700
C  -5.41200 30.77500 25.92100
C  -4.54200 31.65900 29.21300
O  -5.31200 30.81600 29.63600
C  -3.70600 32.54000 30.19000
C  -4.61000 33.00700 31.22200
O  -5.54200 33.76900 31.03100
O  -4.21300 32.45500 32.49500
C  -5.12800 32.77300 33.62900
H  0.02400 38.42700 29.01300
H  -0.86100 37.50200 22.69100
H  -4.26500 32.16900 23.89500
H  -2.72200 35.42700 31.62200
H  -0.17200 36.88800 31.05700
H  -2.61500 37.57800 32.12700
H  -2.57300 38.40500 30.57800
H  -1.33300 38.82500 31.57500
H  -0.02000 34.74900 31.86000
H  -0.88900 33.34600 31.12100
H  -1.61500 32.74300 32.94200
H  -2.26600 34.34300 33.41000
H  1.75100 40.20200 27.07800
H  0.58800 40.25500 28.33300
H  0.38000 41.17500 26.76100
H  1.57100 41.66400 23.25500
H  1.72900 41.24000 24.91600
H  0.15200 41.89600 24.35600
H  -0.85100 35.01200 22.01200
H  -3.66400 34.07100 21.66400
H  -1.84300 36.06300 19.93000
H  -2.47400 37.10900 21.07700
H  -3.49500 35.80300 20.55600
H  -1.64900 33.07800 20.57500
H  -2.85600 32.02000 21.41400
H  -1.38300 30.91300 22.54800
H  -0.94000 32.42300 23.36000
H  -0.09000 31.90000 21.86800
H  -5.28300 30.44300 24.89100
H  -6.38900 31.25700 25.94200
H  -5.42400 29.90900 26.58300
H  -3.02400 31.78000 30.56900
H  -6.05800 33.26400 33.34400
H  -4.57800 33.36200 34.36300
H  -5.40000 31.79900 34.03700
Mg -5.14500 26.30600 26.37600
C  -3.54800 27.45700 29.22900
C  -6.77200 24.04000 28.38700
C  -6.28000 24.81900 23.57900
C  -3.28700 28.40400 24.51100
N  -5.13900 25.86900 28.56900
C  -4.48700 26.50800 29.52800
C  -4.98800 26.07500 30.95100
C  -5.76000 24.78700 30.62700
C  -5.92000 24.87700 29.10800
C  -4.98400 23.52100 31.08200
C  -5.92400 27.19300 31.52100
C  -5.81600 27.26700 33.08400
H  -5.33700 26.18600 34.07000
N  -6.47400 24.77200 26.05900
C  -7.07700 23.94900 27.00400
C  -7.99400 23.03700 26.31300
C  -7.75000 23.16100 24.91800
C  -6.80300 24.34100 24.79800
C  -8.95100 22.14100 27.10800
C  -8.33100 22.44000 23.68300
O  -8.13600 22.73600 22.52300
C  -9.21700 21.28100 23.85000
N  -4.92700 26.65500 24.35700
C  -5.38700 25.89700 23.37400
C  -4.82300 26.30000 21.98200
C  -4.02100 27.59800 22.27100
C  -4.09900 27.55500 23.84700
C  -4.00400 25.27300 21.22600
C  -4.72000 28.91600 21.61400
C  -4.27900 29.06900 20.11200
N  -3.76200 27.73800 26.76000
C  -3.11400 28.49800 25.87900
C  -2.17000 29.27300 26.59300
C  -2.35400 28.93700 27.91800
C  -3.27700 27.97400 27.94800
C  -1.22900 30.24400 25.97900
C  -2.00000 29.29900 29.29700
O  -1.26000 30.18400 29.67500
C  -2.71500 28.31500 30.17200
C  -1.72900 27.53900 30.89900
O  -1.48800 26.39500 30.61000
O  -1.26000 28.17700 32.03400
C  -0.57500 27.29800 33.05900
H  -7.26600 23.35800 29.08200
H  -6.60800 24.43900 22.60900
H  -2.66100 28.98600 23.83100
H  -4.10100 25.94900 31.57200
H  -6.76200 24.80400 31.05500
H  -4.16200 23.76800 31.75300
H  -4.53600 22.99900 30.23600
H  -5.63800 22.87100 31.66300
H  -6.98900 27.04900 31.33600
H  -5.60100 28.15700 31.12800
H  -6.79500 27.64200 33.38400
H  -5.15700 28.13400 33.13500
H  -9.89600 22.00300 26.58200
H  -9.09600 22.41800 28.15200
H  -8.47200 21.16300 27.15000
H  -9.40700 20.67600 22.96300
H  -10.17600 21.65300 24.21000
H  -8.84600 20.68900 24.68700
H  -5.68800 26.62300 21.40300
H  -3.03100 27.45300 21.84000
H  -4.00500 25.56000 20.17400
H  -4.42800 24.27800 21.35700
H  -2.96800 25.25600 21.56200
H  -4.45700 29.85100 22.10900
H  -5.77500 28.64600 21.67400
H  -5.16300 28.96800 19.48200
H  -3.62000 28.23600 19.86700
H  -3.76900 30.03000 20.06300
H  -0.89900 30.95400 26.73800
H  -1.70000 30.71800 25.11800
H  -0.34800 29.68600 25.66000
H  -3.34700 28.83000 30.89600
H  -1.30700 27.18200 33.85800
H  0.28900 27.91300 33.30800
H  -0.25100 26.30700 32.73900

