158

Mg 47.49700 17.34500 29.01800
C  45.56300 16.73700 31.82600
C  50.09500 18.42600 31.13200
C  49.56700 17.64800 26.33100
C  45.07600 15.82000 27.02900
N  47.65400 17.78600 31.15500
C  46.78100 17.37100 32.13900
C  47.38800 17.56200 33.55700
C  48.68100 18.35000 33.38200
C  48.85800 18.18500 31.80600
C  48.78200 19.81300 33.89000
C  47.44500 16.19800 34.38500
C  47.19900 16.25600 35.93100
H  47.11000 17.66900 36.63000
N  49.54800 17.94700 28.76900
C  50.43200 18.39100 29.72600
C  51.67900 18.84900 29.16900
C  51.63200 18.53400 27.77300
C  50.18900 18.01100 27.50100
C  52.83100 19.47600 29.97800
C  52.68300 18.67000 26.66100
O  52.40500 18.46000 25.50700
C  54.15400 19.07200 27.01900
N  47.30700 16.83100 26.98300
C  48.28700 17.17200 26.03500
C  47.90500 16.66200 24.63200
C  46.51900 15.86500 24.94300
C  46.23800 16.19700 26.37400
C  47.75100 17.72200 23.56600
C  46.65700 14.32200 24.76100
C  46.22400 13.84600 23.38900
N  45.63900 16.56400 29.21000
C  44.71600 16.04900 28.34900
C  43.49900 15.66100 29.00600
C  43.83800 15.92500 30.36500
C  45.13700 16.52300 30.44200
C  42.18600 15.09500 28.42500
C  43.27400 15.85900 31.76500
O  42.12500 15.38700 32.00700
C  44.35200 16.29300 32.71300
C  43.91200 17.42600 33.48500
O  43.91900 18.55900 33.05300
O  43.51300 17.14200 34.71700
C  43.16100 18.14300 35.75300
H  50.92700 18.63500 31.80600
H  50.25000 17.56300 25.48300
H  44.33400 15.24200 26.47400
H  46.79700 18.24400 34.16800
H  49.47200 17.83200 33.92500
H  49.08500 20.41500 33.03400
H  49.55100 19.88700 34.65900
H  47.85800 20.16700 34.34800
H  48.45700 15.82200 34.23500
H  46.83700 15.47700 33.83800
H  47.93800 15.60900 36.40300
H  46.24800 15.75300 36.11200
H  53.58000 18.73500 30.25600
H  52.43900 19.91400 30.89600
H  53.30800 20.25000 29.37600
H  54.12100 20.14100 27.23100
H  54.69500 18.76600 26.12400
H  54.51900 18.37400 27.77300
H  48.65900 15.93100 24.34200
H  45.71800 16.30300 24.34900
H  48.44900 17.52700 22.75200
H  47.96400 18.68700 24.02500
H  46.77800 17.68900 23.07600
H  46.14300 13.74600 25.53000
H  47.71200 14.06100 24.85500
H  46.91500 13.14400 22.92200
H  46.04800 14.69500 22.72900
H  45.22700 13.41100 23.44300
H  42.25100 14.06000 28.76000
H  42.15500 15.25700 27.34800
H  41.37900 15.67700 28.87200
H  44.60100 15.45300 33.36100
H  42.20500 18.66100 35.67000
H  43.91800 18.92600 35.79200
H  43.13200 17.63300 36.71600
Mg -6.13600 25.38900 26.16500
C  -4.43300 26.34000 28.93900
C  -8.05800 23.33300 28.21100
C  -7.15000 23.75700 23.34400
C  -3.94500 27.33100 24.17600
N  -6.18200 24.85800 28.30800
C  -5.45200 25.46500 29.28300
C  -6.09800 25.29700 30.67100
C  -7.04300 24.09100 30.39200
C  -7.11100 24.04700 28.87300
C  -6.63500 22.78900 31.17700
C  -6.83300 26.58300 31.18500
C  -7.04500 26.56000 32.82400
H  -6.50500 25.44400 33.75800
N  -7.52800 23.99500 25.84100
C  -8.23000 23.23600 26.78600
C  -9.20000 22.45000 26.13200
C  -8.98500 22.59200 24.74100
C  -7.88500 23.42300 24.57300
C  -10.36600 21.66100 26.88500
C  -9.72200 21.88200 23.61600
O  -9.53700 22.09800 22.40500
C  -10.68500 20.75300 23.88100
N  -5.57400 25.53800 24.06100
C  -6.15200 24.66500 23.13200
C  -5.54800 24.96400 21.68700
C  -4.57600 26.16800 21.88300
C  -4.72900 26.37100 23.43200
C  -5.02400 23.65100 21.07900
C  -5.05500 27.40800 21.07600
C  -4.13100 28.08400 20.07600
N  -4.57600 26.66600 26.44000
C  -3.81000 27.46100 25.55200
C  -2.78600 28.12100 26.29700
C  -2.91700 27.66200 27.67000
C  -4.07800 26.84500 27.67600
C  -1.75000 28.98000 25.71200
C  -2.47800 27.76200 29.04700
O  -1.49300 28.36200 29.51100
C  -3.48100 27.07900 29.95000
C  -2.80400 26.21400 30.82800
O  -2.20700 25.25700 30.48800
O  -2.86900 26.79900 32.10200
C  -2.20200 25.95500 33.20100
H  -8.76600 22.70500 28.75500
H  -7.53100 23.27800 22.44000
H  -3.30000 27.88600 23.49200
H  -5.29900 25.06800 31.37500
H  -8.04400 24.18000 30.81500
H  -7.22800 22.82300 32.09100
H  -5.58400 22.84800 31.46000
H  -6.90300 21.91300 30.58600
H  -7.81100 26.56800 30.70600
H  -6.34100 27.39300 30.64600
H  -8.13400 26.57800 32.85500
H  -6.69400 27.51000 33.22800
H  -11.36500 21.74800 26.45900
H  -10.43700 22.01500 27.91300
H  -10.18700 20.58500 26.88600
H  -11.62500 21.06400 24.33700
H  -10.18700 20.02300 24.51900
H  -11.01900 20.27200 22.96200
H  -6.45600 25.23700 21.15000
H  -3.56400 25.91800 21.56500
H  -5.22800 22.78000 21.70100
H  -3.98700 23.74400 20.75500
H  -5.64900 23.51400 20.19600
H  -5.26800 28.19200 21.80200
H  -5.93800 27.12300 20.50300
H  -4.51100 28.25900 19.07000
H  -3.22700 27.50000 19.90300
H  -3.78700 29.09300 20.30700
H  -2.15300 29.59500 24.90700
H  -0.89400 28.46800 25.27200
H  -1.28000 29.54000 26.52000
H  -4.11000 27.75000 30.53600
H  -2.69000 24.98800 33.32000
H  -2.32100 26.51700 34.12700
H  -1.15800 25.85300 32.90500

