158

Mg 25.42000 1.54600 29.38800
C  27.23500 1.37700 32.46900
C  22.64900 1.46800 31.21200
C  23.84100 1.71900 26.50100
C  28.54900 0.92200 27.75100
N  24.97100 1.63200 31.58700
C  25.87500 1.56900 32.64700
C  25.09200 1.69100 34.00900
C  23.57900 1.62700 33.56100
C  23.70400 1.49600 32.04500
C  22.75700 0.51900 34.21400
C  25.43700 2.90000 34.85100
C  25.93300 2.63700 36.32800
H  25.56300 3.50000 37.50600
N  23.50400 1.48200 28.91300
C  22.48700 1.53300 29.75600
C  21.28300 1.73700 29.04300
C  21.58800 1.73400 27.66900
C  23.05700 1.72100 27.62700
C  19.91400 1.63700 29.76200
C  20.71400 1.93900 26.47600
O  21.10000 1.71600 25.33000
C  19.28700 2.47900 26.64500
N  26.09000 1.22900 27.35300
C  25.20400 1.50000 26.29700
C  25.93800 1.68100 24.97700
C  27.42500 1.38200 25.42100
C  27.39500 1.12900 26.92600
C  25.48700 0.66300 23.87000
C  28.37600 2.44000 24.97100
C  29.85300 2.03000 24.80400
N  27.43100 1.21600 29.95800
C  28.54100 0.87900 29.14800
C  29.79700 0.82900 29.96900
C  29.28000 0.96500 31.29000
C  27.87200 1.17400 31.26600
C  31.19000 0.60000 29.41100
C  29.67400 1.11400 32.65700
O  30.80400 1.03500 33.10200
C  28.34300 1.25800 33.50800
C  28.20900 0.06100 34.31700
O  28.07200 -1.07600 33.95100
O  28.21900 0.44600 35.61100
C  28.09300 -0.60600 36.61700
H  21.68300 1.43600 31.72000
H  23.43500 1.88900 25.50100
H  29.54100 0.82400 27.30500
H  25.30200 0.84200 34.66000
H  22.98200 2.52200 33.74000
H  21.90000 0.92500 34.75100
H  23.26700 0.00900 35.03100
H  22.36900 -0.25200 33.54900
H  24.51700 3.48300 34.82800
H  26.07200 3.63900 34.36200
H  27.02300 2.64000 36.29700
H  25.79200 1.62900 36.72000
H  19.67000 2.69800 29.79700
H  20.03300 1.12100 30.71500
H  19.25500 1.05400 29.11700
H  18.70000 1.68900 27.11400
H  18.74600 2.76300 25.74200
H  19.44600 3.42600 27.16200
H  25.86800 2.72900 24.68600
H  27.73600 0.40200 25.05800
H  24.99800 1.25200 23.09500
H  24.68400 0.00400 24.19800
H  26.37000 0.14400 23.49800
H  28.30600 3.21000 25.73900
H  27.99900 2.79600 24.01200
H  30.33000 2.63900 24.03600
H  30.04900 1.00900 24.47700
H  30.34000 2.22300 25.76000
H  31.24000 -0.46900 29.61800
H  31.96900 1.19900 29.88300
H  31.33600 0.89600 28.37200
H  28.44500 2.18500 34.07100
H  28.17200 -1.65500 36.33200
H  27.16000 -0.63800 37.18000
H  28.71700 -0.40100 37.48700
Mg 42.45600 41.06200 26.66900
C  41.73800 43.58700 29.02600
C  43.85200 39.21700 29.25000
C  43.21700 38.85200 24.39100
C  41.72400 43.41100 24.18000
N  42.77800 41.34300 28.94000
C  42.28500 42.43800 29.66100
C  42.39900 42.17100 31.17600
C  43.39900 40.91800 31.15200
C  43.38700 40.44800 29.66700
C  44.93500 41.18800 31.63000
C  40.92900 41.93000 31.80600
C  40.61000 42.90400 32.90700
H  39.98200 42.44700 34.28000
N  43.38500 39.24500 26.73800
C  43.84800 38.64300 27.92900
C  44.33800 37.27800 27.59500
C  44.07700 37.10400 26.19700
C  43.55700 38.43100 25.69400
C  45.03500 36.33500 28.57200
C  44.33500 35.84400 25.30700
O  44.21900 35.90100 24.09600
C  44.60500 34.59900 25.89400
N  42.50600 41.24200 24.62000
C  42.76300 40.09600 23.87400
C  42.53000 40.25500 22.37000
C  41.95800 41.68300 22.32900
C  42.13200 42.20400 23.76600
C  43.85000 40.03900 21.52300
C  40.48400 41.76300 21.79000
C  40.00200 43.18400 21.36200
N  41.68900 43.00700 26.60700
C  41.42500 43.87000 25.55200
C  40.99700 45.16800 25.97400
C  41.00300 45.05400 27.37900
C  41.52100 43.76100 27.65900
C  40.68900 46.36800 25.18700
C  40.61900 45.76400 28.68100
O  40.10300 46.83200 28.97500
C  41.17900 44.78100 29.74300
C  42.28500 45.51700 30.35500
O  43.23100 45.93500 29.75500
O  42.12400 45.69300 31.71700
C  43.10600 46.57400 32.46500
H  44.15100 38.56700 30.07600
H  43.22500 38.04800 23.65200
H  41.43500 44.15000 23.43000
H  42.96800 42.99900 31.59800
H  43.00800 40.06300 31.70200
H  44.85600 42.16100 32.11400
H  45.50900 41.18200 30.70300
H  45.27900 40.46200 32.36700
H  40.90200 40.96000 32.30200
H  40.05500 41.92500 31.15500
H  39.84600 43.58500 32.53000
H  41.46900 43.53500 33.13700
H  46.09700 36.47000 28.77800
H  44.86100 35.26700 28.44400
H  44.61800 36.55200 29.55600
H  43.89900 34.49100 26.71800
H  45.61300 34.53900 26.30300
H  44.34900 33.80600 25.19100
H  41.76400 39.56000 22.02700
H  42.57700 42.30300 21.68000
H  44.62300 40.80500 21.58900
H  43.51000 40.03600 20.48700
H  44.21200 39.04500 21.78500
H  39.94700 41.46800 22.69100
H  40.31900 40.96300 21.06800
H  39.40600 43.54700 22.19900
H  39.35800 43.28200 20.48900
H  40.92100 43.76800 21.30300
H  41.22100 47.20100 25.64600
H  39.63000 46.61300 25.26500
H  41.10400 46.26400 24.18500
H  40.45400 44.59100 30.53400
H  43.51700 45.93300 33.24500
H  42.71400 47.53500 32.79800
H  43.99900 46.81500 31.88800

