158

Mg 7.73300 2.73700 27.58900
C  9.16600 1.36300 30.44000
C  5.95400 4.86400 29.50600
C  6.50600 3.95400 24.74900
C  9.33500 0.21500 25.77500
N  7.56500 3.02400 29.65000
C  8.27100 2.37900 30.65000
C  7.85600 2.88900 32.05000
C  6.67100 3.78500 31.80800
C  6.73300 3.90200 30.21600
C  5.31900 3.23400 32.38200
C  9.15900 3.53800 32.81200
C  9.45100 3.01700 34.23500
H  9.94900 4.04900 35.29400
N  6.51700 4.27900 27.17700
C  5.82600 5.05200 28.09500
C  5.14800 6.09200 27.44300
C  5.31800 5.93000 26.02700
C  6.16100 4.66900 25.90500
C  4.38700 7.07700 28.16000
C  4.82900 6.74100 24.90400
O  4.96800 6.37800 23.77200
C  4.14800 7.98700 25.08200
N  7.89400 2.13300 25.51400
C  7.15400 2.69000 24.61300
C  7.38100 2.05300 23.21600
C  8.35000 0.84900 23.50200
C  8.63300 1.10600 25.00000
C  5.99800 1.77900 22.55500
C  9.67600 0.89700 22.72200
C  9.70500 0.27200 21.35000
N  9.00900 1.03700 27.98600
C  9.62400 0.15900 27.14900
C  10.35900 -0.80600 27.89300
C  10.27200 -0.32300 29.18600
C  9.44600 0.79700 29.20900
C  11.17700 -1.97600 27.37200
C  10.70400 -0.54700 30.56200
O  11.54500 -1.34900 31.00400
C  10.02600 0.58500 31.39800
C  9.35500 -0.04900 32.43200
O  8.18800 -0.51100 32.38500
O  10.25100 -0.04500 33.49200
C  9.79000 -0.69900 34.74100
H  5.46000 5.57800 30.16800
H  6.09200 4.19800 23.76800
H  9.73200 -0.62000 25.19400
H  7.62300 1.95300 32.55700
H  6.71300 4.77700 32.25900
H  4.63900 3.33600 31.53600
H  4.97100 3.82300 33.23100
H  5.40500 2.20800 32.74000
H  9.07800 4.62500 32.80700
H  10.09700 3.23600 32.34600
H  10.25800 2.29400 34.11700
H  8.55800 2.52400 34.61700
H  4.70700 7.09400 29.20200
H  3.34600 6.76300 28.23500
H  4.38000 8.07900 27.73100
H  3.21000 7.93900 25.63600
H  4.21700 8.38200 24.06800
H  4.85700 8.54300 25.69500
H  7.84800 2.80700 22.58200
H  7.95900 -0.16800 23.54500
H  5.23700 1.89300 23.32700
H  5.82000 0.73700 22.29000
H  5.66000 2.48800 21.79900
H  10.46700 0.42800 23.30700
H  9.85700 1.96200 22.57800
H  9.76700 1.10100 20.64600
H  8.80600 -0.22600 20.98600
H  10.50500 -0.45700 21.21600
H  10.95200 -2.66300 28.18800
H  12.24400 -1.81500 27.21200
H  10.73800 -2.36900 26.45500
H  10.87200 1.12300 31.82700
H  9.08000 -1.51900 34.63700
H  9.32100 0.02900 35.40200
H  10.63200 -1.09700 35.30800
Mg 6.61500 53.50200 40.70300
C  6.19100 50.01200 39.99500
C  9.88400 53.15100 39.56800
C  6.84800 56.79500 40.92700
C  3.12100 53.62100 41.27700
N  7.87200 51.74500 39.75400
C  7.52600 50.40200 39.60200
C  8.76300 49.54100 39.08600
C  9.91000 50.46200 39.49400
C  9.20300 51.85100 39.56600
C  10.54900 50.07600 40.89000
C  8.70600 48.91500 37.59900
C  8.61000 49.83200 36.39500
H  7.51900 49.72200 35.36000
N  8.17000 54.77700 40.28900
C  9.44300 54.46000 39.84700
C  10.20100 55.66900 39.74800
C  9.37100 56.70100 40.15900
C  8.07400 56.12900 40.50300
C  11.59500 55.79800 39.24300
C  9.84900 58.17000 40.13000
O  10.95500 58.51800 39.68700
C  9.01000 59.29400 40.80700
N  5.19300 54.96300 41.01400
C  5.55400 56.29000 41.01400
C  4.31400 57.24600 41.14100
C  3.20600 56.13100 41.34500
C  3.83600 54.80800 41.19600
C  4.24900 58.39300 42.26300
C  2.03200 56.48100 40.23900
C  0.89300 57.46300 40.55200
N  4.98800 52.15900 40.88000
C  3.66100 52.32900 41.24200
C  3.01300 51.08600 41.27600
C  4.02200 50.15800 40.88100
C  5.15100 50.84900 40.63000
C  1.55800 50.70900 41.61800
C  4.29400 48.69100 40.68900
O  3.59900 47.71300 40.86500
C  5.70200 48.56900 40.01300
C  5.37000 48.07300 38.61500
O  5.02400 48.78600 37.71000
O  5.52200 46.66700 38.49200
C  5.24900 46.10200 37.19900
H  10.95600 52.95000 39.51900
H  6.93200 57.88000 41.01700
H  2.05300 53.60200 41.50700
H  8.68200 48.63500 39.68700
H  10.73500 50.41900 38.78400
H  10.80900 50.84100 41.62200
H  11.41000 49.45900 40.63300
H  9.93000 49.31400 41.36400
H  7.83500 48.26200 37.53100
H  9.54600 48.25800 37.37500
H  9.61800 49.69600 36.00300
H  8.56300 50.87800 36.69900
H  12.21200 56.18400 40.05400
H  11.76300 56.40200 38.35200
H  12.02900 54.83500 38.97400
H  9.70100 60.12500 40.94500
H  8.67900 59.09700 41.82600
H  8.14100 59.57500 40.21300
H  4.31800 57.74500 40.17200
H  2.78400 56.27500 42.33900
H  5.21800 58.50000 42.75100
H  3.51900 58.19700 43.04900
H  4.08300 59.40700 41.89800
H  1.58900 55.53400 39.93100
H  2.47700 56.92500 39.35000
H  0.91100 57.71100 41.61400
H  -0.06900 57.03200 40.27300
H  1.07500 58.40900 40.04400
H  1.26700 49.99100 40.85100
H  0.91800 51.59100 41.56900
H  1.42700 50.19400 42.56900
H  6.35400 47.90100 40.57700
H  6.14900 46.17400 36.58800
H  4.42400 46.52400 36.62500
H  5.01200 45.04500 37.32500

