158

Mg 24.01600 -6.70400 47.58300
C  26.12200 -4.12400 46.43300
C  21.66000 -5.57000 45.39300
C  22.16700 -9.39000 48.40200
C  26.79800 -8.11600 49.23800
N  23.95700 -5.05200 46.06700
C  24.85500 -4.09400 45.87300
C  24.35200 -3.03900 44.79000
C  22.77600 -3.41600 44.65000
C  22.76300 -4.71900 45.45000
C  21.83300 -2.33000 45.32900
C  25.15300 -3.11800 43.54800
C  25.69900 -1.82400 42.93800
H  25.05700 -1.40700 41.58000
N  22.10600 -7.30400 47.12400
C  21.38000 -6.78300 46.04600
C  20.06700 -7.55500 45.92000
C  20.15100 -8.57100 46.93800
C  21.49700 -8.42200 47.58800
C  18.89700 -7.10400 45.08000
C  19.06500 -9.60200 47.26000
O  18.08000 -9.59800 46.50200
C  19.23300 -10.56900 48.42200
N  24.33300 -8.47300 48.71000
C  23.48200 -9.42000 48.92200
C  23.92500 -10.46900 49.96400
C  25.45500 -10.07300 50.15500
C  25.58800 -8.82800 49.32600
C  23.03700 -10.51000 51.27400
C  26.51800 -11.05200 49.76600
C  26.58100 -11.43100 48.29800
N  26.08700 -6.29100 47.79800
C  27.02300 -6.88300 48.59900
C  28.23100 -6.05300 48.54500
C  27.96900 -4.97200 47.70300
C  26.61000 -5.17200 47.26800
C  29.53100 -6.23600 49.17600
C  28.40100 -3.73800 47.13100
O  29.48000 -3.08600 47.23100
C  27.24900 -3.19200 46.19100
C  26.95200 -1.85700 46.62200
O  26.13600 -1.56500 47.50900
O  27.77000 -0.96100 46.00500
C  27.64000 0.48100 46.38300
H  20.97200 -5.27300 44.59800
H  21.70000 -10.37300 48.48800
H  27.49500 -8.57500 49.94200
H  24.48500 -2.07600 45.28400
H  22.40900 -3.68100 43.65800
H  22.52300 -1.67700 45.86300
H  21.16100 -2.71300 46.09700
H  21.40400 -1.65600 44.58700
H  24.53400 -3.56100 42.76900
H  25.96800 -3.83400 43.65800
H  26.75200 -2.08300 42.82400
H  25.58100 -0.95400 43.58500
H  18.40200 -7.90500 44.53000
H  19.17200 -6.39400 44.30100
H  18.14800 -6.55100 45.64700
H  18.27200 -11.05800 48.58500
H  19.40600 -10.12500 49.40200
H  19.92200 -11.36700 48.14500
H  23.98400 -11.45600 49.50600
H  25.56900 -9.95100 51.23300
H  22.68800 -11.49100 51.59400
H  22.15000 -9.88100 51.19100
H  23.62900 -10.20100 52.13500
H  26.25900 -11.98700 50.26300
H  27.49900 -10.78900 50.16100
H  26.85900 -12.48200 48.21000
H  27.40300 -10.90600 47.81300
H  25.62500 -11.21700 47.82000
H  29.92400 -5.31900 49.61500
H  30.22400 -6.62100 48.42900
H  29.59700 -6.98500 49.96500
H  27.65100 -3.13800 45.17900
H  27.79200 1.14900 45.53500
H  28.30800 0.68900 47.21800
H  26.67100 0.89800 46.65700
Mg 35.62800 1.87100 30.45500
C  33.33600 3.10200 32.79900
C  38.06100 2.21000 32.80700
C  38.03300 1.03900 28.12300
C  33.26100 2.16800 28.01800
N  35.69200 2.47200 32.54200
C  34.60600 2.91900 33.34000
C  34.95600 3.06700 34.85200
C  36.46300 3.06600 34.71800
C  36.77500 2.52900 33.27500
C  37.17400 4.48200 35.03800
C  34.24400 2.01900 35.76000
C  33.78600 2.41100 37.16100
H  34.47900 3.56800 37.88400
N  37.75200 1.57700 30.47900
C  38.51100 1.69000 31.58000
C  39.84500 1.20000 31.27600
C  39.88300 0.88300 29.88900
C  38.56800 1.16400 29.40200
C  40.96000 1.08800 32.27900
C  41.00300 0.18200 29.09600
O  41.01000 -0.02700 27.83500
C  42.14300 -0.38500 29.85800
N  35.63500 1.61200 28.40300
C  36.75300 1.31200 27.66500
C  36.36500 1.02000 26.17800
C  34.76700 1.16600 26.15800
C  34.52900 1.66100 27.60600
C  37.07300 1.90000 25.18800
C  34.06000 -0.18100 25.78400
C  32.76800 0.00200 25.04700
N  33.66400 2.44400 30.35500
C  32.83500 2.51700 29.31600
C  31.53000 3.00100 29.77500
C  31.66500 3.24900 31.14900
C  33.02500 2.92000 31.44300
C  30.36200 3.18300 28.92200
C  31.01700 3.74700 32.28200
O  29.89900 4.15300 32.61000
C  32.08100 3.67000 33.42500
C  32.26000 5.09700 33.80900
O  33.17800 5.86700 33.47700
O  31.23900 5.39000 34.67200
C  31.18600 6.67800 35.33700
H  38.80800 2.29500 33.59800
H  38.67200 0.63500 27.33500
H  32.54300 2.23500 27.19800
H  34.53500 4.00500 35.21400
H  36.77700 2.30900 35.43700
H  37.73400 4.74300 34.14000
H  37.90200 4.32800 35.83400
H  36.56300 5.37100 35.19800
H  34.83300 1.10200 35.74500
H  33.34100 1.64100 35.28100
H  33.67400 1.52700 37.78900
H  32.76900 2.75800 36.97800
H  41.79200 1.67100 31.88500
H  41.19100 0.05400 32.53500
H  40.62100 1.49000 33.23400
H  42.80900 0.32100 30.35300
H  42.74500 -0.88400 29.09800
H  41.80500 -1.21000 30.48500
H  36.68600 -0.00100 25.97500
H  34.55000 1.93900 25.42000
H  38.05900 1.43500 25.16000
H  37.27200 2.84800 25.68900
H  36.57700 2.13200 24.24600
H  33.79700 -0.80100 26.64100
H  34.75700 -0.87700 25.31700
H  32.96600 -0.56500 24.13700
H  32.49600 1.04000 24.85900
H  31.94700 -0.35800 25.66700
H  30.60500 3.37700 27.87700
H  29.75800 3.94800 29.40900
H  29.73400 2.29900 29.04000
H  31.65800 3.18600 34.30500
H  32.20000 6.84100 35.70200
H  30.42500 6.72600 36.11600
H  30.91100 7.46900 34.64000

