158

Mg 46.19200 24.37600 28.45600
C  46.59800 26.63500 31.17700
C  45.27900 21.84400 30.78100
C  46.33000 22.24900 26.01600
C  47.61600 26.90700 26.32000
N  46.02100 24.27100 30.73400
C  46.09700 25.40100 31.59100
C  45.60100 25.03000 33.06200
C  45.41300 23.46300 32.90100
C  45.55500 23.10800 31.35200
C  46.29000 22.59500 33.89900
C  44.41700 25.81500 33.55900
C  44.74000 26.67800 34.81400
H  43.76700 26.70000 35.96400
N  45.80000 22.38800 28.37100
C  45.33800 21.56300 29.34200
C  45.02800 20.28600 28.75600
C  45.50200 20.28900 27.42900
C  45.90900 21.67200 27.20500
C  44.30400 19.17600 29.52500
C  45.39700 19.17700 26.34600
O  45.86300 19.24300 25.20100
C  44.80500 17.88600 26.76500
N  46.74900 24.59900 26.44200
C  46.72300 23.49500 25.65100
C  47.33400 23.75600 24.29400
C  47.52100 25.31200 24.32700
C  47.27800 25.66600 25.76500
C  48.58400 22.89500 23.97400
C  46.67600 26.18300 23.39100
C  45.16200 26.18500 23.48300
N  46.90500 26.42000 28.62400
C  47.36400 27.28600 27.65700
C  47.72300 28.50800 28.33900
C  47.37700 28.35600 29.69200
C  46.90300 27.03600 29.80400
C  48.33100 29.72200 27.71400
C  47.29600 29.02900 30.94200
O  47.62100 30.12200 31.36200
C  46.85000 27.85100 31.96900
C  47.97500 27.68100 32.93100
O  48.94900 26.98000 32.78100
O  47.69200 28.35500 34.08300
C  48.44800 28.15100 35.36600
H  44.85700 21.15800 31.51800
H  46.17400 21.54200 25.19800
H  48.15000 27.55700 25.62400
H  46.45500 25.13100 33.73100
H  44.38900 23.10900 33.01800
H  46.04500 23.20200 34.77100
H  47.37000 22.64500 33.75900
H  45.88800 21.58200 33.87300
H  43.66800 25.05500 33.78200
H  43.92600 26.42400 32.80100
H  44.72300 27.68200 34.39000
H  45.71500 26.55800 35.28500
H  44.90700 18.27200 29.61000
H  43.37400 18.83100 29.07400
H  44.11100 19.35000 30.58400
H  45.35700 17.52600 27.63400
H  44.87100 17.14500 25.96900
H  43.75400 18.15000 26.88900
H  46.59000 23.47700 23.54800
H  48.55400 25.55100 24.07600
H  48.34300 21.83200 23.94000
H  49.35600 23.03800 24.73000
H  48.77900 23.26200 22.96600
H  46.82100 25.81600 22.37500
H  47.06500 27.19700 23.49200
H  44.77700 25.51400 24.25000
H  44.79800 25.74100 22.55600
H  44.83300 27.21300 23.63300
H  48.86000 29.61800 26.76600
H  48.89100 30.16300 28.53800
H  47.53400 30.46200 27.63600
H  45.94300 28.15000 32.49400
H  49.32200 27.51200 35.23700
H  47.79300 27.74100 36.13500
H  48.74000 29.13400 35.73800
Mg 30.13800 59.39800 40.45200
C  26.96000 58.15900 39.21100
C  31.62400 56.67500 38.90300
C  33.12200 61.02900 40.54100
C  28.47400 62.36800 41.13700
N  29.30500 57.65300 39.11200
C  28.00700 57.25100 38.91600
C  28.01600 55.94400 38.03300
C  29.42300 55.34100 38.37200
C  30.16200 56.63900 38.78700
C  29.41700 54.31000 39.54400
C  27.87100 56.28100 36.49000
C  26.71000 55.58100 35.69900
H  26.96800 54.83000 34.33500
N  32.05100 58.96400 39.93300
C  32.47200 57.70400 39.42000
C  33.99100 57.71900 39.27200
C  34.37400 58.91400 39.83700
C  33.19600 59.69600 40.18200
C  34.84400 56.58700 38.65000
C  35.81900 59.34000 39.91700
O  36.73800 58.60200 39.55100
C  36.25800 60.65800 40.56000
N  30.64600 61.43700 40.79400
C  31.96600 61.87700 40.69100
C  31.95700 63.44700 40.92200
C  30.52100 63.78900 41.49600
C  29.78300 62.51200 41.08500
C  33.06000 64.07000 41.67600
C  29.87600 65.10900 41.01900
C  29.58800 66.14700 42.09100
N  28.17200 60.12400 40.33100
C  27.65100 61.31600 40.64500
C  26.21600 61.29700 40.56600
C  25.86900 60.10900 39.94300
C  27.09900 59.39600 39.81000
C  25.41000 62.42200 41.03200
C  24.76000 59.33200 39.45900
O  23.54200 59.52800 39.60700
C  25.44200 57.98400 38.91900
C  24.83600 56.76400 39.59200
O  24.60900 56.61600 40.78800
O  24.66400 55.76000 38.62600
C  24.03000 54.50800 39.12600
H  32.24600 55.79600 38.72000
H  34.03200 61.63300 40.56800
H  27.81600 63.18900 41.43100
H  27.29400 55.16300 38.27300
H  30.00300 54.86500 37.58100
H  28.42600 54.30400 39.99700
H  30.09700 54.67500 40.31400
H  29.71000 53.32400 39.18400
H  28.81500 56.12600 35.96700
H  27.67100 57.35100 36.43900
H  25.92200 56.30500 35.48800
H  26.14200 54.85400 36.28000
H  35.42900 57.00600 37.83100
H  34.14500 55.82200 38.31200
H  35.46000 56.10400 39.40800
H  35.99400 61.54100 39.97800
H  37.33200 60.51300 40.67400
H  35.87600 60.75700 41.57600
H  32.00700 63.91200 39.93700
H  30.64500 63.85100 42.57700
H  32.72600 65.03300 42.06300
H  33.94500 64.06400 41.04000
H  33.32800 63.43300 42.51900
H  29.01600 64.91800 40.37700
H  30.69600 65.52200 40.43200
H  28.57200 66.54000 42.05500
H  30.12300 67.03500 41.75500
H  29.81100 65.89100 43.12700
H  25.58100 62.43100 42.10800
H  24.35200 62.20700 40.87800
H  25.74600 63.40800 40.70900
H  25.18500 57.89700 37.86300
H  23.00000 54.83900 39.25900
H  24.45000 54.13200 40.05900
H  23.94300 53.74300 38.35500

