158

Mg 44.12000 3.75500 48.11300
C  42.02400 6.47500 47.43300
C  41.29700 1.73500 47.63300
C  46.16700 1.13900 47.90400
C  46.83300 5.86700 47.67300
N  41.87600 4.06900 47.78600
C  41.27400 5.26600 47.53900
C  39.77300 5.11300 47.26800
C  39.48600 3.58500 47.41600
C  40.99400 3.07100 47.61200
C  38.66700 3.13600 48.63500
C  39.01100 5.85600 46.02700
C  39.58600 5.65200 44.61100
H  39.65600 6.83000 43.61600
N  43.81000 1.73200 47.83700
C  42.54600 1.09100 47.77800
C  42.74900 -0.33200 47.64700
C  44.18700 -0.53100 47.78000
C  44.83100 0.81500 47.83000
C  41.59400 -1.31100 47.60500
C  44.86000 -1.86100 47.82300
O  44.28100 -2.93800 47.92100
C  46.28800 -1.95600 47.80400
N  46.15200 3.58200 47.91500
C  46.81300 2.38700 47.87800
C  48.36100 2.50400 47.75800
C  48.56300 4.02100 47.64300
C  47.13600 4.53200 47.84000
C  49.21700 1.80600 48.92100
C  49.17700 4.41300 46.31100
C  50.54200 5.15700 46.39100
N  44.40300 5.79100 47.78600
C  45.59700 6.49300 47.64300
C  45.30100 7.87300 47.34100
C  43.91800 7.92600 47.31500
C  43.42000 6.59200 47.46000
C  46.29900 8.98000 47.09700
C  42.73000 8.86700 47.18200
O  42.60700 10.12600 47.12200
C  41.41100 7.96500 47.29600
C  40.58000 8.27000 48.48300
O  40.61300 7.54100 49.53200
O  39.68000 9.21000 48.19000
C  38.49900 9.35600 49.15100
H  40.42300 1.10900 47.43800
H  46.86600 0.33300 47.67100
H  47.75000 6.45700 47.62200
H  39.34300 5.63400 48.12400
H  39.09900 3.28800 46.44100
H  39.20100 2.34200 49.15800
H  37.71900 2.65500 48.39400
H  38.39400 3.89600 49.36600
H  38.72900 6.87000 46.31100
H  38.00900 5.42500 46.03700
H  39.12800 4.76200 44.17900
H  40.62300 5.34000 44.73500
H  41.52400 -1.70400 46.59100
H  40.63200 -0.86200 47.85400
H  41.67400 -2.21800 48.20400
H  46.75300 -1.35300 48.58400
H  46.61100 -1.44300 46.89800
H  46.41400 -3.03800 47.82100
H  48.71100 1.99700 46.85900
H  49.16800 4.42800 48.45300
H  48.44800 1.37400 49.56200
H  49.91400 2.43500 49.47500
H  49.78900 0.97800 48.50300
H  48.51300 5.16700 45.88900
H  49.27300 3.49900 45.72500
H  50.93400 5.08000 47.40500
H  50.43900 6.18900 46.05500
H  51.18900 4.63200 45.68900
H  46.70900 9.16000 48.09000
H  45.80200 9.90500 46.80500
H  47.07500 8.67100 46.39600
H  40.79400 7.97800 46.39700
H  38.29100 10.42600 49.19200
H  38.68000 9.04300 50.18000
H  37.71500 8.82100 48.61700
Mg 1.60900 42.42600 25.45900
C  3.29900 42.33600 28.62300
C  -1.28400 41.60600 27.23600
C  0.21900 41.51700 22.60900
C  4.71800 42.52500 23.93800
N  1.08700 42.02800 27.71200
C  1.95500 42.11800 28.78900
C  1.16200 42.21100 30.05400
C  -0.26200 41.70900 29.60500
C  -0.21000 41.81800 28.10000
C  -0.54500 40.29100 30.06400
C  1.21400 43.67700 30.71800
C  1.53500 43.83300 32.31200
H  1.33400 42.53100 33.03100
N  -0.27500 41.73900 25.01000
C  -1.34200 41.52200 25.85400
C  -2.55900 41.13300 25.06500
C  -2.11100 41.05500 23.73100
C  -0.69000 41.49100 23.72700
C  -3.89600 40.77700 25.68100
C  -2.86300 40.50300 22.58300
O  -2.36600 40.42600 21.42500
C  -4.31300 40.09000 22.76400
N  2.35900 42.18200 23.50300
C  1.54300 41.81300 22.49100
C  2.21500 41.92400 21.11600
C  3.68000 42.40700 21.54800
C  3.60400 42.46100 23.04600
C  2.11600 40.56900 20.36100
C  4.07500 43.75100 20.97700
C  4.98000 43.79700 19.75000
N  3.65800 42.44600 26.08800
C  4.79300 42.48000 25.33700
C  5.93900 42.63600 26.20700
C  5.43000 42.56200 27.48500
C  4.01300 42.40300 27.38000
C  7.45200 42.68800 25.78200
C  5.75600 42.57100 28.87400
O  6.79300 42.86600 29.48800
C  4.45900 42.40600 29.65200
C  4.66800 41.17600 30.52000
O  4.45200 40.04600 30.10900
O  5.13300 41.55700 31.78300
C  5.23800 40.49200 32.69000
H  -2.18400 41.37800 27.81100
H  -0.19100 41.53500 21.59700
H  5.63800 42.67100 23.37000
H  1.63700 41.56900 30.79500
H  -0.99400 42.41500 29.99800
H  0.35000 39.79700 30.44100
H  -1.02700 39.72000 29.27000
H  -1.42100 40.23700 30.71100
H  0.18200 44.02700 30.73100
H  1.74100 44.38200 30.07600
H  0.97800 44.70000 32.66700
H  2.61600 43.97500 32.31800
H  -4.15500 39.75700 25.39900
H  -4.58500 41.56400 25.37400
H  -3.82500 40.89400 26.76200
H  -4.17000 39.21800 23.40300
H  -4.80700 39.71600 21.86800
H  -4.81800 40.88200 23.31800
H  1.77900 42.59700 20.37800
H  4.43700 41.68100 21.25000
H  1.40900 40.67800 19.53900
H  1.65200 39.79800 20.97600
H  3.08200 40.22200 19.99200
H  4.32900 44.35500 21.84800
H  3.19100 44.27100 20.60700
H  5.91300 44.32100 19.95700
H  4.64700 44.33000 18.86000
H  5.16100 42.76800 19.43800
H  7.88900 41.69100 25.74500
H  7.97700 43.50800 26.27200
H  7.50500 42.92500 24.72000
H  4.35800 43.20900 30.38200
H  4.30800 40.24500 33.20100
H  5.94100 40.75300 33.48200
H  5.59300 39.57700 32.21600

