158

Mg 2.46500 -1.58000 44.25900
C  5.53000 -0.47200 43.37400
C  0.96800 0.86000 42.32500
C  -0.51800 -3.24100 44.49200
C  4.07100 -4.44200 45.70800
N  3.19500 -0.08300 42.96800
C  4.50300 0.30100 42.84600
C  4.62100 1.52800 41.92900
C  3.25400 2.11000 42.05200
C  2.40100 0.89100 42.38300
C  3.03800 3.30200 43.03600
C  5.12300 1.04800 40.58200
C  6.21200 1.90600 39.94200
H  5.72000 2.57700 38.63300
N  0.49600 -1.14700 43.62700
C  0.04300 -0.07900 42.83900
C  -1.30000 -0.18900 42.59400
C  -1.81700 -1.32400 43.27700
C  -0.60700 -1.94900 43.88000
C  -2.08700 0.71000 41.70900
C  -3.29200 -1.78200 43.37200
O  -4.16800 -1.14100 42.74700
C  -3.69600 -3.10400 44.07100
N  1.88000 -3.40800 45.09600
C  0.59800 -3.90700 45.05900
C  0.42200 -5.33700 45.62500
C  1.97000 -5.66000 45.88600
C  2.66800 -4.45600 45.55900
C  -0.39700 -5.47000 46.96800
C  2.51600 -6.87200 44.98900
C  3.39700 -7.93300 45.61500
N  4.38500 -2.24600 44.70700
C  4.91200 -3.40200 45.30300
C  6.32300 -3.34300 45.31100
C  6.66400 -2.23600 44.54300
C  5.39200 -1.63400 44.20100
C  7.34300 -4.40600 45.88900
C  7.68000 -1.35700 44.01700
O  8.89500 -1.43200 44.03300
C  7.00000 -0.19800 43.27300
C  7.38200 1.11200 44.00500
O  6.72400 1.54900 44.94800
O  8.50200 1.60700 43.39800
C  8.83000 2.96900 43.94900
H  0.54600 1.62400 41.66900
H  -1.41200 -3.86800 44.44800
H  4.47900 -5.36900 46.11500
H  5.27000 2.24900 42.42700
H  2.89800 2.51700 41.10500
H  3.97700 3.68600 43.43600
H  2.50600 2.93600 43.91400
H  2.36000 4.06400 42.65200
H  4.19000 1.10700 40.02200
H  5.38000 -0.00400 40.71200
H  7.09100 1.36500 39.59400
H  6.45500 2.73500 40.60600
H  -2.77300 1.30200 42.31500
H  -2.65400 0.06200 41.04100
H  -1.63400 1.34900 40.95100
H  -4.76300 -3.13900 44.29300
H  -3.24500 -3.15600 45.06200
H  -3.40300 -3.95900 43.46200
H  -0.03100 -5.87400 44.79100
H  2.16200 -5.97100 46.91200
H  0.17400 -5.69000 47.87000
H  -1.15700 -6.24100 46.84300
H  -0.87500 -4.50000 47.11100
H  3.13600 -6.47900 44.18400
H  1.64500 -7.43700 44.65700
H  2.93900 -8.92100 45.57400
H  3.41900 -7.60000 46.65300
H  4.35900 -8.00200 45.10700
H  7.42000 -5.19500 45.14100
H  6.86800 -4.76000 46.80500
H  8.35000 -4.01100 46.01800
H  7.27200 -0.13500 42.21900
H  9.70300 2.71800 44.55000
H  8.09700 3.54800 44.51100
H  9.16600 3.48400 43.04900
Mg 47.46800 15.65900 27.79800
C  45.22300 15.22000 30.55900
C  49.67900 17.21500 30.06800
C  49.30200 16.44400 25.15600
C  45.00800 14.42800 25.74800
N  47.36500 16.24600 30.01100
C  46.37800 15.88500 30.93800
C  46.74400 16.40500 32.34000
C  48.03900 17.18900 32.05900
C  48.38700 16.87200 30.60900
C  47.99500 18.68700 32.28200
C  46.85400 15.21000 33.33400
C  46.20200 15.39000 34.74200
H  45.89700 16.78300 35.38000
N  49.24500 16.67100 27.67500
C  50.00900 17.22100 28.72500
C  51.23800 17.72000 28.13800
C  51.10300 17.40900 26.70000
C  49.81700 16.88500 26.45800
C  52.26600 18.48700 28.87300
C  52.11600 17.59700 25.59100
O  51.92100 17.31300 24.41100
C  53.53800 17.85100 25.98600
N  47.21900 15.38500 25.69600
C  48.17200 15.74800 24.86200
C  47.69400 15.60200 23.37900
C  46.33500 14.86900 23.51200
C  46.17800 14.82400 25.06800
C  47.50200 17.02200 22.78800
C  46.29200 13.53500 22.75700
C  46.73200 12.22300 23.48400
N  45.58600 14.86300 28.04100
C  44.70800 14.42100 27.08700
C  43.53500 13.95200 27.67800
C  43.63800 14.25300 28.99900
C  44.95900 14.72100 29.18400
C  42.39000 13.26500 27.00300
C  42.92500 14.24000 30.29400
O  41.78100 14.04100 30.66900
C  43.98000 14.85200 31.40300
C  43.35300 16.20900 32.01100
O  43.64400 17.30900 31.59900
O  42.46600 16.02400 33.02100
C  41.90100 17.24100 33.65100
H  50.40700 17.61200 30.77800
H  49.80500 16.63100 24.20500
H  44.25100 13.99600 25.09100
H  45.93800 17.11600 32.52600
H  48.81700 16.75300 32.68600
H  48.99100 19.08500 32.47700
H  47.50700 18.83100 33.24600
H  47.44500 19.27000 31.54300
H  47.88800 15.03800 33.63500
H  46.43000 14.32300 32.86300
H  46.85900 14.84300 35.41800
H  45.29700 14.78300 34.73400
H  52.11000 19.54300 28.65300
H  53.29300 18.18600 28.66500
H  52.11400 18.40600 29.94900
H  54.04700 17.95900 25.02900
H  53.82900 17.02000 26.62800
H  53.67900 18.78500 26.53100
H  48.38500 14.92500 22.87700
H  45.48000 15.49500 23.26100
H  47.90100 17.75300 23.49100
H  46.49300 17.24200 22.43800
H  48.06200 17.04400 21.85400
H  47.01100 13.72200 21.95900
H  45.27700 13.43700 22.37100
H  46.70300 12.37700 24.56200
H  47.71500 11.85300 23.19100
H  46.03600 11.40500 23.29500
H  41.82300 12.62600 27.67900
H  42.78600 12.71300 26.15100
H  41.82500 14.08000 26.55100
H  44.16600 14.25100 32.29300
H  40.81600 17.13900 33.66800
H  42.20300 18.20200 33.23400
H  42.23200 17.09000 34.67900

