158

Mg 55.28700 24.43200 44.49300
C  52.62700 26.62600 43.67200
C  53.48300 21.78200 43.21000
C  58.09900 22.64100 44.77400
C  57.04700 27.40400 45.54400
N  53.30000 24.30400 43.70200
C  52.40400 25.27100 43.44600
C  51.02900 24.60000 43.03200
C  51.28400 23.06800 43.28100
C  52.85100 23.02400 43.25500
C  50.71900 22.50400 44.60400
C  50.65600 24.82200 41.51900
C  51.76100 25.10800 40.51900
H  52.37200 23.81200 40.02200
N  55.73100 22.44700 44.08800
C  54.84700 21.52900 43.57500
C  55.50500 20.27000 43.62300
C  56.85400 20.49300 44.00700
C  56.96800 21.90500 44.33300
C  54.82900 18.97100 43.31500
C  57.88000 19.35000 44.07900
O  57.59100 18.19600 43.69100
C  59.27700 19.67700 44.48400
N  57.31500 25.03200 44.87600
C  58.28100 24.05000 44.99000
C  59.63700 24.73700 45.16900
C  59.21400 26.15500 45.69000
C  57.74500 26.24500 45.27800
C  60.65300 24.11700 46.09800
C  60.05400 27.32400 45.01000
C  60.80100 28.10700 46.09600
N  54.98800 26.66500 44.66800
C  55.79800 27.65900 45.12800
C  54.96300 28.85300 45.16700
C  53.71500 28.52100 44.57600
C  53.80800 27.17900 44.28400
C  55.39200 30.14800 45.91100
C  52.39500 29.04700 44.28300
O  51.84000 30.11100 44.42100
C  51.66200 27.88400 43.51000
C  51.46800 28.37700 42.15500
O  52.41300 28.77500 41.49000
O  50.12800 28.38900 41.80200
C  49.69500 28.81000 40.49000
H  52.83200 20.93800 42.97000
H  58.99400 22.06900 45.02900
H  57.60200 28.25700 45.94000
H  50.20800 25.01300 43.61800
H  50.87700 22.39000 42.53000
H  51.52300 21.96200 45.10200
H  50.07700 21.64100 44.42900
H  50.24700 23.23000 45.26700
H  50.01300 25.70200 41.51700
H  49.96600 24.04600 41.18900
H  52.48300 25.76900 40.99900
H  51.31600 25.65800 39.68900
H  55.24400 18.49800 42.42500
H  53.78200 19.19600 43.11400
H  54.94800 18.32800 44.18800
H  59.63200 20.45200 43.80400
H  59.89600 18.78500 44.39000
H  59.24200 20.03600 45.51200
H  59.93200 24.84500 44.12500
H  59.21600 26.13900 46.78000
H  60.24300 23.43200 46.84000
H  61.20000 24.93100 46.57300
H  61.46100 23.62700 45.55400
H  59.47600 28.00900 44.39100
H  60.82300 26.94300 44.33700
H  61.76000 28.46300 45.72000
H  61.03600 27.48600 46.96000
H  60.27700 29.01200 46.40500
H  56.46200 30.33900 45.99200
H  54.87500 30.34700 46.84900
H  55.07100 30.98100 45.28500
H  50.69100 27.85600 44.00400
H  49.09800 29.72200 40.50400
H  49.07200 28.00600 40.10000
H  50.50100 28.90200 39.76100
Mg 49.40000 35.98200 27.44400
C  47.06700 34.90700 29.82800
C  49.99500 38.82400 29.07100
C  51.33300 37.08000 24.75700
C  48.38500 33.27400 25.36200
N  48.58200 36.73100 29.19300
C  47.64800 36.19800 30.07500
C  47.49300 37.09800 31.26900
C  48.31200 38.37800 30.88100
C  48.97600 37.94000 29.61400
C  47.42000 39.71100 30.78700
C  47.79500 36.52500 32.81800
C  46.85000 36.57100 33.93500
H  46.89800 37.86000 34.79000
N  50.61500 37.64800 27.02200
C  50.73600 38.73200 27.87800
C  51.76600 39.63100 27.37400
C  52.24800 39.09400 26.13200
C  51.36700 37.88900 25.91100
C  52.22500 40.84200 28.09500
C  53.24400 39.64100 25.13500
O  53.51000 39.13100 24.03400
C  54.18500 40.75300 25.58000
N  49.81600 35.28900 25.32600
C  50.63400 35.91900 24.49400
C  50.76900 35.17400 23.19300
C  49.87000 33.92400 23.41800
C  49.30200 34.15200 24.78700
C  50.47800 35.92200 21.99600
C  50.45300 32.48600 23.26600
C  50.71600 32.12900 21.86500
N  48.16600 34.28600 27.55300
C  47.79500 33.32000 26.68600
C  46.82400 32.43200 27.21700
C  46.48600 33.00500 28.44500
C  47.32000 34.13500 28.61500
C  46.28100 31.26800 26.46600
C  45.57300 32.92800 29.61000
O  44.70000 32.18400 29.99800
C  46.07700 34.03000 30.60700
C  46.73500 33.29100 31.78400
O  47.83700 32.86600 31.94000
O  45.80000 33.22000 32.81800
C  46.23100 32.53200 34.10300
H  50.21000 39.74600 29.61500
H  51.98800 37.33200 23.92000
H  47.99300 32.52600 24.67000
H  46.42200 37.29400 31.20700
H  49.04400 38.50000 31.67900
H  46.63900 39.63100 31.54400
H  47.09300 39.83000 29.75400
H  48.10200 40.52500 31.03000
H  48.70300 37.05400 33.10700
H  48.05000 35.48100 32.63500
H  46.99900 35.70400 34.57900
H  45.85200 36.50000 33.50300
H  51.59200 41.70000 27.86600
H  53.26600 41.04600 27.84500
H  52.23100 40.77600 29.18300
H  53.71600 41.71700 25.77600
H  54.90400 40.98200 24.79300
H  54.75000 40.39200 26.43900
H  51.84100 35.01300 23.08300
H  49.15800 33.93100 22.59200
H  50.18300 36.93600 22.26400
H  49.70800 35.45400 21.38200
H  51.45400 36.02400 21.52300
H  49.66100 31.81100 23.59100
H  51.31000 32.35800 23.92700
H  51.58000 31.46800 21.78000
H  50.99500 32.95600 21.21300
H  49.87000 31.56600 21.47200
H  45.76600 31.50000 25.53400
H  45.57900 30.85300 27.18900
H  47.10600 30.62300 26.16400
H  45.19000 34.50000 31.03000
H  45.59400 32.99600 34.85600
H  47.24900 32.75100 34.42400
H  46.02500 31.46200 34.12100

