158

Mg 2.23900 -3.04800 44.95900
C  5.36100 -1.82100 44.00600
C  0.76800 -0.73300 42.81300
C  -0.76700 -4.54700 45.64000
C  3.86000 -5.75900 46.49200
N  3.08400 -1.56700 43.31200
C  4.37600 -1.15400 43.33600
C  4.53800 0.02100 42.25700
C  3.10600 0.42100 42.11000
C  2.24600 -0.70000 42.75300
C  2.87400 1.72200 42.85400
C  5.33100 -0.56800 40.97600
C  6.69000 -0.03100 40.58700
H  7.08400 0.23000 39.15900
N  0.27300 -2.64100 44.35600
C  -0.12600 -1.71100 43.39500
C  -1.58600 -1.65500 43.50100
C  -2.05700 -2.76500 44.22000
C  -0.84500 -3.38300 44.84500
C  -2.36400 -0.63700 42.64700
C  -3.48500 -3.12700 44.51200
O  -4.43100 -2.57900 43.92100
C  -3.86000 -4.19400 45.56800
N  1.59300 -4.88500 46.01100
C  0.34600 -5.32000 46.07500
C  0.24800 -6.70600 46.61100
C  1.69800 -7.08400 46.79000
C  2.47000 -5.81300 46.47000
C  -0.75500 -6.89100 47.78200
C  2.17500 -8.20200 45.77200
C  3.19300 -9.19000 46.37100
N  4.12900 -3.68000 45.27000
C  4.64000 -4.75600 45.95700
C  6.08300 -4.69100 46.03800
C  6.43400 -3.52200 45.37400
C  5.19700 -3.02700 44.79400
C  7.00300 -5.56100 46.80800
C  7.55000 -2.65900 44.94800
O  8.78700 -2.77800 45.05500
C  6.87600 -1.49100 44.08900
C  7.11700 -0.25300 44.93200
O  6.33400 0.21400 45.72500
O  8.35300 0.26800 44.69400
C  8.67800 1.60300 45.22400
H  0.29300 0.17300 42.43000
H  -1.57600 -5.24600 45.86100
H  4.42900 -6.61400 46.86500
H  5.14000 0.78000 42.75600
H  2.83600 0.49000 41.05600
H  3.20200 1.66800 43.89200
H  1.80300 1.85500 42.69900
H  3.41600 2.53800 42.37800
H  4.69300 -0.33500 40.12400
H  5.51800 -1.64200 40.98900
H  7.40600 -0.75500 40.97600
H  6.97300 0.78100 41.25800
H  -2.81400 0.06300 43.35100
H  -3.17700 -1.12700 42.11200
H  -1.73800 -0.05900 41.96700
H  -3.70400 -5.15400 45.07600
H  -4.90900 -3.93100 45.70200
H  -3.28400 -3.98900 46.47000
H  -0.20300 -7.21200 45.75800
H  1.90300 -7.34400 47.82800
H  -1.27300 -5.96900 48.04500
H  -0.19800 -7.18600 48.67100
H  -1.44700 -7.63100 47.38100
H  2.68500 -7.89600 44.85800
H  1.36600 -8.85900 45.45100
H  2.77700 -10.16700 46.61700
H  3.68100 -8.77800 47.25500
H  3.89900 -9.31300 45.55000
H  7.66800 -6.10200 46.13400
H  6.57900 -6.22000 47.56700
H  7.63300 -4.87100 47.36900
H  7.41100 -1.38200 43.14600
H  7.82100 2.20300 45.53200
H  9.30500 2.16200 44.52900
H  9.30000 1.36800 46.08700
Mg 46.77100 5.29900 47.94700
C  44.76600 8.16600 47.43500
C  44.11500 3.36400 46.92500
C  48.89600 2.77600 47.55300
C  49.43300 7.58500 48.36900
N  44.70400 5.75100 47.37600
C  44.08600 6.99100 47.32900
C  42.61700 6.76800 46.94100
C  42.43400 5.22900 46.83700
C  43.79300 4.73900 47.12200
C  41.27200 4.63600 47.67600
C  42.00400 7.51300 45.69200
C  40.45300 7.69100 45.71800
H  39.61000 7.42500 44.44600
N  46.53000 3.34800 47.45500
C  45.36900 2.73100 47.08300
C  45.64800 1.37800 46.67700
C  47.01600 1.13200 46.91400
C  47.54500 2.47100 47.37300
C  44.53800 0.43100 46.11000
C  47.71700 -0.22000 46.79500
O  47.07300 -1.19000 46.43700
C  49.16600 -0.42500 47.09200
N  48.87100 5.29100 47.86700
C  49.47900 4.09100 47.79000
C  50.92500 4.13400 48.16100
C  51.09200 5.61700 48.53900
C  49.74400 6.25500 48.18300
C  51.42900 3.08600 49.25500
C  52.35700 6.28600 47.87600
C  53.14100 7.28300 48.77300
N  47.10500 7.46700 48.04700
C  48.19500 8.18500 48.16700
C  47.93100 9.59000 48.30500
C  46.57200 9.68000 47.89200
C  46.15100 8.32500 47.78100
C  48.87900 10.67200 48.70600
C  45.45900 10.58800 47.66000
O  45.35600 11.80700 47.56500
C  44.27000 9.62300 47.19400
C  43.08900 9.97800 47.96100
O  42.79700 9.54000 49.05800
O  42.28800 10.74100 47.10500
C  41.01600 11.15400 47.62800
H  43.25300 2.77300 46.61100
H  49.61800 1.96000 47.47500
H  50.29600 8.22300 48.57000
H  42.05100 7.15500 47.78900
H  42.28300 4.94400 45.79600
H  40.56100 3.99800 47.15200
H  40.67500 5.44800 48.09100
H  41.64300 4.01800 48.49300
H  42.27900 6.93200 44.81100
H  42.40100 8.50600 45.48100
H  40.15700 8.70400 45.99000
H  40.03400 7.09800 46.53200
H  44.85400 0.22300 45.08800
H  43.50400 0.77000 46.05900
H  44.52600 -0.58400 46.50600
H  49.41900 -1.48200 47.01000
H  49.38700 -0.09800 48.10700
H  49.77100 0.21200 46.44700
H  51.46700 3.95000 47.23300
H  51.12500 5.80100 49.61300
H  50.69800 2.28300 49.35100
H  51.51300 3.66400 50.17500
H  52.34900 2.65000 48.86500
H  51.92800 6.78200 47.00500
H  53.14300 5.68000 47.42500
H  54.16500 6.90800 48.77400
H  52.77800 7.41000 49.79200
H  53.19700 8.23400 48.24200
H  49.75400 10.38500 49.29000
H  48.27300 11.33500 49.32400
H  49.24800 11.27300 47.87500
H  44.13500 9.87100 46.14200
H  40.45000 11.70100 46.87500
H  41.22000 11.82200 48.46500
H  40.54400 10.27500 48.06700

