158

Mg 35.74600 1.28300 29.70700
C  33.41500 2.51100 32.03800
C  38.18800 1.44400 32.24200
C  38.07800 0.76600 27.44300
C  33.35000 1.53300 27.25500
N  35.80900 1.84600 31.77900
C  34.70200 2.23700 32.59500
C  35.12100 2.44800 34.07900
C  36.67800 2.26400 34.07000
C  36.91000 1.82900 32.55600
C  37.41000 3.56300 34.35700
C  34.30300 1.46300 35.00400
C  33.75600 1.97700 36.32000
H  34.47100 3.16200 36.99000
N  37.75200 1.04700 29.82400
C  38.58100 1.02400 30.94900
C  39.96600 0.62000 30.59500
C  39.94300 0.42900 29.18200
C  38.54600 0.76800 28.75600
C  41.03700 0.21700 31.58900
C  41.06500 -0.03700 28.28000
O  40.94900 0.07300 27.05300
C  42.43500 -0.46700 28.82200
N  35.73100 1.28200 27.58600
C  36.77300 0.95500 26.88500
C  36.51800 0.84500 25.37400
C  34.94900 0.93700 25.37500
C  34.65900 1.24800 26.80500
C  37.32100 1.99700 24.61900
C  34.27200 -0.35600 24.85200
C  33.34500 -0.20500 23.70300
N  33.81800 1.85400 29.55900
C  32.89100 1.82100 28.55000
C  31.58100 2.27300 29.02200
C  31.73400 2.55400 30.41200
C  33.07400 2.24800 30.68000
C  30.31100 2.37300 28.22300
C  31.07700 3.07200 31.61100
O  29.91000 3.44200 31.83400
C  32.16200 3.04300 32.74200
C  32.15400 4.40500 33.32500
O  32.93500 5.28800 33.07700
O  31.18600 4.41100 34.30700
C  31.33000 5.32200 35.42200
H  38.95200 1.58100 33.01000
H  38.77800 0.64400 26.61300
H  32.62500 1.55900 26.43800
H  34.73500 3.45200 34.25800
H  37.08300 1.55900 34.79600
H  36.66700 4.26800 34.72800
H  37.98800 3.93800 33.51100
H  38.11100 3.26700 35.13800
H  34.88000 0.56900 35.24300
H  33.48400 1.09200 34.38800
H  33.58400 1.22400 37.08900
H  32.77400 2.36800 36.05300
H  41.45400 -0.75900 31.33800
H  40.64700 0.04400 32.59200
H  41.87200 0.90800 31.71000
H  42.77000 0.32900 29.48600
H  43.15900 -0.54500 28.01000
H  42.28900 -1.48400 29.18600
H  36.78800 -0.14700 25.01300
H  34.51900 1.71100 24.73900
H  36.59400 2.77200 24.37600
H  37.96600 1.61700 23.82600
H  37.97600 2.44300 25.36700
H  33.58600 -0.74200 25.60600
H  35.01300 -1.12100 24.62100
H  33.45800 -1.15300 23.17700
H  33.58400 0.59000 22.99700
H  32.30100 -0.31700 23.99600
H  29.71200 3.14400 28.70800
H  29.72300 1.46100 28.32800
H  30.50800 2.66300 27.19100
H  31.91100 2.35500 33.54900
H  30.43100 5.93600 35.37300
H  32.23800 5.90100 35.25400
H  31.43900 4.77200 36.35600
Mg -5.46400 25.04200 25.49200
C  -4.24100 26.60700 28.45500
C  -6.89600 22.69200 27.62200
C  -6.74000 23.65000 22.74700
C  -3.78700 27.45400 23.63600
N  -5.50900 24.79600 27.80300
C  -4.99500 25.52900 28.80300
C  -5.56400 25.08600 30.19900
C  -6.17700 23.70400 29.89200
C  -6.18700 23.71800 28.34200
C  -5.26100 22.52400 30.45200
C  -6.57300 26.21200 30.67100
C  -6.27500 26.81100 32.04600
H  -6.16300 25.89800 33.28100
N  -6.62100 23.33100 25.17200
C  -7.12400 22.49200 26.19900
C  -7.70500 21.41800 25.50100
C  -7.74100 21.71700 24.09100
C  -7.02900 22.92300 23.99600
C  -8.39900 20.29100 26.25200
C  -8.47800 20.95300 22.93000
O  -8.50600 21.30800 21.79200
C  -9.22900 19.69000 23.17100
N  -5.37000 25.53300 23.45900
C  -5.92400 24.78600 22.50000
C  -5.54300 25.25800 21.10800
C  -4.98900 26.64500 21.45300
C  -4.62100 26.52800 22.91900
C  -4.44400 24.29700 20.44100
C  -5.93700 27.88000 21.33600
C  -5.94100 28.59800 19.98300
N  -4.19600 26.67900 25.84100
C  -3.59500 27.53200 25.01100
C  -2.76300 28.41500 25.75200
C  -3.01000 28.06500 27.09700
C  -3.92300 27.04500 27.13400
C  -1.85200 29.42200 25.20800
C  -2.56900 28.41000 28.49900
O  -1.78600 29.27600 28.83100
C  -3.47000 27.52500 29.45200
C  -2.62900 26.66900 30.32800
O  -1.87500 25.83200 29.87000
O  -2.81200 26.93100 31.69400
C  -2.12100 26.06900 32.66700
H  -7.39500 21.97400 28.27600
H  -7.24200 23.25800 21.86000
H  -3.17200 28.14500 23.05500
H  -4.82100 24.95100 30.98400
H  -7.14500 23.58900 30.38000
H  -5.85400 21.63000 30.64400
H  -4.77400 22.88700 31.35700
H  -4.56000 22.15200 29.70500
H  -7.57900 25.79100 30.69200
H  -6.48700 27.02400 29.94900
H  -6.98800 27.62400 32.17800
H  -5.34200 27.29800 31.76000
H  -7.99100 19.33700 25.91900
H  -9.45900 20.26900 25.99700
H  -8.35600 20.16300 27.33300
H  -10.00900 19.98100 23.87400
H  -8.63900 18.89800 23.63300
H  -9.61800 19.31300 22.22500
H  -6.45200 25.30700 20.51000
H  -4.06200 26.86800 20.92500
H  -4.15900 23.45200 21.06800
H  -3.59000 24.76200 19.94800
H  -4.96600 23.76100 19.64800
H  -5.84000 28.68200 22.06700
H  -6.94600 27.47500 21.42300
H  -5.09700 29.28600 20.03700
H  -6.88600 29.06100 19.70100
H  -5.77000 27.85500 19.20400
H  -2.49500 29.97400 24.52100
H  -0.92800 29.07600 24.74500
H  -1.51800 30.10200 25.99100
H  -4.07000 28.28300 29.95600
H  -2.33800 25.00400 32.57500
H  -2.37700 26.40500 33.67200
H  -1.04200 26.14800 32.53400

