158

Mg 30.10600 57.71600 40.67000
C  27.72300 55.39000 39.50800
C  32.48200 55.62700 39.19200
C  32.42700 60.20800 40.97000
C  27.56000 59.97800 41.42800
N  30.03100 55.74200 39.56300
C  29.01500 54.91200 39.20700
C  29.49100 53.68800 38.36800
C  30.93400 53.59200 38.75600
C  31.17500 55.03800 39.19500
C  31.40200 52.54200 39.82900
C  29.26100 54.02800 36.85200
C  28.54200 52.92900 36.12100
H  27.37100 53.48500 35.27100
N  32.16600 57.90700 40.17200
C  32.91900 56.85700 39.65300
C  34.28800 57.27500 39.65100
C  34.37800 58.65700 40.12700
C  32.95500 58.97600 40.46000
C  35.39300 56.36500 39.16700
C  35.65400 59.40600 40.32000
O  36.73500 58.91500 39.95300
C  35.66600 60.68800 41.12000
N  30.03000 59.76400 41.22100
C  31.06700 60.60400 41.28100
C  30.65200 62.02400 41.79500
C  29.13300 61.91800 41.97300
C  28.88100 60.45400 41.53100
C  31.36300 62.62100 43.02300
C  28.23400 62.94400 41.20000
C  27.37300 63.84900 42.12700
N  28.13200 57.68000 40.67300
C  27.22600 58.61800 41.04800
C  25.88800 58.12800 40.95500
C  26.06700 56.88200 40.33100
C  27.43600 56.60900 40.16900
C  24.60200 58.87000 41.29700
C  25.31500 55.67300 39.93000
O  24.12300 55.40200 40.04100
C  26.38300 54.65200 39.32500
C  26.30800 53.39800 40.09800
O  26.66700 53.17300 41.25300
O  25.61400 52.52600 39.31200
C  25.45900 51.18100 39.93400
H  33.20000 54.86000 38.89400
H  33.16600 61.00600 41.06900
H  26.82800 60.64100 41.89200
H  28.96600 52.86000 38.84600
H  31.60200 53.38300 37.92000
H  32.01000 51.75300 39.38700
H  30.55500 52.06200 40.32000
H  31.98700 53.03500 40.60500
H  30.19400 54.06400 36.28900
H  28.78000 55.00400 36.78500
H  28.20600 52.15000 36.80400
H  29.26100 52.48600 35.43200
H  35.98500 56.86700 38.40200
H  35.08100 55.40300 38.76100
H  36.09600 56.07700 39.94800
H  35.43000 61.52800 40.46700
H  36.66700 60.84900 41.52000
H  35.01100 60.62600 41.98900
H  30.87800 62.69100 40.96300
H  28.99500 61.96400 43.05300
H  32.11000 61.88500 43.32300
H  30.72100 62.87100 43.86700
H  31.85400 63.53600 42.69100
H  27.52000 62.42500 40.56100
H  28.77600 63.51000 40.44200
H  27.64400 64.90000 42.03100
H  27.44000 63.46300 43.14400
H  26.34000 63.60500 41.88000
H  24.16000 59.41100 40.46100
H  24.63700 59.60800 42.09800
H  23.92800 58.05500 41.56100
H  26.22800 54.52900 38.25300
H  26.45900 50.80400 40.14900
H  24.94800 50.60000 39.16500
H  24.93400 51.22100 40.88800
Mg -13.15600 16.04800 41.70400
C  -10.23000 14.34400 41.07400
C  -11.74400 18.84800 40.16900
C  -16.10400 17.70800 41.96000
C  -14.77700 13.05300 42.47300
N  -11.13600 16.52000 40.82800
C  -10.12000 15.68600 40.64000
C  -8.97900 16.27100 39.85400
C  -9.44600 17.76700 39.86700
C  -10.89200 17.74700 40.35700
C  -8.61400 18.77400 40.67400
C  -8.63200 15.57100 38.46700
C  -7.11000 15.23800 38.16700
H  -6.48200 15.90100 36.91600
N  -13.82300 17.99100 41.21800
C  -13.12400 18.95100 40.52600
C  -13.98200 20.04400 40.28500
C  -15.19700 19.89800 40.92000
C  -15.12300 18.54200 41.42900
C  -13.48300 21.34100 39.57200
C  -16.29400 20.92700 40.95300
O  -16.10200 21.99600 40.42900
C  -17.58100 20.71700 41.73000
N  -15.18100 15.46700 42.05300
C  -16.17000 16.35700 42.34400
C  -17.41700 15.68700 42.92300
C  -16.88100 14.22300 43.23800
C  -15.48100 14.22900 42.60900
C  -18.24500 16.45300 43.99900
C  -17.88100 13.05300 42.86300
C  -18.43500 12.18400 43.99100
N  -12.65800 14.05900 41.84100
C  -13.40100 12.93600 42.08900
C  -12.55900 11.77000 42.02200
C  -11.23400 12.27100 41.67500
C  -11.39500 13.64100 41.49400
C  -12.96600 10.28800 41.99900
C  -9.85100 11.91500 41.46200
O  -9.29100 10.81700 41.57300
C  -9.14000 13.22000 40.92800
C  -7.92900 13.47600 41.66800
O  -7.84900 14.03200 42.71300
O  -6.81700 12.89500 41.12500
C  -5.59600 13.04400 41.97600
H  -11.22600 19.71000 39.74400
H  -17.04300 18.24900 42.09000
H  -15.26200 12.18600 42.92700
H  -8.06800 16.17100 40.44400
H  -9.62700 18.11100 38.84900
H  -9.25800 19.36500 41.32400
H  -8.05700 19.40100 39.97800
H  -7.89400 18.17900 41.23500
H  -8.92500 16.08900 37.55400
H  -9.23700 14.66400 38.47700
H  -7.18300 14.15000 38.15500
H  -6.59000 15.49600 39.09000
H  -13.54700 22.18000 40.26500
H  -14.02900 21.36200 38.62900
H  -12.47000 21.28200 39.17400
H  -18.16500 21.61600 41.53100
H  -17.37500 20.39600 42.75100
H  -18.02200 19.90200 41.15500
H  -18.05900 15.65300 42.04300
H  -16.68100 14.14300 44.30700
H  -17.71600 17.39600 44.14000
H  -18.21000 16.01200 44.99600
H  -19.29100 16.57800 43.72100
H  -17.34700 12.43600 42.14000
H  -18.80500 13.48600 42.48000
H  -19.46600 11.86100 43.84500
H  -18.27000 12.50500 45.02000
H  -17.80300 11.29700 43.95400
H  -12.19700 9.68800 42.48600
H  -13.07700 9.97900 40.96000
H  -13.93900 10.07700 42.44100
H  -8.75500 13.10900 39.91400
H  -5.29300 14.08900 41.90600
H  -4.76100 12.40500 41.69000
H  -5.77300 12.85700 43.03500

