158

Mg 40.73600 9.31300 29.98100
C  42.60100 10.79600 32.48700
C  38.27600 8.49900 32.28400
C  38.98000 7.76900 27.51700
C  43.37400 9.72300 27.78400
N  40.52000 9.60600 32.18300
C  41.38900 10.26000 32.99000
C  40.75400 10.31500 34.44400
C  39.57100 9.34400 34.38500
C  39.42700 9.15300 32.85800
C  39.72100 8.06700 35.26500
C  40.40600 11.76700 34.95100
C  41.24600 12.30300 36.07900
H  40.61600 13.12500 37.26600
N  38.81000 8.43300 29.94000
C  38.00500 8.12800 30.94800
C  36.82700 7.51400 30.49100
C  36.88800 7.45600 29.06100
C  38.24900 7.92700 28.73500
C  35.69900 6.97600 31.42600
C  35.93300 6.94600 28.08100
O  36.02000 6.97400 26.83900
C  34.63800 6.40800 28.51900
N  41.05500 8.89800 27.85100
C  40.25900 8.10600 27.08700
C  40.77400 7.85000 25.64700
C  42.27500 8.40100 25.77800
C  42.22400 9.08800 27.22400
C  40.67400 6.41100 24.96800
C  42.70700 9.40800 24.66200
C  42.14800 10.84300 24.59300
N  42.71200 9.94500 30.10300
C  43.65000 10.15400 29.09500
C  44.81900 10.86600 29.62000
C  44.37800 11.14400 30.93900
C  43.16500 10.54500 31.18300
C  46.05900 11.24600 28.94200
C  44.74400 11.84400 32.14500
O  45.86000 12.30600 32.38100
C  43.65200 11.58300 33.28600
C  44.24800 10.70800 34.31600
O  44.44300 9.48500 34.22600
O  44.42700 11.42500 35.50900
C  44.46800 10.58500 36.72900
H  37.65600 8.08800 33.08400
H  38.30900 7.35900 26.75900
H  44.25800 9.82200 27.15100
H  41.65200 9.94100 34.93500
H  38.75900 9.95500 34.77800
H  40.64700 8.06500 35.84000
H  39.73800 7.11200 34.73900
H  38.85300 8.09200 35.92300
H  39.37100 11.90500 35.26400
H  40.55700 12.42500 34.09500
H  42.13000 12.88600 35.82100
H  41.54700 11.35300 36.51900
H  34.82000 7.61300 31.33300
H  35.90800 7.00100 32.49500
H  35.50900 5.92000 31.23700
H  34.09200 6.07600 27.63500
H  34.22000 7.28200 29.01900
H  34.69900 5.57300 29.21600
H  40.19300 8.35800 24.87800
H  43.02000 7.61000 25.86500
H  41.63000 6.02800 24.61100
H  40.13300 6.53200 24.02900
H  39.97900 5.73900 25.47100
H  42.49000 8.92700 23.70900
H  43.77900 9.49900 24.83400
H  42.81900 11.54800 25.08300
H  41.30100 10.90400 25.27700
H  41.77600 11.11600 23.60600
H  45.85400 11.84300 28.05300
H  46.46800 10.32100 28.53800
H  46.69700 11.65600 29.72500
H  43.29500 12.51500 33.72500
H  44.21000 11.21700 37.57900
H  45.54500 10.43300 36.79800
H  43.89200 9.66800 36.60500
Mg -5.56400 25.41700 26.33600
C  -4.31800 26.84000 29.20000
C  -7.40200 23.25600 28.17000
C  -6.63000 23.96200 23.42300
C  -3.23600 27.34200 24.52000
N  -5.73200 25.01300 28.39800
C  -5.26600 25.81500 29.46400
C  -5.98100 25.46300 30.79700
C  -6.62000 24.08900 30.45500
C  -6.61200 24.14200 28.93800
C  -5.83800 22.91900 31.07300
C  -7.01900 26.49900 31.32600
C  -7.24300 26.38400 32.85400
H  -6.88800 25.15100 33.71200
N  -6.88000 23.82000 25.90800
C  -7.56300 23.08200 26.79200
C  -8.38400 22.17700 26.03800
C  -8.10500 22.38100 24.61800
C  -7.12800 23.38000 24.58300
C  -9.30900 21.21200 26.79400
C  -8.73700 21.67400 23.45900
O  -8.38400 22.01000 22.30600
C  -9.58400 20.44300 23.64900
N  -4.99800 25.50900 24.28900
C  -5.63800 24.94900 23.23400
C  -4.96500 25.34000 21.85000
C  -4.03400 26.55400 22.23300
C  -4.10700 26.47500 23.79800
C  -4.33400 24.12100 21.18400
C  -4.44400 27.88400 21.60600
C  -3.59400 28.42100 20.47000
N  -4.11700 26.85300 26.69100
C  -3.22000 27.51300 25.91700
C  -2.56000 28.56100 26.62700
C  -2.96100 28.32100 27.94000
C  -3.88600 27.24200 27.95100
C  -1.66100 29.66700 26.00600
C  -2.86700 28.71600 29.30000
O  -2.22400 29.62000 29.92800
C  -3.73200 27.81000 30.19600
C  -2.85200 27.27400 31.27700
O  -1.89800 26.53300 31.02900
O  -3.12300 27.80900 32.45000
C  -2.36500 27.42700 33.62900
H  -8.19300 22.74100 28.71800
H  -6.86300 23.66400 22.39800
H  -2.59700 28.00400 23.93200
H  -5.14900 25.43500 31.50000
H  -7.64700 23.98800 30.80500
H  -4.79900 23.13600 31.32000
H  -5.77500 22.16500 30.28700
H  -6.29800 22.42400 31.92800
H  -8.01200 26.34500 30.90300
H  -6.72900 27.48100 30.95100
H  -8.30900 26.40500 33.08200
H  -6.82300 27.24900 33.36800
H  -8.86700 21.03500 27.77400
H  -9.55700 20.25600 26.33400
H  -10.23300 21.76100 26.97700
H  -8.99100 19.83800 24.33400
H  -9.58600 19.88200 22.71400
H  -10.58800 20.64800 24.02000
H  -5.72800 25.76900 21.20000
H  -2.99300 26.50800 21.91300
H  -3.24400 24.11800 21.20900
H  -4.61600 24.07700 20.13200
H  -4.71500 23.14100 21.47100
H  -4.42500 28.58900 22.43700
H  -5.48700 27.88300 21.29100
H  -4.37600 28.57300 19.72700
H  -2.84900 27.70400 20.12500
H  -3.11500 29.39600 20.57300
H  -1.14000 30.17400 26.81800
H  -2.15900 30.48100 25.48000
H  -0.78500 29.30500 25.46600
H  -4.41000 28.57800 30.56900
H  -2.94600 27.03200 34.46200
H  -1.80400 28.28300 34.00300
H  -1.56300 26.74200 33.35200

