158

Mg 44.64700 3.05200 47.81300
C  42.23300 5.67900 47.22800
C  41.98800 0.78300 47.62100
C  46.90200 0.64800 47.64700
C  46.91400 5.49800 47.00600
N  42.34400 3.29300 47.36800
C  41.60000 4.42600 47.18100
C  40.17300 4.07500 47.03100
C  40.10000 2.55200 47.54900
C  41.56800 2.12200 47.52500
C  39.29500 2.27900 48.82000
C  39.74100 4.17200 45.50400
C  38.78300 5.30800 45.27300
H  39.17200 6.13900 44.09200
N  44.51800 0.88600 47.83500
C  43.33500 0.24200 47.68200
C  43.67500 -1.18100 47.74600
C  45.10500 -1.31600 47.89800
C  45.63500 0.06800 47.83500
C  42.64100 -2.33600 47.42800
C  45.93000 -2.55100 47.81100
O  45.40400 -3.67500 47.75700
C  47.46100 -2.60100 47.89300
N  46.52600 3.08300 47.19200
C  47.30700 1.98200 47.48200
C  48.78500 2.32600 47.44800
C  48.82300 3.83700 47.22300
C  47.34800 4.17600 47.06700
C  49.54800 1.86900 48.70600
C  49.79200 4.34900 46.01000
C  51.12800 4.95700 46.56500
N  44.65500 5.23600 47.31100
C  45.66000 6.06000 47.03000
C  45.25900 7.43300 47.08800
C  43.91100 7.35000 47.13900
C  43.56600 5.94000 47.21000
C  46.12100 8.67500 47.17200
C  42.73900 8.12000 47.09600
O  42.53500 9.37300 47.05000
C  41.55000 7.08800 47.17200
C  40.73400 7.46900 48.29500
O  40.66500 6.97400 49.41900
O  39.96200 8.52200 47.89200
C  39.01100 9.09500 48.86300
H  41.13300 0.10300 47.61000
H  47.77700 0.01400 47.80600
H  47.66600 6.28900 46.97100
H  39.52500 4.69100 47.65600
H  39.52400 2.03700 46.78000
H  38.86700 3.23300 49.12800
H  40.02800 1.94800 49.55500
H  38.65200 1.42800 48.59200
H  39.22800 3.28200 45.14100
H  40.65200 4.20000 44.90600
H  38.72400 5.93700 46.16100
H  37.78000 4.90600 45.13400
H  41.57700 -2.11400 47.51400
H  42.85900 -3.15100 48.11800
H  42.63800 -2.76000 46.42400
H  47.67100 -2.16900 46.91500
H  47.78100 -3.64000 47.97400
H  47.91200 -2.09500 48.74700
H  49.17400 1.69600 46.64800
H  49.10700 4.32200 48.15600
H  50.43200 1.32400 48.37600
H  48.95400 1.18100 49.30900
H  49.97700 2.70200 49.26300
H  49.35200 5.16500 45.43600
H  49.97100 3.45200 45.41700
H  51.12800 5.97400 46.17300
H  51.98500 4.35100 46.27300
H  51.14300 4.89200 47.65300
H  45.79200 9.42700 46.45400
H  47.12200 8.35000 46.89000
H  46.30500 9.02100 48.18900
H  41.00500 7.23400 46.24000
H  39.25400 8.78900 49.88000
H  37.96700 8.83600 48.69000
H  39.23200 10.16000 48.79300
Mg 35.90300 49.57200 25.51700
C  36.00800 48.01500 28.57800
C  34.75700 52.47600 27.05700
C  35.43500 50.95900 22.42100
C  36.69400 46.45800 23.96500
N  35.29100 50.10700 27.51800
C  35.52200 49.32200 28.65000
C  35.33600 50.07100 29.94700
C  34.64000 51.47900 29.38800
C  34.89000 51.37400 27.91300
C  33.19800 51.76100 29.91500
C  36.63500 50.28900 30.78400
C  36.44300 50.25200 32.33700
H  35.00400 50.66100 32.93700
N  35.26300 51.51100 24.81300
C  34.86600 52.52800 25.59900
C  34.74100 53.73300 24.71800
C  35.01300 53.32500 23.34600
C  35.27100 51.88300 23.50000
C  34.46400 55.08600 25.34200
C  35.10900 54.13300 22.07900
O  35.26100 53.66000 21.00100
C  34.62300 55.61200 22.22600
N  36.07600 48.85300 23.47900
C  35.78400 49.58900 22.38300
C  36.01600 48.82700 21.13200
C  36.62600 47.40700 21.67000
C  36.46900 47.58700 23.12800
C  34.68500 48.82900 20.25300
C  38.13200 47.19500 21.22800
C  39.15400 48.27000 21.62100
N  36.29300 47.64100 26.10400
C  36.64600 46.52900 25.37300
C  36.95300 45.43300 26.28300
C  36.69300 45.97100 27.61100
C  36.31400 47.29600 27.39300
C  37.39700 44.14900 25.77800
C  36.69400 45.62900 29.08500
O  37.06900 44.64400 29.69700
C  36.20200 46.98300 29.74500
C  34.90200 46.68800 30.40600
O  33.85300 46.59100 29.78200
O  35.07900 46.66200 31.76300
C  33.91700 46.53700 32.60400
H  34.40000 53.37500 27.56400
H  35.45500 51.28600 21.38000
H  37.06000 45.50500 23.57900
H  34.67400 49.61100 30.68000
H  35.27200 52.28400 29.76200
H  32.83400 50.85900 30.40500
H  32.53000 52.10400 29.12500
H  33.14100 52.58000 30.63200
H  37.05900 51.27500 30.59300
H  37.34900 49.54400 30.43600
H  37.18800 50.97800 32.66300
H  36.74900 49.28300 32.73000
H  35.01500 55.78100 24.70800
H  34.79400 55.27900 26.36300
H  33.37800 55.15800 25.29200
H  35.46400 56.18700 22.61400
H  33.80000 55.71900 22.93200
H  34.31600 55.90200 21.22100
H  36.71100 49.42800 20.54500
H  36.05300 46.61400 21.18900
H  33.83500 49.11700 20.87300
H  34.48100 47.85900 19.80100
H  34.72000 49.62100 19.50500
H  38.18300 47.32800 20.14700
H  38.46900 46.18600 21.46600
H  38.75600 49.07200 22.24300
H  39.69900 48.56400 20.72400
H  39.87400 47.78300 22.27900
H  37.60600 43.54600 26.66200
H  38.31300 44.24000 25.19500
H  36.55800 43.70700 25.24000
H  36.99100 47.34700 30.40400
H  33.08100 47.07000 32.15100
H  34.27100 46.98700 33.53200
H  33.68000 45.49400 32.81400

