158

Mg 36.53900 49.80600 24.48700
C  36.83200 48.06500 27.46400
C  35.15500 52.41200 26.40200
C  35.87900 51.37800 21.61200
C  37.34100 46.96200 22.86700
N  35.97200 50.18000 26.71100
C  36.28400 49.34600 27.66300
C  36.02200 50.03100 29.01800
C  35.25300 51.36700 28.64600
C  35.45300 51.35800 27.20600
C  33.81700 51.52300 29.03800
C  37.32600 50.29700 29.87200
C  37.34300 50.12600 31.37500
H  35.95000 49.86400 32.08100
N  35.69000 51.64800 24.12200
C  35.23200 52.62700 25.02200
C  34.98100 53.81000 24.29500
C  35.24400 53.62100 22.90100
C  35.65600 52.19700 22.79100
C  34.49600 55.02600 25.13400
C  34.95900 54.53300 21.74400
O  35.14700 54.13800 20.63000
C  34.61500 55.97000 21.87900
N  36.48100 49.23000 22.51100
C  36.19600 50.02600 21.53200
C  36.55100 49.36900 20.11700
C  36.95800 47.93300 20.56300
C  36.99100 48.06900 22.08200
C  35.31000 49.52500 19.09100
C  38.40900 47.47200 20.10500
C  39.64600 47.58600 21.01000
N  37.02100 47.92200 25.02500
C  37.35300 46.86700 24.18300
C  37.72700 45.73000 24.92900
C  37.51600 46.03800 26.25900
C  37.09600 47.45400 26.26500
C  38.41600 44.59100 24.34700
C  37.74800 45.65200 27.59000
O  38.33500 44.64800 28.03100
C  37.18100 46.94800 28.45900
C  36.02900 46.52300 29.26800
O  34.82600 46.73100 28.99800
O  36.41900 45.94300 30.40000
C  35.31900 45.53200 31.28000
H  34.92600 53.27400 27.03200
H  35.80700 51.84700 20.62900
H  37.72200 46.11900 22.28600
H  35.29800 49.49200 29.62900
H  35.73900 52.29000 28.96500
H  33.82500 52.36700 29.72800
H  33.37100 50.72100 29.62600
H  33.15500 51.77300 28.21000
H  37.51100 51.36600 29.76500
H  38.10800 49.62400 29.52200
H  37.89500 50.93600 31.85000
H  37.98600 49.30700 31.69600
H  34.48600 55.89100 24.47100
H  35.14500 55.24900 25.98000
H  33.61400 54.85600 25.75200
H  33.75300 56.04800 22.54200
H  34.34200 56.37500 20.90500
H  35.46900 56.55100 22.22700
H  37.46400 49.91000 19.87000
H  36.23100 47.19400 20.22600
H  35.74900 50.11500 18.28600
H  34.47000 50.03100 19.56700
H  34.99800 48.58600 18.63300
H  38.55000 47.97200 19.14700
H  38.17500 46.47900 19.72300
H  40.43000 47.94500 20.34400
H  40.01000 46.60700 21.32000
H  39.57700 48.29500 21.83600
H  39.07100 44.99200 23.57300
H  37.81300 43.73700 24.03700
H  39.12000 44.07400 24.99900
H  37.99500 47.21800 29.13200
H  34.79700 44.66700 30.87200
H  34.71300 46.32700 31.71500
H  35.87300 45.18800 32.15400
Mg -12.24400 16.04700 41.32900
C  -9.17800 14.29600 40.96400
C  -10.96600 18.62600 39.39200
C  -15.39900 17.24300 41.10700
C  -13.53300 12.96900 42.57800
N  -10.35900 16.39500 40.35200
C  -9.23400 15.55400 40.32800
C  -8.01200 16.31200 39.70800
C  -8.60100 17.69500 39.33600
C  -10.07700 17.56100 39.66000
C  -7.94100 18.90800 40.06800
C  -7.63300 15.53900 38.41300
C  -6.13800 15.15700 38.35600
H  -5.38100 15.73400 37.19400
N  -13.11000 17.76000 40.37400
C  -12.36600 18.68500 39.68000
C  -13.24600 19.73100 39.29900
C  -14.56300 19.42300 39.83300
C  -14.42400 18.09800 40.47500
C  -12.86900 20.99800 38.48000
C  -15.84100 20.36200 39.66700
O  -15.79600 21.46900 39.17200
C  -17.25100 20.00100 40.18500
N  -14.19900 15.15500 41.65700
C  -15.24600 15.90400 41.62200
C  -16.51200 15.08500 42.02500
C  -15.90800 13.88400 42.81700
C  -14.46600 13.96200 42.31500
C  -17.66100 15.88900 42.66700
C  -16.69300 12.57300 42.68000
C  -17.22900 11.99300 44.05300
N  -11.48100 14.05300 41.80000
C  -12.15500 12.88200 42.36000
C  -11.21500 11.89700 42.64400
C  -9.98600 12.45400 42.18700
C  -10.27900 13.70400 41.58500
C  -11.33600 10.61000 43.42600
C  -8.53200 12.19200 42.09200
O  -7.83600 11.24900 42.57100
C  -7.95500 13.38700 41.22200
C  -6.93200 14.14100 42.00400
O  -7.00000 14.45400 43.15600
O  -5.80300 14.20900 41.28000
C  -4.58700 14.66200 41.93800
H  -10.49500 19.53600 39.01600
H  -16.39100 17.69800 41.06400
H  -13.97500 12.15600 43.15700
H  -7.14100 16.43800 40.35100
H  -8.71700 17.88200 38.26900
H  -7.04700 18.54700 40.57700
H  -8.62300 19.27400 40.83600
H  -7.73100 19.63700 39.28500
H  -7.86600 16.13400 37.53000
H  -8.25500 14.67400 38.18200
H  -6.16100 14.06700 38.37100
H  -5.62200 15.42500 39.27800
H  -13.19100 21.88000 39.03400
H  -13.34300 21.02200 37.49900
H  -11.80400 21.12800 38.28900
H  -17.24000 19.81200 41.25800
H  -17.71200 19.28100 39.50900
H  -17.92800 20.85200 40.11500
H  -16.84500 14.62500 41.09400
H  -15.88200 14.26900 43.83600
H  -17.91100 15.36800 43.59200
H  -18.57200 15.89700 42.06900
H  -17.40500 16.92800 42.87000
H  -16.11200 11.78900 42.19400
H  -17.51700 12.82000 42.01100
H  -18.28300 12.21700 43.89000
H  -16.77300 12.43700 44.93900
H  -17.04500 10.91900 44.06200
H  -10.31500 10.31200 43.65900
H  -11.66900 9.76700 42.82000
H  -11.98500 10.71600 44.29500
H  -7.43100 13.03100 40.33500
H  -3.77700 14.01400 41.60400
H  -4.64800 14.58500 43.02300
H  -4.43900 15.70100 41.64300

