158

Mg -1.23500 17.21600 26.46600
C  -1.79200 14.97400 29.04800
C  -1.60500 19.74900 28.87700
C  -1.56900 19.51600 23.91600
C  -1.73200 14.65800 24.12300
N  -1.47400 17.35600 28.75700
C  -1.66100 16.23300 29.57800
C  -1.62100 16.68200 31.06900
C  -1.74300 18.25900 30.94500
C  -1.59300 18.46400 29.41800
C  -3.00600 18.80900 31.48800
C  -0.39100 16.20400 31.95500
C  0.09200 16.97500 33.25100
H  0.07000 16.23000 34.58200
N  -1.46400 19.37400 26.40000
C  -1.60200 20.20000 27.50900
C  -1.75400 21.59900 27.01400
C  -1.77900 21.47000 25.60000
C  -1.58500 20.04700 25.22500
C  -1.86100 22.72100 27.98200
C  -2.02100 22.59000 24.56800
O  -2.24000 22.39500 23.35200
C  -2.00300 23.96500 25.06300
N  -1.46800 17.06800 24.28400
C  -1.58900 18.15000 23.45700
C  -1.60500 17.69300 21.98700
C  -1.84700 16.18100 22.12100
C  -1.68300 15.91900 23.58700
C  -2.46500 18.27800 20.88900
C  -0.93200 15.34400 21.20300
C  0.55600 15.28800 21.64700
N  -1.49300 15.21400 26.50200
C  -1.74000 14.32400 25.47300
C  -1.99000 12.97000 26.12500
C  -2.02200 13.20800 27.50800
C  -1.69300 14.61000 27.65500
C  -2.13100 11.70900 25.23500
C  -2.18300 12.59800 28.74600
O  -2.33500 11.42900 29.12200
C  -2.19600 13.75900 29.76000
C  -1.53800 13.32100 30.99500
O  -0.45800 12.80900 31.05100
O  -2.36500 13.51100 32.02600
C  -1.96300 13.00900 33.37200
H  -1.77100 20.43700 29.70900
H  -1.70200 20.23000 23.10000
H  -1.85800 13.78500 23.47900
H  -2.56100 16.28600 31.45300
H  -0.88500 18.68400 31.46600
H  -3.07200 19.89700 31.50700
H  -3.14000 18.56600 32.54200
H  -3.76700 18.25100 30.94200
H  0.50600 16.24500 31.33800
H  -0.37200 15.15700 32.25900
H  -0.47400 17.90200 33.33400
H  1.11100 17.29300 33.03100
H  -2.92500 22.93700 28.07800
H  -1.32800 23.63800 27.73000
H  -1.53000 22.30800 28.93500
H  -1.08900 24.07800 25.64500
H  -2.84500 24.18900 25.71900
H  -1.93600 24.64000 24.21000
H  -0.60800 17.77900 21.55500
H  -2.87800 15.88700 21.92000
H  -3.30100 18.74700 21.40800
H  -2.82300 17.46900 20.25300
H  -1.90800 19.07600 20.39800
H  -0.90300 15.79000 20.20900
H  -1.36700 14.34700 21.13600
H  1.34300 15.16100 20.90300
H  0.66600 14.44700 22.33200
H  0.93000 16.10500 22.26400
H  -1.34700 11.62900 24.48100
H  -3.14100 11.78900 24.83500
H  -1.93700 10.82800 25.84700
H  -3.26800 13.81600 29.94900
H  -1.97100 13.87800 34.03000
H  -0.98600 12.53300 33.44900
H  -2.71100 12.29200 33.71200
Mg 16.95900 51.47700 26.73500
C  18.89800 49.93300 29.23200
C  14.61200 52.06600 29.20100
C  15.15500 53.08200 24.46800
C  19.18700 50.28300 24.31300
N  16.91400 51.15400 28.99100
C  17.82800 50.62600 29.80600
C  17.36000 50.75500 31.21600
C  15.82600 50.89200 31.11800
C  15.74000 51.36100 29.64700
C  15.00600 49.56700 31.39800
C  18.10400 52.01100 31.79400
C  18.43100 51.94200 33.27100
H  17.54300 51.00700 34.19800
N  15.17400 52.62400 26.84700
C  14.39400 52.78700 27.94600
C  13.35400 53.75300 27.61900
C  13.41200 53.90800 26.16500
C  14.63000 53.22000 25.74200
C  12.41900 54.26000 28.63000
C  12.57600 54.80500 25.35900
O  12.74100 55.08800 24.18100
C  11.34400 55.47800 25.96200
N  17.03800 51.42200 24.65300
C  16.22900 52.35700 24.00500
C  16.65900 52.31400 22.51300
C  18.11700 51.74500 22.47400
C  18.06300 51.05200 23.92100
C  15.62000 51.55300 21.54700
C  19.25400 52.75600 22.25200
C  19.10900 53.80400 21.17400
N  18.54400 50.23600 26.73600
C  19.40500 49.79900 25.68300
C  20.47900 48.94400 26.15700
C  20.29400 48.96200 27.51100
C  19.11700 49.71800 27.80900
C  21.54700 48.31200 25.30300
C  20.89900 48.48800 28.70000
O  21.89000 47.82200 28.94700
C  20.00000 49.15200 29.90800
C  19.63200 48.12400 30.89500
O  18.73200 47.33500 30.80100
O  20.44300 48.30600 32.05600
C  19.97200 47.51300 33.21700
H  13.85500 52.35600 29.93300
H  14.61100 53.66100 23.71800
H  20.03300 50.20500 23.62700
H  17.59600 49.83000 31.74200
H  15.38900 51.65400 31.76400
H  15.63500 48.81300 31.87200
H  14.75100 49.14700 30.42600
H  14.14600 49.73800 32.04500
H  17.53900 52.93900 31.69700
H  19.04700 52.06200 31.25000
H  18.36300 52.97800 33.60300
H  19.45700 51.59600 33.39700
H  12.21700 55.32900 28.55900
H  12.82200 54.03000 29.61600
H  11.38200 53.93000 28.56800
H  10.69600 55.93000 25.21100
H  11.79700 56.28200 26.54200
H  10.73000 54.79700 26.55100
H  16.71100 53.33200 22.12600
H  18.16700 50.85100 21.85400
H  15.95000 50.68500 20.97500
H  15.30700 52.31300 20.83100
H  14.86200 51.21900 22.25600
H  20.15700 52.23600 21.93100
H  19.41600 53.18600 23.24000
H  18.98700 54.77800 21.64900
H  18.24200 53.64500 20.53200
H  19.97500 53.94100 20.52600
H  22.21900 48.99700 24.78500
H  20.98700 47.73700 24.56600
H  22.11000 47.65400 25.96500
H  20.54300 49.98300 30.35800
H  19.80800 46.45400 33.02200
H  19.00700 47.86200 33.58400
H  20.64000 47.62200 34.07200

