158

Mg 23.71900 -6.79700 45.26200
C  25.95700 -4.51700 43.70400
C  21.12600 -5.13200 43.65100
C  21.66000 -9.35100 46.01000
C  26.40700 -8.32800 46.69100
N  23.56600 -5.12900 43.66000
C  24.60500 -4.31100 43.25700
C  24.13600 -3.41500 42.16000
C  22.59200 -3.34600 42.49500
C  22.36300 -4.62600 43.33000
C  22.06200 -2.08200 43.17900
C  24.55400 -4.03100 40.78600
C  25.05500 -3.05400 39.67600
H  24.91500 -3.44700 38.20700
N  21.66400 -7.17300 44.90200
C  20.75900 -6.30700 44.28400
C  19.48600 -6.94200 44.21700
C  19.64700 -8.26600 44.82800
C  21.01500 -8.31700 45.28600
C  18.19100 -6.29100 43.69400
C  18.55300 -9.12900 45.23100
O  17.46100 -8.89900 44.68300
C  18.68500 -10.23800 46.25500
N  24.06000 -8.66600 46.02700
C  23.01700 -9.47700 46.36000
C  23.56200 -10.81400 47.03200
C  24.97600 -10.28000 47.50900
C  25.20500 -9.00800 46.70700
C  22.66700 -11.37100 48.16200
C  26.04300 -11.36100 47.39500
C  26.56200 -11.74500 48.70900
N  25.76500 -6.47500 45.27000
C  26.74000 -7.20200 45.90600
C  28.03300 -6.56400 45.65600
C  27.76000 -5.53800 44.80500
C  26.38600 -5.54700 44.58000
C  29.31800 -7.00900 46.19900
C  28.40200 -4.42500 44.04400
O  29.61700 -4.11500 43.92700
C  27.17300 -3.77300 43.33200
C  27.04300 -2.24400 43.49900
O  27.52000 -1.37300 42.74800
O  26.57600 -1.92900 44.75900
C  26.55600 -0.51400 45.07600
H  20.23700 -4.62300 43.27400
H  21.14800 -10.30000 46.18400
H  27.25100 -8.77900 47.21700
H  24.51400 -2.40400 42.31500
H  22.18100 -3.50500 41.49800
H  22.88600 -1.53500 43.63900
H  21.23700 -2.31400 43.85300
H  21.76800 -1.34900 42.42800
H  23.64600 -4.37200 40.28900
H  25.26700 -4.85400 40.84100
H  26.10700 -2.86900 39.89500
H  24.50600 -2.11900 39.78400
H  17.63600 -7.02900 43.11500
H  18.35100 -5.40900 43.07500
H  17.59300 -5.92600 44.52900
H  19.28800 -9.92600 47.10800
H  19.03400 -11.12800 45.73100
H  17.67800 -10.37900 46.64700
H  23.47100 -11.53200 46.21700
H  24.87900 -9.97300 48.55100
H  21.74600 -10.79500 48.24800
H  23.24200 -11.32700 49.08700
H  22.32200 -12.39500 48.01500
H  26.74400 -10.97800 46.65300
H  25.63300 -12.25900 46.93400
H  25.96800 -11.50600 49.59000
H  27.60300 -11.48500 48.90100
H  26.78300 -12.80800 48.60600
H  29.39500 -6.76500 47.25900
H  30.16600 -6.48900 45.75400
H  29.43600 -8.08500 46.07300
H  27.36100 -3.78700 42.25900
H  26.03600 0.08700 44.33000
H  27.56000 -0.10900 45.20100
H  26.00500 -0.39500 46.01000
Mg 53.55700 24.22700 43.85900
C  50.58500 26.22000 43.51500
C  51.68300 21.56400 42.72300
C  56.34400 22.53800 43.35700
C  55.25700 27.08400 44.46300
N  51.38100 23.91200 43.18200
C  50.35200 24.86800 43.06300
C  49.18700 24.29700 42.20500
C  49.48700 22.78700 42.44800
C  50.95000 22.70500 42.72500
C  48.66300 22.05500 43.56600
C  49.11600 24.74000 40.66800
C  50.52100 24.96600 39.87100
H  50.39500 25.69600 38.59400
N  53.89000 22.27600 43.33100
C  53.01700 21.31400 43.01700
C  53.59500 20.05700 42.91100
C  55.02000 20.30400 42.97100
C  55.15400 21.73600 43.26900
C  52.82000 18.77500 42.76300
C  56.05500 19.24600 42.81900
O  55.83700 18.04900 42.67100
C  57.48800 19.61300 42.69900
N  55.63800 24.77800 43.58500
C  56.57100 23.91600 43.62800
C  57.93300 24.61700 43.79600
C  57.51400 26.11400 44.11300
C  56.03700 26.01200 44.06300
C  58.91000 24.02400 44.84300
C  58.02300 27.16500 43.11600
C  58.72400 28.42200 43.70000
N  53.02300 26.13900 44.24700
C  53.85900 27.20600 44.59200
C  53.11600 28.38100 44.86200
C  51.83800 28.03200 44.38900
C  51.84600 26.65500 44.05900
C  53.67400 29.50900 45.49700
C  50.53500 28.53000 44.14100
O  50.08000 29.66000 44.25900
C  49.62200 27.34000 43.68400
C  48.74900 27.76400 42.63000
O  49.09600 28.40600 41.64300
O  47.41800 27.32700 42.85100
C  46.32900 27.67600 41.88400
H  51.05900 20.69800 42.49200
H  57.26000 21.94400 43.34400
H  55.82400 27.92900 44.85900
H  48.15500 24.46400 42.51500
H  49.29800 22.32800 41.47700
H  48.05400 22.70500 44.19500
H  49.29800 21.59000 44.32000
H  48.03400 21.30200 43.09000
H  48.50100 25.63800 40.61300
H  48.42500 24.05500 40.17600
H  50.78500 23.94200 39.60500
H  51.40400 25.19500 40.46700
H  52.70200 18.67100 41.68500
H  51.81400 18.71700 43.17800
H  53.26300 17.89300 43.22600
H  58.04000 19.84700 43.60900
H  57.51200 20.46900 42.02400
H  57.98400 18.83300 42.12200
H  58.28900 24.53800 42.76900
H  57.85900 26.42400 45.09900
H  59.90100 24.11300 44.39900
H  58.66200 23.02000 45.18800
H  58.85000 24.67700 45.71400
H  57.23400 27.46700 42.42700
H  58.82500 26.63000 42.60600
H  58.26700 29.34900 43.35400
H  59.74200 28.30200 43.33000
H  58.76600 28.41400 44.79000
H  54.43800 30.01400 44.90600
H  54.02800 29.08800 46.43900
H  52.85400 30.21900 45.60000
H  49.05000 27.39600 44.61000
H  46.62100 27.29600 40.90500
H  46.24900 28.74400 41.68000
H  45.40800 27.26600 42.29800

