158

Mg 46.76800 15.84700 29.10900
C  44.65400 15.32200 31.84200
C  49.00000 17.61400 31.26900
C  48.90900 16.35000 26.53800
C  44.70300 14.11700 27.05600
N  46.75200 16.47800 31.26700
C  45.82900 16.07000 32.16800
C  46.15000 16.56700 33.65500
C  47.36800 17.54700 33.30500
C  47.76200 17.25400 31.79200
C  47.14800 19.07500 33.49900
C  46.46800 15.38700 34.53900
C  45.89900 15.43000 35.95700
H  45.89800 16.66400 36.87200
N  48.64900 16.81100 28.94300
C  49.39600 17.36800 29.91000
C  50.72900 17.68900 29.31800
C  50.65500 17.49500 27.90400
C  49.32200 16.87200 27.74500
C  51.93700 18.03900 30.14700
C  51.73200 17.74300 26.82800
O  51.57800 17.55700 25.62100
C  52.98300 18.44600 27.14000
N  46.63700 15.53900 27.04400
C  47.68100 15.74100 26.23200
C  47.26500 15.29300 24.80600
C  46.13500 14.22600 25.00300
C  45.77100 14.69200 26.43400
C  46.88200 16.49000 23.87500
C  46.66500 12.82700 25.09700
C  46.49100 12.06100 23.76300
N  45.04000 14.92400 29.30600
C  44.22600 14.33800 28.35500
C  43.03000 13.75000 29.01500
C  43.16900 14.22000 30.37600
C  44.36900 14.90400 30.50200
C  41.96300 13.00300 28.38500
C  42.59300 14.14700 31.63900
O  41.63500 13.52600 32.09900
C  43.59700 14.82000 32.64100
C  42.84600 15.78000 33.50800
O  42.51200 16.89400 33.15900
O  42.57700 15.19700 34.70100
C  41.95900 15.92800 35.83100
H  49.73500 18.11400 31.90200
H  49.56100 16.39100 25.66300
H  44.08400 13.33500 26.61200
H  45.28100 17.12300 34.00700
H  48.23300 17.23100 33.88800
H  47.14700 19.56000 32.52300
H  47.91700 19.48900 34.15100
H  46.22900 19.27400 34.05000
H  47.54100 15.32500 34.71900
H  46.19600 14.46000 34.03500
H  46.61600 14.74700 36.41200
H  44.93000 14.93200 35.96600
H  52.73600 17.30400 30.05300
H  51.61000 18.19400 31.17500
H  52.32200 18.96600 29.72300
H  53.45700 18.49200 26.16000
H  53.62000 17.91800 27.84900
H  52.90700 19.47900 27.48100
H  48.18600 14.86400 24.41200
H  45.24900 14.38700 24.38900
H  45.81400 16.48500 23.65400
H  47.40300 16.43700 22.91900
H  47.17100 17.45000 24.30200
H  46.15300 12.29200 25.89700
H  47.70700 12.90300 25.41100
H  46.09400 11.05900 23.92400
H  47.37200 12.11900 23.12400
H  45.75600 12.56800 23.13800
H  42.27000 11.96200 28.48700
H  41.66500 13.31500 27.38400
H  41.12500 13.10000 29.07500
H  44.00900 14.03900 33.28000
H  40.89600 15.68900 35.87100
H  42.00200 17.01700 35.83400
H  42.31400 15.53200 36.78200
Mg 46.76400 24.64900 28.94200
C  47.47500 26.87600 31.37800
C  45.87100 22.36900 31.41900
C  46.72200 22.21100 26.63600
C  48.43900 26.73600 26.63900
N  46.87400 24.62400 31.19300
C  47.07300 25.72400 31.94800
C  46.56300 25.51200 33.44400
C  46.41900 23.88500 33.48900
C  46.37000 23.59400 31.94100
C  47.58100 23.10400 34.19600
C  45.22100 26.18600 33.69600
C  44.91100 26.85900 34.98400
H  45.66700 26.50600 36.22700
N  46.27200 22.67500 29.03300
C  45.78600 21.91300 30.10400
C  45.30700 20.60400 29.67800
C  45.52700 20.52400 28.23200
C  46.20300 21.84900 27.90000
C  44.61800 19.60900 30.63500
C  45.23000 19.42200 27.24100
O  45.35300 19.45900 26.02100
C  44.67600 18.18400 27.75400
N  47.64100 24.51300 26.93800
C  47.39800 23.31800 26.20100
C  47.77900 23.50400 24.70200
C  48.26600 24.98500 24.67200
C  48.07500 25.46900 26.15600
C  48.79700 22.40400 24.18600
C  47.75800 25.85300 23.52000
C  46.70100 27.00500 23.80500
N  47.64400 26.51700 28.94400
C  48.29600 27.21500 27.91800
C  48.63400 28.48600 28.41300
C  48.36400 28.40400 29.75300
C  47.74000 27.16400 30.03100
C  49.28600 29.51800 27.60300
C  48.45900 29.09900 30.99000
O  48.78900 30.27200 31.20600
C  47.87400 28.14600 32.13400
C  48.97700 27.87800 33.15500
O  50.00400 27.25400 32.90600
O  48.68200 28.56400 34.30700
C  49.66900 28.35000 35.39600
H  45.50300 21.63000 32.13300
H  46.50900 21.54300 25.79900
H  48.80500 27.32400 25.79500
H  47.38300 25.75900 34.11900
H  45.53900 23.45800 33.97000
H  47.79700 22.13100 33.75400
H  47.29100 22.90100 35.22600
H  48.44900 23.76300 34.23000
H  44.41800 25.48900 33.45500
H  45.06200 27.05000 33.05200
H  43.92200 26.52800 35.30000
H  44.91200 27.93900 34.83700
H  44.20700 20.12400 31.50400
H  45.32600 18.87100 31.01100
H  43.82000 18.98400 30.23400
H  45.23000 17.94500 28.66200
H  44.47900 17.37400 27.05200
H  43.69400 18.50500 28.10200
H  46.87900 23.50900 24.08800
H  49.33800 24.89700 24.49300
H  48.46400 21.77400 23.36100
H  48.98000 21.70000 24.99700
H  49.72300 22.85600 23.83200
H  47.26800 25.22600 22.77500
H  48.64400 26.33300 23.10500
H  47.07800 27.97600 23.48600
H  46.39100 27.01900 24.84900
H  45.79300 26.85400 23.22100
H  48.84600 29.54000 26.60500
H  50.33000 29.22700 27.48800
H  49.12700 30.50400 28.04100
H  46.99800 28.53900 32.65000
H  50.48200 29.07300 35.33500
H  49.99800 27.31800 35.51600
H  49.16000 28.62400 36.32000

