158

Mg 9.48800 48.62600 25.47600
C  7.37100 49.29700 28.16000
C  12.12300 49.98000 27.26200
C  11.63100 48.14400 22.77200
C  6.81100 48.03100 23.45500
N  9.73400 49.52200 27.45200
C  8.73400 49.57700 28.42000
C  9.38700 49.94900 29.73400
C  10.66600 50.72500 29.24500
C  10.88200 50.01700 27.90100
C  10.56600 52.30900 29.28800
C  9.61800 48.61600 30.56000
C  9.18700 48.77900 32.02100
H  8.97200 47.44000 32.88300
N  11.57900 48.86900 25.22000
C  12.48900 49.49300 26.01500
C  13.80600 49.35800 25.38900
C  13.65700 48.66500 24.16900
C  12.25600 48.52700 24.03100
C  15.07500 49.77900 26.15400
C  14.74400 48.06000 23.19700
O  14.46300 47.36600 22.24900
C  16.12000 48.32700 23.41100
N  9.20400 48.19500 23.37700
C  10.22800 47.91900 22.48300
C  9.69300 47.41500 21.15300
C  8.15400 47.38200 21.46900
C  8.01900 47.83700 22.83400
C  10.10300 48.25100 19.89500
C  7.48700 45.94300 21.22200
C  6.02300 45.90300 20.65700
N  7.45600 48.76100 25.68600
C  6.45700 48.46100 24.76800
C  5.20100 48.56800 25.37000
C  5.53000 48.80300 26.78200
C  6.92000 48.97800 26.87100
C  3.86800 48.22400 24.72200
C  4.97100 48.90000 28.09900
O  3.91100 48.65300 28.42000
C  6.09200 49.35100 29.06500
C  5.97500 48.23000 30.16100
O  6.46800 47.12300 30.04300
O  5.14400 48.64500 31.12800
C  4.76300 47.70200 32.20500
H  12.87300 50.33500 27.97100
H  12.24000 47.91000 21.89600
H  5.90900 47.90400 22.85300
H  8.76400 50.70400 30.21400
H  11.49000 50.45200 29.90500
H  10.70100 52.69600 30.29700
H  9.58400 52.67700 28.99300
H  11.31900 52.75600 28.63800
H  10.63400 48.22200 30.54800
H  9.03800 47.81900 30.09400
H  8.30400 49.41400 32.10500
H  9.86900 49.47700 32.50600
H  15.49000 48.81600 26.45300
H  14.80400 50.38500 27.01900
H  15.74300 50.36700 25.52600
H  16.27600 49.38200 23.18200
H  16.69800 47.67100 22.76000
H  16.14100 48.16100 24.48800
H  10.18100 46.44100 21.20400
H  7.60400 48.14500 20.91900
H  10.77400 49.09700 20.04700
H  9.20100 48.66300 19.44300
H  10.49900 47.66600 19.06500
H  7.35700 45.43400 22.17800
H  8.12200 45.31700 20.59600
H  5.75900 46.94400 20.47300
H  5.42500 45.50700 21.47800
H  5.88500 45.28800 19.76700
H  3.26500 47.46700 25.22400
H  3.94800 47.95900 23.66700
H  3.22100 49.10100 24.71900
H  5.85200 50.32100 29.50100
H  4.98600 46.65400 32.00700
H  3.68500 47.84800 32.27400
H  5.01000 47.94000 33.24000
Mg 0.90000 43.56000 25.78100
C  2.99800 43.78000 28.63600
C  -1.68700 42.77700 27.83100
C  -0.87600 42.91700 23.11600
C  3.73100 44.06400 23.82400
N  0.78200 43.10800 27.95500
C  1.64900 43.44500 28.99100
C  0.97400 43.27600 30.36400
C  -0.45500 42.84900 30.00500
C  -0.43500 42.83200 28.48100
C  -0.98700 41.57000 30.71600
C  1.14000 44.47300 31.24000
C  1.55100 44.20800 32.73700
H  1.04400 42.85800 33.27800
N  -1.03700 43.15600 25.50800
C  -1.94500 42.90600 26.51500
C  -3.23600 42.64500 25.93400
C  -3.05300 42.52900 24.47800
C  -1.60900 42.87600 24.29600
C  -4.53600 42.55300 26.76400
C  -4.07100 42.34300 23.32400
O  -3.77400 42.15100 22.16000
C  -5.54900 42.11300 23.62400
N  1.32800 43.62800 23.73400
C  0.45600 43.20900 22.83700
C  1.00900 43.13400 21.44200
C  2.37300 43.94100 21.60300
C  2.52300 43.88100 23.16900
C  1.10400 41.63800 20.83700
C  2.37700 45.39400 21.00600
C  2.57000 45.52900 19.49500
N  2.94300 43.87100 26.12800
C  3.92400 44.14100 25.21600
C  5.21500 44.29900 25.84500
C  4.86700 44.09300 27.21400
C  3.49400 43.92000 27.30500
C  6.47900 44.55800 25.22700
C  5.41700 44.02400 28.53900
O  6.56600 44.11400 28.95200
C  4.23200 44.00100 29.52200
C  4.35200 42.81800 30.39700
O  4.22500 41.67000 29.95600
O  4.86600 43.04800 31.67800
C  5.43800 41.95000 32.45500
H  -2.49700 42.64300 28.55100
H  -1.50100 42.62800 22.26800
H  4.53400 44.39700 23.16400
H  1.51900 42.40300 30.72400
H  -1.16200 43.65800 30.18200
H  -1.22800 40.72700 30.07000
H  -1.82400 41.76400 31.38700
H  -0.19800 41.20200 31.37200
H  0.18900 44.98700 31.38000
H  1.72900 45.30500 30.85500
H  1.15800 45.08200 33.25800
H  2.63900 44.15100 32.72600
H  -4.37000 43.14600 27.66300
H  -4.72300 41.51600 27.04100
H  -5.39100 42.97200 26.23300
H  -5.64200 41.28700 24.32900
H  -6.16600 41.89400 22.75300
H  -5.74800 43.06100 24.12500
H  0.25700 43.66500 20.85700
H  3.19700 43.47300 21.06500
H  0.58200 40.84500 21.37300
H  2.16600 41.40500 20.92100
H  0.70600 41.62800 19.82300
H  3.16800 45.99300 21.45800
H  1.38800 45.76200 21.27900
H  1.66600 45.93300 19.04000
H  2.64200 44.56800 18.98500
H  3.41000 46.16700 19.22200
H  7.36900 44.17900 25.72800
H  6.61400 45.63900 25.19400
H  6.49700 44.09800 24.23900
H  4.21000 44.91600 30.11400
H  5.92500 42.36900 33.33600
H  6.20200 41.45700 31.85400
H  4.65900 41.36200 32.94000

