158

Mg 1.17300 -2.54100 44.50600
C  4.67100 -2.21200 43.62000
C  0.55500 0.10200 42.47400
C  -2.04400 -3.70700 44.20900
C  2.01000 -5.57900 46.06000
N  2.50700 -1.37300 43.07300
C  3.88000 -1.25100 42.99000
C  4.33600 -0.14800 41.99500
C  3.00600 0.71700 42.01700
C  1.92800 -0.25900 42.54900
C  3.03700 1.99300 42.86000
C  4.77900 -0.60400 40.54500
C  6.19000 -0.07400 40.10500
H  6.29500 0.73700 38.84700
N  -0.57500 -1.85000 43.62500
C  -0.59100 -0.67800 42.86500
C  -1.93900 -0.39400 42.44000
C  -2.77600 -1.44800 42.88700
C  -1.88200 -2.37700 43.64300
C  -2.36200 0.84600 41.53300
C  -4.27300 -1.57500 42.65000
O  -4.89900 -0.63800 42.13100
C  -5.02700 -2.81300 43.02100
N  0.13100 -4.35700 45.11300
C  -1.20600 -4.61800 44.89600
C  -1.66400 -5.98700 45.53300
C  -0.35400 -6.34700 46.35200
C  0.66900 -5.37000 45.81400
C  -2.98000 -5.92000 46.34800
C  0.04000 -7.86800 46.09900
C  0.60100 -8.55200 47.36800
N  2.91200 -3.67900 44.93400
C  3.11800 -4.85000 45.64500
C  4.55300 -5.20200 45.62300
C  5.15000 -4.13300 44.93700
C  4.11200 -3.26900 44.45400
C  5.31200 -6.36700 46.25600
C  6.47200 -3.57100 44.48900
O  7.61700 -3.89700 44.71800
C  6.18300 -2.43000 43.56500
C  6.89500 -1.21100 44.10400
O  6.47200 -0.40400 44.91500
O  8.03100 -1.01400 43.31500
C  8.98100 0.03200 43.72400
H  0.34500 1.06300 41.99900
H  -3.06800 -4.08400 44.21800
H  2.30100 -6.54200 46.48600
H  5.05900 0.43100 42.57000
H  2.73300 0.98400 40.99600
H  2.84500 2.81500 42.17100
H  4.01100 2.19200 43.30600
H  2.24600 2.09400 43.60400
H  4.11900 -0.22800 39.76300
H  4.76200 -1.69000 40.46400
H  6.98600 -0.79200 39.90900
H  6.58800 0.63100 40.83500
H  -3.32000 0.68200 41.03900
H  -1.62500 0.89300 40.73100
H  -2.55600 1.75300 42.10600
H  -4.36500 -3.62900 42.73200
H  -5.91300 -2.77200 42.38800
H  -5.21600 -2.91300 44.09000
H  -1.83700 -6.75000 44.77300
H  -0.51500 -6.11800 47.40500
H  -2.79000 -6.20800 47.38200
H  -3.66300 -6.70200 46.01400
H  -3.49300 -4.97400 46.17400
H  0.79900 -7.82800 45.31900
H  -0.89900 -8.35800 45.84200
H  0.00200 -9.36200 47.78300
H  0.64800 -7.84600 48.19800
H  1.52100 -9.05100 47.06600
H  4.59900 -6.82600 46.94000
H  6.28300 -6.17100 46.71000
H  5.42200 -7.10400 45.46000
H  6.51900 -2.66400 42.55400
H  9.86300 -0.51300 44.06100
H  8.55700 0.75500 44.42100
H  9.33800 0.55400 42.83600
Mg 7.34700 2.44500 28.31100
C  8.88100 0.95100 31.01200
C  5.32600 4.26800 30.40000
C  5.62800 3.66200 25.53500
C  9.17300 0.33800 26.11300
N  7.18500 2.59500 30.42200
C  7.89000 1.90700 31.35500
C  7.62600 2.51000 32.78200
C  6.28900 3.35200 32.53300
C  6.23900 3.40700 31.01000
C  4.92900 2.74800 33.16100
C  8.91900 3.20500 33.34200
C  8.82600 4.33200 34.42600
H  9.52100 4.15600 35.82400
N  5.68500 3.76300 27.99600
C  5.13700 4.51900 29.00300
C  4.26600 5.51300 28.38600
C  4.30500 5.37900 26.96000
C  5.21900 4.22600 26.77600
C  3.44200 6.48700 29.20400
C  3.64200 6.13700 25.89000
O  3.74100 5.94100 24.73500
C  2.79000 7.34000 26.25500
N  7.41000 2.03500 26.15800
C  6.65100 2.71700 25.29600
C  6.96400 2.28700 23.86800
C  8.25500 1.38300 24.00800
C  8.26900 1.22900 25.52700
C  5.70100 1.73500 23.29500
C  9.50700 2.11100 23.46900
C  10.63300 1.28100 22.78100
N  8.73600 0.85800 28.46100
C  9.38200 0.11900 27.51800
C  10.25600 -0.85000 28.14700
C  10.19800 -0.48200 29.53800
C  9.17400 0.53200 29.68600
C  11.20300 -1.88500 27.44000
C  10.70100 -0.65200 30.93500
O  11.60500 -1.36700 31.35700
C  9.86800 0.25900 31.90400
C  9.25900 -0.52000 33.05000
O  8.61900 -1.55200 32.99200
O  9.78900 0.09000 34.19100
C  9.54800 -0.70600 35.42700
H  4.85600 4.94500 31.11600
H  5.32800 4.16400 24.61300
H  9.68700 -0.29400 25.38600
H  7.44200 1.58900 33.33300
H  6.32600 4.36200 32.94400
H  5.00400 1.77800 33.65400
H  4.14700 2.75800 32.40200
H  4.53400 3.46600 33.87900
H  9.44300 3.38700 32.40300
H  9.56700 2.43600 33.76200
H  7.78600 4.56700 34.65400
H  9.07300 5.22400 33.84900
H  2.39900 6.18500 29.10300
H  3.61700 7.50700 28.86100
H  3.63800 6.36400 30.26900
H  2.07200 7.06700 27.02900
H  2.33600 7.75900 25.35700
H  3.33000 8.18200 26.68800
H  7.06000 3.19600 23.27500
H  8.04500 0.36700 23.67200
H  4.82600 1.87500 23.93000
H  5.80700 0.68000 23.04500
H  5.43700 2.30200 22.40300
H  10.07400 2.65700 24.22400
H  9.18800 2.79400 22.68200
H  10.89900 1.82100 21.87300
H  10.27100 0.29300 22.49700
H  11.62600 1.22300 23.22800
H  12.21300 -1.51800 27.25800
H  10.69600 -2.42500 26.64000
H  11.32900 -2.60700 28.24600
H  10.52400 1.03600 32.29800
H  10.49400 -1.05700 35.84000
H  8.87600 -1.56000 35.34500
H  9.06800 0.03500 36.06600

