158

Mg -1.46100 17.77700 26.97600
C  -2.00300 15.83300 29.78400
C  -2.18500 20.53000 29.03800
C  -1.71700 19.82400 24.26500
C  -2.09500 14.99900 24.91900
N  -2.02500 18.16600 29.17200
C  -1.98300 17.18800 30.14900
C  -2.14400 17.78500 31.57300
C  -2.63500 19.25300 31.24900
C  -2.28700 19.35800 29.71100
C  -4.19300 19.60400 31.49700
C  -0.93800 17.75800 32.51500
C  -1.45500 17.56800 34.04100
H  -0.49200 16.78400 34.86900
N  -1.66800 19.86400 26.68700
C  -1.96300 20.81600 27.66500
C  -1.93100 22.13700 27.02600
C  -1.66000 21.86500 25.72500
C  -1.67300 20.46500 25.46900
C  -2.15300 23.41200 27.66100
C  -1.20700 22.83400 24.58800
O  -0.88000 22.60900 23.45200
C  -1.31300 24.32300 24.95800
N  -1.91100 17.39800 24.91900
C  -1.73700 18.40700 24.02500
C  -1.75300 17.86800 22.52200
C  -1.83200 16.30400 22.76700
C  -1.99900 16.17000 24.29000
C  -2.89800 18.51500 21.72300
C  -0.65800 15.53000 22.18800
C  0.74700 15.77600 22.82400
N  -1.82800 15.76900 27.24500
C  -2.03500 14.72600 26.33200
C  -2.22300 13.52100 27.05600
C  -2.19600 13.90300 28.46300
C  -1.92700 15.25900 28.49400
C  -2.34100 12.13600 26.47700
C  -2.35000 13.36200 29.80100
O  -2.62900 12.24100 30.20600
C  -2.37800 14.67900 30.73600
C  -1.35000 14.35200 31.77200
O  -0.15500 14.61000 31.66700
O  -1.89800 13.76500 32.94700
C  -0.91700 13.30500 33.94400
H  -2.45000 21.37500 29.67800
H  -1.73300 20.43800 23.36200
H  -2.33300 14.14200 24.28600
H  -3.05300 17.33000 31.96600
H  -2.07400 19.95000 31.87200
H  -4.27300 20.22700 32.38800
H  -4.68300 18.65300 31.70600
H  -4.67900 20.15700 30.69300
H  -0.39200 18.68400 32.33800
H  -0.20100 16.97700 32.32600
H  -2.51500 17.32200 34.09400
H  -1.40500 18.56300 34.48200
H  -1.23600 23.98300 27.80300
H  -2.38800 23.17600 28.69900
H  -2.97500 24.01000 27.26600
H  -2.37700 24.55300 25.02200
H  -0.85700 24.84000 24.11400
H  -0.67200 24.63300 25.78300
H  -0.79500 18.18800 22.11200
H  -2.79600 15.97800 22.37800
H  -3.80700 17.93100 21.86600
H  -2.66000 18.53700 20.66000
H  -3.14000 19.49200 22.14100
H  -0.86800 15.72000 21.13500
H  -0.90800 14.48000 22.33800
H  0.67800 16.25300 23.80100
H  1.35100 16.28300 22.07100
H  1.25200 14.82500 22.99300
H  -1.40100 11.58900 26.55800
H  -2.61600 12.14100 25.42200
H  -3.09800 11.63300 27.07800
H  -3.31100 14.77800 31.29100
H  -0.38000 12.49000 33.45800
H  -1.42200 12.86600 34.80500
H  -0.19600 14.04800 34.28500
Mg 54.71800 24.36900 44.64300
C  52.07600 26.36900 43.39200
C  52.83500 21.49700 44.04500
C  57.52900 22.53000 45.07000
C  56.52000 27.30500 45.32100
N  52.63500 24.02500 44.00400
C  51.78700 24.94800 43.36900
C  50.54400 24.22900 42.88700
C  50.67600 22.76400 43.47500
C  52.15500 22.70500 43.92300
C  49.67000 22.15900 44.56000
C  50.32200 24.33100 41.35500
C  48.89900 23.97400 40.93300
H  48.84200 22.79500 40.01700
N  55.24500 22.27700 44.52300
C  54.28700 21.30600 44.34500
C  54.96000 20.03000 44.35500
C  56.31400 20.27500 44.70400
C  56.42100 21.75000 44.75100
C  54.26200 18.69800 43.91200
C  57.31300 19.19900 44.95700
O  56.97200 17.99800 44.97700
C  58.70100 19.55200 45.40500
N  56.80000 24.89300 44.87700
C  57.71100 23.89800 45.14600
C  59.04100 24.47600 45.76000
C  58.69200 26.03900 45.78200
C  57.22800 26.11500 45.26700
C  59.43400 24.00400 47.16300
C  59.61300 26.83000 44.88000
C  59.94700 28.26400 45.39200
N  54.41800 26.47100 44.40900
C  55.22800 27.57300 44.76800
C  54.44500 28.76400 44.63000
C  53.24600 28.34200 44.08600
C  53.27600 26.91200 43.89700
C  54.98500 30.13600 44.94100
C  52.00400 28.78700 43.56100
O  51.56400 29.88000 43.34600
C  51.24700 27.55800 42.92200
C  51.28900 27.70200 41.40200
O  52.25800 27.57300 40.67700
O  49.99700 27.92000 41.06500
C  49.75100 28.00200 39.64800
H  52.25100 20.57500 44.01400
H  58.45500 22.06300 45.41200
H  57.07000 28.22700 45.52400
H  49.78700 24.71800 43.50000
H  50.61400 22.09500 42.61600
H  49.07800 23.00900 44.89700
H  50.23900 21.70800 45.37300
H  49.05400 21.41700 44.05000
H  51.00800 23.65900 40.83800
H  50.49900 25.31600 40.92400
H  48.31600 24.81400 40.55600
H  48.38800 23.68900 41.85200
H  54.04800 18.09600 44.79500
H  54.93000 18.01700 43.38500
H  53.38300 18.97900 43.33100
H  59.19900 20.04100 44.56900
H  59.24400 18.63500 45.63400
H  58.59900 20.13700 46.31900
H  59.84300 24.32400 45.03700
H  58.86300 26.47600 46.76600
H  59.11100 22.98000 47.34900
H  59.04800 24.62300 47.97300
H  60.51400 23.86200 47.13000
H  59.14400 27.07600 43.92700
H  60.59900 26.37600 44.77900
H  60.76600 28.14800 46.10300
H  59.18900 28.90600 45.84000
H  60.31400 28.85800 44.55400
H  54.76200 30.39900 45.97500
H  54.53100 30.95700 44.38600
H  56.07500 30.13600 44.94900
H  50.29400 27.29700 43.38300
H  49.64500 27.02900 39.16900
H  50.61200 28.47400 39.17300
H  48.86200 28.58400 39.40700

