158

Mg 47.44100 17.31500 28.73200
C  45.38300 17.31700 31.62200
C  49.74300 19.08500 30.42800
C  49.04700 17.59400 25.80400
C  44.65400 15.75500 27.02600
N  47.42000 18.36200 30.78900
C  46.56800 18.00200 31.81600
C  47.10800 18.47400 33.17400
C  48.48800 19.12000 32.71500
C  48.63400 18.80400 31.25200
C  48.61400 20.60700 33.16900
C  47.36200 17.39200 34.21300
C  46.92700 17.72500 35.62500
H  46.97600 19.19800 36.10900
N  49.15200 18.19300 28.22100
C  50.02800 18.84200 29.07000
C  51.20000 19.34700 28.33700
C  50.97600 18.85600 27.01400
C  49.73100 18.12300 26.96800
C  52.32200 20.24100 28.95300
C  51.90500 18.97500 25.78900
O  51.64700 18.49700 24.68700
C  53.20400 19.75100 25.90300
N  47.05100 16.48800 26.78000
C  47.86300 16.89200 25.71600
C  47.22500 16.52100 24.34400
C  45.90400 15.67600 24.81400
C  45.82300 16.03100 26.30100
C  46.81300 17.71500 23.50300
C  46.14200 14.16100 24.62100
C  45.14500 13.49300 23.61300
N  45.41900 16.70400 29.15400
C  44.38900 16.15200 28.37100
C  43.10700 16.14500 29.09700
C  43.50600 16.38100 30.38600
C  44.86800 16.73000 30.40300
C  41.76900 15.70300 28.47900
C  43.02600 16.51800 31.65500
O  41.88700 16.42200 32.09500
C  44.28200 16.99500 32.53200
C  43.84700 18.07400 33.44700
O  43.73000 19.27900 33.22500
O  43.35000 17.44100 34.53700
C  42.61400 18.35200 35.50900
H  50.57500 19.45300 31.03100
H  49.41900 17.82700 24.80400
H  43.80100 15.32600 26.49600
H  46.42900 19.25800 33.51100
H  49.34300 18.60500 33.15400
H  49.61700 20.67500 33.58800
H  47.91600 20.96500 33.92600
H  48.78900 21.30900 32.35400
H  48.42500 17.18500 34.33000
H  46.79800 16.52800 33.86200
H  47.43200 17.07700 36.34100
H  45.87700 17.43300 35.59800
H  52.07900 20.37200 30.00800
H  52.53500 21.13300 28.36400
H  53.22400 19.63900 29.05900
H  53.70100 19.59700 24.94500
H  53.83200 19.41400 26.72700
H  52.74400 20.73500 25.99900
H  47.83100 15.77700 23.82700
H  44.98600 15.95300 24.29600
H  47.60000 18.43100 23.73900
H  45.82600 18.11400 23.73900
H  47.03800 17.40600 22.48300
H  45.93100 13.71500 25.59300
H  47.12500 13.88400 24.24000
H  44.45500 14.18500 23.12900
H  44.55000 12.78100 24.18600
H  45.64200 12.82500 22.90900
H  41.65100 15.96300 27.42700
H  41.01200 16.27600 29.01300
H  41.66200 14.62700 28.61800
H  44.49000 16.12800 33.15900
H  42.51700 19.40400 35.23800
H  43.25900 18.34500 36.38700
H  41.59400 18.03100 35.71900
Mg 43.34500 41.70500 26.10700
C  42.70100 44.10500 28.47600
C  44.13200 39.52400 28.90900
C  44.37600 39.37900 23.99900
C  43.10900 44.02900 23.61800
N  43.31100 41.81100 28.50000
C  43.00900 42.91500 29.20000
C  43.04900 42.67100 30.67000
C  43.58300 41.16400 30.79100
C  43.70700 40.77600 29.36400
C  44.79200 40.80500 31.74200
C  41.65900 43.04800 31.33300
C  41.02600 42.20000 32.52600
H  40.43200 42.82500 33.79000
N  44.06000 39.70500 26.34700
C  44.29900 39.03200 27.59200
C  44.79900 37.69600 27.19600
C  44.79200 37.54800 25.76900
C  44.39900 38.90600 25.34600
C  45.29500 36.69800 28.20600
C  44.98400 36.26500 24.95200
O  44.93200 36.32500 23.68500
C  45.18300 34.91200 25.52800
N  43.63500 41.76200 24.16500
C  43.96100 40.58900 23.52500
C  43.87300 40.79600 21.94600
C  43.61400 42.31800 21.80600
C  43.39000 42.75500 23.26300
C  45.00700 40.32600 21.08900
C  42.42200 42.67500 20.88300
C  42.69700 42.74800 19.38900
N  43.01400 43.59800 26.06100
C  42.88400 44.47200 24.96000
C  42.43900 45.76600 25.42500
C  42.35300 45.65700 26.76300
C  42.74600 44.35800 27.11900
C  42.08700 46.93300 24.63400
C  41.98400 46.40600 27.99900
O  41.59500 47.51800 28.21700
C  42.32900 45.41200 29.12800
C  43.35600 46.13400 30.03300
O  44.51000 46.40000 29.61700
O  42.79300 46.52800 31.23200
C  43.80300 46.95000 32.25400
H  44.24500 38.86300 29.77000
H  44.82300 38.75600 23.22100
H  42.94700 44.72900 22.79600
H  43.75800 43.38200 31.09300
H  42.84800 40.51800 31.27100
H  45.63900 40.41200 31.18000
H  44.48400 40.07100 32.48700
H  45.17900 41.70800 32.21500
H  40.92900 43.02100 30.52400
H  41.71500 44.05800 31.74000
H  41.60300 41.29800 32.72900
H  40.15300 41.91200 31.94000
H  46.34600 36.54000 27.96500
H  44.81300 35.73000 28.06400
H  45.26900 36.99100 29.25500
H  46.16000 34.94300 26.01200
H  45.24600 34.16600 24.73600
H  44.42000 34.61400 26.24700
H  42.95600 40.27100 21.67700
H  44.49200 42.85800 21.45300
H  44.80200 39.29900 20.78600
H  45.92200 40.52700 21.64700
H  45.15800 40.94500 20.20500
H  41.93600 43.62600 21.10100
H  41.65600 41.90400 20.97200
H  42.63200 43.73500 18.93100
H  42.06300 42.07100 18.81700
H  43.72100 42.37500 19.38200
H  41.88000 47.83200 25.21400
H  41.32000 46.76100 23.87900
H  43.00100 47.15300 24.08200
H  41.33800 45.25700 29.55400
H  44.68300 47.43500 31.83200
H  44.12000 46.13000 32.89900
H  43.30400 47.73900 32.81600

