158

Mg 45.71300 4.96800 47.11500
C  43.64100 7.72300 46.66300
C  43.07800 2.90100 46.35200
C  47.98600 2.35000 46.95500
C  48.45800 7.16800 47.34000
N  43.75600 5.30600 46.33700
C  43.09100 6.51800 46.29900
C  41.58800 6.28600 45.80900
C  41.32900 4.79300 46.06600
C  42.81700 4.25400 46.34000
C  40.34400 4.55500 47.20300
C  41.33400 6.74900 44.34200
C  39.84200 7.21200 43.96900
H  39.53800 7.72900 42.57100
N  45.48200 2.90000 46.77500
C  44.31800 2.19700 46.59100
C  44.55500 0.78300 46.38700
C  45.98700 0.59000 46.48200
C  46.62500 1.97000 46.72100
C  43.53400 -0.27000 45.98600
C  46.70800 -0.66700 46.17900
O  46.20700 -1.75100 46.21700
C  48.15200 -0.69300 45.73300
N  47.94000 4.76400 47.24100
C  48.55900 3.56500 47.24200
C  50.07000 3.70100 47.32600
C  50.17600 5.32000 47.33400
C  48.77600 5.79600 47.35400
C  50.65000 2.94800 48.51600
C  50.87500 5.94300 46.10800
C  52.18900 6.73200 46.35200
N  46.01400 7.00700 47.11200
C  47.13200 7.74600 47.31100
C  46.84400 9.15000 47.29100
C  45.40800 9.18800 47.11600
C  45.02600 7.85900 46.97100
C  47.78200 10.32900 47.42000
C  44.24200 10.04900 46.93600
O  44.16100 11.23300 47.10100
C  43.08600 9.19300 46.55000
C  41.99600 9.29800 47.59800
O  41.94400 8.66200 48.66400
O  41.01200 10.18700 47.13700
C  39.90500 10.59900 48.04700
H  42.14400 2.37500 46.14600
H  48.66300 1.50200 46.83700
H  49.20900 7.95100 47.21400
H  41.06200 6.94800 46.49600
H  40.82000 4.25400 45.26800
H  39.62600 5.37600 47.20900
H  40.75500 4.44600 48.20600
H  39.75100 3.69500 46.89100
H  41.63500 5.90700 43.71800
H  41.95900 7.63300 44.21700
H  39.68500 8.10200 44.57800
H  39.10200 6.46100 44.24500
H  43.58600 -1.22500 46.50900
H  43.53300 -0.38400 44.90200
H  42.55500 0.17000 46.17700
H  48.34800 -1.61300 45.18200
H  48.60500 -0.59600 46.72000
H  48.50100 0.17300 45.17100
H  50.62300 3.27700 46.48700
H  50.62700 5.53700 48.30300
H  49.88800 2.51200 49.16100
H  51.41600 3.45000 49.10600
H  51.21100 2.10100 48.12000
H  50.22000 6.70500 45.68500
H  50.99600 5.20700 45.31400
H  52.31700 6.62000 47.42900
H  52.05200 7.80300 46.20200
H  53.02900 6.37700 45.75400
H  47.34100 11.26900 47.08700
H  48.66100 10.24800 46.78100
H  48.16500 10.25700 48.43800
H  42.60800 9.26000 45.57300
H  38.98000 10.11100 47.74100
H  39.72300 11.65900 47.87300
H  40.14300 10.38700 49.08900
Mg 47.41300 25.22800 28.51400
C  48.21800 27.27400 31.19700
C  46.44300 22.65900 30.73800
C  47.09000 23.08700 25.94300
C  48.69000 27.68000 26.35100
N  47.18300 25.09500 30.53700
C  47.46400 26.11700 31.49900
C  47.26700 25.65300 32.97500
C  46.89600 24.18000 32.76500
C  46.82900 23.94700 31.24700
C  47.75700 23.24800 33.51300
C  46.29100 26.46000 33.79600
C  46.73800 26.73200 35.25100
H  45.89800 27.54800 36.19000
N  46.73000 23.13700 28.37100
C  46.41200 22.28100 29.38500
C  46.13100 20.97300 28.82200
C  46.26800 21.07600 27.44200
C  46.70700 22.46100 27.17400
C  45.85200 19.76700 29.65900
C  45.91600 20.18300 26.33900
O  46.00100 20.43800 25.13400
C  45.43900 18.82300 26.63800
N  47.81000 25.32100 26.44000
C  47.52500 24.34000 25.55000
C  47.71200 24.78300 24.07200
C  48.03900 26.30800 24.25200
C  48.20000 26.48000 25.79200
C  48.76700 23.90100 23.33700
C  47.02800 27.25500 23.60800
C  47.39300 27.72700 22.18500
N  48.29900 27.05600 28.65700
C  48.82800 27.95200 27.72100
C  49.44200 29.04700 28.38300
C  49.23800 28.83200 29.78300
C  48.53700 27.59100 29.86600
C  50.10200 30.17200 27.68100
C  49.38400 29.41900 31.06100
O  50.00000 30.43700 31.41000
C  48.67700 28.44500 32.01000
C  49.61400 28.12800 33.04700
O  50.52300 27.29600 32.94800
O  49.35800 28.96400 34.05900
C  50.15500 28.91500 35.26000
H  46.26600 21.87900 31.48200
H  47.06400 22.55900 24.98700
H  49.12500 28.34200 25.59900
H  48.20200 25.68600 33.53400
H  45.89200 24.09000 33.17800
H  48.27600 23.70300 34.35600
H  48.50700 22.92000 32.79300
H  47.08400 22.46300 33.85900
H  45.32500 25.97000 33.91900
H  45.98500 27.34600 33.23900
H  47.67200 27.29400 35.25000
H  46.94100 25.77800 35.73800
H  46.46000 18.91700 29.35200
H  44.87100 19.43700 29.31600
H  46.13700 19.85500 30.70700
H  44.51700 18.83300 27.21900
H  46.24700 18.39000 27.22800
H  45.22200 18.28200 25.71700
H  46.74600 24.68800 23.57500
H  48.94100 26.63100 23.73300
H  49.35500 23.51700 24.17000
H  49.27900 24.54700 22.62400
H  48.27900 23.10300 22.77800
H  46.82300 28.10400 24.26000
H  46.08900 26.73900 23.40700
H  47.70600 28.77000 22.13700
H  46.54300 27.56600 21.52100
H  48.21000 27.06300 21.90200
H  49.33200 30.89900 27.42100
H  50.67800 29.72200 26.87300
H  50.76800 30.75200 28.32000
H  47.84100 29.05100 32.35800
H  50.21600 29.94800 35.60300
H  51.12600 28.42600 35.18800
H  49.65100 28.32000 36.02200

