158

Mg 7.97700 53.72800 40.51300
C  7.08200 50.38800 40.15000
C  11.14400 52.89600 39.27700
C  8.65000 56.97000 40.03900
C  4.55600 54.52900 40.92600
N  8.87200 51.90100 39.69100
C  8.36200 50.65200 39.71300
C  9.34500 49.60800 39.08500
C  10.68400 50.36300 39.31800
C  10.20800 51.85000 39.36300
C  11.44000 50.19700 40.65200
C  9.14300 49.18300 37.62100
C  8.09500 49.87100 36.70900
H  7.52600 48.98700 35.59600
N  9.71100 54.85800 39.85000
C  10.93000 54.27700 39.54600
C  11.93000 55.30600 39.56700
C  11.26600 56.51700 39.65100
C  9.83200 56.19500 39.84600
C  13.44600 55.02200 39.60100
C  11.92100 57.89700 39.67800
O  13.11500 57.99600 39.84300
C  11.10800 59.11400 39.62800
N  6.69300 55.44700 40.47900
C  7.25300 56.70900 40.29800
C  6.22200 57.84300 40.55600
C  4.86800 57.00300 40.85100
C  5.37200 55.57900 40.77800
C  6.63400 58.91100 41.59800
C  3.65100 57.33500 39.88200
C  2.28200 57.22300 40.55400
N  6.19800 52.73000 40.68500
C  4.91300 53.21400 41.02700
C  4.06500 52.09200 41.17300
C  4.91100 51.02000 40.96100
C  6.17300 51.42400 40.63200
C  2.66600 51.95600 41.66000
C  4.93900 49.56200 40.96700
O  4.10700 48.69900 41.21400
C  6.35900 49.03300 40.44700
C  6.21100 48.11200 39.25300
O  5.63300 48.51000 38.19500
O  6.49800 46.79600 39.47000
C  6.31600 45.85500 38.40500
H  12.15700 52.54500 39.07100
H  8.76400 58.04700 39.90000
H  3.49200 54.54700 41.17100
H  9.35400 48.66200 39.62800
H  11.45300 50.27200 38.55000
H  10.98800 49.25900 40.97300
H  11.29700 51.02300 41.35000
H  12.50800 50.05900 40.48600
H  9.00900 48.10400 37.53200
H  10.13200 49.35200 37.19500
H  8.48600 50.72300 36.15300
H  7.21600 50.16300 37.28400
H  13.88300 55.61600 38.79700
H  13.71100 53.98200 39.41300
H  13.92800 55.33600 40.52700
H  11.68100 60.02700 39.79200
H  10.31100 59.01500 40.36400
H  10.57100 59.18100 38.68200
H  6.14400 58.24000 39.54400
H  4.55600 57.11200 41.89000
H  6.46500 59.93500 41.26300
H  7.62600 58.67300 41.98100
H  5.87000 58.95300 42.37500
H  3.67300 56.58000 39.09600
H  3.75700 58.38000 39.59300
H  2.31000 57.34800 41.63600
H  1.86000 56.22000 40.49000
H  1.73600 57.97300 39.98100
H  2.27400 50.94600 41.54500
H  2.14500 52.82100 41.25000
H  2.70900 52.01600 42.74700
H  6.79500 48.46900 41.27200
H  6.70500 46.37100 37.52700
H  5.27200 45.54800 38.46800
H  6.90600 44.96000 38.60600
Mg 9.79900 47.36900 26.29200
C  7.60700 47.71900 28.92100
C  12.33300 48.35300 28.43000
C  11.86400 47.43500 23.68400
C  7.07000 47.27800 24.03900
N  9.85600 48.16500 28.32600
C  8.87200 48.06700 29.24900
C  9.41800 48.23400 30.70300
C  10.81200 48.87400 30.43600
C  11.04700 48.43700 28.97800
C  10.77200 50.42600 30.57400
C  9.47400 46.93400 31.53600
C  10.47800 46.96200 32.75800
H  10.08400 46.08100 34.00800
N  11.89000 47.64500 26.10000
C  12.75600 47.98500 27.10500
C  14.08300 48.11300 26.58200
C  13.95900 47.71200 25.18700
C  12.53400 47.60700 24.94300
C  15.34400 48.56000 27.35800
C  15.06300 47.47500 24.23200
O  14.87500 47.01300 23.13800
C  16.49300 47.50900 24.69100
N  9.47800 47.40000 24.19200
C  10.51600 47.39700 23.31800
C  10.14500 47.38000 21.87000
C  8.60200 47.12600 21.97500
C  8.35200 47.22000 23.46600
C  10.47000 48.61200 21.06100
C  8.13800 45.79200 21.27300
C  7.48500 45.92600 19.86100
N  7.72300 47.49700 26.35100
C  6.66800 47.51000 25.40300
C  5.41500 47.39800 26.09300
C  5.72200 47.34900 27.47900
C  7.16200 47.51500 27.58400
C  4.18200 47.43300 25.35600
C  5.18700 47.27000 28.76600
O  4.03400 47.24300 29.19800
C  6.37700 47.39400 29.78500
C  6.61700 46.04900 30.42200
O  7.11200 45.10000 29.81300
O  6.18300 46.01100 31.80600
C  6.49700 44.71400 32.51300
H  13.17100 48.54100 29.10400
H  12.57700 47.44200 22.85800
H  6.17300 47.07200 23.45100
H  8.85000 48.96800 31.27500
H  11.60000 48.42200 31.03800
H  10.10200 50.72000 31.38200
H  10.46500 51.00100 29.70000
H  11.76600 50.72600 30.90400
H  9.63400 46.05500 30.91200
H  8.49200 46.67200 31.93100
H  10.47400 47.99600 33.10400
H  11.42200 46.65200 32.31000
H  15.13800 48.82600 28.39500
H  15.75900 49.44000 26.86600
H  16.12100 47.80300 27.25300
H  16.65700 48.51000 25.09000
H  17.01200 47.30000 23.75500
H  16.73000 46.67500 25.35100
H  10.57900 46.46400 21.46900
H  7.97500 47.93400 21.59900
H  9.58000 49.22000 20.89900
H  11.04300 48.46000 20.14600
H  11.05800 49.25200 21.71900
H  7.35300 45.42200 21.93300
H  8.94600 45.06400 21.34800
H  7.44800 46.97600 19.57000
H  6.50700 45.45300 19.76900
H  8.13300 45.49400 19.09900
H  3.75100 46.43300 25.31000
H  4.31900 47.66200 24.29900
H  3.46000 48.01800 25.92600
H  6.14000 48.24700 30.42100
H  6.45300 44.75900 33.60100
H  7.50500 44.31800 32.39100
H  5.72900 43.98800 32.24600

