158

Mg 8.84500 3.35900 27.13200
C  9.93600 1.97600 30.11800
C  6.69300 5.27800 28.97100
C  7.92600 4.63400 24.37100
C  10.32400 0.59500 25.37300
N  8.27000 3.37600 29.28800
C  8.96700 2.88900 30.33500
C  8.35500 3.36900 31.65600
C  7.01500 4.04800 31.23300
C  7.38600 4.30500 29.74800
C  5.70900 3.25400 31.51800
C  9.40500 4.33000 32.32900
C  9.25900 4.56600 33.82600
H  10.45700 4.27500 34.85200
N  7.60100 4.83100 26.76500
C  6.88200 5.59800 27.58600
C  6.16500 6.63800 26.93100
C  6.48400 6.46600 25.55600
C  7.44500 5.30800 25.48700
C  5.17600 7.73200 27.57500
C  6.13200 7.50200 24.40700
O  6.59500 7.29300 23.29100
C  5.25000 8.63400 24.68800
N  8.92400 2.60100 25.16500
C  8.51700 3.40900 24.12900
C  8.83300 2.92700 22.73700
C  9.65900 1.62600 23.11300
C  9.58800 1.53300 24.62500
C  7.62600 2.70400 21.88400
C  11.12000 1.66300 22.65600
C  12.03900 2.71200 23.29300
N  10.00700 1.63500 27.63600
C  10.59500 0.68200 26.83800
C  11.46100 -0.11000 27.69300
C  11.28600 0.35700 28.98000
C  10.37000 1.39800 28.87900
C  12.38400 -1.28800 27.32000
C  11.66100 0.25500 30.35800
O  12.48100 -0.46100 30.88900
C  10.86100 1.28700 31.16300
C  10.12600 0.56400 32.22000
O  9.01000 0.00700 32.00900
O  10.76100 0.64100 33.44400
C  9.84600 0.09000 34.45500
H  6.09000 5.93700 29.60000
H  7.57000 5.12600 23.46300
H  10.87800 -0.20000 24.86900
H  8.24200 2.50400 32.31100
H  6.97500 5.02500 31.71300
H  5.34200 2.95200 30.53700
H  5.06900 3.90800 32.11000
H  5.90000 2.28300 31.97500
H  9.23100 5.25900 31.78600
H  10.41000 3.93600 32.17700
H  8.47200 3.84000 34.03100
H  8.97900 5.60400 34.00300
H  5.71600 8.67900 27.56100
H  4.97100 7.50500 28.62100
H  4.22900 7.81100 27.04100
H  4.23000 8.38400 24.97900
H  5.11600 9.19300 23.76200
H  5.65800 9.43200 25.30800
H  9.41100 3.75800 22.33300
H  9.21000 0.70400 22.74300
H  6.75100 3.04400 22.43800
H  7.47100 1.64400 21.68600
H  7.67900 3.19500 20.91200
H  11.10100 1.74200 21.56900
H  11.49600 0.64900 22.78700
H  12.62000 3.13800 22.47600
H  12.70900 2.21400 23.99400
H  11.43500 3.40100 23.88400
H  12.83000 -1.09900 26.34400
H  11.70700 -2.12400 27.14600
H  12.99300 -1.55600 28.18300
H  11.54800 2.00600 31.61000
H  9.03200 0.79800 34.61700
H  10.33500 0.05400 35.42800
H  9.41100 -0.87100 34.17900
Mg 0.54900 43.88000 25.93200
C  2.10100 43.68600 29.03900
C  -2.49300 42.86400 27.51100
C  -0.85600 43.20500 22.91300
C  3.65700 44.39400 24.49400
N  -0.08900 43.35100 27.96000
C  0.70100 43.43000 29.04600
C  -0.05000 43.23000 30.37000
C  -1.48800 42.75900 29.84900
C  -1.37000 43.02700 28.37100
C  -1.70900 41.22200 30.06800
C  -0.12700 44.53800 31.24600
C  0.54200 44.51100 32.59600
H  0.29800 43.30100 33.48900
N  -1.44500 43.40700 25.32600
C  -2.52900 43.06600 26.11700
C  -3.68500 42.82800 25.22400
C  -3.18200 42.87300 23.91400
C  -1.70600 43.09000 24.00300
C  -5.13800 42.57500 25.72000
C  -3.92600 42.77400 22.50700
O  -3.36700 42.72900 21.44400
C  -5.50800 42.62000 22.52100
N  1.27500 43.82900 23.99500
C  0.50500 43.64500 22.81300
C  1.24000 43.93100 21.49600
C  2.51600 44.65600 22.12000
C  2.50600 44.25800 23.62200
C  1.46100 42.66800 20.63300
C  2.71900 46.17500 21.79500
C  4.16700 46.57200 21.83200
N  2.58400 43.95200 26.58100
C  3.73000 44.14700 25.88700
C  4.80800 44.28100 26.79500
C  4.25100 44.08100 28.03900
C  2.87300 43.87200 27.86400
C  6.33500 44.44700 26.57800
C  4.50300 43.87700 29.47500
O  5.56000 43.81300 30.11000
C  3.14400 43.76600 30.17600
C  3.23600 42.47900 30.80700
O  3.13300 41.43400 30.16900
O  3.58900 42.57800 32.12000
C  4.14900 41.35000 32.71000
H  -3.43100 42.54900 27.97200
H  -1.24100 43.02700 21.90700
H  4.59200 44.85900 24.17600
H  0.49000 42.48900 30.95800
H  -2.36300 43.29800 30.21400
H  -0.70600 40.81000 29.95800
H  -2.33800 40.77200 29.30000
H  -2.03300 41.00000 31.08500
H  -1.17900 44.61400 31.52300
H  0.14200 45.43100 30.68200
H  0.28800 45.41400 33.15100
H  1.62200 44.56100 32.46100
H  -5.74000 43.44600 25.46000
H  -5.22900 42.41500 26.79500
H  -5.42700 41.60500 25.31600
H  -5.89200 42.45500 21.51400
H  -5.96100 43.52800 22.92000
H  -5.70200 41.79600 23.20800
H  0.73900 44.57900 20.77700
H  3.34500 44.23900 21.54800
H  1.59600 41.80000 21.27800
H  2.43500 42.64200 20.14500
H  0.66400 42.52800 19.90200
H  2.25300 46.74800 22.59700
H  2.33200 46.29700 20.78400
H  4.49700 47.47500 22.34500
H  4.48200 46.85200 20.82700
H  4.90400 45.84700 22.17900
H  6.82100 43.89400 27.38100
H  6.65800 45.48800 26.58500
H  6.67600 44.16600 25.58200
H  3.03700 44.52900 30.94700
H  3.38200 40.94400 33.37000
H  5.01300 41.48200 33.36100
H  4.37800 40.55800 31.99700

