158

Mg 48.65000 34.48500 27.53400
C  46.74100 33.09000 29.98100
C  48.86400 37.36100 29.58100
C  50.25800 36.13300 25.07800
C  48.23800 31.76500 25.49400
N  47.83400 35.11900 29.48400
C  47.20500 34.33100 30.34900
C  47.25100 34.90000 31.79500
C  47.59000 36.43000 31.46700
C  48.18300 36.27900 30.09700
C  46.40500 37.47900 31.66800
C  48.35500 34.19100 32.55500
C  48.20000 34.03000 34.10700
H  49.00100 35.07000 34.90200
N  49.59100 36.33400 27.38400
C  49.59900 37.38900 28.33600
C  50.43800 38.50300 27.82200
C  50.86700 38.05900 26.53900
C  50.20900 36.81300 26.26200
C  50.70200 39.74600 28.68000
C  51.80800 38.75900 25.54800
O  52.28100 38.27900 24.48600
C  52.25400 40.26600 25.77600
N  49.10800 34.04900 25.50800
C  49.76200 34.85900 24.74500
C  49.88200 34.27300 23.30500
C  49.56300 32.76300 23.58400
C  48.94600 32.81200 24.91600
C  48.93800 34.94100 22.20200
C  50.75000 31.78300 23.56500
C  51.17500 31.34200 22.19800
N  47.63600 32.75500 27.61500
C  47.56900 31.62200 26.76100
C  46.72800 30.60000 27.36500
C  46.34200 31.15300 28.59300
C  47.04200 32.42200 28.73500
C  46.54500 29.23400 26.85400
C  45.58700 30.86600 29.82100
O  44.97200 29.88900 30.18400
C  45.75400 32.14800 30.69000
C  46.10200 31.75800 32.05600
O  47.16200 31.33700 32.51000
O  45.03600 32.12700 32.89100
C  45.01900 32.03900 34.35000
H  48.84000 38.29700 30.14300
H  50.72900 36.56900 24.19500
H  48.25500 30.82200 24.94200
H  46.36100 34.92500 32.42300
H  48.29400 36.74600 32.23700
H  46.70300 38.50200 31.89600
H  45.60100 37.25700 32.36900
H  45.95000 37.60500 30.68500
H  49.34800 34.49800 32.22800
H  48.51400 33.16900 32.21100
H  48.43300 33.07200 34.57200
H  47.17200 34.27300 34.37300
H  50.14000 40.61600 28.33900
H  51.78400 39.86800 28.71900
H  50.39700 39.61900 29.71800
H  52.70500 40.40400 26.75900
H  51.32900 40.84100 25.73100
H  52.97000 40.47800 24.98200
H  50.87400 34.39500 22.86900
H  48.85700 32.48600 22.80100
H  48.40600 34.20000 21.60500
H  49.49400 35.58900 21.52300
H  48.12200 35.45200 22.71200
H  50.49100 30.83500 24.03700
H  51.62600 32.26400 23.99900
H  52.18900 31.59800 21.88800
H  50.63400 31.94300 21.46700
H  51.03500 30.27800 22.01100
H  45.48700 28.99300 26.74700
H  46.94700 28.58700 27.63400
H  47.05600 28.90200 25.95000
H  44.77800 32.63200 30.71300
H  45.40600 31.09300 34.72800
H  43.97100 32.00400 34.64700
H  45.51000 32.82000 34.93100
Mg 43.06000 41.38300 26.01600
C  41.87600 43.53800 28.43500
C  43.97200 39.21600 28.47800
C  44.34100 39.40000 23.71400
C  42.40900 43.83200 23.52000
N  42.96300 41.41200 28.24300
C  42.33500 42.37000 29.01600
C  42.52700 42.14200 30.58900
C  43.33400 40.77500 30.51600
C  43.47100 40.47600 29.03100
C  44.67200 40.80500 31.26500
C  41.15100 42.11700 31.32100
C  41.02900 42.83600 32.67800
H  40.55900 42.09700 33.94200
N  43.95800 39.49600 26.08600
C  44.19700 38.78500 27.20000
C  44.74200 37.51700 26.75600
C  44.83200 37.45400 25.36300
C  44.35900 38.81200 24.99000
C  45.06500 36.41000 27.75100
C  45.29200 36.34600 24.43900
O  45.31300 36.44200 23.20100
C  45.85600 35.09400 24.98600
N  43.62500 41.76100 23.96000
C  44.00700 40.65500 23.25900
C  43.82600 40.84300 21.79100
C  43.16000 42.28900 21.67100
C  43.04200 42.64000 23.07300
C  44.95900 40.57200 20.83100
C  41.84500 42.34100 20.86600
C  41.60300 43.69800 20.13300
N  42.32900 43.32500 25.94900
C  42.12400 44.18700 24.87500
C  41.62700 45.36500 25.33900
C  41.53300 45.23800 26.72100
C  41.90200 43.95400 27.05100
C  41.04700 46.48800 24.49700
C  41.21600 45.85900 27.98200
O  40.77800 46.99300 28.21000
C  41.48600 44.81800 29.17200
C  42.59400 45.34200 30.02300
O  43.80800 45.32100 29.64200
O  42.13000 45.85300 31.26000
C  43.21600 46.24300 32.21300
H  44.14600 38.48800 29.27300
H  44.75700 38.61100 23.08400
H  42.15800 44.54500 22.73200
H  43.03000 43.02700 30.98000
H  42.71700 39.97300 30.92200
H  45.48500 40.71500 30.54500
H  44.66900 39.98200 31.97900
H  44.65800 41.78300 31.74500
H  40.90000 41.10500 31.64000
H  40.41300 42.44400 30.58900
H  40.20800 43.55200 32.66000
H  41.89300 43.39900 33.03000
H  44.80900 36.57600 28.79800
H  46.13900 36.24500 27.66600
H  44.48600 35.53600 27.45100
H  46.62200 35.35100 25.71800
H  46.16200 34.29500 24.31200
H  44.94500 34.74200 25.47000
H  43.04000 40.13600 21.52400
H  43.89100 42.99300 21.27100
H  44.54500 39.77900 20.20800
H  45.97900 40.46300 21.19900
H  45.12600 41.46900 20.23500
H  40.99300 42.14000 21.51600
H  41.93600 41.54500 20.12600
H  41.17600 44.47800 20.76300
H  40.90700 43.39800 19.34900
H  42.51100 44.05200 19.64600
H  40.14000 46.91000 24.92800
H  40.78300 45.97400 23.57300
H  41.76600 47.27400 24.26400
H  40.59900 44.69200 29.79300
H  44.24400 46.31200 31.85800
H  43.15700 45.61600 33.10200
H  43.01300 47.26600 32.53100

