158

Mg 16.07500 52.11300 25.17700
C  17.80600 50.97900 28.00300
C  13.33700 52.84000 27.18700
C  14.08100 52.42000 22.46100
C  18.69600 50.82100 23.20900
N  15.57500 51.76700 27.37800
C  16.57300 51.51000 28.37700
C  16.03700 51.82000 29.79000
C  14.53200 52.12700 29.45900
C  14.42700 52.28600 27.93000
C  13.57200 51.19700 30.28000
C  16.81000 52.83200 30.65500
C  17.08900 52.51800 32.06200
H  15.97500 51.84100 32.92300
N  14.03800 52.72900 24.85900
C  13.16100 53.05500 25.78300
C  11.98600 53.58700 25.21700
C  12.12400 53.53000 23.77000
C  13.49300 52.93900 23.61600
C  10.71100 54.07800 25.93800
C  11.26300 54.02000 22.66100
O  11.63100 54.00200 21.49000
C  9.95700 54.65900 22.99800
N  16.37300 51.63900 23.18200
C  15.36200 51.88200 22.27700
C  15.77700 51.29300 21.01300
C  17.33300 51.12900 21.11700
C  17.50800 51.25000 22.61800
C  15.10500 49.90000 20.70000
C  18.14800 52.18600 20.24600
C  19.39600 51.82300 19.33000
N  17.94900 51.26000 25.50900
C  18.90500 50.82900 24.61600
C  19.99900 50.31600 25.34700
C  19.58800 50.31200 26.68500
C  18.35300 50.89500 26.75100
C  21.28800 49.89400 24.71900
C  19.99600 49.93900 28.01100
O  21.06300 49.47300 28.50300
C  18.89900 50.45400 28.89300
C  18.52100 49.43000 29.89500
O  17.79400 48.46300 29.74500
O  19.19600 49.68400 31.11200
C  18.67000 48.97100 32.22400
H  12.57100 53.23400 27.85800
H  13.54700 52.45500 21.50900
H  19.46000 50.29200 22.63600
H  16.10100 50.90600 30.38200
H  14.29300 53.12500 29.82600
H  12.86500 50.84600 29.52700
H  13.07600 51.90200 30.94700
H  13.90400 50.33300 30.85600
H  16.16900 53.71300 30.63800
H  17.76900 53.07600 30.19700
H  17.41300 53.43300 32.55800
H  17.94100 51.84900 31.94100
H  10.75000 55.16700 25.92400
H  10.74800 53.80400 26.99200
H  9.86000 53.64300 25.41500
H  9.22100 53.97700 23.42300
H  9.54200 55.23000 22.16700
H  10.26200 55.36600 23.76900
H  15.51100 51.97600 20.20700
H  17.65100 50.20700 20.63000
H  14.43400 50.04400 19.85300
H  14.39300 49.68100 21.49600
H  15.79900 49.06000 20.66900
H  18.45100 52.99900 20.90400
H  17.36900 52.53500 19.56900
H  19.57500 50.74800 19.30200
H  20.28200 52.36600 19.65700
H  19.16800 52.13600 18.31100
H  21.16800 48.83800 24.48000
H  22.13900 50.00900 25.39100
H  21.51400 50.52000 23.85600
H  19.31100 51.30200 29.44000
H  19.33000 48.11200 32.34600
H  17.59700 48.77600 32.23000
H  18.82300 49.62100 33.08500
Mg -2.19000 34.18100 27.67100
C  -3.50400 32.48500 30.47500
C  -0.72800 36.43200 29.77900
C  -1.62400 36.13400 25.06700
C  -3.83700 31.94500 25.63700
N  -2.09200 34.43600 29.84300
C  -2.70000 33.57300 30.78600
C  -2.35900 34.01300 32.18200
C  -1.44100 35.24100 31.96600
C  -1.39400 35.40600 30.46000
C  -1.75900 36.58900 32.70200
C  -1.80500 32.97100 33.19900
C  -2.46900 32.74600 34.56500
H  -1.52900 32.66500 35.72100
N  -1.29800 36.08800 27.43500
C  -0.65900 36.79700 28.38800
C  -0.12000 38.02900 27.86500
C  -0.52000 38.01800 26.48700
C  -1.11500 36.67400 26.25300
C  0.66800 38.95000 28.69100
C  -0.35300 39.16900 25.49800
O  -0.81200 38.98400 24.36600
C  0.30000 40.53200 25.78000
N  -2.84300 34.10900 25.54100
C  -2.32700 34.95800 24.72000
C  -2.43200 34.49800 23.30000
C  -3.06500 33.05800 23.42200
C  -3.28300 33.01100 24.95000
C  -3.30500 35.39700 22.38200
C  -2.12000 31.85000 22.80500
C  -0.82200 31.57100 23.53800
N  -3.39300 32.50800 27.93800
C  -3.97400 31.67500 27.01400
C  -4.65200 30.61300 27.65800
C  -4.44600 30.86100 29.00200
C  -3.78400 32.08000 29.15600
C  -5.47400 29.56600 27.07900
C  -4.88100 30.46000 30.34400
O  -5.68200 29.57300 30.74100
C  -4.26200 31.50700 31.31100
C  -5.45500 32.14500 31.99800
O  -6.46600 32.52400 31.46700
O  -5.27700 32.10100 33.34100
C  -6.43100 32.54500 34.16400
H  -0.23900 37.15300 30.43800
H  -1.36100 36.73700 24.19500
H  -4.23800 31.16800 24.98300
H  -3.24800 34.33900 32.72200
H  -0.39800 35.04500 32.21600
H  -0.84600 36.84400 33.24000
H  -2.49200 36.33400 33.46800
H  -1.94800 37.48400 32.10900
H  -0.73100 33.12300 33.30500
H  -1.84900 32.00500 32.69600
H  -3.03400 31.81900 34.47700
H  -3.06200 33.62400 34.82100
H  1.60000 38.97000 28.12700
H  0.95700 38.67800 29.70600
H  0.23700 39.94700 28.78000
H  1.33800 40.43800 26.10100
H  -0.28100 40.96400 26.59400
H  0.29800 41.24800 24.95700
H  -1.47000 34.30400 22.82700
H  -4.08600 33.00600 23.04500
H  -3.92800 34.82600 21.69400
H  -2.72100 36.07200 21.75500
H  -3.86600 36.16600 22.91400
H  -1.87600 32.10500 21.77400
H  -2.70400 30.93300 22.73300
H  -0.60300 32.29700 24.32100
H  0.05600 31.64400 22.89700
H  -0.85600 30.56800 23.96400
H  -5.60700 28.78000 27.82200
H  -4.99400 29.21200 26.16700
H  -6.46800 29.97100 26.88600
H  -3.61900 31.00800 32.03600
H  -7.19800 31.77900 34.27100
H  -6.85700 33.47300 33.78200
H  -6.11300 32.78600 35.17900

