158

Mg 44.24500 4.43000 46.87500
C  42.51200 7.55800 46.63200
C  41.38400 2.83100 45.89100
C  46.15800 1.77900 46.14700
C  47.30800 6.31500 47.07400
N  42.19100 5.13400 46.17300
C  41.71600 6.43700 46.24000
C  40.19400 6.45200 45.89000
C  39.79400 4.94800 45.74700
C  41.17900 4.22900 46.00000
C  38.59400 4.43600 46.64900
C  39.71700 7.51700 44.78800
C  40.68800 7.60700 43.53800
H  39.98800 7.85900 42.19700
N  43.85200 2.52400 46.26200
C  42.56900 2.09600 45.87800
C  42.70700 0.70200 45.60200
C  44.05100 0.43800 45.42500
C  44.81000 1.62500 45.94800
C  41.59100 -0.21500 45.41300
C  44.57600 -0.82400 44.86300
O  43.80000 -1.76200 44.56600
C  46.04100 -1.18700 44.77600
N  46.37700 4.10500 46.74600
C  46.88900 2.86300 46.66200
C  48.45300 2.83900 46.76100
C  48.77600 4.35300 46.87500
C  47.39500 5.01500 46.89100
C  49.03500 2.00400 47.92900
C  49.70200 4.91900 45.75800
C  50.95900 5.52600 46.29100
N  44.81300 6.48100 46.87900
C  46.11300 7.09700 47.01000
C  45.95200 8.55800 47.06300
C  44.52700 8.75400 47.02900
C  43.92400 7.50300 46.89000
C  47.06500 9.50800 47.05200
C  43.53500 9.79300 46.96400
O  43.70900 11.01100 47.09700
C  42.13300 9.09500 46.86300
C  41.35900 9.19500 48.12700
O  41.54200 8.57200 49.14300
O  40.47200 10.16000 47.94900
C  39.57900 10.36300 49.07100
H  40.47800 2.38800 45.47400
H  46.84100 0.97300 45.86800
H  48.24100 6.87100 47.19600
H  39.81800 6.75700 46.86600
H  39.57100 4.73400 44.70200
H  39.01400 3.70800 47.34300
H  37.85200 4.04500 45.95300
H  38.14200 5.24500 47.22200
H  39.36400 8.43900 45.24900
H  38.75700 7.18300 44.39700
H  41.21700 6.65400 43.54500
H  41.38300 8.42200 43.74300
H  41.50100 -0.54300 44.37800
H  40.67800 0.32600 45.66300
H  41.59800 -1.09000 46.06300
H  46.24300 -2.21200 44.46700
H  46.30600 -1.05800 45.82500
H  46.42500 -0.45500 44.06500
H  48.89800 2.46400 45.84000
H  49.21800 4.36200 47.87100
H  49.93000 1.49800 47.56800
H  48.18200 1.41500 48.26700
H  49.29600 2.62000 48.79000
H  49.14600 5.71700 45.26600
H  49.90200 4.07500 45.09900
H  50.78500 5.99800 47.25900
H  51.19100 6.27200 45.53200
H  51.77600 4.80600 46.34400
H  46.71900 10.44100 46.60900
H  48.05700 9.28500 46.66000
H  47.25200 9.78300 48.09000
H  41.47300 9.50700 46.10000
H  40.14300 10.65700 49.95600
H  38.86400 9.54200 49.13500
H  39.01000 11.24500 48.77500
Mg 41.06100 9.48700 29.75700
C  42.63300 10.32400 32.83000
C  38.57100 7.94200 31.59800
C  39.65600 8.70600 26.92400
C  43.88600 10.66600 27.95900
N  40.75900 9.14300 31.93700
C  41.42600 9.65200 32.96600
C  40.79600 9.20800 34.28100
C  39.58500 8.41300 33.91400
C  39.67200 8.47200 32.34300
C  39.45100 7.03800 34.56600
C  40.49000 10.39000 35.26800
C  40.80800 10.14600 36.77400
H  41.16800 11.39100 37.67400
N  39.39600 8.46600 29.30400
C  38.46400 7.89700 30.16100
C  37.30800 7.49700 29.44500
C  37.51400 7.80700 28.08000
C  38.93300 8.34800 28.07900
C  36.08200 6.78200 30.06900
C  36.69000 7.46900 26.89900
O  37.00300 7.70600 25.72600
C  35.26000 6.83300 27.01500
N  41.78000 9.49600 27.74500
C  40.90000 9.17700 26.80900
C  41.37700 9.47200 25.43500
C  42.79900 10.11800 25.73600
C  42.86400 10.13000 27.21400
C  41.26400 8.28800 24.45400
C  43.11800 11.45300 25.05700
C  41.98400 12.49600 25.40700
N  42.91800 10.30300 30.25800
C  43.95000 10.70700 29.41800
C  45.00300 11.30700 30.26500
C  44.48100 11.23600 31.60500
C  43.23100 10.60100 31.55800
C  46.27100 11.92400 29.76200
C  44.74300 11.51900 33.01000
O  45.61900 12.19900 33.46400
C  43.57400 10.90200 33.84400
C  44.18400 10.02300 34.87600
O  44.68400 8.93200 34.63900
O  44.14500 10.63300 36.11100
C  44.66800 9.74000 37.15200
H  37.69900 7.54400 32.12000
H  39.08300 8.53200 26.01000
H  44.72800 11.15000 27.45900
H  41.61000 8.63000 34.71900
H  38.65900 8.90800 34.20800
H  38.45700 7.04300 35.01300
H  40.30300 6.95600 35.24100
H  39.47300 6.30600 33.75900
H  39.45100 10.70700 35.17700
H  41.07200 11.25700 34.95500
H  41.63100 9.44700 36.92400
H  40.05000 9.72000 37.43100
H  35.20700 7.43100 30.06900
H  36.30800 6.60600 31.12100
H  35.80200 5.81000 29.66200
H  35.36900 5.86400 27.50400
H  35.01900 6.71600 25.95900
H  34.44200 7.37000 27.49300
H  40.69700 10.25100 25.09200
H  43.60200 9.45100 25.42300
H  40.82600 7.35500 24.80700
H  42.22100 8.02800 24.00000
H  40.64700 8.66300 23.63700
H  43.12000 11.21900 23.99200
H  44.10400 11.80500 25.36000
H  41.21000 12.49300 24.63900
H  42.45500 13.47100 25.52500
H  41.53500 12.33900 26.38700
H  46.79400 12.27300 30.65200
H  46.04600 12.69800 29.02800
H  46.79800 11.15300 29.20100
H  42.96500 11.66900 34.32400
H  45.74100 9.73000 36.95800
H  44.16300 8.77400 37.14300
H  44.36500 10.18300 38.10100

