158

Mg 24.65600 -4.33600 45.48200
C  26.76600 -1.97800 43.95200
C  22.19500 -3.48600 43.17600
C  22.92600 -7.22600 46.35400
C  27.41300 -5.54800 47.17700
N  24.58000 -2.84200 43.83700
C  25.50400 -1.95900 43.38900
C  25.05100 -1.04000 42.27100
C  23.47000 -1.44100 42.19500
C  23.36300 -2.68200 43.13900
C  22.59200 -0.24000 42.73800
C  25.81300 -1.42300 40.93200
C  26.53100 -0.28300 40.17000
H  26.20500 -0.32400 38.70800
N  22.71400 -5.14300 44.94700
C  21.87900 -4.61900 43.97700
C  20.70300 -5.47000 43.92300
C  20.81800 -6.49600 44.89700
C  22.16400 -6.37500 45.48600
C  19.46100 -5.15100 43.12800
C  19.81300 -7.57000 45.16900
O  18.72800 -7.62400 44.51300
C  19.96400 -8.58500 46.24300
N  25.02400 -6.06500 46.65200
C  24.16400 -7.08500 46.91000
C  24.85100 -8.25500 47.64600
C  26.29600 -7.77800 47.79900
C  26.25000 -6.37400 47.20200
C  24.07800 -8.82700 48.89000
C  27.47200 -8.67800 47.24700
C  28.54000 -9.07800 48.35600
N  26.66600 -3.86200 45.69600
C  27.67100 -4.31500 46.47300
C  28.90700 -3.59900 46.30300
C  28.58600 -2.72700 45.28300
C  27.19600 -2.86500 45.02700
C  30.21100 -3.86500 47.03300
C  29.14700 -1.72300 44.34900
O  30.29900 -1.21500 44.22200
C  27.93800 -1.20100 43.57300
C  27.86700 0.22900 43.97600
O  27.52400 0.70300 45.02300
O  28.35400 1.02500 42.90200
C  28.86200 2.42300 43.12200
H  21.44500 -3.26100 42.41400
H  22.49000 -8.21800 46.49200
H  28.31500 -6.09900 47.45100
H  25.23600 0.00200 42.53100
H  23.10900 -1.74100 41.21100
H  23.25000 0.62200 42.84700
H  22.16800 -0.43200 43.72400
H  21.76300 0.06500 42.10000
H  25.03700 -1.86000 40.30400
H  26.54800 -2.20200 41.14000
H  27.60400 -0.17700 40.32900
H  26.08400 0.65200 40.50600
H  19.47600 -4.20000 42.59500
H  18.61900 -5.15100 43.81900
H  19.21400 -5.96700 42.44800
H  18.97100 -8.79100 46.64300
H  20.56500 -8.26000 47.09200
H  20.34100 -9.53200 45.85600
H  24.75100 -9.07700 46.93700
H  26.52400 -7.55800 48.84200
H  24.01800 -9.91500 48.91600
H  23.08100 -8.38800 48.94000
H  24.67200 -8.69800 49.79500
H  28.02100 -8.23500 46.41500
H  27.08000 -9.59900 46.81500
H  29.49300 -8.57800 48.18300
H  28.47400 -10.16600 48.36600
H  28.12900 -8.92200 49.35400
H  30.03000 -4.23400 48.04200
H  30.84100 -2.98000 47.12600
H  30.76200 -4.57000 46.41100
H  28.17100 -1.21000 42.50900
H  28.37400 3.02000 42.35200
H  29.93200 2.54300 42.95300
H  28.63700 2.76000 44.13400
Mg 46.79500 16.81600 28.30200
C  45.38100 16.58400 31.51500
C  49.35400 18.62900 29.73000
C  47.69700 17.73700 25.22300
C  43.80700 15.53700 26.95900
N  47.22200 17.57100 30.42900
C  46.67300 17.12500 31.59900
C  47.41400 17.53800 32.84700
C  48.68500 18.22500 32.23100
C  48.37300 18.14900 30.64100
C  49.04600 19.65100 32.72800
C  47.69000 16.26100 33.78000
C  47.24600 16.32400 35.23300
H  46.97400 17.68300 35.88400
N  48.31100 17.95000 27.54300
C  49.29900 18.51100 28.27900
C  50.19100 19.15900 27.36400
C  49.68100 19.01700 26.08200
C  48.46300 18.29600 26.28000
C  51.43300 19.78000 27.84000
C  50.27400 19.53200 24.74500
O  49.89900 19.21900 23.60900
C  51.43800 20.53700 24.75300
N  45.81000 16.73500 26.33700
C  46.53100 17.02600 25.20100
C  45.71800 16.64100 23.97200
C  44.48300 15.89600 24.58700
C  44.70500 16.02900 26.05000
C  45.27000 17.86300 22.99900
C  44.46500 14.40900 24.07000
C  43.38200 14.12300 22.91300
N  44.93600 16.09100 29.04600
C  43.86600 15.61100 28.40000
C  42.84400 15.31900 29.34400
C  43.38000 15.66600 30.62800
C  44.70900 16.11100 30.37300
C  41.55000 14.63800 29.09000
C  43.09300 15.69200 32.00400
O  42.06800 15.36500 32.61600
C  44.42000 16.32400 32.70000
C  43.92700 17.51100 33.49000
O  43.63500 18.62100 33.00300
O  43.66500 17.12800 34.80700
C  42.91700 18.02500 35.62000
H  50.16600 19.13500 30.25500
H  48.10900 17.89800 24.22400
H  42.91900 15.12000 26.47900
H  46.92400 18.36500 33.36000
H  49.55900 17.58500 32.34700
H  48.41000 19.89000 33.58000
H  48.63900 20.30000 31.95300
H  50.11100 19.86500 32.82600
H  48.72600 15.92300 33.81600
H  47.17800 15.43300 33.29000
H  48.05200 15.83400 35.77900
H  46.33600 15.73200 35.33500
H  51.54500 19.67500 28.91900
H  51.34500 20.80100 27.46800
H  52.24500 19.25200 27.33900
H  52.30800 20.03000 25.16800
H  51.23900 21.35700 25.44300
H  51.65800 20.99300 23.78700
H  46.38600 15.96700 23.43600
H  43.57600 16.40800 24.26500
H  44.20200 18.08300 23.00900
H  45.49400 17.53400 21.98500
H  45.75500 18.81200 23.22800
H  44.26600 13.66300 24.83900
H  45.48900 14.18400 23.77300
H  42.68600 14.96100 22.88300
H  42.86100 13.17100 23.02000
H  43.79300 14.26900 21.91400
H  40.95900 15.41900 28.61200
H  41.15100 14.28900 30.04200
H  41.67600 13.76400 28.45000
H  44.93400 15.63500 33.37000
H  42.97300 19.03600 35.21600
H  43.35300 18.08200 36.61800
H  41.87700 17.72000 35.73900

