158

Mg 41.37900 8.41800 29.30600
C  43.46700 9.36500 32.09100
C  39.13800 7.12500 31.62600
C  39.66900 7.38100 26.76600
C  44.13500 9.29400 27.18300
N  41.35600 8.32200 31.60100
C  42.25300 8.80700 32.50200
C  41.63100 8.79100 33.91300
C  40.39100 7.80700 33.78400
C  40.23800 7.73300 32.21900
C  40.57600 6.46500 34.60600
C  41.22000 10.14600 34.47900
C  40.91300 10.13900 35.99200
H  41.58400 11.28900 36.82900
N  39.65300 7.42700 29.17300
C  38.87500 6.94700 30.19600
C  37.70900 6.33700 29.52200
C  37.67700 6.50900 28.15700
C  39.06700 7.05000 27.97100
C  36.77500 5.44000 30.31700
C  36.78200 6.10600 27.09700
O  36.90800 6.28600 25.90900
C  35.45100 5.52500 27.52800
N  42.02700 8.11500 27.29700
C  40.95700 7.88400 26.44400
C  41.41700 8.07700 24.98700
C  42.68400 8.85500 25.12300
C  42.96800 8.74200 26.62800
C  41.60700 6.65200 24.19900
C  42.71300 10.22700 24.58000
C  41.63600 11.15500 25.18800
N  43.38300 9.22700 29.52500
C  44.40500 9.46000 28.56100
C  45.59100 9.92800 29.16200
C  45.25100 9.96800 30.57600
C  43.90400 9.46900 30.73800
C  46.79700 10.37900 28.49900
C  45.68500 10.35100 31.84900
O  46.75600 10.89200 32.11000
C  44.57300 9.99000 32.87800
C  45.13400 9.03700 33.90300
O  45.15700 7.81400 33.92500
O  45.72500 9.77500 34.92100
C  46.21400 9.12200 36.12800
H  38.35300 6.82700 32.32400
H  38.94000 7.25600 25.96200
H  44.88000 9.57700 26.43700
H  42.33500 8.39800 34.64700
H  39.47100 8.28100 34.12700
H  39.92500 6.22800 35.44800
H  41.53700 6.37000 35.11100
H  40.41500 5.61800 33.94000
H  40.28900 10.56500 34.09600
H  41.95800 10.92100 34.27000
H  41.22100 9.28400 36.59300
H  39.82700 10.22500 35.96900
H  36.57700 4.50500 29.79300
H  35.88100 6.02600 30.53000
H  37.17900 5.19700 31.30000
H  35.48800 4.47100 27.80300
H  34.77400 5.51900 26.67400
H  34.99500 6.24800 28.20400
H  40.70900 8.67700 24.41500
H  43.46400 8.36700 24.54000
H  41.06700 6.64900 23.25200
H  41.19000 5.81500 24.76000
H  42.67600 6.49000 24.05800
H  42.55400 10.12600 23.50600
H  43.67600 10.71900 24.71400
H  42.04300 12.09400 25.56400
H  41.02800 10.64400 25.93400
H  40.83900 11.34000 24.46700
H  46.96300 9.85300 27.55900
H  47.72600 10.17600 29.03100
H  46.68100 11.43700 28.26600
H  44.31100 10.90400 33.41100
H  45.40200 8.92300 36.82800
H  46.99300 9.71000 36.61300
H  46.60800 8.15700 35.81000
Mg 0.13800 43.68700 25.52500
C  2.21900 43.44500 28.32500
C  -2.49200 43.13700 27.72300
C  -1.76000 43.17900 22.80300
C  3.09900 43.91200 23.50700
N  -0.15300 43.51300 27.74100
C  0.87700 43.36200 28.63900
C  0.30700 43.48000 30.09700
C  -1.26600 43.31400 29.90000
C  -1.28800 43.19800 28.34300
C  -1.86500 42.03000 30.63600
C  0.73900 44.81100 30.75700
C  0.88400 44.70500 32.27000
H  0.44000 43.45800 33.11500
N  -1.87300 43.29500 25.32200
C  -2.81500 43.17900 26.31700
C  -4.18600 43.10200 25.69900
C  -3.92400 42.83900 24.33300
C  -2.50400 43.18000 24.05800
C  -5.45900 43.07900 26.61000
C  -4.97200 42.56600 23.22600
O  -4.63600 42.20700 22.06000
C  -6.43800 42.63400 23.59100
N  0.60100 43.31500 23.38400
C  -0.37600 43.24100 22.46000
C  0.24300 43.39300 21.06900
C  1.57500 44.19100 21.39500
C  1.81200 43.77700 22.88500
C  0.44700 41.98600 20.33300
C  1.72000 45.73000 21.20400
C  2.54500 46.20500 19.90700
N  2.24700 43.73100 25.86500
C  3.32300 43.84200 24.93300
C  4.55200 43.90500 25.61600
C  4.20100 43.73000 26.96600
C  2.82200 43.62400 27.02000
C  5.86800 44.12600 24.99700
C  4.75600 43.55900 28.28300
O  5.88800 43.47000 28.71000
C  3.49600 43.58000 29.20700
C  3.66100 42.52800 30.22600
O  3.51800 41.30800 30.16400
O  4.13000 43.12200 31.36200
C  4.49900 42.27800 32.43800
H  -3.40100 42.98400 28.31000
H  -2.44200 43.24200 21.95300
H  3.96500 44.12200 22.87600
H  0.66400 42.62900 30.67600
H  -1.85000 44.19900 30.15000
H  -2.56000 41.57200 29.93300
H  -2.45700 42.55000 31.38900
H  -1.10100 41.33200 30.98000
H  0.01700 45.61500 30.61300
H  1.68300 45.11300 30.30400
H  0.37100 45.55800 32.71300
H  1.91900 44.89600 32.55400
H  -6.27100 43.49100 26.01000
H  -5.40400 43.63400 27.54700
H  -5.66800 42.02700 26.80400
H  -7.05800 42.37000 22.73400
H  -6.59100 43.68900 23.81400
H  -6.52300 41.87800 24.37200
H  -0.28200 44.14400 20.47900
H  2.37100 43.72000 20.81700
H  1.46000 41.61200 20.18400
H  -0.01100 42.08200 19.34900
H  -0.18100 41.19600 20.74600
H  2.13100 46.20700 22.09300
H  0.77100 46.26400 21.15200
H  3.33000 46.87900 20.24800
H  1.92100 46.69300 19.15700
H  3.07900 45.44200 19.34200
H  5.79400 43.97900 23.91900
H  6.50400 43.38200 25.47700
H  6.13300 45.16500 25.19200
H  3.62000 44.54200 29.70400
H  4.37900 42.92200 33.30900
H  5.55600 42.01500 32.39600
H  3.83300 41.44200 32.65100

