158

Mg 15.76400 -2.11500 27.64300
C  14.60600 0.13700 30.19400
C  17.78500 -3.42100 30.04000
C  17.08700 -3.93800 25.19400
C  13.81500 -0.25900 25.39000
N  16.33800 -1.50200 29.79100
C  15.60800 -0.74200 30.64000
C  16.10900 -0.85400 32.04900
C  17.22700 -1.90000 31.96900
C  17.19200 -2.24900 30.49600
C  18.62800 -1.55000 32.53400
C  15.08200 -1.26500 33.16900
C  15.15100 -0.64700 34.56000
H  16.43200 0.09900 34.99700
N  17.11800 -3.56600 27.65400
C  17.73900 -4.06200 28.78200
C  18.50400 -5.19300 28.41200
C  18.27100 -5.39400 27.00700
C  17.41200 -4.29200 26.56000
C  19.33200 -5.89800 29.43600
C  18.98500 -6.36300 26.01700
O  18.84000 -6.29000 24.79300
C  19.93500 -7.49100 26.47200
N  15.68500 -1.95900 25.52600
C  16.32500 -2.81800 24.72600
C  16.11800 -2.53200 23.30000
C  14.86400 -1.54100 23.36700
C  14.70100 -1.23900 24.83200
C  17.27500 -2.11500 22.39300
C  13.51900 -2.07500 22.76600
C  13.02600 -1.32100 21.44200
N  14.50000 -0.42500 27.70700
C  13.71900 0.11600 26.72600
C  12.90300 1.24300 27.31300
C  13.22300 1.21800 28.63400
C  14.13900 0.20400 28.85900
C  11.96500 2.08600 26.54700
C  13.04100 1.91500 29.88800
O  12.36500 2.85400 30.21500
C  13.84200 1.17100 31.01400
C  14.83900 2.07300 31.76300
O  15.98600 2.37400 31.44900
O  14.17800 2.65200 32.85700
C  14.96300 3.60800 33.66100
H  18.09500 -3.95800 30.93900
H  17.40400 -4.58400 24.37300
H  13.10700 0.21900 24.70900
H  16.58300 0.12000 32.17200
H  16.89100 -2.81600 32.45500
H  18.87100 -2.14300 33.41500
H  18.69600 -0.48100 32.73900
H  19.42800 -1.79200 31.83400
H  15.05500 -2.34800 33.29100
H  14.09600 -0.93800 32.83900
H  14.93100 -1.45200 35.26200
H  14.34000 0.08000 34.50900
H  18.74200 -6.18100 30.30700
H  20.05600 -5.19000 29.83900
H  19.82800 -6.82500 29.14300
H  20.31700 -7.89400 25.53500
H  19.65600 -8.29100 27.15800
H  20.80400 -7.04600 26.95800
H  15.73400 -3.43600 22.82700
H  15.11900 -0.58800 22.90300
H  17.14900 -1.06100 22.14700
H  17.50300 -2.79400 21.57100
H  18.02800 -2.23400 23.17200
H  12.74900 -1.96100 23.52800
H  13.65800 -3.14800 22.63300
H  12.59600 -2.04900 20.75400
H  13.84700 -0.73000 21.03700
H  12.26900 -0.57200 21.67500
H  11.01600 1.91900 27.05800
H  11.81200 1.61900 25.57400
H  12.19000 3.14100 26.39200
H  13.05400 0.89100 31.71300
H  15.89600 4.04800 33.30800
H  15.12500 3.20200 34.66000
H  14.42200 4.53700 33.84100
Mg 53.10200 25.42200 44.48300
C  50.57700 27.78200 43.85800
C  50.80500 22.92000 43.46500
C  55.66300 23.33500 43.67400
C  55.31800 27.88500 44.99800
N  50.94500 25.39300 43.46500
C  50.10400 26.48800 43.54700
C  48.72400 26.06000 43.09000
C  48.70400 24.52900 43.49700
C  50.24700 24.20900 43.49700
C  47.90500 24.29900 44.89300
C  48.29900 26.30200 41.58800
C  49.38300 26.71700 40.53900
H  49.58400 25.89500 39.28400
N  53.20100 23.39400 43.81800
C  52.12300 22.58500 43.51700
C  52.65300 21.28400 43.23600
C  54.06400 21.27100 43.39300
C  54.35000 22.67900 43.63700
C  51.76100 20.10800 42.71600
C  55.08300 20.08600 43.31600
O  54.57800 18.96900 43.23600
C  56.57400 20.20800 43.33500
N  55.21200 25.57200 44.22600
C  56.02100 24.54500 44.15000
C  57.55500 24.97700 44.28300
C  57.44100 26.47500 44.64900
C  55.89500 26.72400 44.55500
C  58.33600 24.13400 45.34600
C  58.19600 27.38100 43.55300
C  58.93200 28.53400 44.17500
N  53.02900 27.44600 44.51800
C  53.98800 28.31900 44.99300
C  53.29900 29.50800 45.45300
C  52.01600 29.41600 44.94100
C  51.88900 28.13900 44.38300
C  53.93100 30.72200 46.01800
C  50.69500 30.11400 44.74200
O  50.47800 31.28100 45.06000
C  49.78700 29.05700 43.97700
C  49.48700 29.53700 42.62300
O  50.30000 29.73400 41.73400
O  48.16700 29.83200 42.55200
C  47.61900 30.51300 41.39100
H  49.99200 22.19400 43.40900
H  56.55000 22.70500 43.58000
H  56.04500 28.65200 45.27200
H  48.09200 26.65000 43.75500
H  48.25600 23.85600 42.76600
H  48.56900 23.91100 45.66700
H  47.18800 23.51300 44.65500
H  47.36300 25.20300 45.16900
H  47.52300 27.06300 41.67200
H  47.86400 25.37800 41.20600
H  50.34000 26.65600 41.05600
H  49.12900 27.74500 40.28300
H  52.16900 19.36200 42.03500
H  50.95200 20.58400 42.16100
H  51.21800 19.52200 43.45700
H  56.98400 19.23600 43.06000
H  57.04000 20.47400 44.28400
H  56.88800 20.93200 42.58300
H  57.98100 24.75100 43.30600
H  57.83400 26.72900 45.63400
H  57.60000 23.67800 46.00800
H  59.01400 24.76900 45.91700
H  58.81000 23.29100 44.84400
H  57.41300 27.79500 42.91700
H  58.88400 26.80300 42.93600
H  59.30700 28.29700 45.17100
H  58.13500 29.25300 44.36400
H  59.76700 28.93600 43.60100
H  53.18900 31.33400 46.52900
H  54.40900 31.27500 45.20900
H  54.57100 30.38200 46.83200
H  48.87100 28.99600 44.56400
H  48.02200 30.07500 40.47900
H  47.88800 31.56900 41.41300
H  46.54300 30.34900 41.45000

