158

Mg 2.46300 -1.52500 43.85200
C  5.77700 -1.18500 42.68700
C  1.61200 1.20800 41.97000
C  -0.67600 -2.45200 44.21500
C  3.53100 -4.65400 45.25000
N  3.58500 -0.16900 42.45800
C  4.89300 -0.21500 42.12200
C  5.26600 0.94300 41.19700
C  4.06400 1.90200 41.39000
C  2.97500 0.97600 42.02400
C  4.25200 3.23000 42.22700
C  5.56300 0.52000 39.74300
C  6.61000 1.41200 39.01700
H  6.17200 2.05500 37.65800
N  0.66800 -0.66200 43.30900
C  0.56600 0.43900 42.47700
C  -0.87900 0.67200 42.28300
C  -1.58500 -0.28200 43.10800
C  -0.51000 -1.16500 43.61400
C  -1.40900 1.84300 41.44200
C  -3.05900 -0.38500 43.33600
O  -3.81000 0.38700 42.79700
C  -3.74800 -1.51000 44.13000
N  1.55600 -3.31700 44.55000
C  0.22400 -3.40100 44.62300
C  -0.18800 -4.77900 45.13500
C  1.15200 -5.42500 45.64300
C  2.18400 -4.42700 45.04100
C  -1.53600 -4.79400 45.98400
C  1.46400 -6.90500 45.22300
C  1.48100 -8.04000 46.24100
N  4.30000 -2.69600 44.05600
C  4.56600 -3.89900 44.68200
C  6.00700 -4.23700 44.65000
C  6.53300 -3.15200 43.84100
C  5.43800 -2.32800 43.49200
C  6.59000 -5.42700 45.25600
C  7.71700 -2.64400 43.21200
O  8.88700 -3.07700 43.23700
C  7.28500 -1.27100 42.57400
C  7.97400 -0.18100 43.25000
O  7.87000 0.08000 44.40300
O  8.77300 0.54000 42.41000
C  9.14500 1.83400 42.88900
H  1.26600 2.17100 41.58900
H  -1.67700 -2.86800 44.35000
H  3.82400 -5.67900 45.48800
H  6.10600 1.50800 41.60200
H  3.65200 2.29800 40.46200
H  5.24200 3.15200 42.67700
H  3.56300 3.40500 43.05300
H  4.21700 4.07800 41.54300
H  4.67600 0.56500 39.11100
H  6.08800 -0.43500 39.75800
H  7.55400 0.86800 39.05200
H  6.82000 2.28300 39.63700
H  -2.40400 2.06500 41.82800
H  -1.43600 1.52000 40.40100
H  -0.75200 2.70400 41.56200
H  -4.81600 -1.29600 44.18300
H  -3.36600 -1.59900 45.14700
H  -3.66800 -2.44400 43.57500
H  -0.37100 -5.09300 44.10700
H  1.23400 -5.32500 46.72500
H  -2.39200 -5.01800 45.34700
H  -1.64000 -3.79800 46.41400
H  -1.49100 -5.54900 46.76900
H  2.29900 -6.91300 44.52300
H  0.62200 -7.07500 44.55100
H  2.23100 -8.78200 45.96800
H  0.55100 -8.59600 46.11500
H  1.45600 -7.78900 47.30100
H  6.75800 -6.11900 44.43100
H  6.03800 -5.87300 46.08300
H  7.57400 -5.30100 45.70700
H  7.70600 -1.24300 41.56900
H  9.48600 1.75700 43.92100
H  8.27600 2.49100 42.92600
H  10.02200 2.21400 42.36400
Mg 47.39200 44.96200 43.28800
C  43.90800 44.30500 43.47200
C  47.91900 41.70500 42.78100
C  50.62200 45.71600 42.94100
C  46.50900 48.36500 43.01300
N  46.03800 43.14300 43.26000
C  44.66300 43.08900 43.37300
C  44.16200 41.59400 43.21100
C  45.60300 40.81900 43.25100
C  46.61700 41.96300 43.10700
C  45.88700 39.88700 44.52600
C  43.30400 41.17200 41.95100
C  43.64000 41.99400 40.69200
H  43.11700 41.47600 39.31200
N  49.07900 43.84700 42.97300
C  49.07800 42.47800 42.85900
C  50.47000 41.94700 42.71000
C  51.30100 43.13300 42.83300
C  50.38800 44.33000 43.00000
C  50.76500 40.37300 42.66800
C  52.77900 43.17100 42.77800
O  53.40300 42.12100 42.57000
C  53.59700 44.35900 43.01300
N  48.40800 46.70900 42.97900
C  49.76800 46.81500 43.03100
C  50.20400 48.31500 43.03900
C  48.90900 49.13600 42.80300
C  47.87300 48.02100 42.87300
C  51.01600 48.67500 44.28600
C  48.67700 49.87200 41.38700
C  48.40700 51.36800 41.60200
N  45.62600 46.18200 43.20800
C  45.42900 47.55200 43.09500
C  44.02200 47.86200 43.07300
C  43.41700 46.62700 43.27400
C  44.39000 45.64800 43.33900
C  43.35400 49.18900 42.81500
C  42.09400 45.99300 43.49200
O  40.96400 46.43300 43.56800
C  42.41300 44.42300 43.55600
C  41.96800 44.04500 44.87900
O  42.47100 44.40000 45.90100
O  41.01700 42.97800 44.80200
C  40.70000 42.38400 46.11000
H  48.08200 40.64000 42.60300
H  51.63300 46.12300 42.88600
H  46.27700 49.43100 42.99500
H  43.67000 41.42500 44.16900
H  45.73000 40.13000 42.41600
H  44.90500 39.82600 44.99500
H  46.62700 40.38800 45.15000
H  46.25400 38.88700 44.29400
H  42.24600 41.29300 42.18300
H  43.41000 40.09400 41.82300
H  44.71900 42.14400 40.66300
H  43.13800 42.95100 40.83300
H  51.80100 40.12900 42.90500
H  50.74400 39.87200 41.70000
H  50.00600 39.90600 43.29500
H  53.33900 45.28500 42.49900
H  54.61800 44.07500 42.75900
H  53.66200 44.50300 44.09100
H  50.91900 48.43100 42.22500
H  48.72800 49.74900 43.68600
H  51.62500 49.54300 44.03000
H  51.69900 47.89300 44.61800
H  50.34600 48.94300 45.10300
H  47.89400 49.37200 40.81700
H  49.61100 49.76800 40.83400
H  49.18000 51.93400 41.08200
H  48.35100 51.66800 42.64800
H  47.38500 51.48200 41.24300
H  42.36500 49.13400 43.27000
H  43.22200 49.35000 41.74500
H  43.91300 50.05600 43.16800
H  41.94100 43.91500 42.71500
H  41.56200 42.13700 46.73100
H  40.24100 41.43100 45.84700
H  40.03800 42.95300 46.76200

