158

Mg 47.56300 25.69300 27.83500
C  48.62900 27.84800 30.37200
C  46.68300 23.44500 30.01800
C  46.97800 23.71500 25.28300
C  49.11700 27.98500 25.54100
N  47.47000 25.75500 29.99800
C  47.89200 26.72300 30.87400
C  47.38400 26.42800 32.30600
C  46.70700 24.95500 32.10800
C  46.99200 24.68500 30.62600
C  47.11800 23.91600 33.11800
C  46.31200 27.47300 32.82000
C  45.49900 27.15700 34.17400
H  45.38600 28.14900 35.31500
N  46.81900 23.83200 27.64700
C  46.54300 23.02000 28.69600
C  46.10300 21.72400 28.17200
C  46.08500 21.75600 26.78000
C  46.64800 23.13000 26.47000
C  45.59000 20.60000 29.03600
C  45.55100 20.81500 25.69100
O  45.50600 21.08500 24.51400
C  44.92100 19.53800 26.05300
N  48.33300 25.67000 25.67400
C  47.66600 24.80200 24.84000
C  47.92400 25.12200 23.30600
C  48.86700 26.43900 23.42600
C  48.79400 26.71300 24.95200
C  48.42200 23.97500 22.43800
C  48.57100 27.62100 22.45400
C  49.66700 27.84400 21.36200
N  48.58200 27.52000 27.89400
C  49.09500 28.38700 26.90500
C  49.68800 29.57300 27.47900
C  49.51600 29.39900 28.82800
C  48.87800 28.13400 29.04700
C  50.21800 30.70300 26.68700
C  49.72100 29.96400 30.11500
O  50.22600 31.05700 30.36300
C  49.06100 29.02200 31.15200
C  50.07300 28.71100 32.18100
O  51.07100 28.03200 31.98000
O  49.74600 29.37500 33.30700
C  50.72500 29.25000 34.44100
H  46.39000 22.66200 30.72100
H  46.75000 23.03800 24.45700
H  49.60800 28.67900 24.85500
H  48.24900 26.37600 32.96600
H  45.62000 25.03000 32.15000
H  47.64400 24.38100 33.95300
H  47.61900 23.16200 32.51100
H  46.27400 23.47400 33.64700
H  45.65600 27.70900 31.98200
H  46.86500 28.34200 33.17400
H  45.80700 26.17900 34.54300
H  44.48600 27.13600 33.77100
H  44.50500 20.69400 29.00900
H  45.90500 20.69900 30.07500
H  45.85700 19.59900 28.69800
H  45.60300 18.75400 26.38100
H  44.31300 19.17300 25.22500
H  44.21300 19.75400 26.85300
H  47.00900 25.48400 22.83700
H  49.89500 26.12900 23.23500
H  49.40200 24.34000 22.12900
H  47.85900 23.84000 21.51400
H  48.54600 23.11800 23.09900
H  48.55400 28.58000 22.97200
H  47.60000 27.54100 21.96600
H  49.19700 27.66400 20.39500
H  50.59600 27.28900 21.49100
H  49.99100 28.88400 21.41000
H  51.29600 30.60800 26.55900
H  50.02500 31.68700 27.11400
H  49.72300 30.62700 25.71800
H  48.23200 29.63500 31.50500
H  51.78500 29.20800 34.18600
H  50.57400 28.39700 35.10200
H  50.61900 30.22000 34.92800
Mg 36.66800 49.79900 25.06400
C  36.63800 47.79300 28.02600
C  35.73800 52.34200 26.98400
C  36.46900 51.46800 22.33700
C  37.66100 46.87700 23.32900
N  36.02300 49.88900 27.26700
C  36.24400 49.06500 28.32500
C  35.96700 49.69700 29.66500
C  35.48700 51.10700 29.26200
C  35.74900 51.10400 27.70400
C  34.03000 51.49300 29.56800
C  37.16100 49.64300 30.72600
C  36.88000 49.16400 32.14700
H  35.41100 49.22200 32.69400
N  36.15800 51.74000 24.69300
C  35.89600 52.68200 25.60000
C  35.60300 53.89800 25.00600
C  35.78300 53.64400 23.58100
C  36.17200 52.25800 23.42800
C  35.03800 55.10700 25.78600
C  35.69600 54.56500 22.29300
O  35.86100 54.19600 21.16800
C  35.38200 55.98200 22.50600
N  36.72100 49.14200 23.07000
C  36.76900 50.05400 22.11200
C  36.87100 49.34600 20.79200
C  37.39100 47.89600 21.08700
C  37.20000 47.97000 22.60500
C  35.56500 49.42800 20.05200
C  38.87100 47.57900 20.57100
C  40.01700 48.56300 21.03500
N  37.11400 47.75400 25.50800
C  37.53600 46.67000 24.70600
C  37.83500 45.48600 25.50300
C  37.50600 45.90200 26.82800
C  37.06200 47.25500 26.74600
C  38.34700 44.18100 25.02500
C  37.56500 45.56300 28.19500
O  38.07900 44.57000 28.72700
C  36.93700 46.69900 28.97800
C  35.65500 46.22600 29.58400
O  34.59500 46.09600 29.04000
O  35.87000 45.89800 30.92300
C  34.63400 45.38300 31.56000
H  35.58500 53.20300 27.63700
H  36.43000 52.03600 21.40500
H  38.16300 46.12700 22.71400
H  35.09100 49.16400 30.03500
H  36.11600 51.89000 29.68600
H  33.56200 50.89900 30.35200
H  33.44500 51.46200 28.64800
H  34.04000 52.47600 30.03900
H  37.68000 50.59700 30.81800
H  38.01400 49.06600 30.36900
H  37.61300 49.74800 32.70300
H  37.21600 48.12800 32.17400
H  35.68000 55.88900 25.38100
H  35.21200 55.20700 26.85800
H  33.97900 55.30600 25.62200
H  36.25700 56.49800 22.90200
H  34.45900 56.20700 23.04100
H  35.27100 56.38300 21.49800
H  37.61300 49.88500 20.20400
H  36.79200 47.09900 20.64500
H  34.68700 49.36300 20.69500
H  35.53400 48.77900 19.17700
H  35.57000 50.40300 19.56400
H  38.97400 47.56000 19.48600
H  38.87700 46.52300 20.84100
H  40.61900 48.79300 20.15600
H  40.66500 47.88200 21.58500
H  39.68100 49.36500 21.69300
H  39.24800 44.43800 24.46800
H  37.53700 43.70600 24.47000
H  38.64000 43.50900 25.83200
H  37.42300 47.00100 29.90600
H  34.82400 45.27900 32.62900
H  34.33700 44.41900 31.14700
H  33.82100 46.08300 31.37000

