158

Mg 0.29600 8.08400 26.03200
C  1.00400 10.05900 28.96200
C  0.65600 5.27200 28.11100
C  -0.11800 6.18300 23.34200
C  0.74700 10.94100 24.02900
N  0.68600 7.67500 28.37600
C  0.71000 8.66400 29.26900
C  0.54400 8.10400 30.67600
C  0.81200 6.57700 30.37800
C  0.75700 6.46300 28.84500
C  2.18300 5.90700 30.88200
C  -0.85500 8.48000 31.33500
C  -1.09800 8.53300 32.83900
H  0.02400 8.30300 33.79800
N  0.22200 5.98400 25.76600
C  0.40800 4.99600 26.72200
C  0.35400 3.66400 26.09400
C  0.03600 3.91600 24.70700
C  0.08100 5.39200 24.50000
C  0.52700 2.35600 26.78900
C  -0.37600 2.98500 23.62500
O  -0.62600 3.35900 22.48900
C  -0.38000 1.49100 23.92200
N  0.14400 8.54700 24.02000
C  -0.10000 7.58100 23.09900
C  -0.05200 8.20600 21.65300
C  -0.12800 9.71600 21.92300
C  0.26600 9.76200 23.43200
C  1.11000 7.80700 20.72900
C  -1.51000 10.36100 21.59400
C  -1.41500 11.53500 20.71800
N  0.88500 10.12800 26.31100
C  1.04100 11.11000 25.42400
C  1.40900 12.31500 26.20300
C  1.33300 11.94700 27.56900
C  0.99500 10.61200 27.59300
C  1.59000 13.64800 25.57800
C  1.41100 12.44700 28.90200
O  1.65600 13.59500 29.29400
C  1.20100 11.27400 29.90100
C  2.36200 11.18800 30.79900
O  3.51100 10.91200 30.47500
O  1.94500 11.50900 32.08000
C  2.85200 11.62100 33.25200
H  0.92600 4.36500 28.65700
H  -0.35600 5.64800 22.42000
H  0.75900 11.89400 23.49600
H  1.36800 8.53000 31.24900
H  0.00200 5.97400 30.78800
H  2.86900 6.51200 31.47500
H  2.72700 5.54900 30.00800
H  1.93100 5.06200 31.52300
H  -1.57600 7.81000 30.86800
H  -1.04500 9.51600 31.05300
H  -1.93500 7.85800 33.02000
H  -1.47600 9.52500 33.08600
H  0.98600 2.45900 27.77300
H  1.23000 1.77200 26.19500
H  -0.39100 1.80200 26.98500
H  0.66400 1.17800 23.96200
H  -0.80100 0.99100 23.05000
H  -1.15500 1.24800 24.64800
H  -0.96600 7.85700 21.17300
H  0.62500 10.27400 21.36600
H  2.05000 7.85400 21.27900
H  1.17200 8.59300 19.97700
H  0.86900 6.80100 20.38700
H  -2.18100 10.47600 22.44500
H  -2.04900 9.58700 21.04700
H  -1.45600 11.35300 19.64400
H  -0.45500 11.98500 20.97200
H  -2.27100 12.15500 20.98100
H  0.65900 13.92900 25.08700
H  2.23900 13.57600 24.70500
H  1.87000 14.46300 26.24500
H  0.34400 11.40500 30.56100
H  3.18100 12.65700 33.32900
H  3.68700 10.94000 33.08900
H  2.31300 11.34100 34.15700
Mg -1.87900 34.18500 27.31400
C  -3.58300 32.14900 29.75200
C  -0.62600 36.03100 30.08600
C  -0.61800 36.45600 25.24000
C  -3.55100 32.58300 24.81600
N  -2.12200 34.08300 29.62800
C  -2.88400 33.24900 30.36800
C  -2.86400 33.51100 31.83200
C  -2.03200 34.86600 31.84800
C  -1.52400 35.04700 30.48300
C  -2.95100 36.10800 32.32900
C  -2.16900 32.33300 32.55700
C  -2.95700 31.70700 33.79400
H  -2.23500 31.77400 35.15400
N  -0.67300 35.89300 27.64800
C  -0.17200 36.39500 28.83900
C  0.77800 37.46100 28.49900
C  0.72700 37.69800 27.09500
C  -0.23700 36.70500 26.60000
C  1.61700 38.18000 29.45400
C  1.32700 38.72700 26.25200
O  1.12200 38.91300 25.06400
C  2.35400 39.61700 26.87700
N  -2.06500 34.46500 25.31900
C  -1.51900 35.55300 24.71300
C  -1.93500 35.57900 23.22900
C  -2.53800 34.19200 23.07600
C  -2.77200 33.74400 24.48200
C  -2.97600 36.76400 22.91200
C  -1.70400 33.20000 22.15400
C  -0.94300 32.08400 22.88800
N  -3.23000 32.67600 27.22000
C  -3.75700 32.10000 26.07800
C  -4.71400 31.10300 26.50900
C  -4.59500 31.07800 27.88500
C  -3.68800 32.03400 28.26500
C  -5.59100 30.25400 25.60300
C  -5.09600 30.38500 29.05800
O  -5.88000 29.44200 29.13900
C  -4.48100 31.03900 30.30400
C  -5.67500 31.53000 31.08900
O  -6.54100 32.28400 30.74200
O  -5.62900 30.90300 32.30900
C  -6.79700 30.82000 33.20500
H  -0.17500 36.70900 30.81400
H  -0.27000 37.21000 24.53000
H  -4.07900 32.25200 23.91900
H  -3.88500 33.76600 32.11600
H  -1.23700 34.78700 32.59000
H  -2.45400 36.50300 33.21500
H  -3.97600 35.76400 32.46900
H  -2.92800 36.88600 31.56600
H  -1.17800 32.70400 32.81700
H  -2.03400 31.58100 31.77900
H  -3.28500 30.69000 33.57800
H  -3.90600 32.22600 33.92900
H  1.53900 37.71300 30.43600
H  1.18100 39.17900 29.44200
H  2.61100 38.04000 29.02800
H  1.95100 40.19800 27.70700
H  2.73500 40.33800 26.15400
H  3.20100 39.06700 27.28500
H  -1.08100 35.77000 22.57900
H  -3.54200 34.31900 22.67300
H  -3.90400 36.47800 22.41800
H  -2.48100 37.60800 22.43000
H  -3.33700 37.06000 23.89700
H  -0.96900 33.69600 21.52000
H  -2.36000 32.76800 21.39800
H  -0.43600 32.53000 23.74400
H  -0.17200 31.70400 22.21900
H  -1.65200 31.30500 23.17000
H  -6.49500 30.00900 26.16100
H  -5.11300 29.33800 25.25500
H  -5.90800 30.89600 24.78200
H  -3.85500 30.32100 30.83400
H  -6.92500 29.79000 33.53900
H  -7.72300 31.04900 32.67800
H  -6.61300 31.42200 34.09500

