158

Mg 1.59400 -2.95900 45.00900
C  4.93300 -2.07600 44.32900
C  0.66800 -0.43000 42.97300
C  -1.49600 -4.37300 44.89100
C  2.75500 -5.82000 46.81200
N  2.79900 -1.46100 43.75800
C  4.12700 -1.34000 43.55800
C  4.34300 -0.19200 42.47800
C  2.90000 0.44100 42.30700
C  2.05200 -0.51900 43.17700
C  2.75900 1.88900 42.79600
C  4.83900 -0.69400 41.18300
C  5.98600 0.13300 40.49500
H  5.50400 0.85100 39.19800
N  -0.19900 -2.46500 44.09800
C  -0.34400 -1.34400 43.35800
C  -1.74800 -1.25800 42.92100
C  -2.40400 -2.39300 43.45500
C  -1.39200 -3.15700 44.20200
C  -2.37700 -0.14500 42.10200
C  -3.87500 -2.66000 43.31200
O  -4.57900 -1.88400 42.70700
C  -4.52700 -3.89500 44.02400
N  0.65500 -4.75200 45.79500
C  -0.62100 -5.13300 45.65600
C  -0.88700 -6.54800 46.00000
C  0.45400 -6.92600 46.89800
C  1.36700 -5.72800 46.54300
C  -2.14600 -6.85600 46.83800
C  1.10600 -8.30800 46.43000
C  1.48900 -9.21200 47.66300
N  3.40700 -3.82100 45.53300
C  3.74800 -4.92500 46.22300
C  5.19200 -4.99500 46.43700
C  5.67500 -3.87600 45.75300
C  4.54700 -3.22000 45.21200
C  5.99600 -6.07200 47.09500
C  6.93300 -3.16400 45.32200
O  8.07600 -3.43400 45.58500
C  6.47700 -2.12800 44.27100
C  6.99000 -0.85700 44.70600
O  6.95300 -0.48700 45.88100
O  7.70900 -0.26100 43.72900
C  8.45200 0.94400 44.02300
H  0.25600 0.37400 42.35800
H  -2.42300 -4.92800 44.73100
H  3.13100 -6.66800 47.38700
H  5.05500 0.51700 42.90000
H  2.63400 0.26700 41.26500
H  2.17500 2.16200 43.67500
H  2.38000 2.48300 41.96500
H  3.73200 2.21500 43.16200
H  4.06900 -0.80800 40.42100
H  5.28000 -1.66300 41.41400
H  6.81700 -0.52000 40.22700
H  6.38100 0.91700 41.14100
H  -3.12000 0.43900 42.64600
H  -2.86900 -0.61800 41.25200
H  -1.65200 0.51400 41.62500
H  -4.17700 -4.83000 43.58700
H  -5.61600 -3.91400 44.08200
H  -4.19300 -3.98100 45.05800
H  -0.74200 -7.10300 45.07300
H  0.25500 -6.87900 47.96900
H  -2.64500 -7.72700 46.41200
H  -2.76900 -5.96200 46.85300
H  -1.79000 -7.03200 47.85300
H  2.03300 -8.14800 45.87800
H  0.43300 -8.88700 45.79800
H  2.55900 -9.12100 47.84800
H  1.38300 -10.28600 47.50800
H  0.86900 -8.95400 48.52100
H  5.93300 -6.96700 46.47700
H  5.73400 -6.32700 48.12200
H  7.04400 -5.78200 47.17200
H  6.78600 -2.36000 43.25200
H  7.80400 1.80800 43.87900
H  9.28200 1.03300 43.32300
H  8.77000 0.97600 45.06600
Mg 23.95700 -5.67500 46.08300
C  26.29400 -3.41000 44.58900
C  21.60300 -4.40600 43.94900
C  22.26100 -8.52800 46.46800
C  26.74600 -7.13800 47.82400
N  23.94500 -3.97600 44.68900
C  24.98700 -3.28600 44.18800
C  24.52000 -2.39100 43.05600
C  22.97300 -2.44100 43.11800
C  22.72500 -3.59500 44.04100
C  22.22900 -1.13400 43.66800
C  25.15000 -2.66700 41.67800
C  25.78100 -1.47600 40.89600
H  25.39200 -1.17000 39.47100
N  22.17300 -6.32400 45.37800
C  21.32900 -5.73200 44.45600
C  20.17600 -6.51900 44.15800
C  20.29000 -7.69100 44.98600
C  21.62900 -7.55900 45.69200
C  19.10600 -6.13900 43.15000
C  19.23100 -8.76300 45.08700
O  18.09800 -8.64500 44.59700
C  19.42400 -9.99300 45.80200
N  24.38500 -7.49100 47.22000
C  23.48800 -8.52700 47.19600
C  23.92400 -9.73100 48.07100
C  25.30100 -9.25900 48.61200
C  25.57500 -7.93000 47.85900
C  22.86200 -10.09800 49.14100
C  26.48700 -10.34600 48.72600
C  27.07500 -10.65900 50.11400
N  26.03800 -5.36400 46.26800
C  27.01800 -5.99800 46.99300
C  28.37000 -5.34800 46.76300
C  28.06500 -4.33300 45.83900
C  26.68900 -4.37100 45.59800
C  29.70000 -5.78300 47.29300
C  28.64800 -3.29900 44.97900
O  29.86200 -2.99400 44.79600
C  27.53400 -2.68900 44.13100
C  27.33300 -1.21600 44.41600
O  26.69300 -0.72700 45.32500
O  28.11300 -0.61100 43.50900
C  28.45900 0.84400 43.72300
H  20.85900 -3.92300 43.31200
H  21.71000 -9.47100 46.48800
H  27.61500 -7.65600 48.23600
H  24.80000 -1.41200 43.44500
H  22.52100 -2.79600 42.19200
H  21.80700 -0.44600 42.93500
H  22.94200 -0.69800 44.36800
H  21.36400 -1.47900 44.23400
H  24.33600 -2.91700 40.99800
H  25.86600 -3.48600 41.75000
H  26.84600 -1.64700 41.05100
H  25.71000 -0.48100 41.33600
H  18.62900 -7.00500 42.69200
H  19.57700 -5.53300 42.37500
H  18.43900 -5.66300 43.86800
H  18.51100 -10.58300 45.87600
H  19.57000 -9.58000 46.80000
H  20.25900 -10.64500 45.54300
H  24.02100 -10.69400 47.57000
H  25.10100 -8.95400 49.63900
H  21.95500 -9.49400 49.18200
H  23.31400 -10.00500 50.12800
H  22.66200 -11.16900 49.10900
H  27.32700 -10.20900 48.04500
H  26.14000 -11.28500 48.29500
H  28.15100 -10.48600 50.11700
H  26.98300 -11.71800 50.35500
H  26.53200 -10.12000 50.89100
H  29.75100 -5.62300 48.37000
H  30.50900 -5.27400 46.76900
H  29.83400 -6.85200 47.12200
H  27.70300 -2.65800 43.05400
H  29.05800 0.91600 44.63100
H  27.54900 1.38100 43.99200
H  28.94700 1.36400 42.89900

