158

Mg 36.71600 2.48400 30.04000
C  34.27400 3.37300 32.49300
C  39.12800 2.58800 32.49400
C  38.93700 1.95900 27.71600
C  34.20000 2.89000 27.57700
N  36.71200 2.94100 32.24300
C  35.54700 3.19300 33.03600
C  35.90900 3.13500 34.57400
C  37.47000 3.04400 34.46600
C  37.79200 2.78200 33.01500
C  38.13800 4.31800 34.99000
C  35.30000 1.79200 35.23700
C  34.40900 2.00400 36.40400
H  35.02000 2.88800 37.50500
N  38.79500 2.19300 30.09000
C  39.62200 2.37100 31.14200
C  41.03900 2.14700 30.73000
C  41.01800 2.01400 29.34100
C  39.55100 2.02100 28.98400
C  42.12400 2.03200 31.75500
C  42.07200 1.98700 28.35900
O  41.93600 1.75400 27.19100
C  43.51700 1.98500 28.86000
N  36.56900 2.33600 27.95100
C  37.61900 2.10300 27.24400
C  37.24600 1.74700 25.77200
C  35.72400 2.21900 25.72700
C  35.43200 2.44900 27.16100
C  38.16200 2.33700 24.64900
C  34.72600 1.31200 25.02400
C  33.69500 2.06400 24.14800
N  34.69700 3.04300 29.98200
C  33.83600 3.12100 28.92100
C  32.52600 3.44600 29.48200
C  32.72000 3.55600 30.82100
C  34.07000 3.31000 31.10000
C  31.25400 3.59600 28.80100
C  32.02700 3.83000 32.07800
O  30.90500 4.08500 32.21600
C  33.08000 3.70000 33.23600
C  33.04000 4.88200 34.08100
O  33.73700 5.91100 33.92800
O  32.24800 4.60700 35.20400
C  32.21800 5.69800 36.19300
H  39.86900 2.64200 33.29400
H  39.62100 1.75800 26.89000
H  33.38700 3.10000 26.87800
H  35.59300 4.09700 34.97700
H  37.85900 2.20500 35.04300
H  37.55000 5.23200 34.90400
H  38.96900 4.64700 34.36600
H  38.47300 4.18900 36.02000
H  36.15400 1.24400 35.63500
H  34.82300 1.21800 34.44200
H  34.21200 1.02700 36.84700
H  33.48800 2.50300 36.10100
H  42.43100 3.02500 32.08300
H  43.02100 1.53200 31.39000
H  41.87200 1.35300 32.56900
H  44.14700 2.06200 27.97400
H  43.56500 1.04000 29.40200
H  43.74800 2.92900 29.35300
H  37.17600 0.65900 25.78400
H  35.61900 3.24600 25.37800
H  38.92200 1.59800 24.39600
H  38.73900 3.15900 25.07200
H  37.56600 2.58900 23.77100
H  34.23700 0.61600 25.70600
H  35.31000 0.88500 24.20800
H  34.15600 2.87100 23.58000
H  32.96700 2.49900 24.83400
H  33.25100 1.29000 23.52200
H  30.83000 2.62900 28.52900
H  31.30600 4.12900 27.85200
H  30.58500 4.18500 29.42900
H  32.72000 2.82600 33.77900
H  31.77300 6.52100 35.63500
H  33.21700 5.95900 36.54400
H  31.60900 5.48900 37.07200
Mg 35.13600 48.50500 25.08700
C  35.45300 46.39900 28.03400
C  34.18300 51.04800 27.31400
C  34.30900 50.20800 22.53500
C  35.65200 45.59500 23.14200
N  34.80200 48.69600 27.45500
C  35.01800 47.66500 28.39300
C  34.97300 48.27200 29.75500
C  34.12700 49.59200 29.50300
C  34.34900 49.84000 27.99500
C  32.64600 49.35600 29.99300
C  36.47100 48.48700 30.30300
C  36.72700 48.39700 31.78600
H  36.60400 49.65700 32.60900
N  34.42000 50.39100 24.91900
C  34.26900 51.30600 25.93100
C  33.85900 52.58300 25.40900
C  33.79600 52.36500 23.98000
C  34.20100 50.98300 23.76200
C  33.72600 53.85700 26.24100
C  33.55000 53.40700 22.94600
O  33.78000 53.13600 21.77600
C  33.10600 54.90900 23.23500
N  34.93900 47.94500 23.09800
C  34.68600 48.92600 22.19400
C  34.80800 48.33800 20.75500
C  35.17200 46.87700 20.94500
C  35.29600 46.81600 22.51400
C  33.54500 48.61800 19.82300
C  36.58300 46.52600 20.30700
C  37.80600 47.04400 21.14000
N  35.53000 46.38600 25.43800
C  35.74800 45.35900 24.54800
C  36.00500 44.15500 25.27900
C  36.03800 44.51900 26.65000
C  35.68300 45.89900 26.70200
C  36.10100 42.70700 24.82000
C  36.12600 44.02300 28.04000
O  36.33000 42.92700 28.49500
C  35.92900 45.27500 28.95700
C  35.08100 44.76900 30.16700
O  33.91500 44.32500 30.05100
O  35.75800 44.95900 31.29900
C  35.06300 44.58300 32.49500
H  33.88100 51.81600 28.02800
H  33.91100 50.84800 21.74500
H  35.95800 44.73700 22.54000
H  34.49200 47.60800 30.47400
H  34.39800 50.45500 30.11000
H  31.91500 49.85000 29.35300
H  32.40300 49.80900 30.95400
H  32.44300 48.29100 30.10300
H  36.90200 49.42800 29.96300
H  37.14200 47.76900 29.83000
H  37.71900 47.98600 31.97700
H  35.95500 47.74700 32.19700
H  34.64200 53.98400 26.81800
H  32.87400 53.63200 26.88200
H  33.51500 54.83800 25.81400
H  33.20600 55.45500 22.29700
H  33.65700 55.41100 24.03100
H  32.09600 54.82900 23.63700
H  35.62100 48.98700 20.43100
H  34.39300 46.18800 20.61800
H  33.43000 47.99300 18.93800
H  33.56300 49.66700 19.52800
H  32.61300 48.52400 20.38100
H  36.58000 46.70100 19.23100
H  36.66500 45.44400 20.41500
H  38.40700 46.22800 21.54000
H  37.73900 47.71500 21.99600
H  38.42700 47.50600 20.37200
H  35.63000 42.73500 23.83800
H  35.40500 42.08700 25.38500
H  37.13200 42.36200 24.89600
H  36.96900 45.39700 29.25700
H  34.29400 45.32600 32.70500
H  35.88000 44.67300 33.21100
H  34.75300 43.54000 32.44100

