158

Mg 40.67700 9.25900 28.95400
C  42.06000 10.54100 31.76900
C  38.24900 7.72300 30.86600
C  39.39900 7.75100 26.09700
C  43.51700 10.18000 27.08000
N  40.14300 9.28700 31.03400
C  40.82800 9.92700 32.00100
C  40.15100 9.84200 33.32700
C  39.09700 8.70100 33.07400
C  39.06200 8.60000 31.56100
C  39.36300 7.48000 33.85600
C  39.56500 11.19500 33.72600
C  38.98300 11.28100 35.12400
H  39.82300 12.01500 36.19800
N  39.11000 7.88300 28.58400
C  38.22500 7.45400 29.48100
C  37.19900 6.59900 28.81900
C  37.44700 6.66800 27.41700
C  38.66700 7.49300 27.28200
C  36.02200 5.92300 29.59900
C  36.60200 6.20900 26.29100
O  36.91700 6.37800 25.06100
C  35.34000 5.45200 26.59800
N  41.35800 9.00000 26.86700
C  40.62700 8.46600 25.93600
C  41.40300 8.52200 24.54400
C  42.66100 9.19500 24.88000
C  42.52000 9.51600 26.33000
C  41.55500 7.21200 23.70200
C  42.96300 10.50600 24.06000
C  42.37600 11.81600 24.61200
N  42.48800 10.14800 29.28100
C  43.48400 10.57400 28.44200
C  44.43100 11.36600 29.25700
C  43.97200 11.33600 30.50000
C  42.70700 10.68000 30.47700
C  45.70300 12.05000 28.78800
C  44.17900 11.72600 31.87900
O  45.08500 12.40300 32.33200
C  42.97100 11.18300 32.70000
C  43.52400 10.29300 33.65300
O  44.31500 9.39500 33.35400
O  42.97300 10.42300 34.97500
C  43.46500 9.47900 36.07200
H  37.42000 7.26900 31.41200
H  38.83600 7.46300 25.20700
H  44.41900 10.49700 26.55100
H  40.87400 9.54700 34.08700
H  38.06100 8.97600 33.27200
H  38.51200 7.06600 34.39700
H  40.12600 7.63700 34.61800
H  39.71900 6.64800 33.24900
H  38.73100 11.37300 33.04600
H  40.38800 11.90500 33.64000
H  38.56400 10.32700 35.44700
H  38.18300 11.99100 34.91600
H  35.03000 6.19200 29.23800
H  36.03900 5.98600 30.68700
H  36.11800 4.84500 29.46900
H  35.68900 4.74800 27.35400
H  34.84300 4.99400 25.74300
H  34.63200 6.15400 27.04000
H  40.81700 9.14600 23.87000
H  43.50700 8.50800 24.84200
H  41.30200 6.38700 24.36800
H  42.52900 6.99100 23.26700
H  40.86100 7.10800 22.86700
H  42.62700 10.52400 23.02300
H  44.04000 10.67800 24.07000
H  41.90300 12.37600 23.80700
H  43.23100 12.26800 25.11500
H  41.56600 11.42400 25.22800
H  45.70200 11.89400 27.70900
H  46.61000 11.51900 29.07800
H  45.71100 13.11800 29.00500
H  42.45600 12.02100 33.17100
H  44.31300 9.95600 36.56400
H  43.72300 8.47500 35.73600
H  42.61500 9.32500 36.73700
Mg 6.98100 53.63600 41.58400
C  6.74400 50.14600 41.52900
C  10.26700 53.19500 40.16700
C  7.15700 56.86200 40.61600
C  3.77800 53.85000 42.50100
N  8.32900 51.89100 41.12100
C  7.96500 50.61700 41.08200
C  9.15800 49.70000 40.74300
C  10.39700 50.71700 40.81100
C  9.64100 52.05700 40.73700
C  11.31200 50.44700 42.13400
C  9.17100 48.84700 39.44100
C  8.96500 49.66600 38.20400
H  7.76600 49.27600 37.24000
N  8.49700 54.82200 40.54700
C  9.73000 54.45200 40.02600
C  10.47700 55.65500 39.69400
C  9.66800 56.79600 39.92400
C  8.37500 56.18000 40.37800
C  11.93500 55.63200 39.28100
C  10.09300 58.24600 39.80900
O  11.15600 58.65300 39.36500
C  9.22600 59.33700 40.32900
N  5.64700 55.02900 41.55000
C  5.99000 56.28900 41.13500
C  4.72200 57.13100 41.17300
C  3.65200 56.27800 41.95500
C  4.41300 54.92400 42.03800
C  4.64100 58.56100 41.81200
C  2.30500 56.14800 41.29100
C  1.10800 56.07100 42.28200
N  5.52200 52.31200 42.12400
C  4.26900 52.52800 42.60800
C  3.68300 51.24800 42.93700
C  4.57800 50.25100 42.57100
C  5.68800 51.01100 41.99300
C  2.36000 50.98500 43.55000
C  4.75500 48.87900 42.52400
O  4.03700 47.94500 42.77700
C  6.18000 48.76500 41.68200
C  5.72800 48.14100 40.34300
O  4.97000 48.66500 39.49300
O  6.04800 46.79100 40.36500
C  5.43400 45.94700 39.38200
H  11.29200 52.99100 39.85200
H  7.05400 57.92800 40.40300
H  2.75300 53.85100 42.87800
H  9.19200 48.92000 41.50400
H  11.06800 50.59000 39.96100
H  12.36400 50.57500 41.87900
H  11.18900 49.41800 42.47400
H  11.13600 51.20200 42.90000
H  8.43600 48.04200 39.46400
H  10.18400 48.47500 39.28800
H  9.83800 49.48700 37.57600
H  8.88000 50.73400 38.40100
H  12.13600 54.66700 38.81600
H  12.63500 55.81500 40.09600
H  12.13100 56.39700 38.53000
H  8.45700 59.63200 39.61500
H  9.78800 60.25700 40.48800
H  8.88900 58.99600 41.30800
H  4.49800 57.25600 40.11400
H  3.59000 56.54000 43.01100
H  5.66500 58.81800 42.08700
H  3.96400 58.89200 42.60000
H  4.36900 59.15900 40.94200
H  2.37800 55.21000 40.74100
H  2.14700 56.88900 40.50700
H  0.54600 57.00400 42.26000
H  1.51600 55.95800 43.28700
H  0.40200 55.26500 42.08200
H  1.57200 51.72600 43.41000
H  2.39000 50.69200 44.60000
H  1.99200 50.13600 42.97500
H  6.85100 48.06400 42.18000
H  6.22000 45.54100 38.74500
H  4.66700 46.30700 38.69600
H  4.99300 45.03600 39.78600

