158

Mg -0.90800 34.42300 26.97000
C  -2.87200 32.70500 29.13400
C  0.11200 36.58500 29.47200
C  0.69700 36.24000 24.62900
C  -2.15400 32.44900 24.23000
N  -1.33000 34.58400 29.11200
C  -2.23400 33.75500 29.81700
C  -2.07500 34.05000 31.36300
C  -1.30500 35.41900 31.39700
C  -0.80200 35.57900 29.93000
C  -1.93500 36.68700 32.07900
C  -1.34900 32.90900 32.17100
C  -2.02400 32.16300 33.32300
H  -1.21800 32.17000 34.67400
N  0.28800 36.16300 27.03900
C  0.67000 36.81800 28.13900
C  1.66600 37.83100 27.77900
C  1.91100 37.68900 26.34700
C  0.92800 36.59300 25.96400
C  2.35300 38.73300 28.79200
C  2.87100 38.41100 25.40200
O  2.94300 38.22000 24.21500
C  3.65300 39.53700 26.04200
N  -0.69600 34.27600 24.81500
C  -0.00600 35.19500 24.09600
C  -0.38200 35.19000 22.62200
C  -1.02000 33.80100 22.52900
C  -1.34600 33.47600 23.93000
C  -1.28900 36.39000 22.16900
C  -0.12500 32.67900 21.85500
C  0.81700 31.86600 22.79000
N  -2.16800 32.84300 26.70600
C  -2.52000 32.09400 25.54200
C  -3.27100 30.99900 25.98400
C  -3.55500 31.27000 27.35700
C  -2.81700 32.35000 27.75500
C  -3.92100 29.94100 25.00900
C  -4.35400 30.77900 28.52400
O  -5.15900 29.85300 28.62700
C  -3.82000 31.67100 29.67500
C  -5.03600 32.26200 30.31700
O  -5.75900 33.10400 29.81000
O  -5.20600 31.76400 31.55000
C  -6.19500 32.37600 32.38700
H  0.35600 37.34300 30.22000
H  1.04400 36.88900 23.82200
H  -2.53700 31.85100 23.40000
H  -3.12000 34.26300 31.58900
H  -0.40000 35.13400 31.93400
H  -2.36200 37.40700 31.38100
H  -1.16700 37.17100 32.68300
H  -2.75700 36.38500 32.72800
H  -0.39100 33.28800 32.52800
H  -1.08500 32.21600 31.37200
H  -2.23400 31.10500 33.16800
H  -3.01900 32.56200 33.51900
H  3.39500 38.41900 28.86000
H  2.05000 38.64500 29.83600
H  2.12700 39.79500 28.70700
H  4.29600 39.13500 26.82400
H  2.93500 40.24400 26.45900
H  4.29100 40.09700 25.35800
H  0.54200 35.14800 22.04500
H  -1.92500 33.81100 21.92200
H  -1.53400 37.16200 22.89900
H  -2.24800 35.99800 21.83100
H  -0.73100 36.80200 21.32800
H  0.46000 33.13700 21.05700
H  -0.69200 31.92600 21.30900
H  0.92600 32.13000 23.84200
H  1.82500 31.86900 22.37500
H  0.54700 30.81300 22.85900
H  -4.41000 29.13800 25.56100
H  -3.18500 29.62400 24.27100
H  -4.67200 30.51400 24.46500
H  -3.28700 31.06600 30.40800
H  -6.90300 33.10900 32.00100
H  -5.62900 32.87200 33.17600
H  -6.80700 31.61400 32.87000
Mg -4.03500 25.21900 25.52100
C  -2.98500 26.69100 28.63400
C  -6.06700 23.12200 27.41900
C  -4.88400 23.71600 22.78000
C  -1.55300 27.13600 23.88000
N  -4.44600 24.89100 27.89000
C  -3.95900 25.64800 28.92100
C  -4.37400 25.14300 30.26400
C  -5.40400 24.04300 29.88300
C  -5.25400 23.96000 28.33000
C  -5.18800 22.56900 30.43200
C  -5.11800 26.26400 31.07300
C  -5.38600 26.10100 32.58100
H  -4.90300 24.82300 33.33000
N  -5.39400 23.77600 25.11600
C  -6.15700 23.04400 26.01800
C  -7.15900 22.32500 25.24300
C  -6.71900 22.37800 23.86200
C  -5.65500 23.35000 23.88100
C  -8.38600 21.65100 25.82200
C  -7.33400 21.73400 22.62900
O  -7.10000 22.11000 21.50300
C  -8.26000 20.58500 22.82400
N  -3.26700 25.37300 23.67700
C  -3.78800 24.59700 22.67900
C  -3.00100 24.62000 21.40300
C  -2.00600 25.81600 21.68400
C  -2.24500 26.14900 23.16000
C  -2.26900 23.26800 21.15100
C  -2.27500 27.07100 20.86000
C  -1.17500 27.47700 19.83800
N  -2.57600 26.59600 26.05700
C  -1.67500 27.33100 25.29600
C  -0.93000 28.26100 26.13800
C  -1.33900 28.05200 27.41900
C  -2.34000 26.99300 27.39800
C  0.05500 29.29500 25.62300
C  -1.23200 28.56300 28.81000
O  -0.53100 29.43300 29.29800
C  -2.28500 27.67800 29.57000
C  -1.45100 27.10700 30.66500
O  -0.52100 26.29400 30.61100
O  -1.87400 27.60900 31.86300
C  -1.24500 27.04100 33.09100
H  -6.69100 22.34100 27.85900
H  -5.19400 23.33100 21.80700
H  -0.82700 27.74400 23.33600
H  -3.55900 24.80000 30.90000
H  -6.45100 24.33900 29.82000
H  -4.88900 21.80100 29.71900
H  -6.09500 22.23300 30.93500
H  -4.46000 22.67500 31.23600
H  -6.03100 26.57800 30.56500
H  -4.47600 27.14400 31.02500
H  -6.45600 26.13100 32.78500
H  -4.87800 26.98100 32.97800
H  -9.23200 21.82900 25.15700
H  -8.80000 22.19700 26.66900
H  -8.26500 20.59800 26.07700
H  -9.23400 21.04300 22.99400
H  -8.10200 19.90700 23.66300
H  -8.16600 19.98700 21.91700
H  -3.73900 24.90000 20.65200
H  -0.98500 25.47200 21.52000
H  -2.78800 22.46400 21.67300
H  -1.19100 23.28700 21.30700
H  -2.34000 22.89500 20.12900
H  -2.38600 27.93800 21.51100
H  -3.26400 27.05000 20.40200
H  -0.63800 28.32300 20.26800
H  -1.46700 27.74900 18.82400
H  -0.46900 26.65400 19.72000
H  0.51800 28.90000 24.71900
H  0.87900 29.43200 26.32400
H  -0.55300 30.09200 25.19400
H  -3.10000 28.24000 30.02700
H  -1.75700 27.45800 33.95800
H  -0.19500 27.32400 33.16500
H  -1.34100 25.95700 33.02000

