158

Mg -10.91900 16.66400 40.50700
C  -7.44200 16.53000 40.52500
C  -10.66700 20.07600 39.91700
C  -14.34300 16.89000 39.92000
C  -10.99700 13.26800 40.09500
N  -9.30900 18.08900 40.38200
C  -7.96700 17.84900 40.39800
C  -7.12900 19.08500 40.16400
C  -8.16300 20.22200 40.54000
C  -9.46900 19.42600 40.22300
C  -8.10000 20.75800 42.08300
C  -6.63300 19.08900 38.70100
C  -5.08700 19.00800 38.43900
H  -4.68200 18.23000 37.21800
N  -12.33500 18.35300 40.03500
C  -12.06500 19.65600 39.86600
C  -13.22400 20.50300 39.68600
C  -14.31900 19.58700 39.91400
C  -13.71900 18.19300 39.95200
C  -13.09200 22.02100 39.35900
C  -15.76600 19.97600 39.88900
O  -15.93700 21.20100 39.84900
C  -16.96300 19.07300 40.01300
N  -12.43900 15.30300 40.12900
C  -13.72800 15.59000 39.91400
C  -14.59600 14.38500 39.76800
C  -13.49900 13.22400 39.67300
C  -12.23700 13.97100 40.01700
C  -15.71400 14.26800 40.84900
C  -13.44000 12.62400 38.23100
C  -12.70300 11.19000 38.10900
N  -9.56000 15.16700 40.56100
C  -9.74000 13.79500 40.33800
C  -8.40100 13.11900 40.23400
C  -7.52400 14.18200 40.28500
C  -8.23200 15.34200 40.48700
C  -8.13300 11.69600 40.00300
C  -6.09600 14.46700 40.24500
O  -5.11300 13.70300 40.04500
C  -6.03100 15.96700 40.55800
C  -5.22600 16.08600 41.81400
O  -5.34800 15.39500 42.83500
O  -4.36700 17.21000 41.66300
C  -3.58300 17.56900 42.88000
H  -10.52100 21.14300 39.73500
H  -15.43500 16.89200 39.93600
H  -11.05200 12.20000 39.87500
H  -6.24800 19.26600 40.78000
H  -8.02900 21.08300 39.88600
H  -8.93700 20.35500 42.65300
H  -7.98300 21.83800 42.16700
H  -7.15000 20.50400 42.55300
H  -6.99700 20.01600 38.25800
H  -7.01200 18.24900 38.11900
H  -4.61300 18.57200 39.31800
H  -4.61900 19.97900 38.27800
H  -13.12700 22.03600 38.27000
H  -12.13000 22.46700 39.61400
H  -13.80700 22.70200 39.82200
H  -17.82300 19.71900 40.18800
H  -16.87200 18.36600 40.83700
H  -16.94600 18.62100 39.02100
H  -15.11900 14.40800 38.81200
H  -13.57400 12.50200 40.48600
H  -15.93000 13.20000 40.79800
H  -16.62600 14.72900 40.46800
H  -15.28800 14.45600 41.83400
H  -12.84100 13.33500 37.66100
H  -14.41600 12.46500 37.77300
H  -12.94600 10.76700 39.08300
H  -11.65700 11.22500 37.80400
H  -13.20300 10.44600 37.48900
H  -8.25100 11.10100 40.90900
H  -7.09200 11.55300 39.71400
H  -8.72000 11.15500 39.26000
H  -5.37900 16.27700 39.74100
H  -2.72100 18.03300 42.39900
H  -3.22800 16.68400 43.40800
H  -3.92400 18.31300 43.59900
Mg -4.74300 25.68200 25.57400
C  -3.80900 26.91400 28.68500
C  -6.86600 23.46100 27.18100
C  -5.31000 24.20700 22.59300
C  -2.58800 27.92800 24.05000
N  -5.52300 25.47100 27.70400
C  -4.82800 25.90000 28.77100
C  -5.40500 25.32000 30.08400
C  -6.30900 24.12100 29.55600
C  -6.23100 24.35200 28.06700
C  -5.79800 22.72700 29.99000
C  -6.16600 26.38800 30.84000
C  -6.93900 26.00300 32.10700
H  -6.46400 24.76100 32.91500
N  -6.04100 24.11700 24.95200
C  -6.85800 23.33500 25.72100
C  -7.64700 22.44400 24.88400
C  -7.19300 22.70100 23.55700
C  -6.14400 23.70700 23.63000
C  -8.67400 21.55900 25.47300
C  -7.56200 21.91400 22.27700
O  -7.00600 22.14200 21.20300
C  -8.68200 20.96700 22.32600
N  -3.91000 25.91600 23.66400
C  -4.35300 25.19600 22.60200
C  -3.54400 25.59700 21.35300
C  -3.09000 27.00300 21.71100
C  -3.18400 26.95100 23.20500
C  -2.48900 24.55300 20.92500
C  -4.02600 28.12500 21.08100
C  -3.48100 28.71900 19.85800
N  -3.33800 27.06400 26.13700
C  -2.62700 28.03900 25.38600
C  -1.78200 28.77400 26.36900
C  -2.19200 28.36600 27.63700
C  -3.21400 27.36900 27.46600
C  -0.80300 29.84000 26.13100
C  -2.03500 28.51700 29.08300
O  -1.16800 29.19800 29.70200
C  -2.99700 27.65800 29.79500
C  -2.41400 26.80100 30.89200
O  -1.67000 25.87700 30.68700
O  -2.75100 27.28800 32.12000
C  -2.07300 26.83200 33.28600
H  -7.50800 22.78000 27.74400
H  -5.52400 23.90800 21.56500
H  -1.96600 28.66600 23.53900
H  -4.65000 24.98500 30.79500
H  -7.35300 24.27700 29.82600
H  -6.56000 22.11400 30.47100
H  -5.21500 22.75000 30.91000
H  -5.40800 22.19100 29.12500
H  -7.02900 26.52500 30.18800
H  -5.53200 27.27400 30.87500
H  -8.02400 25.97200 32.00800
H  -6.95000 26.83700 32.80800
H  -8.51000 20.50700 25.24000
H  -9.63400 21.84100 25.03800
H  -8.93700 21.68000 26.52400
H  -8.56100 20.16500 23.05400
H  -8.85500 20.58200 21.32100
H  -9.54200 21.51000 22.71700
H  -4.26300 25.65500 20.53500
H  -2.04000 27.11500 21.44200
H  -2.22300 23.94800 21.79200
H  -1.54000 25.00500 20.63800
H  -2.93200 23.93200 20.14600
H  -4.29600 28.93100 21.76300
H  -4.96400 27.62800 20.83500
H  -4.02000 28.45500 18.94800
H  -2.46800 28.35200 19.69300
H  -3.36300 29.79600 19.97800
H  -0.12300 29.48100 25.35800
H  -0.14800 30.10200 26.96200
H  -1.33800 30.72000 25.77400
H  -3.61800 28.33200 30.38400
H  -1.74000 25.79400 33.27200
H  -2.62200 26.99800 34.21400
H  -1.17800 27.45100 33.35500

