158

Mg -1.19200 18.17200 27.52400
C  -1.76300 15.80300 30.05800
C  -1.60900 20.68500 30.02600
C  -1.42900 20.46700 25.13400
C  -1.32000 15.61500 25.11900
N  -1.64500 18.22700 29.81000
C  -1.72900 17.10500 30.58200
C  -1.81500 17.54200 32.06600
C  -2.05200 19.08900 31.99100
C  -1.67100 19.36500 30.53900
C  -3.45400 19.61800 32.42500
C  -0.58200 17.03900 32.88700
C  -0.29200 17.68400 34.24000
H  0.41100 16.78200 35.33900
N  -1.36600 20.30400 27.61400
C  -1.51300 21.17700 28.67000
C  -1.60800 22.50300 28.18300
C  -1.79900 22.39700 26.76600
C  -1.54600 21.01100 26.44900
C  -1.65900 23.70000 29.07100
C  -2.23400 23.38400 25.72700
O  -2.47100 23.19100 24.53600
C  -2.45000 24.80400 26.20200
N  -1.42700 18.03500 25.50100
C  -1.35900 19.16300 24.73500
C  -1.21500 18.78300 23.28800
C  -0.96800 17.25600 23.31200
C  -1.23200 16.94000 24.74700
C  -2.51700 19.13500 22.46100
C  0.49100 16.83000 22.95300
C  1.70500 17.33400 23.87300
N  -1.35400 16.07400 27.47800
C  -1.54500 15.12800 26.44200
C  -1.67100 13.83700 26.99800
C  -1.81700 14.00400 28.40700
C  -1.68600 15.42100 28.65000
C  -1.81100 12.57800 26.21200
C  -1.99900 13.36800 29.71300
O  -2.21500 12.20100 30.00200
C  -1.79200 14.47900 30.82100
C  -0.62600 14.03100 31.65200
O  0.52000 14.17900 31.26500
O  -1.13100 13.43200 32.79000
C  -0.16100 12.53800 33.53700
H  -1.56400 21.50600 30.74500
H  -1.35700 21.13100 24.26900
H  -1.26300 14.84100 24.35100
H  -2.69100 17.07900 32.51900
H  -1.34000 19.54100 32.68100
H  -3.37400 20.42000 33.15900
H  -4.06400 18.87700 32.94200
H  -4.02400 20.07400 31.61600
H  0.29100 16.99200 32.23700
H  -0.77400 16.02200 33.22800
H  -1.25100 18.07800 34.57600
H  0.20000 18.64400 34.08400
H  -2.67800 24.05600 29.22500
H  -1.15400 24.49700 28.52500
H  -1.25800 23.46500 30.05600
H  -3.01100 25.38200 25.46800
H  -1.47000 25.23000 26.41500
H  -2.99800 24.68600 27.13700
H  -0.32200 19.24400 22.86700
H  -1.65100 16.70500 22.66500
H  -2.22600 19.85200 21.69200
H  -3.22000 19.54800 23.18500
H  -2.97800 18.34800 21.86400
H  0.62800 17.12400 21.91200
H  0.50700 15.75200 23.11300
H  1.40200 17.87000 24.77200
H  2.33700 17.97200 23.25500
H  2.38600 16.58100 24.26900
H  -1.68400 12.46400 25.13600
H  -2.87500 12.35300 26.28500
H  -1.35800 11.69700 26.66800
H  -2.72600 14.52900 31.38100
H  0.38500 11.80400 32.94400
H  -0.74200 11.93500 34.23500
H  0.51800 13.13100 34.14900
Mg -8.90100 17.25900 41.69500
C  -5.41600 17.02200 41.54000
C  -8.66100 20.51900 41.01700
C  -12.18100 17.21200 41.26300
C  -9.00200 13.79500 42.11700
N  -7.17200 18.54700 41.35800
C  -5.89200 18.24000 41.20400
C  -5.05700 19.42800 40.68500
C  -6.05300 20.58700 41.06600
C  -7.42500 19.85100 41.12000
C  -5.80600 21.45500 42.39900
C  -4.67000 19.22400 39.15900
C  -3.17500 19.04800 38.83000
H  -2.78000 17.71500 38.22200
N  -10.22900 18.68400 41.29900
C  -9.94200 20.01000 41.04500
C  -11.14600 20.70200 40.73000
C  -12.24800 19.76600 40.80000
C  -11.64400 18.46500 41.10700
C  -11.22200 22.10800 40.25300
C  -13.72800 19.99800 40.51800
O  -14.15100 21.12100 40.34200
C  -14.71800 18.90900 40.36300
N  -10.38800 15.64800 41.52000
C  -11.68100 15.94900 41.50400
C  -12.48400 14.69500 41.95700
C  -11.48600 13.58100 42.18700
C  -10.18900 14.41300 41.87900
C  -13.41600 14.94900 43.20000
C  -11.48800 12.36600 41.23500
C  -12.71700 11.46800 41.39100
N  -7.45100 15.68500 41.69200
C  -7.70300 14.37100 42.04700
C  -6.45600 13.71600 42.35400
C  -5.47600 14.69400 42.17500
C  -6.16900 15.88800 41.84600
C  -6.29000 12.34200 42.89300
C  -4.01900 15.06200 42.26800
O  -3.02900 14.40100 42.52000
C  -3.95800 16.61400 41.90600
C  -3.49000 17.49500 43.06600
O  -4.23100 18.23600 43.66300
O  -2.17100 17.48200 43.21100
C  -1.59100 18.54500 44.05200
H  -8.59000 21.58600 40.79500
H  -13.27100 17.19100 41.32100
H  -9.09600 12.75000 42.42000
H  -4.15100 19.47800 41.28900
H  -6.00500 21.31300 40.25400
H  -5.58900 22.49700 42.16600
H  -4.89900 21.15600 42.92600
H  -6.68100 21.39300 43.04500
H  -5.08400 20.02900 38.55300
H  -5.14900 18.38000 38.66300
H  -2.73600 19.11900 39.82500
H  -2.86300 19.85200 38.16300
H  -10.22700 22.53000 40.11400
H  -11.60100 22.77500 41.02800
H  -11.88600 22.21200 39.39600
H  -15.53500 19.27100 39.73800
H  -15.06800 18.42300 41.27300
H  -14.32200 18.11700 39.72800
H  -13.11300 14.30000 41.15900
H  -11.49500 13.16500 43.19400
H  -12.99000 14.53100 44.11200
H  -14.34000 14.46700 42.88000
H  -13.47300 16.01700 43.41000
H  -10.58300 11.75800 41.24000
H  -11.51900 12.86700 40.26800
H  -13.41600 11.63100 40.57100
H  -13.26100 11.74900 42.29200
H  -12.52400 10.39500 41.38300
H  -7.17300 12.05500 43.46300
H  -5.47000 12.22600 43.60200
H  -6.11800 11.65200 42.06700
H  -3.40100 16.70400 40.97300
H  -1.85500 19.50000 43.59900
H  -0.52300 18.33700 44.11800
H  -2.00900 18.50200 45.05800

