158

Mg 9.06900 49.01700 25.51000
C  6.80500 49.05700 28.28400
C  11.51400 49.96200 27.74800
C  11.28100 48.86700 23.03600
C  6.46700 48.52800 23.46800
N  9.00800 49.61100 27.80000
C  8.11200 49.28600 28.75900
C  8.70800 49.34600 30.12300
C  9.97400 50.24800 29.82900
C  10.26700 49.88400 28.34500
C  9.75900 51.74600 29.93900
C  9.00900 47.93400 30.74100
C  9.61600 47.92900 32.21500
H  8.82600 47.08600 33.19200
N  11.18500 49.20100 25.47300
C  12.00300 49.64600 26.45600
C  13.35400 49.67800 26.02600
C  13.33000 49.27700 24.66000
C  11.87800 49.09600 24.30000
C  14.48800 50.16800 26.92700
C  14.52900 49.10800 23.77600
O  14.43400 48.80000 22.59600
C  15.83200 49.11900 24.36100
N  8.90500 48.95400 23.44100
C  9.94700 48.69900 22.63600
C  9.36200 48.46600 21.19800
C  7.83300 48.28000 21.37300
C  7.73300 48.77700 22.83300
C  9.81500 49.47400 20.05400
C  7.28300 46.86200 21.00200
C  7.39300 45.84300 22.17300
N  7.06900 48.80900 25.74800
C  6.14900 48.47500 24.79900
C  4.80000 48.34100 25.34800
C  5.07900 48.59400 26.73900
C  6.43900 48.87000 26.93500
C  3.47000 48.23800 24.61800
C  4.41600 48.64000 28.03100
O  3.24400 48.61800 28.40400
C  5.53700 49.05100 29.01000
C  5.46800 48.18800 30.25300
O  5.79700 47.06600 30.39700
O  4.71100 48.86100 31.15900
C  4.50500 48.11900 32.39800
H  12.25900 50.14300 28.52700
H  11.99600 48.86500 22.21000
H  5.62200 48.25200 22.83400
H  8.05100 49.86100 30.82500
H  10.85000 49.99000 30.42400
H  8.70600 51.96300 29.76000
H  10.39100 52.21300 29.18400
H  10.17100 52.22300 30.82800
H  9.78900 47.51500 30.10500
H  8.22700 47.17700 30.67500
H  9.73500 48.92600 32.63900
H  10.60200 47.48400 32.08100
H  15.21400 50.76900 26.37900
H  15.05300 49.33200 27.34000
H  14.03700 50.71500 27.75500
H  16.45100 48.51400 23.69900
H  15.70000 48.60000 25.31100
H  16.20200 50.12800 24.54200
H  9.79700 47.47900 21.04000
H  7.11900 48.88300 20.81100
H  8.94900 49.73200 19.44500
H  10.59400 48.96000 19.49000
H  10.33800 50.34900 20.44000
H  7.86000 46.43800 20.18000
H  6.24900 46.89500 20.65800
H  6.36300 45.66200 22.47900
H  7.85900 46.20700 23.08800
H  7.87700 44.93600 21.81000
H  3.08600 47.24000 24.83300
H  3.59100 48.32300 23.53800
H  2.85700 49.06700 24.97100
H  5.38000 50.08300 29.32500
H  4.11100 48.71700 33.21900
H  5.40200 47.62400 32.77100
H  3.78700 47.30500 32.29500
Mg -11.61600 37.89000 42.41800
C  -8.98300 35.59400 41.56700
C  -10.09100 40.20600 40.46100
C  -14.34700 39.88100 42.74700
C  -13.17400 35.37800 43.95700
N  -9.77900 37.80100 41.03800
C  -8.85500 36.86000 40.92500
C  -7.76000 37.30400 39.96900
C  -7.96300 38.86500 39.87700
C  -9.36800 39.03700 40.51100
C  -6.84800 39.77500 40.55300
C  -7.63300 36.45100 38.64700
C  -6.29900 35.72300 38.31900
H  -5.52200 36.22900 37.03800
N  -12.17100 39.77200 41.63600
C  -11.34200 40.64700 40.95200
C  -12.00300 41.87900 40.68900
C  -13.21300 41.84600 41.44500
C  -13.30900 40.47100 41.97800
C  -11.51600 42.96900 39.65100
C  -14.24000 42.96800 41.54700
O  -13.94700 44.08800 41.16200
C  -15.68800 42.84800 42.05900
N  -13.60300 37.67300 43.26800
C  -14.52900 38.62200 43.31400
C  -15.83100 38.00400 43.83900
C  -15.35600 36.64700 44.47700
C  -13.97800 36.49000 43.79900
C  -16.64400 38.98600 44.77500
C  -16.33200 35.41700 44.11600
C  -16.62800 34.33300 45.26300
N  -11.20600 35.86600 42.74000
C  -11.89000 34.97000 43.50100
C  -11.19100 33.71500 43.52900
C  -10.01800 33.97500 42.81700
C  -10.11000 35.22900 42.31400
C  -11.66800 32.39100 44.20400
C  -8.82500 33.37100 42.48000
O  -8.32000 32.31300 42.81800
C  -8.00400 34.37200 41.63700
C  -6.66200 34.68400 42.30600
O  -5.67800 33.93500 42.24500
O  -6.67200 35.67000 43.23900
C  -5.44700 35.95000 44.02600
H  -9.52100 40.98300 39.94800
H  -15.15200 40.56500 43.02600
H  -13.61900 34.56000 44.52700
H  -6.78800 37.26900 40.46000
H  -8.08100 39.19500 38.84400
H  -7.34000 40.28100 41.38300
H  -6.51900 40.54100 39.85000
H  -5.96700 39.17200 40.77400
H  -7.69700 37.17700 37.83700
H  -8.47400 35.76000 38.58700
H  -6.47300 34.65300 38.20600
H  -5.60900 35.80700 39.15800
H  -11.66400 43.93400 40.13600
H  -11.99200 42.91200 38.67200
H  -10.43600 42.86200 39.55300
H  -16.30900 43.72800 41.88800
H  -15.73400 42.57200 43.11200
H  -16.15200 42.07400 41.44700
H  -16.25300 37.67800 42.88900
H  -15.32800 36.71500 45.56400
H  -17.27100 38.39400 45.44100
H  -17.26600 39.49400 44.03700
H  -16.06900 39.76300 45.27900
H  -15.96700 34.90100 43.22800
H  -17.26500 35.90600 43.83300
H  -17.69100 34.10200 45.18700
H  -16.56600 34.84900 46.22100
H  -15.98500 33.46300 45.13200
H  -10.90500 31.66500 43.92200
H  -12.65200 32.12400 43.82100
H  -11.61400 32.57200 45.27700
H  -7.79700 33.97500 40.64400
H  -5.10000 36.93500 43.71400
H  -4.54900 35.36000 43.83800
H  -5.63000 36.08000 45.09200

