158

Mg 41.76600 41.67300 27.30600
C  40.76200 44.15000 29.67900
C  42.54800 39.58700 29.78900
C  42.93200 39.48200 24.93000
C  41.31500 44.06400 24.75500
N  41.61800 41.91300 29.47500
C  41.08400 42.87200 30.24900
C  41.08800 42.44300 31.72500
C  41.72000 41.02300 31.67200
C  41.97900 40.80600 30.19500
C  42.92900 40.70600 32.58000
C  39.81100 42.59100 32.56600
C  39.57000 41.53900 33.57800
H  38.99200 42.02300 34.95500
N  42.55600 39.83500 27.39400
C  42.82000 39.11100 28.52300
C  43.29700 37.79900 28.19700
C  43.48700 37.80900 26.76300
C  42.94000 39.04600 26.30900
C  43.55600 36.73100 29.26700
C  44.14400 36.68400 25.93800
O  44.37600 36.79700 24.77200
C  44.69600 35.43200 26.60500
N  42.01500 41.72000 25.06100
C  42.58600 40.70000 24.36400
C  42.50800 41.04300 22.87700
C  41.92000 42.47700 22.81500
C  41.73500 42.79000 24.32200
C  43.92500 40.84400 22.26300
C  40.55600 42.49800 22.07600
C  39.43800 41.58900 22.47500
N  41.23500 43.78700 27.14700
C  41.04600 44.55500 26.05000
C  40.67800 45.93500 26.54000
C  40.46400 45.70100 27.92800
C  40.83700 44.43000 28.28400
C  40.55900 47.14600 25.73800
C  40.02500 46.42300 29.10100
O  39.62500 47.54600 29.27400
C  40.07800 45.32200 30.36600
C  40.86000 45.92600 31.41900
O  42.03400 46.27100 31.41300
O  39.99000 46.29400 32.39500
C  40.54700 46.96400 33.56500
H  42.64900 38.97200 30.68600
H  43.09000 38.72600 24.15700
H  41.26200 44.87200 24.02200
H  41.83600 43.14600 32.09000
H  40.90000 40.32100 31.82600
H  42.88700 41.24900 33.52300
H  43.87800 40.93600 32.09600
H  42.85800 39.67400 32.92300
H  39.03500 42.54800 31.80200
H  39.86700 43.48200 33.19200
H  40.53000 41.10300 33.85300
H  38.84100 40.81000 33.22300
H  44.58800 36.39100 29.18900
H  42.91700 35.86800 29.07400
H  43.23400 36.78200 30.30700
H  45.53900 35.66300 27.25600
H  44.95500 34.73000 25.81200
H  43.93300 34.99700 27.25100
H  41.81400 40.35200 22.39800
H  42.71000 43.08600 22.37500
H  43.93200 40.27700 21.33200
H  44.57500 40.31400 22.95900
H  44.28300 41.85700 22.08000
H  40.84800 42.21400 21.06500
H  40.19500 43.52200 22.18100
H  39.16200 40.86900 21.70500
H  38.58400 42.24200 22.65600
H  39.60300 41.15800 23.46300
H  40.91500 47.89100 26.44900
H  39.53200 47.35200 25.43800
H  41.33100 47.08200 24.97100
H  39.10900 44.94900 30.69600
H  40.90800 46.34200 34.38400
H  39.64800 47.47900 33.90300
H  41.39100 47.60100 33.30200
Mg -5.13200 25.45200 25.69500
C  -3.71500 26.99100 28.46300
C  -6.68200 23.20000 27.78000
C  -6.65900 24.20400 22.94600
C  -3.31600 27.63300 23.52000
N  -5.03500 25.03000 27.90400
C  -4.49900 25.86900 28.83300
C  -4.84000 25.46400 30.26000
C  -5.67300 24.16200 30.02700
C  -5.77700 24.05600 28.51300
C  -5.11300 22.83600 30.63300
C  -5.56600 26.66800 31.00100
C  -5.56500 26.81300 32.52200
H  -4.82000 25.80800 33.36900
N  -6.40700 23.84200 25.40400
C  -6.89700 22.99000 26.38700
C  -7.87300 22.03600 25.72800
C  -7.87100 22.34600 24.31400
C  -6.90900 23.51600 24.14800
C  -8.56100 20.99900 26.49400
C  -8.76100 21.75000 23.22500
O  -8.56800 21.99000 22.04300
C  -9.86900 20.84700 23.47500
N  -4.99600 25.87400 23.46700
C  -5.85100 25.26200 22.64900
C  -5.52300 25.64500 21.19200
C  -4.39200 26.79500 21.32100
C  -4.17200 26.73300 22.84900
C  -5.02900 24.42800 20.31600
C  -4.89600 28.18900 20.81100
C  -3.89000 29.00100 20.01100
N  -3.79000 26.99100 25.85500
C  -3.11300 27.77100 24.94900
C  -2.31000 28.72300 25.66400
C  -2.48400 28.42300 27.02300
C  -3.46600 27.40900 27.14400
C  -1.46300 29.88000 25.20100
C  -2.06700 28.74800 28.30100
O  -1.14800 29.48800 28.68600
C  -2.86000 27.91000 29.34700
C  -1.85200 27.12400 30.11500
O  -1.32400 26.06100 29.73400
O  -1.51400 27.76600 31.23300
C  -0.46300 27.24800 32.11000
H  -7.15500 22.48200 28.45300
H  -7.21800 23.97700 22.03600
H  -2.75200 28.43300 23.03500
H  -3.91900 25.25700 30.80500
H  -6.68400 24.35100 30.38600
H  -4.77800 22.11500 29.88700
H  -5.90800 22.34900 31.19800
H  -4.27300 23.08000 31.28300
H  -6.63500 26.62800 30.79300
H  -5.26400 27.64000 30.61300
H  -6.59400 26.60400 32.81600
H  -5.24400 27.82000 32.78800
H  -9.52400 20.73700 26.05500
H  -8.77200 21.49300 27.44300
H  -7.91800 20.12300 26.41900
H  -9.58700 20.08000 24.19600
H  -10.20300 20.33700 22.57200
H  -10.75100 21.31500 23.91200
H  -6.33500 26.10600 20.63000
H  -3.44000 26.49400 20.88400
H  -4.11000 24.61100 19.75900
H  -5.84400 24.16600 19.64100
H  -4.90300 23.53100 20.92200
H  -5.24200 28.65100 21.73500
H  -5.78700 28.20100 20.18300
H  -4.22300 29.27500 19.01000
H  -2.89800 28.56200 19.90400
H  -3.69800 29.88500 20.62000
H  -0.45200 29.49800 25.06100
H  -1.58600 30.72700 25.87500
H  -1.84800 30.23700 24.24600
H  -3.39100 28.55300 30.04800
H  0.34500 27.96900 31.98400
H  -0.02000 26.31600 31.75900
H  -0.91700 27.13600 33.09400

