158

Mg 6.89000 54.47500 41.18300
C  4.59200 51.83800 41.01100
C  9.15900 52.54600 39.82500
C  8.64600 57.26100 40.90000
C  4.02500 56.56200 41.94400
N  6.71100 52.49000 40.25100
C  5.75100 51.50500 40.35200
C  6.22700 50.19500 39.72200
C  7.75300 50.42000 39.58800
C  7.91000 51.93500 39.91200
C  8.61100 49.52500 40.52000
C  5.54700 49.92200 38.34000
C  5.23400 48.47600 38.03200
H  5.71900 47.80800 36.66300
N  8.74400 54.83600 40.53100
C  9.51900 53.89000 40.02000
C  10.81200 54.41400 39.85000
C  10.69200 55.84000 40.04500
C  9.30500 56.08100 40.51100
C  12.05700 53.70600 39.45600
C  11.77100 56.86700 39.72300
O  12.83700 56.46400 39.27000
C  11.50400 58.31900 39.70400
N  6.34000 56.64400 41.36900
C  7.35800 57.56500 41.26900
C  6.87600 59.04300 41.43000
C  5.33900 58.78900 41.49600
C  5.17400 57.21100 41.60200
C  7.53800 59.81500 42.67400
C  4.55400 59.27300 40.26300
C  3.48000 60.39200 40.36500
N  4.75600 54.25000 41.54000
C  3.80000 55.20800 41.86400
C  2.50200 54.53800 42.04800
C  2.82000 53.16500 41.84300
C  4.15700 53.03700 41.45900
C  1.21900 55.10900 42.53300
C  2.26000 51.80500 41.89100
O  1.13400 51.40000 42.19200
C  3.42400 50.90200 41.40500
C  2.84900 49.96100 40.32900
O  2.32600 50.19800 39.26400
O  2.89300 48.68700 40.93900
C  2.44100 47.53400 40.06100
H  9.93200 51.85500 39.48200
H  9.21100 58.19200 40.81800
H  3.21200 57.27800 42.07700
H  6.03700 49.42000 40.46400
H  8.06800 50.22900 38.56200
H  9.34900 48.98700 39.92500
H  7.96100 48.83000 41.05200
H  9.14000 50.17400 41.21800
H  6.18800 50.36500 37.57700
H  4.62300 50.49800 38.39300
H  4.15100 48.58700 37.97900
H  5.50900 47.84200 38.87500
H  12.26300 53.70600 38.38600
H  12.03400 52.68500 39.83900
H  12.89200 54.12700 40.01700
H  10.57900 58.53900 39.17100
H  12.30600 58.80100 39.14500
H  11.54400 58.62700 40.74900
H  7.14100 59.59500 40.52800
H  4.98700 59.23300 42.42700
H  6.79200 60.27400 43.32300
H  8.08700 60.60700 42.16600
H  8.24600 59.18000 43.20700
H  4.15000 58.41100 39.73200
H  5.29700 59.67000 39.57200
H  3.78300 61.25400 39.77100
H  3.30800 60.61800 41.41700
H  2.60200 59.93700 39.90500
H  0.35000 54.71800 42.00200
H  1.34900 56.18700 42.44300
H  1.08200 54.88800 43.59100
H  3.69800 50.28100 42.25800
H  3.26800 46.82900 39.97300
H  2.07700 47.87900 39.09300
H  1.56900 47.14000 40.58400
Mg -12.60000 16.35900 42.54800
C  -9.57900 14.70000 41.95700
C  -11.35600 19.02200 41.00700
C  -15.79900 17.66500 42.79300
C  -14.03600 13.16100 43.53800
N  -10.75400 16.71200 41.37200
C  -9.60500 15.94500 41.48500
C  -8.38000 16.69700 40.93200
C  -8.95500 18.14900 40.89100
C  -10.45300 17.95600 41.14900
C  -8.33500 19.20900 41.98800
C  -7.88700 16.15000 39.56300
C  -6.43500 15.80700 39.37700
H  -6.03000 14.75400 38.34500
N  -13.48800 18.07700 42.02400
C  -12.71700 19.07300 41.34100
C  -13.62500 20.15700 41.05700
C  -14.88800 19.85600 41.58300
C  -14.82300 18.46800 42.17400
C  -13.19900 21.46800 40.38100
C  -16.06800 20.75300 41.42100
O  -15.99100 21.91400 40.94100
C  -17.46600 20.32300 41.88600
N  -14.72200 15.44700 42.84300
C  -15.79600 16.32700 43.03900
C  -17.02900 15.47800 43.66100
C  -16.30700 14.15000 44.10400
C  -14.94700 14.24500 43.44900
C  -17.72800 16.26900 44.86100
C  -17.06300 12.83700 43.93600
C  -16.98500 11.90200 45.10500
N  -12.01800 14.32000 42.69100
C  -12.70700 13.20100 43.21300
C  -11.72100 12.11300 43.30300
C  -10.51800 12.66200 42.87800
C  -10.69000 14.00100 42.48100
C  -11.96200 10.74800 43.80200
C  -9.14000 12.34600 42.55600
O  -8.38100 11.31900 42.72700
C  -8.48200 13.72800 42.02000
C  -7.38600 14.07900 43.01200
O  -7.62500 14.57100 44.13700
O  -6.15600 13.89700 42.45900
C  -5.07800 14.54200 43.19500
H  -10.87200 19.86100 40.50200
H  -16.70300 18.17400 43.13300
H  -14.38200 12.23700 44.00600
H  -7.61200 16.62700 41.70300
H  -8.83200 18.58600 39.90000
H  -8.93200 19.76200 42.71200
H  -7.76000 19.92900 41.40600
H  -7.57100 18.67800 42.55600
H  -8.10100 16.90800 38.81000
H  -8.48900 15.25800 39.39400
H  -6.08300 15.47300 40.35200
H  -5.96900 16.72600 39.02100
H  -12.20400 21.42200 39.93900
H  -13.27100 22.38200 40.97000
H  -13.82100 21.63300 39.50200
H  -17.76300 20.31400 42.93500
H  -17.53100 19.28000 41.57800
H  -18.21600 20.90000 41.34500
H  -17.70000 15.26300 42.82900
H  -16.12900 14.39600 45.15100
H  -16.97200 16.94000 45.26800
H  -17.91800 15.51800 45.62900
H  -18.64800 16.73200 44.50400
H  -16.58100 12.34900 43.09000
H  -18.08100 13.08100 43.63100
H  -17.94200 11.65700 45.56400
H  -16.27900 12.27900 45.84600
H  -16.57300 10.98500 44.68300
H  -11.00000 10.27900 44.00800
H  -12.47400 10.13000 43.06500
H  -12.54000 10.79500 44.72500
H  -8.03600 13.63900 41.03000
H  -5.24100 15.61600 43.11500
H  -4.10000 14.37100 42.74500
H  -4.99300 14.10800 44.19200

