158

Mg 44.89100 5.25800 48.43000
C  42.35400 7.63300 47.84600
C  42.49900 2.81300 48.15100
C  47.31400 2.90600 48.48500
C  47.24100 7.69300 48.00400
N  42.61000 5.23500 48.18800
C  41.85700 6.31400 47.81800
C  40.43100 5.95500 47.37200
C  40.41300 4.43800 47.78500
C  41.88300 4.11600 48.08500
C  39.50100 4.14700 49.08600
C  40.23100 6.31100 45.87700
C  39.02800 7.24800 45.50400
H  38.30700 6.99600 44.17400
N  44.89400 3.14600 48.51400
C  43.78800 2.36200 48.39300
C  44.24500 1.00200 48.35800
C  45.63500 0.99800 48.47500
C  46.04000 2.37600 48.46200
C  43.32800 -0.16700 48.35400
C  46.52900 -0.24900 48.74600
O  45.98900 -1.37600 48.83500
C  48.02000 -0.19800 48.85700
N  46.96100 5.26700 48.09100
C  47.78800 4.20700 48.44700
C  49.27800 4.61000 48.66100
C  49.26600 6.14600 48.58600
C  47.76400 6.39600 48.09800
C  50.03900 3.94100 49.90300
C  50.42300 6.79800 47.63200
C  51.31800 7.84000 48.30500
N  44.84900 7.29500 48.03900
C  45.88400 8.16700 47.83600
C  45.31700 9.52000 47.74000
C  43.97200 9.36500 47.79300
C  43.71400 8.00900 47.99700
C  46.14200 10.84400 47.55300
C  42.74100 10.12300 47.71300
O  42.55800 11.36400 47.66800
C  41.62700 8.97700 47.73400
C  40.67800 9.23400 48.80600
O  40.77400 8.89200 50.00500
O  39.67600 10.03400 48.34400
C  38.70600 10.49100 49.32800
H  41.74900 2.02100 48.10000
H  48.08100 2.13100 48.42700
H  47.91400 8.55100 48.05800
H  39.67500 6.48000 47.95500
H  40.20000 3.79700 46.93000
H  40.15200 3.88100 49.91900
H  38.95400 3.23600 48.84400
H  38.89100 4.99700 49.39100
H  40.26700 5.43800 45.22400
H  41.08500 6.92300 45.59000
H  39.36300 8.28400 45.51200
H  38.30600 7.14500 46.31400
H  43.51800 -0.96300 49.07400
H  43.50000 -0.72300 47.43300
H  42.28000 0.12600 48.41400
H  48.40600 -1.20800 48.99600
H  48.10600 0.37200 49.78200
H  48.55000 0.07400 47.94400
H  49.68400 4.14300 47.76300
H  49.38300 6.55500 49.58900
H  49.26700 3.91200 50.67100
H  50.85000 4.60900 50.19300
H  50.39300 2.91300 49.84000
H  49.77400 7.27400 46.89700
H  50.93800 5.98400 47.12300
H  51.30400 8.71000 47.64800
H  52.29500 7.36200 48.36800
H  51.00400 8.08500 49.32000
H  45.44700 11.61900 47.23100
H  46.99600 10.69100 46.89200
H  46.46800 11.06400 48.57000
H  41.12400 9.09200 46.77400
H  39.10600 10.96400 50.22500
H  38.26500 9.62000 49.81300
H  37.97100 11.09700 48.79900
Mg 8.74900 48.78300 26.04600
C  7.08500 48.80700 29.09900
C  11.57700 49.87100 27.75900
C  10.51200 48.52200 23.17000
C  5.83900 48.09200 24.38000
N  9.20300 49.28900 28.17100
C  8.41900 49.14200 29.21900
C  9.12000 49.50600 30.43600
C  10.38200 50.29500 29.99700
C  10.41000 49.84400 28.53900
C  10.44700 51.85200 30.26100
C  9.41300 48.35200 31.42900
C  8.69600 48.41400 32.78100
H  8.77300 47.29300 33.74800
N  10.79200 49.30900 25.48100
C  11.78700 49.61800 26.37900
C  13.11100 49.61700 25.66900
C  12.85200 49.10600 24.35000
C  11.33900 48.89300 24.29600
C  14.39600 49.80900 26.47800
C  13.79900 48.69800 23.29500
O  13.48900 48.19900 22.23400
C  15.26800 48.79100 23.46100
N  8.22700 48.47700 24.04900
C  9.13600 48.36900 23.09000
C  8.46500 48.04600 21.75800
C  7.14200 47.48100 22.29200
C  7.02300 48.11000 23.66000
C  8.41900 49.10700 20.58500
C  7.00100 45.95800 22.17800
C  6.64100 45.15600 23.46500
N  6.81400 48.53000 26.58900
C  5.70200 48.24000 25.79500
C  4.50700 48.19400 26.64900
C  4.94900 48.38900 27.98000
C  6.37000 48.66100 27.91700
C  3.17900 47.83000 26.30000
C  4.61800 48.39700 29.38700
O  3.47800 48.24600 29.96200
C  5.99100 48.57100 30.18700
C  6.07600 47.25000 31.01300
O  6.89700 46.37500 30.88600
O  5.09400 47.32000 32.02900
C  5.00100 46.28100 33.01300
H  12.48600 50.08900 28.32300
H  10.96400 48.52600 22.17600
H  5.02500 47.62300 23.82300
H  8.53200 50.28200 30.92600
H  11.27200 49.81500 30.40200
H  10.07300 52.38800 29.38900
H  11.45600 52.20500 30.47800
H  9.75900 51.91800 31.10300
H  10.46700 48.26300 31.69300
H  9.19100 47.45900 30.84400
H  7.67800 48.77800 32.63900
H  9.27800 49.14000 33.34900
H  14.26300 50.66400 27.14100
H  15.23600 50.18900 25.89500
H  14.76200 48.91100 26.97600
H  15.60900 48.18000 24.29600
H  15.69700 49.78700 23.56600
H  15.76300 48.38100 22.58000
H  9.08400 47.22300 21.39900
H  6.29200 47.97000 21.81700
H  7.44000 49.53000 20.36100
H  8.89000 48.66600 19.70700
H  8.90100 50.05200 20.83600
H  7.85400 45.43100 21.75100
H  6.13000 45.80100 21.54300
H  6.90700 45.48900 24.46800
H  6.96600 44.11600 23.43500
H  5.56600 44.98200 23.43800
H  2.82100 46.93000 26.80100
H  3.30400 47.62600 25.23700
H  2.51800 48.67700 26.48200
H  6.04100 49.42500 30.86300
H  5.51400 46.70100 33.87800
H  5.53000 45.38700 32.68200
H  3.94200 46.08000 33.17800

