158

Mg 17.22200 -1.23900 27.42700
C  16.06300 0.64600 30.16900
C  19.25100 -3.08500 29.68600
C  18.61700 -2.97700 24.92500
C  15.72900 0.94500 25.31600
N  17.49900 -1.24500 29.72500
C  17.04300 -0.34000 30.62400
C  17.49300 -0.60400 32.08600
C  18.77200 -1.56600 31.78200
C  18.49000 -2.01200 30.27800
C  20.15400 -0.95000 32.03100
C  16.41200 -1.17100 33.05900
C  16.75800 -1.15700 34.59100
H  18.05100 -0.51000 35.01600
N  18.51200 -2.93500 27.32600
C  19.15600 -3.62600 28.35600
C  19.81000 -4.80400 27.81700
C  19.62200 -4.72800 26.43300
C  18.88800 -3.46400 26.13800
C  20.39300 -5.85900 28.68400
C  19.99600 -5.71900 25.37700
O  19.67900 -5.68400 24.21700
C  20.84000 -6.89000 25.78000
N  17.23300 -0.96400 25.35400
C  17.83800 -1.83500 24.54200
C  17.64000 -1.43000 23.00700
C  16.63800 -0.19500 23.15700
C  16.44300 -0.04100 24.64700
C  19.00500 -1.12100 22.18400
C  15.26400 -0.31700 22.44900
C  14.81000 0.93500 21.66500
N  16.02200 0.34200 27.66100
C  15.47400 1.18800 26.71700
C  14.65400 2.24000 27.34400
C  14.77400 1.99300 28.69400
C  15.73300 0.93300 28.84600
C  13.90000 3.39100 26.63400
C  14.35200 2.40200 29.96600
O  13.61800 3.26100 30.35000
C  15.32000 1.61700 31.04900
C  16.18900 2.61700 31.76700
O  17.28900 2.88400 31.47000
O  15.46600 3.12900 32.88400
C  16.11700 4.01100 33.86600
H  19.83100 -3.70100 30.37600
H  19.02600 -3.44800 24.02800
H  15.18800 1.66300 24.69600
H  17.86400 0.31500 32.53900
H  18.73800 -2.45800 32.40800
H  20.72400 -0.78500 31.11600
H  20.75000 -1.77700 32.41800
H  20.12300 -0.06400 32.66400
H  16.28500 -2.21800 32.78400
H  15.46900 -0.65800 32.87200
H  16.61800 -2.14000 35.04100
H  15.97400 -0.48600 34.94200
H  19.70600 -6.70500 28.66500
H  20.59000 -5.64400 29.73500
H  21.34000 -6.19700 28.26500
H  20.35200 -7.49000 26.54800
H  21.81400 -6.53500 26.11600
H  20.90600 -7.53400 24.90300
H  17.08200 -2.25000 22.55400
H  17.09600 0.74800 22.85800
H  19.04200 -0.07100 21.89400
H  19.09000 -1.68200 21.25400
H  19.87700 -1.44800 22.75100
H  14.51300 -0.49300 23.22000
H  15.16700 -1.21900 21.84500
H  15.67500 1.52800 21.36800
H  14.21400 1.61600 22.27200
H  14.25700 0.50800 20.82800
H  12.93500 3.09300 26.22400
H  14.51400 3.61200 25.76200
H  13.84300 4.24700 27.30600
H  14.62800 1.14100 31.74300
H  16.16200 3.56300 34.85900
H  15.75600 5.03500 33.96200
H  17.18200 4.09200 33.65100
Mg 26.92000 49.56900 26.56300
C  24.96700 50.97400 29.14700
C  29.35600 48.68200 28.87000
C  28.93100 48.86100 24.00400
C  24.58400 51.14100 24.28400
N  27.14600 49.78100 28.78100
C  26.11200 50.31900 29.59600
C  26.57900 50.18000 31.04300
C  28.09300 49.74000 31.00500
C  28.21600 49.36400 29.48500
C  29.15400 50.74500 31.46100
C  25.58400 49.30200 31.96400
C  24.93400 50.05800 33.15600
H  24.92800 49.35100 34.54500
N  28.77100 48.73100 26.43100
C  29.55000 48.34600 27.51100
C  30.72800 47.68300 27.00300
C  30.75100 47.85900 25.56300
C  29.41600 48.49900 25.25000
C  31.81800 47.09600 27.83200
C  31.76900 47.53000 24.49900
O  31.75300 47.95900 23.36000
C  33.07800 46.87200 24.99700
N  26.80800 50.11000 24.49200
C  27.75200 49.53500 23.62400
C  27.39900 49.79300 22.17900
C  25.88400 50.29500 22.27400
C  25.74000 50.59200 23.79000
C  28.45800 50.68100 21.58500
C  24.97900 49.26700 21.69100
C  24.15600 49.70700 20.45800
N  25.14500 50.75400 26.70100
C  24.34000 51.33500 25.67200
C  23.17800 51.88400 26.27900
C  23.40600 51.74800 27.68300
C  24.58800 51.09800 27.83500
C  22.04200 52.47500 25.52500
C  22.79600 51.98900 28.98700
O  21.71200 52.43200 29.35400
C  23.83300 51.55400 30.00200
C  24.15500 52.74400 30.78800
O  24.93000 53.54300 30.42400
O  23.34800 52.76800 31.91700
C  23.50000 53.90600 32.81100
H  30.22700 48.45300 29.48700
H  29.49700 48.47100 23.15500
H  23.81900 51.55500 23.62300
H  26.58500 51.21500 31.38600
H  28.15000 48.81600 31.58100
H  28.95700 50.93500 32.51600
H  29.11700 51.57500 30.75500
H  30.11900 50.24100 31.51300
H  26.31600 48.65100 32.44100
H  24.80900 48.74200 31.44000
H  23.88900 50.31600 32.98600
H  25.59700 50.91000 33.30600
H  31.43700 46.89300 28.83300
H  32.65100 47.79300 27.92400
H  32.09400 46.10200 27.48100
H  32.81100 45.93400 25.48600
H  33.79600 47.53800 25.47500
H  33.62700 46.51400 24.12700
H  27.44100 48.80700 21.71400
H  25.57300 51.21500 21.78000
H  29.26500 50.96300 22.26100
H  27.94700 51.57500 21.22800
H  28.84300 50.23900 20.66600
H  24.40600 48.92400 22.55300
H  25.43200 48.32800 21.37200
H  24.31200 49.20000 19.50600
H  24.07100 50.78300 20.30500
H  23.14100 49.52100 20.81000
H  22.46200 53.39700 25.12300
H  21.28000 52.57700 26.29800
H  21.78500 51.69400 24.80800
H  23.41400 50.78000 30.64500
H  23.93300 54.72900 32.24200
H  24.13000 53.80700 33.69500
H  22.55000 54.13800 33.29300

