158

Mg 30.00700 57.91300 41.51900
C  27.05100 56.22500 40.81300
C  31.76300 55.47400 40.03700
C  32.59200 60.13700 41.37200
C  28.02900 60.57200 42.95100
N  29.45100 56.19900 40.37400
C  28.20200 55.59900 40.36700
C  28.27500 54.33200 39.38700
C  29.84600 53.90900 39.53500
C  30.38400 55.31800 39.85000
C  30.23500 52.80200 40.55300
C  27.77800 54.63900 37.98400
C  27.19300 53.47700 37.10300
H  26.61000 53.85100 35.76700
N  31.97500 57.79900 40.95700
C  32.55000 56.62600 40.41800
C  33.99700 56.79000 40.38600
C  34.24300 58.15900 40.76000
C  32.90200 58.77500 41.06900
C  34.95800 55.71500 39.86900
C  35.66900 58.73800 40.92500
O  36.69800 58.09600 40.88400
C  35.81800 60.27100 41.12000
N  30.23000 60.08400 41.91800
C  31.40500 60.75500 41.79800
C  31.31500 62.22600 42.30200
C  29.85900 62.27500 42.77200
C  29.32400 60.89400 42.53400
C  32.34500 62.55800 43.31300
C  29.10500 63.39600 41.98700
C  27.87000 64.02600 42.71600
N  27.99500 58.38000 41.93900
C  27.31400 59.38700 42.52700
C  25.86700 59.04700 42.68000
C  25.70600 57.84000 41.99200
C  26.97800 57.45900 41.52200
C  24.74300 59.93200 43.20200
C  24.81100 56.77800 41.53300
O  23.57800 56.76400 41.77300
C  25.54300 55.74400 40.74300
C  25.47600 54.41700 41.41600
O  26.09600 54.20000 42.41400
O  24.67100 53.51700 40.76200
C  24.62800 52.33400 41.51600
H  32.39000 54.64200 39.71100
H  33.39000 60.88300 41.39100
H  27.61800 61.42900 43.48800
H  27.67900 53.55800 39.87000
H  30.13300 53.61200 38.52600
H  31.30800 52.72600 40.72700
H  29.90600 51.85200 40.13300
H  29.71600 53.06500 41.47500
H  28.67600 54.92700 37.43800
H  27.03400 55.42900 37.88600
H  26.35100 53.10500 37.68700
H  27.96900 52.75700 36.84200
H  35.84300 56.09500 39.35800
H  34.49100 54.92600 39.28000
H  35.48400 55.27700 40.71800
H  35.30700 60.70000 41.98200
H  35.45400 60.64100 40.16200
H  36.87600 60.52400 41.04600
H  31.41900 62.85400 41.41800
H  29.71200 62.53600 43.82000
H  33.05200 61.74200 43.45600
H  31.98300 62.83700 44.30300
H  32.86900 63.45900 42.99400
H  28.67300 63.03300 41.05400
H  29.68500 64.28700 41.75000
H  27.89900 65.11400 42.66000
H  27.87000 63.66800 43.74600
H  26.94000 63.76400 42.21000
H  24.38600 60.57700 42.39900
H  25.16900 60.64400 43.90900
H  23.98300 59.30600 43.67100
H  25.22400 55.76700 39.70100
H  25.63200 51.90900 41.50800
H  23.97700 51.68700 40.92800
H  24.21400 52.46100 42.51600
Mg 9.05100 47.72300 27.43000
C  6.85800 47.57100 30.10900
C  11.66200 48.44300 29.65800
C  11.02800 48.12400 24.79400
C  6.27600 47.86100 25.23800
N  9.21200 47.95800 29.67700
C  8.19200 47.77900 30.58900
C  8.77300 47.74800 32.02200
C  10.27500 48.11400 31.85600
C  10.41400 48.20100 30.32400
C  10.65800 49.53900 32.49700
C  8.47900 46.34700 32.63900
C  9.34800 45.85300 33.79100
H  8.66700 45.40200 35.07700
N  11.07500 48.13900 27.24300
C  11.99400 48.34200 28.24500
C  13.30300 48.48500 27.62800
C  13.14900 48.25500 26.21900
C  11.68600 48.04800 26.05800
C  14.52800 48.84900 28.42600
C  14.15400 48.14900 25.16700
O  13.83000 48.07900 23.96500
C  15.56900 48.20700 25.47900
N  8.68800 48.17300 25.25800
C  9.64800 48.18500 24.43500
C  9.13100 48.31600 22.95400
C  7.59400 48.27600 23.12200
C  7.49600 48.00100 24.58900
C  9.60100 49.55100 22.19800
C  6.79900 47.29100 22.19700
C  7.42500 46.55300 21.00200
N  7.01300 47.60300 27.58900
C  6.01300 47.64500 26.61800
C  4.71000 47.50900 27.21300
C  4.95200 47.48300 28.60400
C  6.35600 47.57300 28.75200
C  3.31800 47.56200 26.45600
C  4.40200 47.43500 29.97900
O  3.23900 47.31900 30.34400
C  5.59800 47.45600 31.01200
C  5.46900 46.18800 31.67900
O  5.95900 45.11700 31.26100
O  4.71700 46.25200 32.84600
C  4.69000 45.07000 33.68000
H  12.54000 48.64300 30.27600
H  11.60400 48.13300 23.86600
H  5.31500 47.71600 24.74000
H  8.17500 48.33200 32.72200
H  10.80500 47.22700 32.20200
H  11.69700 49.48300 32.82100
H  9.98000 49.78100 33.31500
H  10.60900 50.31800 31.73700
H  8.39900 45.57800 31.87100
H  7.50300 46.56900 33.07100
H  10.06900 46.63300 34.03200
H  9.86600 44.96500 33.42800
H  15.25400 48.06400 28.63500
H  14.30100 49.32000 29.38300
H  15.09200 49.56300 27.82600
H  16.09400 48.05800 24.53500
H  15.79000 47.55800 26.32600
H  15.73700 49.24500 25.76700
H  9.49700 47.46500 22.37900
H  7.16900 49.26800 22.96900
H  10.03500 50.23300 22.93000
H  8.73000 49.98400 21.70700
H  10.37200 49.20900 21.50700
H  6.01100 47.95400 21.84200
H  6.40400 46.47300 22.79900
H  6.78500 46.53100 20.11900
H  7.59200 45.51600 21.29200
H  8.39300 46.94500 20.69100
H  2.94200 46.56600 26.22400
H  3.35300 48.08500 25.50000
H  2.54800 48.07500 27.03200
H  5.46900 48.29200 31.69900
H  4.81900 45.44100 34.69600
H  5.48800 44.34500 33.51900
H  3.68400 44.68800 33.50100

