158

Mg 16.54500 -1.39500 27.97000
C  15.18200 0.91400 30.48300
C  18.51200 -2.65800 30.54900
C  18.18300 -2.98600 25.66800
C  15.02400 0.72400 25.66900
N  16.83300 -0.87200 30.29100
C  16.15900 0.07200 31.03600
C  16.44600 -0.18500 32.49900
C  17.60200 -1.19100 32.46000
C  17.67400 -1.68100 30.99800
C  18.96200 -0.64900 32.97100
C  15.19200 -0.79200 33.22000
C  15.03500 -0.36300 34.71100
H  16.15600 0.43000 35.54200
N  18.05700 -2.79800 28.09300
C  18.68400 -3.19900 29.17500
C  19.63000 -4.17500 28.80100
C  19.52700 -4.43900 27.42000
C  18.62500 -3.39000 26.96800
C  20.51100 -4.84900 29.83100
C  20.27100 -5.40400 26.50100
O  20.24100 -5.47600 25.24100
C  21.05400 -6.47500 27.08400
N  16.55400 -1.21500 25.89400
C  17.35600 -2.01000 25.19400
C  17.20800 -1.67200 23.64700
C  16.21700 -0.43700 23.74000
C  15.89600 -0.29100 25.21500
C  18.52900 -1.26500 22.97200
C  15.06100 -0.81200 22.84900
C  14.75200 -0.13900 21.53500
N  15.18700 0.26000 27.99200
C  14.67100 0.91300 26.99400
C  13.72500 1.94500 27.47600
C  13.92900 1.94800 28.84700
C  14.84000 0.95700 29.09100
C  12.75900 2.81800 26.66400
C  13.42200 2.54800 30.10100
O  12.50500 3.32200 30.26100
C  14.20700 1.79800 31.30300
C  14.93400 2.82700 32.07700
O  15.95500 3.45800 31.75600
O  14.34500 2.92200 33.25900
C  14.91000 3.82000 34.25300
H  19.17500 -3.16500 31.25300
H  18.71000 -3.57600 24.91600
H  14.58200 1.39600 24.93100
H  16.71300 0.72600 33.03500
H  17.31600 -1.95800 33.18000
H  19.33100 -1.41500 33.65400
H  18.87100 0.21800 33.62600
H  19.61600 -0.34700 32.15300
H  15.16300 -1.87300 33.08400
H  14.33100 -0.55100 32.59800
H  15.02700 -1.29600 35.27400
H  14.08500 0.14100 34.89000
H  21.39800 -5.30100 29.38600
H  20.05800 -5.64000 30.42900
H  20.92000 -3.98700 30.35800
H  20.58900 -6.78100 28.02100
H  22.04300 -6.01700 27.10000
H  20.98700 -7.40900 26.52600
H  16.74200 -2.49300 23.10300
H  16.70400 0.45000 23.33400
H  19.28900 -0.84000 23.62700
H  18.39200 -0.49700 22.21000
H  18.92500 -2.17400 22.51900
H  14.11200 -0.73800 23.37900
H  14.87700 -1.86900 22.65600
H  14.78700 -0.86300 20.72100
H  15.52600 0.59500 21.31100
H  13.79900 0.38800 21.48700
H  11.81000 2.28800 26.75100
H  13.06100 2.95200 25.62500
H  12.63500 3.83800 27.02700
H  13.52100 1.32100 32.00200
H  14.56600 4.84900 34.15200
H  15.99800 3.78100 34.31600
H  14.48100 3.47600 35.19400
Mg -12.34700 16.73100 41.60200
C  -9.41700 14.79200 41.34200
C  -10.82300 19.25800 39.96700
C  -15.32000 18.15300 41.22900
C  -13.93900 13.62300 42.63700
N  -10.44600 16.94000 40.53300
C  -9.38800 16.08400 40.73400
C  -8.10400 16.66500 40.00400
C  -8.54000 18.11200 39.68400
C  -10.02000 18.11500 40.19100
C  -7.65800 19.27600 40.26100
C  -7.62500 15.84900 38.79500
C  -6.13700 16.16100 38.34600
H  -6.03000 16.55700 36.87500
N  -13.00200 18.58000 40.91900
C  -12.21500 19.49100 40.24500
C  -12.93400 20.66000 39.93100
C  -14.27400 20.37400 40.31500
C  -14.21800 19.01700 40.87400
C  -12.38100 21.97000 39.41200
C  -15.48300 21.29100 40.14200
O  -15.39200 22.45700 39.78600
C  -16.81200 20.81900 40.60100
N  -14.26800 15.91600 41.92100
C  -15.33700 16.81200 41.76200
C  -16.70300 16.11700 41.87500
C  -16.26500 14.72500 42.22900
C  -14.72700 14.72900 42.24500
C  -17.52900 16.87900 43.00400
C  -16.90100 13.59100 41.38100
C  -17.99500 12.80600 42.11500
N  -11.80300 14.63000 42.04300
C  -12.52200 13.54900 42.43600
C  -11.69500 12.39800 42.57600
C  -10.40000 12.84100 42.19800
C  -10.51200 14.23300 41.88500
C  -12.13100 10.99400 43.12200
C  -9.06600 12.46100 42.02400
O  -8.55000 11.41500 42.23600
C  -8.31800 13.65000 41.42900
C  -7.12900 14.03200 42.23400
O  -7.13900 14.42100 43.42300
O  -5.92700 13.85800 41.46900
C  -4.70200 14.30700 42.17800
H  -10.31200 20.12300 39.53800
H  -16.32700 18.44400 40.92300
H  -14.43800 12.66500 42.79800
H  -7.20600 16.64400 40.62200
H  -8.70000 18.29500 38.62100
H  -6.74400 18.87100 40.69500
H  -8.06800 19.77500 41.13800
H  -7.36800 20.03200 39.53100
H  -8.11900 16.11100 37.85900
H  -7.79500 14.78400 38.94800
H  -5.53900 15.26500 38.51000
H  -5.65400 16.82500 39.06400
H  -13.08800 22.49600 38.77100
H  -11.49000 21.68300 38.85500
H  -12.12700 22.67600 40.20200
H  -16.62000 20.54000 41.63700
H  -17.10100 19.96300 39.99200
H  -17.71900 21.41300 40.70800
H  -17.17900 16.16400 40.89600
H  -16.47800 14.56400 43.28600
H  -17.82600 16.21300 43.81400
H  -18.42900 17.11100 42.43300
H  -17.07800 17.74700 43.48300
H  -16.06000 12.91400 41.22900
H  -17.31400 13.89400 40.41800
H  -17.67300 11.82100 42.45400
H  -18.95300 12.74400 41.59800
H  -18.38600 13.27700 43.01600
H  -11.74500 10.28000 42.39400
H  -13.21500 10.97300 43.22900
H  -11.61600 10.78100 44.05900
H  -7.98400 13.22600 40.48200
H  -4.31700 13.46700 42.75600
H  -4.78800 15.23500 42.74200
H  -3.98000 14.47700 41.38000

