158

Mg 6.45100 55.13500 39.32500
C  5.81000 51.71500 39.10500
C  9.75900 54.52000 38.43900
C  6.79400 58.44600 38.83000
C  2.97400 55.63900 39.58300
N  7.71100 53.32800 38.96900
C  7.17000 52.00800 38.88200
C  8.36000 51.02300 38.58900
C  9.63900 51.89200 38.64400
C  9.05300 53.33600 38.78400
C  10.69900 51.47400 39.83200
C  8.05900 50.29300 37.20300
C  7.69200 51.26100 36.03800
H  6.70900 50.75700 34.94400
N  8.00500 56.29500 38.79900
C  9.29700 55.89400 38.40400
C  10.12900 56.99300 38.20400
C  9.24900 58.21800 38.33600
C  7.92700 57.67500 38.61900
C  11.55800 56.90400 37.91600
C  9.76100 59.65400 38.18800
O  10.96200 59.93100 38.01400
C  8.77900 60.84400 38.40500
N  5.04200 56.83500 39.34000
C  5.45300 58.07300 39.09900
C  4.38600 59.14900 39.28900
C  3.10700 58.21200 39.43800
C  3.71800 56.82900 39.43600
C  4.64400 60.04100 40.60300
C  2.03100 58.46600 38.38300
C  1.32300 59.82800 38.49500
N  4.71800 53.95200 39.48500
C  3.42100 54.30500 39.66000
C  2.55200 53.09300 39.91600
C  3.53000 52.06000 39.73900
C  4.77600 52.63200 39.38600
C  0.98300 53.05700 40.07300
C  3.75900 50.68900 39.82500
O  3.04000 49.78400 40.20000
C  5.14100 50.40700 39.28400
C  4.94000 49.50300 38.15900
O  4.55400 49.90400 37.07400
O  5.38800 48.19400 38.44400
C  5.10900 47.26300 37.35900
H  10.79300 54.35400 38.12700
H  6.87500 59.53400 38.78000
H  1.89900 55.81300 39.66600
H  8.28500 50.23200 39.33500
H  10.13200 51.79400 37.67700
H  10.21700 50.94700 40.65600
H  11.09500 52.42000 40.20100
H  11.40300 50.92500 39.20700
H  7.25200 49.57800 37.36200
H  8.99500 49.78800 36.96200
H  8.63100 51.54500 35.56400
H  7.23700 52.18900 36.38300
H  11.58000 56.20800 37.07800
H  12.04400 56.50600 38.80700
H  12.01900 57.80600 37.51500
H  9.38700 61.70100 38.11600
H  8.41400 61.02300 39.41600
H  8.06100 60.64700 37.60900
H  4.29700 59.79900 38.41900
H  2.72600 58.33900 40.45100
H  5.63100 59.76300 40.97400
H  3.88700 59.96000 41.38300
H  4.61100 61.08900 40.30600
H  1.18100 57.78700 38.31200
H  2.60400 58.48500 37.45600
H  1.84300 60.42900 39.24200
H  0.30800 59.58800 38.81000
H  1.16000 60.29000 37.52100
H  0.90300 51.97300 40.15200
H  0.49600 53.53500 39.22300
H  0.63000 53.59200 40.95500
H  5.61200 49.90100 40.12600
H  4.03900 47.10500 37.22400
H  5.59900 46.31000 37.56300
H  5.62500 47.54700 36.44200
Mg -1.91400 34.03000 27.13700
C  -3.38100 32.37900 29.79300
C  -0.63800 36.37900 29.34800
C  -1.03900 35.88800 24.47400
C  -3.61900 31.84200 24.92100
N  -2.08700 34.42600 29.31200
C  -2.62500 33.50100 30.18700
C  -2.36900 33.98200 31.66100
C  -1.56800 35.30500 31.51300
C  -1.44800 35.44400 29.94000
C  -2.26600 36.51200 32.27700
C  -1.74700 33.00200 32.66200
C  -2.60300 32.36600 33.78800
H  -1.86000 32.08900 35.10600
N  -0.89900 35.82600 26.95900
C  -0.41600 36.60100 27.97000
C  0.22000 37.76100 27.41700
C  0.24500 37.61500 25.98000
C  -0.57300 36.45500 25.69700
C  0.79900 38.83600 28.20800
C  0.89500 38.42100 24.93400
O  0.74600 38.17500 23.74300
C  1.79900 39.66400 25.16100
N  -2.34300 33.92500 24.97300
C  -1.84600 34.82000 24.06500
C  -2.25800 34.42400 22.67500
C  -2.79500 33.00700 22.83400
C  -2.95700 32.89900 24.32100
C  -3.28600 35.54800 22.14000
C  -1.83400 31.85400 22.23000
C  -0.78400 31.14100 23.11800
N  -3.14900 32.44200 27.29600
C  -3.80600 31.62400 26.31500
C  -4.70000 30.65200 26.88600
C  -4.52300 30.87600 28.30600
C  -3.62900 31.96400 28.42900
C  -5.67600 29.73800 26.21700
C  -4.82000 30.43300 29.65900
O  -5.49000 29.48700 30.07500
C  -4.20800 31.42000 30.65200
C  -5.31400 32.06200 31.39800
O  -5.91500 33.07000 31.03300
O  -5.56800 31.39400 32.55200
C  -6.50800 32.07200 33.41600
H  -0.22500 37.05100 30.10200
H  -0.62100 36.40700 23.60900
H  -4.05500 31.26700 24.10100
H  -3.38900 34.15100 32.00700
H  -0.61500 35.12200 32.00800
H  -1.37600 37.08800 32.53200
H  -2.74300 36.19900 33.20500
H  -2.87500 37.07900 31.57300
H  -0.88700 33.46000 33.14900
H  -1.40500 32.14700 32.07900
H  -3.07600 31.42500 33.50600
H  -3.31400 33.15700 34.02700
H  1.85300 38.77600 27.93500
H  0.76800 38.62900 29.27800
H  0.25100 39.76100 28.02700
H  2.32300 39.96500 24.25300
H  2.51100 39.40400 25.94400
H  1.15500 40.45300 25.54700
H  -1.42600 34.53400 21.98000
H  -3.74700 32.80900 22.34100
H  -3.24700 36.45800 22.73900
H  -4.30300 35.16700 22.23400
H  -3.04700 35.87000 21.12600
H  -1.35100 32.40300 21.42200
H  -2.57500 31.18000 21.80000
H  -0.70400 31.39500 24.17500
H  0.22800 31.40600 22.81200
H  -0.92300 30.06200 23.18400
H  -5.53300 28.75700 26.67000
H  -5.48500 29.58900 25.15500
H  -6.64700 30.15600 26.48500
H  -3.68700 30.68400 31.26400
H  -7.40700 32.35600 32.87000
H  -6.06400 33.01200 33.74400
H  -6.73800 31.43300 34.26900

