158

Mg 24.81100 -3.85800 45.89800
C  27.01000 -1.50500 44.31600
C  22.43700 -2.73000 43.80900
C  23.19100 -6.52800 46.69700
C  27.57900 -4.91400 47.79700
N  24.78100 -2.48400 44.01400
C  25.72900 -1.49200 43.70000
C  25.25300 -0.58200 42.63300
C  23.67600 -0.80600 42.81600
C  23.64700 -2.11100 43.58700
C  22.89700 0.26100 43.59000
C  25.81700 -1.03500 41.33700
C  25.99000 0.11000 40.31400
H  26.10000 -0.21400 38.79600
N  23.00700 -4.56400 45.28900
C  22.15700 -3.92500 44.46100
C  20.92300 -4.68300 44.41200
C  21.13200 -5.89400 45.19800
C  22.47000 -5.68900 45.79800
C  19.71700 -4.11800 43.70700
C  20.16700 -6.97200 45.33600
O  19.03800 -6.87400 44.88900
C  20.46700 -8.22500 46.08800
N  25.41400 -5.54700 47.01300
C  24.48300 -6.49400 47.23100
C  25.04700 -7.58600 48.18200
C  26.30500 -6.89000 48.75000
C  26.50800 -5.75000 47.76200
C  24.12500 -8.27500 49.18800
C  27.49000 -7.88900 48.78800
C  28.45700 -7.75700 49.96300
N  26.96000 -3.36200 46.05100
C  27.90200 -3.85800 46.87500
C  29.10200 -3.10900 46.61800
C  28.83700 -2.14500 45.64800
C  27.52900 -2.39400 45.31500
C  30.38300 -3.31600 47.37400
C  29.30700 -1.02800 44.92800
O  30.35200 -0.40500 44.93200
C  28.24300 -0.62100 43.99300
C  27.98900 0.79900 44.20200
O  27.58400 1.22800 45.27100
O  28.37500 1.39600 43.01300
C  28.15400 2.86500 43.00000
H  21.55000 -2.32200 43.31900
H  22.70400 -7.46700 46.97100
H  28.31500 -5.12500 48.57500
H  25.58400 0.42600 42.88300
H  23.20000 -0.94200 41.84500
H  23.57700 1.06400 43.87400
H  22.44400 -0.18900 44.47400
H  22.12600 0.64500 42.92200
H  25.15000 -1.74500 40.84700
H  26.81000 -1.47500 41.42800
H  26.80500 0.69600 40.73700
H  25.06300 0.64200 40.53000
H  19.97200 -4.13100 42.64800
H  19.53000 -3.04600 43.76000
H  18.77800 -4.61200 43.96100
H  21.38000 -8.70600 45.73700
H  19.77400 -9.02600 45.83200
H  20.58300 -8.09800 47.16400
H  25.45100 -8.31400 47.48000
H  26.08600 -6.43700 49.71600
H  24.43100 -8.07100 50.21400
H  24.19100 -9.35500 49.05100
H  23.12200 -7.96100 48.90000
H  27.99800 -7.77000 47.83100
H  27.06600 -8.89300 48.80700
H  28.10700 -8.39600 50.77400
H  28.29500 -6.77600 50.41000
H  29.50400 -7.91700 49.70400
H  31.02800 -4.09900 46.97600
H  30.14500 -3.51100 48.41900
H  30.90300 -2.36400 47.48200
H  28.58300 -0.93900 43.00700
H  27.12800 3.19900 42.84800
H  28.73600 3.30600 42.19100
H  28.51900 3.26700 43.94500
Mg -13.31800 16.41800 41.61700
C  -10.20900 14.84600 40.95600
C  -12.11300 19.22600 40.31200
C  -16.47900 17.64900 41.78500
C  -14.75600 13.22800 42.06600
N  -11.30600 16.96200 40.83900
C  -10.18700 16.22900 40.59800
C  -8.98900 17.07800 40.20500
C  -9.67800 18.54100 40.30500
C  -11.13400 18.22700 40.44000
C  -9.08000 19.41800 41.49600
C  -8.41000 16.62400 38.85100
C  -6.91000 16.37800 38.75200
H  -6.24400 17.31800 37.79300
N  -14.19400 18.18400 41.19100
C  -13.49800 19.21500 40.56100
C  -14.38900 20.35800 40.32200
C  -15.70200 20.00700 40.87600
C  -15.51000 18.54700 41.30200
C  -13.99400 21.62600 39.61600
C  -16.81800 20.94400 40.97100
O  -16.76300 22.12500 40.57400
C  -18.17300 20.54600 41.50900
N  -15.40900 15.47300 41.85100
C  -16.45000 16.27800 42.08600
C  -17.73600 15.43600 42.36500
C  -17.18100 13.98700 42.23200
C  -15.71400 14.21800 42.04400
C  -18.36300 15.79300 43.77500
C  -17.77300 13.22000 41.02800
C  -18.04000 11.71500 41.26400
N  -12.66000 14.38800 41.59300
C  -13.34900 13.22600 41.76000
C  -12.33200 12.14800 41.91000
C  -11.08700 12.75500 41.61400
C  -11.37200 14.12500 41.32200
C  -12.65600 10.66300 42.22500
C  -9.64800 12.55200 41.51900
O  -9.00800 11.49900 41.67400
C  -9.04000 13.88400 40.99000
C  -7.99000 14.33000 41.98300
O  -8.23200 14.55900 43.19200
O  -6.71300 14.28500 41.43300
C  -5.66300 14.78000 42.39200
H  -11.60000 20.11800 39.94600
H  -17.49800 18.03500 41.86200
H  -15.01100 12.19400 42.30700
H  -8.26400 17.00500 41.01500
H  -9.57300 19.14700 39.40600
H  -9.70400 20.27100 41.76400
H  -8.03400 19.71200 41.41300
H  -9.17300 18.72600 42.33200
H  -8.56100 17.47800 38.19100
H  -8.93000 15.78800 38.38300
H  -6.51600 15.38300 38.54400
H  -6.49400 16.66200 39.71900
H  -13.16400 21.56800 38.91300
H  -13.59000 22.26900 40.39800
H  -14.69800 22.17800 38.99400
H  -18.63200 19.78800 40.87300
H  -18.96300 21.29000 41.60200
H  -17.88500 20.07800 42.45000
H  -18.40500 15.65100 41.53200
H  -17.39500 13.37600 43.10900
H  -18.59100 14.82200 44.21500
H  -19.33100 16.25100 43.57200
H  -17.80800 16.45300 44.44100
H  -17.04300 13.34100 40.22800
H  -18.67300 13.73100 40.68500
H  -17.81700 11.50400 42.31000
H  -17.33500 11.15800 40.64800
H  -19.10500 11.55400 41.09200
H  -12.73600 10.14600 41.26900
H  -13.51500 10.59100 42.89200
H  -11.74700 10.27400 42.68200
H  -8.57500 13.64500 40.03400
H  -4.76200 15.20100 41.94400
H  -5.36800 13.95200 43.03700
H  -6.06000 15.58600 43.00900

