158

Mg 47.34300 25.36200 28.72000
C  48.02400 27.73800 31.20700
C  46.34500 23.15800 31.13700
C  46.60200 23.13400 26.18700
C  48.75900 27.61100 26.41000
N  47.45600 25.39200 30.95300
C  47.51900 26.52800 31.73100
C  47.09800 26.22000 33.18800
C  46.64400 24.75000 33.08900
C  46.93100 24.36000 31.66600
C  47.34800 23.68700 34.14300
C  45.94100 27.26200 33.58400
C  46.02300 28.01900 34.95300
H  46.59900 27.41600 36.22200
N  46.53000 23.39700 28.69200
C  46.11100 22.74900 29.83900
C  45.45900 21.59700 29.34400
C  45.49500 21.61400 27.94600
C  46.26400 22.71100 27.55900
C  44.90400 20.50100 30.29500
C  44.75000 20.70700 27.00300
O  44.83900 20.78000 25.79300
C  43.74300 19.73800 27.47500
N  47.68200 25.32600 26.63000
C  47.30700 24.31900 25.78300
C  47.69700 24.62700 24.34200
C  48.16400 26.07700 24.45900
C  48.19100 26.40200 25.92300
C  48.79100 23.67500 23.81200
C  47.24300 27.09000 23.80600
C  47.99000 28.08800 22.81900
N  48.26200 27.31300 28.71700
C  48.81400 28.03600 27.75100
C  49.29400 29.34400 28.27200
C  48.95600 29.28300 29.63000
C  48.36900 28.01000 29.86900
C  49.94000 30.40500 27.48600
C  48.90200 30.00800 30.89600
O  49.20800 31.13900 31.20200
C  48.37200 28.94300 32.01600
C  49.33400 28.77300 33.10000
O  50.22500 27.89900 33.20100
O  49.08200 29.74800 34.01500
C  50.09800 29.91800 35.00100
H  45.79900 22.58400 31.88800
H  46.17800 22.58000 25.34700
H  49.05500 28.35900 25.67200
H  47.89200 26.23200 33.93500
H  45.57400 24.58400 33.21100
H  48.15000 23.37200 33.47500
H  46.68600 22.84500 34.35000
H  47.71300 24.26100 34.99500
H  45.05200 26.63600 33.65400
H  45.79900 28.02900 32.82200
H  45.05200 28.42800 35.23500
H  46.52700 28.97000 34.78500
H  45.12900 19.50400 29.91700
H  43.81900 20.58000 30.37100
H  45.25200 20.56700 31.32600
H  43.16000 20.08400 28.32800
H  44.27600 18.88000 27.88600
H  43.02200 19.38100 26.74000
H  46.69300 24.60800 23.91700
H  49.19500 26.13300 24.11200
H  49.64200 24.05200 24.37800
H  48.85900 23.87000 22.74200
H  48.45700 22.67400 24.08600
H  46.73200 27.68200 24.56500
H  46.40300 26.65400 23.26500
H  49.02300 27.74500 22.76700
H  48.00000 29.13800 23.11000
H  47.57700 28.20600 21.81700
H  50.98900 30.15500 27.32800
H  49.92900 31.33500 28.05400
H  49.44300 30.56300 26.52800
H  47.48500 29.43200 32.41900
H  49.87400 29.30700 35.87500
H  50.07100 30.97000 35.28200
H  51.12500 29.64700 34.75400
Mg 36.93700 49.88400 24.54800
C  37.16400 48.11800 27.57100
C  35.27700 52.36400 26.15400
C  36.27700 51.25800 21.46600
C  37.88300 46.85900 22.82700
N  36.47900 50.21100 26.68400
C  36.68100 49.39300 27.75300
C  36.34200 50.14500 29.02300
C  35.76400 51.51800 28.50600
C  35.84900 51.44300 27.01900
C  34.28500 51.82000 29.02000
C  37.67900 50.28800 29.80400
C  37.68700 50.00000 31.35000
H  36.32100 49.81000 32.01300
N  36.04400 51.65700 23.89500
C  35.48600 52.55200 24.70300
C  35.11800 53.75700 23.90600
C  35.38900 53.44600 22.55500
C  35.89800 52.02400 22.54900
C  34.48200 54.94600 24.61800
C  35.24200 54.29800 21.33700
O  35.46900 53.91700 20.16700
C  34.85000 55.83000 21.53700
N  37.04400 49.08700 22.44200
C  36.80400 49.93400 21.39200
C  37.21400 49.21800 20.10300
C  37.78500 47.87200 20.53200
C  37.63400 47.90100 22.01500
C  36.11300 49.12600 19.00900
C  39.33100 47.64900 20.15600
C  40.32600 48.82400 20.57600
N  37.58200 47.94600 25.02100
C  37.82400 46.82000 24.21400
C  38.04100 45.67000 25.03500
C  37.81800 46.16200 26.32200
C  37.44400 47.50700 26.29100
C  38.44300 44.35100 24.55100
C  37.79000 45.72800 27.75100
O  37.97900 44.62500 28.24500
C  37.41500 47.02700 28.56800
C  36.24800 46.62700 29.39200
O  35.09700 46.74800 29.01500
O  36.68200 46.10000 30.58900
C  35.65600 45.47900 31.42100
H  34.99700 53.23400 26.75200
H  36.06600 51.77800 20.53000
H  38.14200 45.94600 22.28800
H  35.65200 49.52200 29.59100
H  36.42900 52.31100 28.84900
H  33.61600 51.63900 28.17900
H  34.20900 52.88400 29.24300
H  33.82300 51.17400 29.76700
H  37.91800 51.34800 29.72000
H  38.53400 49.70500 29.46300
H  38.26700 50.76800 31.86100
H  38.23800 49.06500 31.44500
H  33.45600 55.24000 24.39900
H  34.98400 55.83100 24.22800
H  34.59600 54.95500 25.70200
H  33.82100 55.91800 21.88500
H  34.65600 56.30600 20.57600
H  35.72800 56.22000 22.05300
H  37.99400 49.81300 19.62700
H  37.23400 47.01600 20.14200
H  35.16700 49.39300 19.48200
H  36.10300 48.25000 18.36200
H  36.28300 49.99100 18.36700
H  39.43100 47.64100 19.07000
H  39.55900 46.71100 20.66300
H  39.89100 49.52500 21.28700
H  40.65100 49.44100 19.73800
H  41.19300 48.29800 20.97600
H  39.47900 44.18200 24.84300
H  38.19200 44.28700 23.49200
H  37.86100 43.55700 25.02000
H  38.28200 47.36300 29.13700
H  34.91700 46.20000 31.77000
H  36.14400 44.98900 32.26400
H  35.15000 44.68800 30.86700

