158

Mg 0.54900 7.67600 26.07300
C  1.09700 9.64800 28.93800
C  0.09800 5.00000 28.17300
C  0.28900 5.90500 23.35300
C  0.60300 10.56300 24.26700
N  0.57300 7.37700 28.29600
C  0.78600 8.35500 29.20700
C  0.45900 7.77500 30.57300
C  0.61800 6.26600 30.34400
C  0.34500 6.18600 28.89800
C  1.98000 5.56800 30.74800
C  -0.87500 8.25000 31.23600
C  -1.00000 7.98100 32.74600
H  0.29300 7.91100 33.67300
N  0.37600 5.68900 25.78400
C  0.23500 4.76100 26.83700
C  0.13100 3.38700 26.18600
C  0.12700 3.61900 24.72100
C  0.33400 5.10400 24.54000
C  -0.18100 2.13100 27.02500
C  0.05900 2.63000 23.52500
O  -0.03100 2.88500 22.36700
C  -0.05600 1.07600 23.80800
N  0.53600 8.12400 24.09300
C  0.32700 7.25700 23.14500
C  0.34000 7.91800 21.68300
C  -0.02200 9.36900 22.10700
C  0.38500 9.34000 23.59500
C  1.67600 7.82300 20.89500
C  -1.52600 9.68500 21.89500
C  -1.79300 10.84400 20.93300
N  0.83700 9.73600 26.46100
C  0.83900 10.81700 25.60500
C  1.16400 12.06400 26.31000
C  1.15700 11.59300 27.67100
C  1.11800 10.19800 27.66200
C  1.37100 13.43300 25.78100
C  1.31500 12.07700 28.93300
O  1.50500 13.23900 29.31500
C  1.19900 10.85600 29.85800
C  2.47400 10.81400 30.63700
O  3.57100 10.48700 30.19600
O  2.25200 11.29800 31.88100
C  3.41500 11.24200 32.74900
H  -0.05700 4.12400 28.80600
H  0.21600 5.23100 22.49700
H  0.48500 11.36800 23.53900
H  1.20000 8.17300 31.26700
H  -0.21400 5.83000 30.89700
H  2.31200 6.25600 31.52600
H  2.60700 5.47000 29.86200
H  1.81000 4.60700 31.23300
H  -1.67900 7.69200 30.75600
H  -1.15900 9.28300 31.03600
H  -1.64400 7.11000 32.87000
H  -1.59700 8.75600 33.22600
H  -1.23400 2.10300 27.30500
H  0.40800 2.14700 27.94200
H  -0.03700 1.16000 26.55200
H  0.24100 0.55100 22.90000
H  -1.06900 0.72900 24.01100
H  0.55500 0.72200 24.63900
H  -0.46600 7.44200 21.12400
H  0.49600 10.09800 21.48400
H  1.95200 8.73300 20.36200
H  1.58000 6.90400 20.31800
H  2.48100 7.81300 21.63000
H  -1.94200 9.90100 22.87900
H  -2.00300 8.80900 21.45400
H  -0.94500 11.34100 20.46100
H  -2.25000 11.64400 21.51600
H  -2.45200 10.55300 20.11500
H  0.51600 13.86300 25.25900
H  2.26600 13.55300 25.17000
H  1.57500 14.06900 26.64300
H  0.38500 10.94000 30.57800
H  3.08000 11.66000 33.69900
H  4.33500 11.69700 32.38500
H  3.59300 10.18900 32.97100
Mg 17.02000 51.72700 25.99100
C  18.89800 50.25300 28.46500
C  14.59500 52.59800 28.17100
C  15.22000 52.83900 23.36600
C  19.28700 50.32500 23.63000
N  16.73700 51.32000 28.12100
C  17.70300 50.80900 28.96000
C  17.29700 50.99400 30.39600
C  15.81200 51.28800 30.22800
C  15.63300 51.73500 28.74700
C  14.92000 50.11100 30.68000
C  18.11700 52.19800 31.12000
C  18.31100 52.24300 32.67400
H  17.27700 51.58700 33.63300
N  15.24600 52.66100 25.82600
C  14.44400 53.02300 26.86600
C  13.37000 53.85100 26.34900
C  13.59200 53.93000 24.93700
C  14.68400 53.13900 24.62500
C  12.14700 54.38600 27.18500
C  12.85300 54.69500 23.84900
O  13.42500 55.02300 22.77000
C  11.55900 55.40500 24.12000
N  17.14200 51.43100 23.86700
C  16.34900 52.08800 23.00900
C  16.72300 51.92500 21.47300
C  18.16600 51.23600 21.67200
C  18.17700 50.88900 23.13200
C  15.71100 50.94200 20.73900
C  19.22200 52.29000 21.27300
C  20.00400 51.88100 20.05600
N  18.71900 50.48100 26.01500
C  19.56000 50.11400 24.95600
C  20.72100 49.46300 25.60600
C  20.46900 49.43700 26.96000
C  19.23200 50.01300 27.16700
C  21.85500 48.82500 24.90800
C  20.98400 49.01500 28.20100
O  21.99400 48.41300 28.51000
C  20.01200 49.47900 29.28300
C  19.50000 48.23000 30.06100
O  19.12600 47.14200 29.72700
O  19.53800 48.66000 31.35600
C  19.23200 47.64200 32.36200
H  13.81900 52.87700 28.88600
H  14.77800 53.35800 22.51300
H  20.02100 50.09200 22.85600
H  17.40000 50.07800 30.97800
H  15.56100 52.17900 30.80400
H  13.91000 50.38700 30.37700
H  14.85800 49.93100 31.75300
H  15.16700 49.20900 30.12100
H  17.71300 53.12600 30.71600
H  19.12700 52.06300 30.73200
H  18.31000 53.30400 32.92400
H  19.29200 51.77700 32.76200
H  12.56600 55.00500 27.97800
H  11.55100 53.57000 27.59300
H  11.32700 54.80200 26.60000
H  11.86600 56.19200 24.80900
H  10.74600 54.79400 24.51300
H  11.22100 55.74300 23.14000
H  16.81500 52.81400 20.84900
H  18.21400 50.35000 21.03900
H  14.91900 50.65500 21.43000
H  16.23900 50.06200 20.37200
H  15.40700 51.47000 19.83500
H  20.00600 52.43700 22.01600
H  18.87800 53.28200 20.98200
H  20.44300 52.87100 19.92600
H  19.38200 51.48300 19.25500
H  20.68400 51.14400 20.48300
H  22.00200 49.25000 23.91500
H  21.59800 47.76700 24.84900
H  22.78600 48.97500 25.45300
H  20.50000 50.19700 29.94300
H  19.57900 48.02800 33.32100
H  19.65700 46.65200 32.19300
H  18.14600 47.65800 32.44800

