158

Mg -0.57400 7.39500 26.05700
C  -0.07500 9.55300 28.95000
C  -0.63400 4.82900 28.25300
C  -0.64300 5.49000 23.43300
C  -0.18500 10.21200 24.15400
N  -0.50200 7.23300 28.37200
C  -0.34000 8.24800 29.32600
C  -0.44100 7.62500 30.77100
C  -0.35600 6.09400 30.46100
C  -0.52200 6.03100 28.90100
C  0.97900 5.32700 30.90100
C  -1.66300 8.19500 31.43700
C  -1.29900 8.76900 32.78600
H  -1.82300 8.04900 34.04900
N  -0.69400 5.45300 25.89300
C  -0.79800 4.50700 26.90500
C  -0.87000 3.12300 26.32900
C  -0.89100 3.30500 24.92900
C  -0.79200 4.81100 24.71200
C  -0.93100 1.95000 27.27300
C  -0.75500 2.28200 23.85400
O  -0.68200 2.56200 22.66900
C  -0.75200 0.91400 24.22600
N  -0.23300 7.83500 24.05300
C  -0.42700 6.83200 23.11200
C  -0.63900 7.37200 21.69500
C  -0.61100 8.93100 21.92000
C  -0.32800 9.04600 23.41700
C  0.42900 6.86300 20.63000
C  -1.82500 9.76800 21.30400
C  -2.73100 10.48000 22.37200
N  -0.26900 9.43100 26.40500
C  -0.09600 10.47600 25.51800
C  0.14700 11.73400 26.20000
C  0.20100 11.36900 27.49500
C  -0.06400 9.99100 27.61600
C  0.44700 13.06500 25.53300
C  0.58700 11.88900 28.74600
O  1.09200 12.94600 29.08700
C  0.32400 10.73700 29.75900
C  1.55900 10.39100 30.51000
O  2.52800 9.70800 30.15300
O  1.42600 11.03100 31.68500
C  2.51300 11.07400 32.57600
H  -0.64700 4.02800 28.99500
H  -0.92800 4.85200 22.59400
H  -0.02300 11.04700 23.46900
H  0.52700 7.81900 31.23400
H  -1.25100 5.58000 30.81000
H  0.85600 4.46600 31.55800
H  1.59200 6.13000 31.30900
H  1.44600 4.77100 30.08700
H  -2.32600 7.35900 31.66100
H  -2.09100 9.04000 30.89700
H  -1.56800 9.82400 32.84600
H  -0.21800 8.74200 32.92200
H  0.06600 1.58400 27.52000
H  -1.50400 1.16100 26.78600
H  -1.44000 2.25500 28.18700
H  -0.15500 0.76800 25.12600
H  -0.31300 0.31300 23.43000
H  -1.77300 0.64900 24.50000
H  -1.65700 7.14600 21.37600
H  0.33700 9.32700 21.55500
H  -0.03400 6.43300 19.74200
H  1.12500 6.13300 21.04300
H  1.04200 7.65500 20.20100
H  -2.47000 9.17100 20.65800
H  -1.37600 10.56200 20.70700
H  -2.96600 9.73600 23.13300
H  -3.63600 10.84300 21.88400
H  -2.25300 11.28800 22.92600
H  1.02700 13.02200 24.61000
H  1.10400 13.53600 26.26500
H  -0.38900 13.73100 25.32200
H  -0.37600 11.13300 30.49500
H  2.56500 12.10800 32.91800
H  3.51500 10.71700 32.33800
H  2.26300 10.50800 33.47300
Mg -1.86800 34.07900 26.89800
C  -3.89900 32.43300 29.48000
C  -0.35300 35.86000 29.46600
C  -0.42800 35.84400 24.57300
C  -3.93800 32.48100 24.53800
N  -2.20600 34.14300 29.18600
C  -3.00200 33.38700 30.03600
C  -2.70700 33.65300 31.50800
C  -1.77700 34.96300 31.40700
C  -1.40500 34.99000 29.92500
C  -2.38100 36.40600 31.92900
C  -2.13600 32.37100 32.13600
C  -2.96200 31.93000 33.30500
H  -2.14900 31.71400 34.60600
N  -0.45300 35.57400 26.98700
C  0.07900 36.10700 28.06900
C  1.14800 37.04500 27.71500
C  1.10400 37.07100 26.28900
C  -0.03800 36.20200 25.89000
C  1.99400 37.79300 28.68900
C  1.99500 37.80300 25.34100
O  1.67800 38.04400 24.17700
C  3.31600 38.31900 25.82300
N  -2.24100 34.21900 24.85100
C  -1.45400 35.02000 24.11900
C  -1.86500 34.87600 22.59300
C  -2.69100 33.61700 22.60400
C  -2.99700 33.39800 24.07900
C  -2.55100 36.11300 22.01100
C  -1.97200 32.47300 21.94000
C  -0.81200 31.72900 22.62100
N  -3.51200 32.68500 26.96100
C  -4.19800 32.12500 25.87100
C  -5.19900 31.22900 26.42400
C  -5.12500 31.33600 27.77800
C  -4.06600 32.26600 28.09800
C  -6.19700 30.41000 25.72800
C  -5.67500 30.82600 29.01300
O  -6.47100 29.92500 29.21800
C  -4.95800 31.59600 30.12500
C  -5.99900 32.37900 30.93100
O  -6.51900 33.46300 30.67400
O  -6.32600 31.72200 32.01800
C  -7.39500 32.24400 32.90100
H  0.25300 36.40000 30.19700
H  0.03000 36.45800 23.79400
H  -4.58200 31.97200 23.81800
H  -3.58200 34.04700 32.02600
H  -0.84300 34.71700 31.91200
H  -2.57600 37.08800 31.10100
H  -1.74000 36.89500 32.66300
H  -3.38900 36.25000 32.31200
H  -1.13700 32.39900 32.57200
H  -2.16600 31.48900 31.49600
H  -3.60100 31.05600 33.18100
H  -3.63700 32.76100 33.51000
H  1.42800 37.96800 29.60500
H  2.54500 38.69000 28.41000
H  2.68900 36.98900 28.93200
H  3.04500 39.19500 26.41300
H  3.96400 38.63800 25.00700
H  3.77100 37.66100 26.56300
H  -0.87700 34.71800 22.16000
H  -3.67500 33.63800 22.13600
H  -3.23400 35.65700 21.29500
H  -1.81600 36.74700 21.51500
H  -3.03400 36.61800 22.84700
H  -1.54700 32.85300 21.01100
H  -2.76700 31.76100 21.71700
H  -0.42800 32.49700 23.29200
H  -0.09300 31.33800 21.90100
H  -1.16200 30.86700 23.18800
H  -7.23300 30.65500 25.96100
H  -6.15800 29.35600 26.00500
H  -6.05200 30.52500 24.65400
H  -4.52500 30.84700 30.78700
H  -8.23600 32.69000 32.36800
H  -7.01900 32.96200 33.62900
H  -7.77200 31.35200 33.40000

