158

Mg 17.30500 -1.67200 27.27100
C  16.05400 0.24400 29.89700
C  19.08600 -3.50800 29.47700
C  19.02900 -2.90600 24.63800
C  15.59600 0.57800 25.02300
N  17.77400 -1.41700 29.35300
C  17.01600 -0.69200 30.25600
C  17.38700 -1.02100 31.69500
C  18.66400 -1.91300 31.52300
C  18.48100 -2.34500 30.03900
C  20.02700 -1.20100 31.84600
C  16.14700 -1.72900 32.39500
C  15.77600 -1.29200 33.84500
H  16.91700 -0.70200 34.66200
N  18.64500 -3.21800 27.03800
C  19.19500 -3.93200 28.10000
C  19.91900 -5.04700 27.56000
C  19.82500 -4.91300 26.11800
C  19.18200 -3.61000 25.86100
C  20.60300 -6.11300 28.33300
C  20.43100 -5.73600 25.01600
O  20.40700 -5.35200 23.82900
C  21.04800 -7.09100 25.35000
N  17.42500 -1.09200 25.19800
C  18.28100 -1.75500 24.42000
C  18.02000 -1.43700 22.97100
C  16.81700 -0.45000 22.98200
C  16.55600 -0.31600 24.46000
C  19.27700 -0.97200 22.23800
C  15.62900 -0.99800 22.16800
C  15.05800 -0.04700 21.00300
N  16.00400 0.02700 27.41600
C  15.33700 0.72600 26.44300
C  14.44600 1.67000 27.04100
C  14.75900 1.61500 28.39500
C  15.66200 0.57900 28.58900
C  13.61900 2.64100 26.29600
C  14.36600 2.13100 29.66300
O  13.53700 2.90200 30.06000
C  15.26400 1.30400 30.75200
C  16.13400 2.31300 31.49100
O  17.26000 2.68800 31.18500
O  15.50300 2.48900 32.73000
C  16.28400 3.39900 33.63100
H  19.65800 -4.08700 30.20600
H  19.51400 -3.31000 23.74600
H  14.99700 1.23600 24.38900
H  17.62600 -0.04800 32.12500
H  18.61600 -2.83500 32.10400
H  19.93500 -0.17300 32.19800
H  20.52900 -1.17600 30.87900
H  20.65700 -1.82400 32.48100
H  16.31900 -2.80400 32.44700
H  15.26400 -1.69300 31.75700
H  15.35200 -2.18800 34.29800
H  15.07200 -0.46200 33.78500
H  20.25800 -6.05600 29.36500
H  21.69100 -6.15900 28.38800
H  20.26400 -7.09800 28.01100
H  21.83700 -6.98400 26.09500
H  21.55200 -7.45000 24.45200
H  20.32700 -7.85000 25.65300
H  17.54600 -2.32900 22.56100
H  17.09000 0.52900 22.58800
H  19.95300 -0.41900 22.89100
H  18.94400 -0.35600 21.40300
H  19.87700 -1.81000 21.88400
H  14.82800 -1.20300 22.87900
H  15.80000 -1.93600 21.63900
H  14.02700 0.28700 21.11600
H  15.03000 -0.58900 20.05700
H  15.73300 0.74200 20.67100
H  13.06800 2.12000 25.51300
H  14.23500 3.30900 25.69400
H  12.95900 3.15800 26.99400
H  14.64600 0.83700 31.51800
H  17.35400 3.28900 33.45200
H  16.11800 3.07900 34.66000
H  15.99300 4.41400 33.35900
Mg 48.56800 34.67000 27.38500
C  46.41800 33.23000 29.92300
C  48.58100 37.57100 29.33500
C  49.84700 36.16700 24.70300
C  47.80800 31.82400 25.39900
N  47.60900 35.27000 29.46300
C  46.89100 34.48600 30.36500
C  46.74700 35.26200 31.69600
C  47.04000 36.73300 31.22000
C  47.74800 36.56300 29.90100
C  45.79000 37.55200 31.09600
C  47.72700 34.55200 32.71300
C  48.69300 35.49100 33.46900
H  48.04200 36.45100 34.37500
N  49.31000 36.54900 27.15400
C  49.31400 37.57300 28.06900
C  50.37300 38.47800 27.64900
C  50.61200 38.19900 26.24600
C  49.91500 36.92700 25.96100
C  50.82400 39.62900 28.53200
C  51.40100 39.05400 25.26900
O  51.61800 38.67300 24.11700
C  52.04500 40.35800 25.66800
N  48.70600 34.01900 25.36000
C  49.34300 34.82100 24.45700
C  49.52400 34.14400 23.06000
C  49.29400 32.68100 23.49100
C  48.52800 32.79200 24.80100
C  48.45700 34.63000 22.04600
C  50.61900 31.84700 23.60600
C  50.52400 30.33300 23.70800
N  47.44500 32.82200 27.62800
C  47.32800 31.74500 26.72300
C  46.58000 30.69400 27.40200
C  46.19300 31.25300 28.68000
C  46.72600 32.54500 28.73000
C  46.18600 29.26700 26.90800
C  45.43100 30.89200 29.91000
O  44.85000 29.88400 30.16400
C  45.34500 32.35500 30.63400
C  45.45500 32.00800 32.07500
O  46.52300 31.59400 32.61500
O  44.27500 32.44500 32.66500
C  44.16400 32.19300 34.10800
H  48.76300 38.49600 29.88600
H  50.23200 36.66600 23.81100
H  47.59600 30.95700 24.77100
H  45.73300 35.15000 32.08000
H  47.78000 37.17500 31.88600
H  45.62600 37.96600 32.09100
H  44.95400 36.94700 30.74600
H  45.87900 38.33400 30.34200
H  48.21400 33.77200 32.12600
H  47.26300 34.01800 33.54200
H  49.48300 35.88500 32.82900
H  49.15100 34.79500 34.17200
H  51.86500 39.86600 28.31000
H  50.77100 39.40400 29.59700
H  50.39400 40.59400 28.26400
H  51.35900 40.86900 26.34300
H  52.27800 40.99800 24.81700
H  52.93300 40.12400 26.25500
H  50.48500 34.35400 22.59000
H  48.65000 32.14900 22.79000
H  47.83300 35.37200 22.54500
H  47.70600 33.95400 21.63600
H  49.05400 34.90200 21.17500
H  51.14500 32.10000 24.52700
H  51.19700 32.17400 22.74300
H  50.69400 30.17300 24.77300
H  51.22800 29.85300 23.02700
H  49.49500 30.02900 23.51400
H  46.91500 28.79400 26.24900
H  45.24600 29.37200 26.36700
H  45.99700 28.63500 27.77600
H  44.35700 32.75800 30.40900
H  44.75900 31.40500 34.57000
H  43.10900 31.94200 34.21400
H  44.30200 33.15000 34.61100

