158

Mg 36.07700 48.93400 25.45600
C  36.15500 47.26800 28.43400
C  35.34700 51.88000 27.10800
C  36.14100 50.45300 22.36200
C  36.66000 45.82300 23.78900
N  35.62500 49.46800 27.49800
C  35.90500 48.64300 28.52700
C  35.76200 49.32400 29.87800
C  35.28800 50.70400 29.47900
C  35.46700 50.74300 27.93500
C  33.93700 51.13400 29.94800
C  37.13500 49.27800 30.63900
C  37.14200 48.96500 32.06300
H  36.04100 49.47800 32.95000
N  35.68300 50.90300 24.79600
C  35.46900 51.96400 25.64400
C  35.35900 53.15300 24.81400
C  35.54200 52.78700 23.46400
C  35.76000 51.26900 23.46000
C  35.16000 54.55000 25.41500
C  35.35200 53.65300 22.27200
O  35.28300 53.10600 21.16300
C  35.23200 55.14500 22.26500
N  36.25900 48.22300 23.28600
C  36.35100 49.08400 22.28200
C  36.70700 48.36700 20.97600
C  37.14800 46.99300 21.53900
C  36.63400 46.97500 22.92400
C  35.42200 48.38200 20.07000
C  38.64200 46.73700 21.46600
C  39.12700 45.34100 21.11800
N  36.25400 46.96500 25.94000
C  36.50200 45.80900 25.20400
C  36.60200 44.64300 26.06400
C  36.50400 45.19200 27.33000
C  36.33100 46.57800 27.20600
C  36.83800 43.19000 25.65300
C  36.54400 44.85000 28.73900
O  36.61400 43.77200 29.28100
C  36.16500 46.14900 29.49400
C  34.85100 45.85500 30.19200
O  33.74300 45.94800 29.71500
O  35.11600 45.56100 31.46300
C  33.97500 45.65200 32.32600
H  35.20800 52.79300 27.69000
H  36.34400 50.91000 21.39200
H  37.08900 44.93100 23.32800
H  34.98200 48.79300 30.42400
H  35.96800 51.45800 29.87400
H  33.53500 50.35400 30.59400
H  33.30400 51.49900 29.13900
H  34.08700 52.03500 30.54400
H  37.53900 50.29000 30.62700
H  37.84600 48.61900 30.14100
H  38.11000 49.30200 32.43200
H  37.22400 47.89200 32.23600
H  34.35700 55.03500 24.86000
H  36.06300 55.15800 25.45400
H  34.86900 54.54800 26.46600
H  34.32800 55.58600 22.68500
H  35.35000 55.43600 21.22100
H  36.00200 55.73700 22.76000
H  37.54200 48.94200 20.57600
H  36.58200 46.18700 21.07200
H  35.62900 48.91200 19.14000
H  34.60700 48.97000 20.49200
H  35.13000 47.45500 19.57600
H  39.00300 46.88600 22.48400
H  39.17700 47.46600 20.85700
H  38.43000 44.81400 20.46700
H  39.34200 44.73300 21.99700
H  40.03500 45.35900 20.51400
H  36.70900 43.12000 24.57300
H  36.33400 42.37400 26.17300
H  37.89600 43.00000 25.83200
H  36.91200 46.38500 30.25200
H  33.45700 44.69900 32.21400
H  33.43900 46.58000 32.12500
H  34.23400 45.69200 33.38400
Mg 25.34000 51.52600 26.19600
C  23.16400 52.35900 28.74000
C  27.73000 50.83200 28.54600
C  27.57400 51.18400 23.56100
C  23.07500 52.87000 23.90900
N  25.45300 51.84700 28.43400
C  24.36400 52.03600 29.23400
C  24.64700 51.79300 30.77400
C  26.21100 51.39400 30.58700
C  26.54800 51.30200 29.08400
C  27.21300 52.32200 31.43900
C  23.79800 50.64000 31.44700
C  23.23700 50.89500 32.87900
H  24.11800 51.49100 33.90300
N  27.26400 50.93500 26.11800
C  28.08400 50.69500 27.20100
C  29.38500 50.34500 26.73800
C  29.40400 50.54100 25.31300
C  28.01100 50.91800 24.92600
C  30.53600 49.98200 27.68600
C  30.57600 50.34100 24.40000
O  30.59400 50.63400 23.22900
C  31.82800 49.69700 24.91500
N  25.28200 51.89300 23.95700
C  26.37000 51.70900 23.16500
C  26.03000 52.08900 21.71200
C  24.45800 52.40300 21.82700
C  24.25200 52.38400 23.30500
C  26.86300 53.29200 21.12700
C  23.68500 51.25800 21.09900
C  23.67300 51.42100 19.52800
N  23.55700 52.41200 26.23300
C  22.75400 52.91100 25.27400
C  21.50500 53.43800 25.70900
C  21.65300 53.26000 27.11600
C  22.90700 52.66600 27.42200
C  20.36100 54.00000 24.91700
C  20.95400 53.40800 28.37500
O  19.80800 53.75700 28.64900
C  21.91600 52.86600 29.50500
C  22.10500 53.97800 30.49000
O  22.83100 54.95200 30.30500
O  21.31100 53.83400 31.58100
C  21.44300 54.89300 32.58600
H  28.44600 50.45000 29.27700
H  28.19800 51.07700 22.67100
H  22.35300 53.17000 23.14700
H  24.49300 52.75900 31.25500
H  26.53000 50.42600 30.97400
H  27.66100 51.71800 32.22800
H  26.69500 53.07300 32.03600
H  28.01400 52.78200 30.86100
H  24.45900 49.77600 31.38800
H  22.85000 50.50700 30.92500
H  23.05000 49.89300 33.26500
H  22.33500 51.50700 32.87700
H  31.47200 50.51600 27.52400
H  30.80700 48.98500 27.33900
H  30.28900 50.07100 28.74400
H  32.56300 49.48200 24.14000
H  31.83700 48.87400 25.63000
H  32.24600 50.55000 25.44900
H  26.21600 51.15600 21.18000
H  24.36500 53.39000 21.37300
H  27.72400 53.37900 21.78900
H  26.34700 54.24400 21.00000
H  27.24600 53.06600 20.13200
H  22.64600 51.22400 21.42600
H  24.13500 50.28700 21.30700
H  22.64600 51.52100 19.17600
H  24.25200 50.62200 19.06700
H  24.27700 52.28100 19.23800
H  20.50100 53.89000 23.84200
H  20.28500 55.04200 25.22800
H  19.46000 53.49100 25.26100
H  21.42300 52.02900 29.99900
H  22.33200 54.61400 33.15400
H  20.58700 54.97400 33.25500
H  21.62900 55.90600 32.22900

