158

Mg 2.77700 -0.51000 43.32700
C  6.15000 -0.15400 42.21500
C  2.13400 2.51600 41.75700
C  -0.56400 -1.33000 43.22600
C  3.52800 -3.39000 44.69000
N  3.99900 0.91300 41.93100
C  5.36600 0.90100 41.71800
C  5.76200 2.06200 40.82500
C  4.66800 3.11000 41.23400
C  3.49700 2.13600 41.66300
C  5.02100 4.14000 42.32600
C  5.80900 1.69500 39.30800
C  6.98800 2.21600 38.40100
H  6.50800 2.49900 36.98200
N  0.97200 0.54500 42.71100
C  0.93400 1.76200 42.11200
C  -0.44900 2.06600 41.86500
C  -1.28500 0.96700 42.18600
C  -0.28100 -0.00800 42.77500
C  -0.78600 3.32800 41.31000
C  -2.77100 0.84300 41.95100
O  -3.45500 1.66800 41.27300
C  -3.55700 -0.32400 42.42300
N  1.62300 -2.06700 43.90000
C  0.28700 -2.13100 43.91500
C  -0.17000 -3.47100 44.56700
C  1.07600 -4.02000 45.29600
C  2.13100 -3.12700 44.61200
C  -1.36000 -3.15100 45.63400
C  1.29100 -5.58600 45.24500
C  1.34300 -6.20000 46.63000
N  4.49600 -1.68100 43.42200
C  4.64000 -2.83000 44.12600
C  6.04800 -3.19400 43.99200
C  6.71000 -2.23500 43.21700
C  5.70300 -1.29800 42.93400
C  6.80600 -4.34600 44.51600
C  7.96100 -1.73300 42.59700
O  9.12800 -2.12600 42.59000
C  7.60500 -0.38100 41.94400
C  8.57400 0.71800 42.42700
O  8.90500 0.96200 43.59200
O  9.01500 1.40700 41.35300
C  9.90900 2.58700 41.55400
H  2.07400 3.56800 41.47000
H  -1.55700 -1.75900 43.08000
H  3.85200 -4.20400 45.34200
H  6.71600 2.56200 40.98900
H  4.51000 3.67400 40.31400
H  4.18800 4.20700 43.02600
H  5.13500 5.18200 42.02600
H  5.92200 3.83000 42.85500
H  4.96800 2.13400 38.77100
H  5.63300 0.64100 39.09100
H  7.83300 1.53500 38.30800
H  7.28500 3.16200 38.85500
H  -0.60100 3.43400 40.24100
H  -0.20600 4.09900 41.81800
H  -1.80400 3.58300 41.60500
H  -4.61200 -0.05300 42.41400
H  -3.27800 -0.71200 43.40300
H  -3.33100 -1.11600 41.70900
H  -0.54800 -4.13200 43.78700
H  1.03600 -3.70600 46.33900
H  -1.05100 -3.41300 46.64600
H  -2.23500 -3.65500 45.22200
H  -1.70800 -2.11900 45.61300
H  2.19400 -5.89900 44.72100
H  0.51100 -6.14800 44.73200
H  0.83100 -7.16100 46.68800
H  1.12600 -5.52400 47.45600
H  2.38000 -6.48900 46.80200
H  7.20700 -4.87500 43.65200
H  6.14300 -4.94900 45.13600
H  7.57400 -4.00600 45.21100
H  7.80900 -0.39400 40.87400
H  9.57000 3.32300 40.82500
H  10.98200 2.43500 41.43800
H  9.75800 3.02200 42.54200
Mg 17.20500 -2.00300 27.66100
C  16.33600 -0.17300 30.68900
C  19.00400 -4.16100 29.61800
C  17.96800 -3.53000 24.95100
C  15.67400 0.66500 25.85500
N  17.58200 -2.12000 29.96100
C  17.10000 -1.31100 30.98200
C  17.64600 -1.76800 32.35800
C  18.35500 -3.11300 31.93200
C  18.26400 -3.17400 30.40400
C  19.82700 -3.27600 32.53500
C  16.58900 -1.89400 33.55000
C  16.92900 -1.25800 34.93000
H  18.33600 -0.67600 35.27000
N  18.42700 -3.65700 27.33200
C  18.99600 -4.51800 28.23600
C  19.68200 -5.54100 27.57200
C  19.39400 -5.34900 26.13700
C  18.57900 -4.12600 26.03400
C  20.48700 -6.54800 28.21100
C  19.81800 -6.21700 24.97800
O  19.54300 -5.95900 23.81200
C  20.65800 -7.47800 25.12700
N  16.87800 -1.46000 25.71900
C  17.34000 -2.26800 24.74100
C  17.14100 -1.65400 23.28800
C  16.31400 -0.36700 23.55600
C  16.22200 -0.39500 25.11900
C  18.55300 -1.31900 22.71400
C  15.00100 -0.40400 22.70600
C  13.75200 -1.01400 23.44900
N  16.11400 -0.15100 28.10300
C  15.63500 0.80600 27.29600
C  14.98000 1.78600 28.04000
C  15.15100 1.39400 29.38100
C  15.91400 0.26300 29.38000
C  14.12600 2.87200 27.45800
C  14.95200 1.84400 30.73100
O  14.45400 2.93500 31.06500
C  15.75000 0.84100 31.63900
C  16.78800 1.54200 32.52500
O  17.94000 1.82100 32.12800
O  16.22400 2.09800 33.67300
C  17.05200 3.05600 34.34900
H  19.52300 -4.89400 30.23800
H  18.13700 -4.16400 24.07800
H  15.18300 1.36700 25.17800
H  18.40100 -1.00200 32.53200
H  17.79700 -3.99400 32.25100
H  20.05700 -4.33800 32.62800
H  19.97900 -2.72500 33.46400
H  20.62400 -2.90500 31.89100
H  16.47600 -2.96900 33.69300
H  15.63800 -1.48200 33.21200
H  16.75600 -2.05300 35.65500
H  16.10000 -0.61500 35.22300
H  20.50300 -6.45700 29.29700
H  21.48600 -6.33500 27.83200
H  20.14700 -7.56500 28.01500
H  21.52000 -7.30700 25.77000
H  20.95400 -7.66300 24.09400
H  20.01500 -8.23000 25.58500
H  16.75500 -2.44600 22.64600
H  16.84300 0.53300 23.24200
H  18.90200 -0.33900 23.03800
H  18.48200 -1.32100 21.62600
H  19.21700 -2.12400 23.02900
H  15.19800 -0.97400 21.79800
H  14.66100 0.61200 22.50300
H  13.26700 -0.21500 24.01100
H  14.10600 -1.71200 24.20700
H  13.02000 -1.47700 22.78700
H  13.14700 2.40900 27.32900
H  14.38500 3.25700 26.47200
H  14.14700 3.58800 28.27900
H  14.98600 0.40700 32.28500
H  16.69000 4.02100 33.99600
H  18.13100 2.94400 34.23900
H  16.74000 2.87100 35.37700

