158

Mg 46.69000 17.13900 28.14600
C  44.70500 16.79900 31.02100
C  48.62300 19.37500 29.82200
C  48.29800 17.87300 25.28400
C  44.10600 15.63100 26.29600
N  46.74600 17.90300 30.17600
C  45.91100 17.50900 31.19100
C  46.39900 18.08300 32.54800
C  47.51300 19.13500 32.19800
C  47.66200 18.79100 30.65900
C  47.27400 20.63700 32.59100
C  46.73800 16.98800 33.61700
C  45.95100 16.96000 34.85300
H  45.78200 18.32200 35.63800
N  48.34200 18.39400 27.62000
C  48.93900 19.24200 28.48200
C  50.07000 19.84800 27.77100
C  50.00300 19.40700 26.38100
C  48.85900 18.48700 26.42300
C  51.20300 20.69300 28.45700
C  50.90400 19.78700 25.19600
O  50.74200 19.22400 24.10200
C  52.01500 20.82100 25.32500
N  46.24800 16.79600 26.13200
C  47.12000 17.15900 25.13700
C  46.73100 16.67800 23.76600
C  45.40500 15.92400 24.05900
C  45.21600 16.16000 25.59200
C  46.55800 17.79400 22.67000
C  45.37000 14.41800 23.64700
C  46.14100 13.48500 24.53700
N  44.77500 16.37600 28.53700
C  43.88300 15.71300 27.71300
C  42.73800 15.26500 28.53000
C  43.03800 15.61000 29.82700
C  44.31200 16.29900 29.76500
C  41.54800 14.41700 28.11100
C  42.59200 15.57300 31.16000
O  41.64900 15.01400 31.67500
C  43.59900 16.36700 32.01000
C  42.87300 17.47400 32.59200
O  42.39700 18.37800 31.94700
O  42.53300 17.17900 33.87000
C  41.73700 18.10700 34.62900
H  49.25400 20.14300 30.27400
H  48.80600 18.03100 24.33000
H  43.32100 15.27900 25.62300
H  45.60600 18.69200 32.98200
H  48.37500 18.80400 32.77700
H  47.14000 21.28300 31.72300
H  48.12800 21.15000 33.03400
H  46.45300 20.83000 33.28000
H  47.76200 17.02500 33.98900
H  46.43300 16.04200 33.17000
H  46.59600 16.41800 35.54500
H  45.03400 16.38000 34.75500
H  52.23600 20.37300 28.32000
H  51.11400 20.85900 29.53100
H  51.13700 21.67900 27.99600
H  52.48200 21.14200 24.39400
H  52.83000 20.59500 26.01300
H  51.62300 21.70600 25.82700
H  47.54800 16.01600 23.48000
H  44.48000 16.27000 23.59700
H  45.52700 17.88200 22.32600
H  47.18800 17.68900 21.78800
H  46.60000 18.82100 23.03500
H  45.87100 14.30900 22.68500
H  44.37700 13.97300 23.59400
H  46.95000 13.11000 23.91100
H  45.55600 12.59800 24.78300
H  46.33300 13.99400 25.48100
H  40.69900 15.09600 28.19000
H  41.35000 13.64200 28.85300
H  41.59900 14.02800 27.09500
H  44.12300 15.79900 32.77800
H  40.68600 17.82100 34.59300
H  41.88400 19.13800 34.30400
H  42.13600 18.02100 35.63900
Mg 7.24100 53.39800 41.70400
C  6.55900 49.93800 40.86800
C  10.44000 52.88500 40.27200
C  7.73000 56.61000 41.71000
C  3.86100 53.69500 42.63500
N  8.27300 51.63500 40.45000
C  7.82300 50.34200 40.38500
C  8.88600 49.53600 39.69400
C  10.18800 50.32000 39.90300
C  9.61600 51.71300 40.16200
C  11.11900 49.89000 41.08700
C  8.46000 49.46800 38.14100
C  8.76100 48.13100 37.35800
H  7.78200 47.78200 36.27300
N  8.90800 54.59800 41.15400
C  10.09400 54.20800 40.67700
C  10.98400 55.31700 40.61500
C  10.25700 56.38300 41.18100
C  8.93200 55.88100 41.41000
C  12.38100 55.25000 40.08200
C  10.67700 57.86700 41.43400
O  11.76200 58.23500 40.92000
C  9.93500 58.67700 42.32400
N  5.97300 54.88500 42.02600
C  6.39400 56.20000 41.91500
C  5.24900 57.17300 42.20200
C  4.14100 56.23300 42.78000
C  4.63000 54.83300 42.38300
C  5.52700 58.48700 43.06000
C  2.69800 56.54300 42.38300
C  2.11000 56.14500 41.06900
N  5.59600 52.08800 41.88400
C  4.26600 52.36400 42.27100
C  3.53500 51.07500 42.36900
C  4.46200 50.14500 41.84800
C  5.60400 50.75300 41.54000
C  2.11600 50.78900 42.82600
C  4.60000 48.77400 41.36300
O  3.79600 47.83200 41.39400
C  6.02100 48.54000 40.91700
C  5.99200 47.75600 39.64200
O  5.59100 48.08800 38.54100
O  6.28800 46.46500 40.01000
C  6.18700 45.38100 39.05500
H  11.49300 52.66000 40.08900
H  7.84700 57.69300 41.78500
H  2.84900 53.86100 43.01100
H  8.90300 48.49500 40.01600
H  10.74300 50.39600 38.96900
H  10.97800 50.63700 41.86700
H  12.17300 49.80800 40.82100
H  10.79200 48.94000 41.50900
H  8.92700 50.26600 37.56300
H  7.39200 49.68100 38.17700
H  8.86600 47.41400 38.17200
H  9.66800 48.29400 36.77600
H  12.96600 55.42300 40.98500
H  12.65600 55.98700 39.32700
H  12.71500 54.24100 39.84000
H  9.49100 58.12800 43.15500
H  9.15400 59.21700 41.78800
H  10.56700 59.43700 42.78200
H  4.90700 57.46800 41.21000
H  4.08300 56.21900 43.86800
H  5.30100 59.41800 42.54100
H  6.56300 58.52100 43.39600
H  4.85500 58.51300 43.91900
H  2.80400 57.62500 42.45600
H  2.02400 56.28800 43.20200
H  2.06400 56.90600 40.29000
H  1.07700 55.80300 41.14100
H  2.57500 55.28400 40.59000
H  2.04900 50.81700 43.91400
H  1.88000 49.77600 42.49800
H  1.40900 51.52300 42.43900
H  6.42700 47.89200 41.69400
H  5.61700 44.56800 39.50300
H  7.09800 45.09400 38.52900
H  5.59000 45.53000 38.15500

