158

Mg 46.45500 16.68200 28.32300
C  44.35900 15.99300 30.93000
C  48.61000 18.35900 30.44200
C  48.41400 17.40100 25.84400
C  44.25200 14.92200 26.14400
N  46.50900 17.12600 30.42400
C  45.56500 16.56100 31.34100
C  46.00300 16.85900 32.77200
C  47.38800 17.59000 32.55600
C  47.52000 17.74700 31.07000
C  47.56000 18.93200 33.27300
C  46.01300 15.64000 33.78700
C  45.41000 15.94800 35.13400
H  45.23800 17.42900 35.60200
N  48.28700 17.72800 28.15900
C  49.03000 18.37000 29.08800
C  50.19800 18.96300 28.56900
C  50.29500 18.58900 27.19700
C  48.95400 17.90000 26.98900
C  51.22000 19.85200 29.39900
C  51.44200 18.70500 26.19500
O  51.31200 18.30000 25.03400
C  52.72300 19.32200 26.56100
N  46.39000 16.16700 26.27000
C  47.25900 16.73200 25.45900
C  46.99800 16.31400 23.95500
C  45.70000 15.41000 24.01500
C  45.38500 15.50300 25.54200
C  46.77800 17.63200 23.08900
C  45.89500 13.85900 23.63000
C  45.07700 13.29700 22.42600
N  44.66200 15.66800 28.46500
C  43.83100 15.10700 27.49000
C  42.52300 14.73300 28.08000
C  42.71700 15.02700 29.43800
C  43.96600 15.59700 29.63600
C  41.28000 14.25100 27.37700
C  42.13900 15.03000 30.74100
O  40.97400 14.68100 31.03100
C  43.19900 15.52800 31.75300
C  42.53000 16.60900 32.60600
O  42.17900 17.71800 32.29500
O  42.33800 16.09100 33.82900
C  41.48800 16.93700 34.62700
H  49.38000 18.67300 31.15000
H  49.13100 17.66600 25.06500
H  43.49000 14.64600 25.41200
H  45.30500 17.59300 33.17500
H  48.17300 16.87300 32.79500
H  47.66900 19.77100 32.58600
H  48.46700 18.84600 33.87100
H  46.64600 19.07000 33.85100
H  47.03700 15.30600 33.95100
H  45.53600 14.78800 33.30400
H  46.07300 15.55000 35.90300
H  44.44800 15.44200 35.22200
H  50.80400 20.85300 29.51300
H  52.20800 19.92000 28.94500
H  51.39900 19.30500 30.32500
H  53.36300 19.31600 25.67900
H  53.06700 18.70100 27.38800
H  52.52700 20.36200 26.82400
H  47.82100 15.73000 23.54300
H  44.79700 15.68200 23.46900
H  45.72100 17.75000 22.85400
H  47.41000 17.37900 22.23700
H  47.14000 18.47300 23.67900
H  45.71500 13.13900 24.42900
H  46.96500 13.69700 23.50000
H  44.02500 13.48600 22.63900
H  45.25700 12.24600 22.20100
H  45.37100 13.89400 21.56200
H  41.22100 13.16400 27.43800
H  41.24700 14.58200 26.33900
H  40.35700 14.67700 27.77000
H  43.49400 14.64700 32.32200
H  40.55900 16.95300 34.05800
H  41.89000 17.90600 34.92300
H  41.24200 16.42700 35.55900
Mg 36.61300 49.62900 25.13600
C  36.76800 47.62600 28.04300
C  35.66900 52.26000 27.05000
C  36.32300 51.37100 22.37600
C  37.67100 46.78300 23.28600
N  36.34300 49.86300 27.32200
C  36.47900 48.94500 28.34300
C  36.20800 49.50900 29.70400
C  35.74300 50.99900 29.33500
C  35.90700 51.04600 27.80400
C  34.36800 51.42600 29.90100
C  37.41000 49.43500 30.68200
C  37.11200 48.78700 32.09600
H  35.73400 48.90100 32.67100
N  36.16300 51.63600 24.74300
C  35.79000 52.56100 25.67500
C  35.54500 53.82300 25.00400
C  35.69100 53.52800 23.64300
C  36.06800 52.11600 23.51400
C  35.08600 55.09700 25.73100
C  35.59400 54.57400 22.50300
O  35.81000 54.33000 21.28000
C  35.13800 56.02600 22.78500
N  36.98700 49.13800 23.22600
C  36.72500 50.06700 22.23000
C  36.76600 49.46000 20.85000
C  37.64500 48.09800 21.14000
C  37.45700 47.96300 22.67100
C  35.43400 49.13100 20.18300
C  39.10500 48.16000 20.60000
C  39.83000 46.78300 20.52000
N  37.10800 47.57600 25.51500
C  37.47800 46.59500 24.69800
C  37.61400 45.43300 25.41300
C  37.27900 45.77100 26.66400
C  36.99900 47.12000 26.72500
C  37.85700 44.17000 24.89800
C  37.22300 45.21000 28.00800
O  37.43700 44.08200 28.32900
C  36.88300 46.42600 28.97500
C  35.61400 46.19200 29.83600
O  34.47700 46.41700 29.49400
O  36.00600 45.61600 31.01600
C  34.97400 45.15100 32.00000
H  35.42400 53.14700 27.63800
H  35.91700 51.79000 21.45300
H  37.93100 45.91100 22.68200
H  35.43500 48.89100 30.16100
H  36.44400 51.76000 29.67700
H  33.70000 51.66400 29.07300
H  34.53200 52.31000 30.51800
H  34.01200 50.59800 30.51400
H  38.02300 50.33400 30.75600
H  38.04500 48.79500 30.07000
H  37.65400 49.33600 32.86600
H  37.61900 47.82200 32.08800
H  35.62700 55.97400 25.37700
H  35.28600 54.99800 26.79800
H  34.02700 55.23500 25.51400
H  34.92600 56.44000 21.79900
H  36.01100 56.52100 23.21100
H  34.21000 55.96700 23.35400
H  37.33600 50.24000 20.34500
H  37.19300 47.21300 20.69300
H  34.57600 49.38200 20.80700
H  35.28900 48.12700 19.78500
H  35.33800 49.84100 19.36100
H  39.72300 48.72700 21.29500
H  39.12700 48.67700 19.64000
H  40.51000 46.74600 21.37100
H  40.32300 46.54000 19.57900
H  39.19500 45.91000 20.66800
H  38.92300 43.95700 24.82200
H  37.50200 44.11400 23.86900
H  37.36100 43.36300 25.43700
H  37.77100 46.47000 29.60600
H  34.81700 44.10000 31.76000
H  34.09300 45.78400 31.89500
H  35.37000 45.19800 33.01400

