158

Mg 8.43400 3.35000 27.68700
C  10.01000 2.06200 30.42600
C  6.44400 5.28500 29.79500
C  6.58600 4.29400 24.96600
C  10.26400 1.06200 25.66800
N  8.24800 3.57300 29.83900
C  8.98900 2.93600 30.81300
C  8.57100 3.43400 32.27800
C  7.45300 4.48300 31.93600
C  7.36600 4.48000 30.42100
C  6.08800 4.19300 32.60400
C  9.81600 3.98800 33.03400
C  9.52100 5.11800 34.10700
H  10.20200 5.02400 35.47800
N  6.78000 4.53800 27.38400
C  6.17900 5.32200 28.35900
C  5.18900 6.27900 27.71600
C  5.28300 6.02200 26.33200
C  6.24000 4.89500 26.16700
C  4.35200 7.29300 28.41900
C  4.57500 6.75800 25.19800
O  4.68500 6.45900 23.99300
C  3.61400 7.86200 25.50000
N  8.25300 2.56700 25.68400
C  7.49200 3.29500 24.71200
C  7.97100 2.92300 23.28900
C  9.25600 2.12900 23.52000
C  9.25100 1.90700 25.03600
C  6.79600 2.13700 22.49200
C  10.57800 2.83000 22.97100
C  11.28100 3.90100 23.86000
N  9.72300 1.71000 27.97000
C  10.40000 0.94500 27.04700
C  11.43200 0.23400 27.70700
C  11.29700 0.60300 29.12600
C  10.26400 1.49900 29.18900
C  12.47100 -0.68600 26.96900
C  11.83500 0.43400 30.43800
O  12.71800 -0.34900 30.80100
C  11.04900 1.38700 31.36500
C  10.38700 0.62300 32.43300
O  9.47300 -0.18100 32.26200
O  11.07000 0.72400 33.59900
C  10.42100 0.08800 34.72600
H  5.76500 5.89000 30.40000
H  6.21800 4.77000 24.05500
H  10.96300 0.45800 25.08700
H  8.20900 2.51100 32.73100
H  7.76400 5.49700 32.18900
H  5.49300 3.47300 32.04200
H  5.74400 5.22600 32.55900
H  6.11600 3.79500 33.61800
H  10.52600 4.34300 32.28800
H  10.35900 3.23200 33.60000
H  8.44400 5.02700 34.25300
H  9.73900 6.00000 33.50500
H  3.27800 7.24100 28.24200
H  4.67600 8.29600 28.14200
H  4.44400 7.16700 29.49800
H  2.71500 7.43000 25.94000
H  3.37400 8.16200 24.48100
H  4.14800 8.65400 26.02600
H  8.14100 3.85500 22.74900
H  9.11200 1.19900 22.97100
H  5.88400 2.08100 23.08700
H  7.02600 1.12900 22.14600
H  6.51600 2.76700 21.64800
H  10.28300 3.28000 22.02300
H  11.35200 2.08700 22.77500
H  10.70800 4.04600 24.77600
H  11.27000 4.87000 23.36200
H  12.27000 3.51900 24.11400
H  12.77800 -0.09600 26.10600
H  11.93300 -1.61200 26.76700
H  13.25700 -0.91500 27.68800
H  11.76000 2.08300 31.81000
H  9.90900 0.90900 35.22800
H  11.23300 -0.27300 35.35700
H  9.76200 -0.74500 34.48200
Mg 48.44900 34.60200 26.65100
C  46.59500 32.94500 29.15500
C  49.09600 37.08700 28.75300
C  49.92000 36.16700 24.04300
C  47.68000 31.85300 24.56100
N  47.84200 34.95500 28.69200
C  47.13000 34.19200 29.52800
C  47.31500 34.62200 30.86600
C  47.79500 36.10100 30.70200
C  48.32200 36.03600 29.28400
C  46.82300 37.27000 30.83600
C  48.41200 33.76700 31.56700
C  48.32500 33.85600 33.15000
H  47.52300 34.92100 33.88600
N  49.48800 36.38100 26.43700
C  49.62200 37.28200 27.45600
C  50.39800 38.39900 26.98600
C  50.61600 38.19800 25.54600
C  50.00300 36.87200 25.25300
C  50.74200 39.59500 27.91500
C  51.11500 39.15400 24.42900
O  50.91200 38.96100 23.23500
C  51.63700 40.61900 24.84200
N  48.71100 34.14500 24.53900
C  49.47900 34.86400 23.74600
C  49.53800 34.22700 22.31000
C  48.87800 32.82500 22.44300
C  48.43200 32.90400 23.96400
C  48.93000 35.09200 21.11700
C  49.85400 31.61500 22.25000
C  49.14700 30.31700 21.79300
N  47.47100 32.78000 26.80500
C  47.24100 31.77800 25.84700
C  46.45400 30.70400 26.41900
C  46.16900 31.16200 27.69900
C  46.78800 32.39800 27.87600
C  45.97100 29.51900 25.70200
C  45.35200 30.81300 28.88500
O  44.58300 29.86100 29.12900
C  45.51000 32.03700 29.81400
C  45.74800 31.60100 31.20300
O  46.58100 30.82100 31.59800
O  44.73600 32.05900 31.92800
C  44.68000 31.64500 33.35900
H  49.26900 37.83800 29.52600
H  50.35100 36.63700 23.15700
H  47.58200 30.93600 23.97600
H  46.34200 34.57300 31.35400
H  48.70200 36.34700 31.25400
H  45.97000 37.00500 31.46000
H  46.48400 37.63000 29.86400
H  47.34000 38.01800 31.43700
H  49.39600 34.21800 31.44000
H  48.32700 32.69000 31.42000
H  49.38200 33.83700 33.41600
H  47.83300 32.93000 33.44600
H  51.80500 39.82300 27.84000
H  50.47500 39.37000 28.94800
H  50.24400 40.47200 27.50100
H  51.38600 41.36200 24.08500
H  52.70000 40.56300 25.07700
H  51.21200 40.96000 25.78500
H  50.60200 34.08900 22.11800
H  48.01800 32.63500 21.80000
H  49.65600 35.27400 20.32400
H  48.47400 35.98500 21.54200
H  48.10600 34.50100 20.71800
H  50.35500 31.41900 23.19800
H  50.54500 31.96200 21.48200
H  49.41100 30.03300 20.77400
H  48.06300 30.42000 21.76300
H  49.33700 29.54100 22.53500
H  46.30900 28.58900 26.15900
H  46.16400 29.56200 24.63000
H  44.88700 29.53500 25.82000
H  44.63700 32.68800 29.79000
H  45.22100 32.46200 33.83700
H  45.20200 30.73200 33.65000
H  43.62400 31.58700 33.62100

