158

Mg 23.66000 -5.54300 47.26900
C  25.79800 -3.19700 45.69900
C  21.22600 -4.51600 45.09700
C  21.75200 -8.19700 48.46300
C  26.37500 -6.70300 49.00900
N  23.55500 -4.00200 45.53200
C  24.52800 -3.12600 45.13100
C  24.06500 -2.22700 43.95100
C  22.50600 -2.63500 43.94400
C  22.39700 -3.74400 44.91700
C  21.55000 -1.44100 44.28200
C  24.76600 -2.43200 42.51400
C  25.42500 -1.22200 41.73400
H  25.19500 -1.14100 40.19800
N  21.73000 -6.19400 46.90700
C  20.89300 -5.59100 45.98500
C  19.65900 -6.38200 45.82000
C  19.73500 -7.37200 46.87900
C  21.03300 -7.30100 47.50300
C  18.54300 -6.12100 44.78700
C  18.63700 -8.36100 47.12000
O  17.62100 -8.57300 46.39300
C  18.83300 -9.25400 48.26600
N  24.01300 -7.17300 48.54900
C  23.09900 -8.17500 48.89200
C  23.67700 -9.21400 49.92800
C  25.01500 -8.50200 50.31400
C  25.16500 -7.39400 49.21600
C  22.79500 -9.51700 51.14800
C  26.26100 -9.51300 50.34000
C  26.98600 -9.58500 51.62500
N  25.69000 -5.15600 47.26500
C  26.63800 -5.66100 48.05600
C  27.85400 -4.95800 47.87800
C  27.53600 -3.96500 46.92900
C  26.23400 -4.11400 46.61600
C  29.18200 -5.18900 48.46800
C  28.09600 -2.87900 46.17000
O  29.22600 -2.51200 46.14400
C  27.00100 -2.41400 45.26800
C  26.84300 -0.95800 45.31900
O  26.07600 -0.33200 46.04700
O  27.53200 -0.40900 44.25300
C  27.27500 0.98000 43.86500
H  20.49700 -4.17800 44.35700
H  21.20300 -9.03700 48.89500
H  27.14400 -7.02200 49.71600
H  24.18600 -1.17900 44.22700
H  22.20700 -2.97900 42.95400
H  22.04000 -0.65300 44.85300
H  20.68500 -1.75700 44.86400
H  21.10400 -1.00500 43.38800
H  23.95000 -2.89200 41.95700
H  25.55700 -3.16400 42.67400
H  26.49600 -1.14300 41.91800
H  25.00600 -0.33900 42.21800
H  18.53200 -6.95500 44.08500
H  18.54600 -5.09900 44.40600
H  17.65300 -6.23000 45.40600
H  17.86500 -9.73500 48.40900
H  19.08100 -8.69200 49.16600
H  19.57000 -9.95200 47.86900
H  23.85400 -10.15100 49.40100
H  24.85200 -7.97200 51.25200
H  22.10100 -8.69100 51.30500
H  23.41600 -9.90200 51.95600
H  22.14100 -10.32600 50.82000
H  27.00600 -9.10300 49.65800
H  26.03800 -10.55100 50.09100
H  27.72800 -8.78700 51.65400
H  27.56200 -10.51000 51.61400
H  26.25800 -9.62800 52.43600
H  29.67200 -5.80100 47.71100
H  29.04200 -5.79300 49.36500
H  29.79200 -4.29000 48.55000
H  27.40600 -2.62200 44.27800
H  27.96300 1.35800 43.10900
H  27.22200 1.70300 44.67900
H  26.26600 0.93200 43.45500
Mg 46.84900 16.81800 28.09700
C  45.08900 16.59800 31.24600
C  49.24100 18.68600 29.74000
C  48.30600 17.02700 25.11700
C  44.10400 15.26700 26.67200
N  47.16300 17.52600 30.26800
C  46.29100 17.27700 31.36200
C  47.00000 17.74200 32.77700
C  48.12800 18.66700 32.13500
C  48.27500 18.23000 30.63900
C  47.75500 20.14500 32.24400
C  47.54100 16.47000 33.59900
C  47.66200 16.49800 35.08900
H  47.45100 17.80700 35.90800
N  48.55100 17.78200 27.52900
C  49.38100 18.55800 28.34600
C  50.46300 19.02800 27.53800
C  50.23000 18.51000 26.18100
C  48.96800 17.73600 26.21800
C  51.68100 19.83700 28.08900
C  51.07600 18.63800 24.90600
O  50.79500 18.05100 23.89700
C  52.17200 19.61300 24.89600
N  46.31500 16.19900 26.06300
C  47.11200 16.28300 25.02100
C  46.41300 15.73600 23.71500
C  45.14200 15.12800 24.27600
C  45.15500 15.56300 25.77500
C  46.10800 16.83700 22.68100
C  45.19400 13.58100 24.08800
C  44.71600 13.17600 22.66900
N  44.98300 16.08200 28.72000
C  44.03400 15.39600 27.99000
C  42.95200 15.01500 28.82200
C  43.33300 15.41200 30.14300
C  44.59300 16.08500 30.02000
C  41.70200 14.43000 28.36600
C  42.91800 15.46700 31.57600
O  41.92700 14.93600 32.08000
C  44.15100 16.13600 32.31700
C  43.74300 17.28500 33.23400
O  43.82600 18.48000 32.92800
O  43.13300 16.83500 34.35700
C  42.47800 17.72500 35.34800
H  50.06300 19.29500 30.12200
H  48.79700 16.98900 24.14200
H  43.29100 14.64300 26.29600
H  46.37700 18.34500 33.43700
H  49.07900 18.58100 32.66100
H  48.50500 20.81200 32.67000
H  46.91200 20.33900 32.90700
H  47.56600 20.63900 31.29200
H  48.50900 16.15300 33.21100
H  46.89900 15.59300 33.51700
H  48.65300 16.12800 35.35200
H  46.88500 15.89600 35.56200
H  52.62300 19.31900 27.90900
H  51.51200 20.05000 29.14500
H  51.54000 20.79100 27.58100
H  51.71100 20.58800 25.05100
H  52.47800 19.61500 23.85000
H  52.95100 19.41800 25.63300
H  47.11600 15.01100 23.30500
H  44.19500 15.49000 23.87500
H  46.84500 17.62700 22.82100
H  45.09800 17.24500 22.70800
H  46.36600 16.43500 21.70100
H  44.63800 13.09100 24.88700
H  46.22000 13.22100 24.16200
H  45.52400 12.75900 22.06700
H  44.27000 14.00100 22.11400
H  44.01400 12.35600 22.82300
H  41.65500 13.34100 28.37300
H  41.34400 14.70700 27.37500
H  40.87600 14.69100 29.02800
H  44.65600 15.43200 32.97800
H  41.70300 18.21200 34.75500
H  43.19400 18.39800 35.81800
H  41.99000 17.02300 36.02300

