158

Mg 8.35400 3.99900 28.18400
C  9.73700 2.37300 31.09400
C  6.58600 6.01000 30.34700
C  6.79900 5.13200 25.53700
C  9.90500 1.43400 26.25000
N  8.15200 4.05900 30.49100
C  8.77100 3.34800 31.44600
C  8.62100 4.02100 32.80600
C  7.48800 5.06800 32.52400
C  7.36500 4.97900 31.00100
C  6.12000 4.94900 33.30800
C  9.94400 4.56200 33.33600
C  10.58100 3.97600 34.65100
H  10.66300 4.87600 35.90200
N  6.92000 5.47300 27.96200
C  6.33200 6.28100 28.95700
C  5.49700 7.26500 28.31500
C  5.63800 7.08900 26.90600
C  6.38700 5.83400 26.71200
C  4.72500 8.39000 29.06200
C  5.12100 7.92100 25.84800
O  4.99000 7.42600 24.67500
C  4.72600 9.38200 26.01800
N  8.13100 3.23900 26.26100
C  7.62600 4.01000 25.28000
C  8.05100 3.63000 23.86100
C  9.15400 2.61400 24.04500
C  9.06100 2.37600 25.59900
C  6.94300 3.24800 22.82500
C  10.57300 3.00200 23.51700
C  11.44700 3.88800 24.45400
N  9.58400 2.17800 28.51000
C  10.10800 1.25300 27.62500
C  11.03000 0.42500 28.30500
C  10.86200 0.84100 29.65400
C  9.92700 1.81200 29.73600
C  11.92400 -0.55900 27.69200
C  11.30300 0.56200 30.95900
O  12.08500 -0.25900 31.31000
C  10.62400 1.48300 31.94400
C  9.92300 0.76700 32.93500
O  8.79600 0.28300 32.78500
O  10.61900 0.70500 34.14300
C  9.69700 0.32000 35.22200
H  6.26900 6.76300 31.07100
H  6.46000 5.50800 24.56900
H  10.30700 0.69900 25.54900
H  8.20400 3.28700 33.49500
H  7.75800 6.10700 32.71400
H  5.57000 5.88800 33.37200
H  6.47900 4.62700 34.28500
H  5.58100 4.06400 32.97100
H  9.71200 5.61200 33.51300
H  10.68700 4.57800 32.53800
H  11.60200 3.68100 34.40800
H  9.98300 3.12100 34.96700
H  5.05000 9.39200 28.78400
H  4.95800 8.21000 30.11100
H  3.64200 8.31500 28.95800
H  3.83100 9.32200 26.63800
H  4.48500 9.77700 25.03100
H  5.51600 9.95100 26.50900
H  8.56800 4.49200 23.44000
H  8.81900 1.68200 23.59200
H  5.98300 3.07500 23.31100
H  7.21300 2.37500 22.23100
H  6.82800 4.07700 22.12700
H  10.47700 3.57300 22.59300
H  11.07900 2.05100 23.35300
H  10.96100 4.28800 25.34300
H  11.76500 4.72600 23.83200
H  12.34100 3.34100 24.75500
H  12.10300 -0.23400 26.66700
H  11.63900 -1.61000 27.73600
H  12.85400 -0.41900 28.24300
H  11.31500 2.05700 32.56300
H  9.37100 -0.71800 35.16000
H  8.89200 1.05300 35.16300
H  10.17900 0.38900 36.19700
Mg 26.93500 50.46700 25.61200
C  24.86100 51.71300 28.07500
C  29.24100 49.81100 27.94700
C  28.82100 49.30200 23.14400
C  24.63700 51.84400 23.16800
N  27.02500 50.86600 27.78500
C  26.00600 51.19500 28.61100
C  26.30200 50.98000 30.14600
C  27.82700 50.49500 29.95600
C  28.09700 50.44800 28.46000
C  28.82600 51.43000 30.62300
C  25.41300 49.85500 30.61100
C  25.81100 49.30100 32.03200
H  24.96200 49.66500 33.20100
N  28.76900 49.74200 25.62200
C  29.62000 49.49400 26.65900
C  30.83400 48.80200 26.17200
C  30.77100 48.63000 24.78600
C  29.41800 49.21300 24.44100
C  31.93500 48.36800 27.14000
C  31.74800 48.00100 23.79000
O  31.49800 47.93000 22.62200
C  33.04200 47.33800 24.33900
N  26.67400 50.50300 23.50300
C  27.61900 49.91200 22.72500
C  27.02900 49.68600 21.31200
C  26.00400 50.79000 21.21300
C  25.72100 51.13800 22.67500
C  28.02600 49.59400 20.11600
C  24.67200 50.39400 20.50800
C  23.83600 49.37700 21.17900
N  25.14600 51.55800 25.54000
C  24.34200 52.05200 24.54300
C  23.17000 52.71100 25.13500
C  23.35800 52.56900 26.48000
C  24.53200 51.89900 26.72500
C  22.04100 53.41200 24.48100
C  22.78400 52.90100 27.76500
O  21.75300 53.52000 27.97400
C  23.62900 52.28500 28.80800
C  24.07300 53.26000 29.82300
O  24.93000 54.12500 29.64500
O  23.39200 53.02200 31.05600
C  23.70500 53.99100 32.14300
H  29.94000 49.53500 28.73900
H  29.45500 48.87400 22.36400
H  23.90100 52.31200 22.51100
H  26.17500 51.85200 30.78800
H  27.93200 49.46900 30.30700
H  28.41200 52.26000 31.19500
H  29.45100 51.87800 29.85100
H  29.38200 50.73700 31.25500
H  25.50700 49.09100 29.83900
H  24.39100 50.23100 30.65700
H  26.79600 49.67900 32.30800
H  25.90700 48.23000 31.85700
H  31.97000 47.27900 27.11900
H  31.64200 48.69800 28.13700
H  32.95500 48.73700 27.02800
H  33.40800 48.12100 25.00300
H  33.71100 47.08800 23.51500
H  32.72000 46.41900 24.82900
H  26.56600 48.71700 21.50100
H  26.34300 51.68700 20.69600
H  28.38800 48.56700 20.06200
H  28.90100 50.19100 20.37500
H  27.66000 50.01600 19.18000
H  24.97200 50.02100 19.52900
H  24.01200 51.24100 20.32500
H  24.26000 49.06800 22.13500
H  23.81100 48.53900 20.48200
H  22.81600 49.67100 21.43000
H  21.80600 52.86700 23.56700
H  22.26700 54.47600 24.41200
H  21.25500 53.34500 25.23300
H  23.03200 51.58000 29.38800
H  22.92100 54.02800 32.89900
H  23.67200 55.04900 31.88500
H  24.74200 53.82100 32.43300

