158

Mg 24.56800 -5.77300 46.14300
C  26.67200 -3.64400 44.54400
C  22.02900 -4.64500 44.20800
C  22.79500 -8.60700 46.98600
C  27.35900 -7.14200 47.95100
N  24.43400 -4.20500 44.56600
C  25.41800 -3.47600 44.06000
C  24.91600 -2.44600 43.05700
C  23.30700 -2.67100 43.15800
C  23.24600 -3.95000 44.02200
C  22.46800 -1.50200 43.67100
C  25.56300 -2.61500 41.67000
C  25.70900 -1.28600 40.92900
H  25.10800 -1.21800 39.44800
N  22.59400 -6.47800 45.71900
C  21.69200 -5.83400 44.87600
C  20.51300 -6.63100 44.78600
C  20.73700 -7.82000 45.53300
C  22.08300 -7.73900 46.09900
C  19.30100 -6.27300 43.96800
C  19.68300 -8.90600 45.72800
O  18.64900 -8.84700 45.10000
C  19.86100 -10.05900 46.64900
N  24.96400 -7.62400 47.24700
C  24.12200 -8.61700 47.47600
C  24.69700 -9.75000 48.37300
C  26.10200 -9.20200 48.75000
C  26.17400 -7.89300 47.86100
C  23.78000 -10.02000 49.58800
C  27.39800 -10.11900 48.70200
C  28.14800 -10.20200 49.95200
N  26.61400 -5.36700 46.32800
C  27.61100 -5.95800 47.16700
C  28.83700 -5.25500 46.96900
C  28.57700 -4.30700 45.88000
C  27.15400 -4.50900 45.51800
C  30.13100 -5.54200 47.71800
C  29.16200 -3.28600 45.02000
O  30.27600 -2.76100 45.14600
C  27.96300 -2.85900 44.06200
C  27.85800 -1.35200 44.24500
O  27.23700 -0.70300 45.07600
O  28.81800 -0.82900 43.37200
C  28.68900 0.68500 43.18100
H  21.16600 -4.19700 43.71100
H  22.27800 -9.49700 47.35200
H  28.17300 -7.60400 48.51300
H  25.29800 -1.49600 43.43000
H  22.84100 -2.83100 42.18600
H  21.89000 -1.19600 42.79900
H  23.08500 -0.75700 44.17300
H  21.72500 -1.87000 44.37800
H  24.79900 -3.07900 41.04500
H  26.41400 -3.29600 41.69900
H  26.75900 -0.99400 40.91800
H  25.08200 -0.53800 41.41400
H  19.05700 -7.06100 43.25600
H  19.37900 -5.28600 43.51300
H  18.35400 -6.16600 44.49700
H  19.81900 -9.80000 47.70700
H  20.76600 -10.60100 46.37300
H  18.94500 -10.61200 46.44300
H  24.79100 -10.72700 47.89800
H  26.07300 -8.74400 49.73900
H  24.25600 -9.64200 50.49300
H  23.65900 -11.10300 49.59100
H  22.89700 -9.41700 49.37500
H  28.07100 -9.78400 47.91200
H  27.06600 -11.07800 48.30500
H  29.07300 -9.66900 49.73500
H  28.22400 -11.24900 50.24400
H  27.62300 -9.68800 50.75700
H  30.83200 -4.73400 47.50700
H  30.52800 -6.46100 47.28800
H  29.91000 -5.61300 48.78300
H  28.17000 -2.94000 42.99500
H  27.60900 0.82300 43.13100
H  28.96300 1.02600 42.18200
H  29.04100 1.26300 44.03500
Mg 41.24900 8.37400 29.47700
C  43.32800 9.80200 32.02800
C  39.42900 6.96700 31.67900
C  39.48100 7.36900 26.77400
C  43.69800 9.58800 27.14600
N  41.46300 8.29200 31.61500
C  42.20500 9.04300 32.49900
C  41.71200 8.87900 33.90800
C  40.68000 7.72500 33.78000
C  40.43300 7.70300 32.24300
C  41.10200 6.29800 34.34300
C  41.24200 10.22400 34.47500
C  41.13600 10.16600 36.05600
H  41.57900 11.35600 36.89600
N  39.60800 7.35400 29.25100
C  39.01900 6.78400 30.31900
C  37.90800 6.03600 29.77400
C  37.72600 6.37300 28.44000
C  38.99600 7.02800 28.06500
C  37.08600 5.15800 30.63500
C  36.67900 5.94900 27.46100
O  36.84500 6.20200 26.25400
C  35.38600 5.24100 27.75300
N  41.64700 8.24100 27.36200
C  40.68200 7.89300 26.43000
C  41.30600 7.73500 25.07600
C  42.41900 8.89200 25.13200
C  42.65300 8.86700 26.62900
C  41.85100 6.31100 24.66400
C  41.94400 10.30400 24.71800
C  42.98800 10.88800 23.76400
N  43.18100 9.36300 29.55100
C  44.01900 9.82000 28.53200
C  45.14000 10.48500 29.10800
C  44.85200 10.55500 30.43800
C  43.69100 9.88100 30.68700
C  46.24000 11.02200 28.25800
C  45.31400 11.12300 31.72200
O  46.23500 11.84800 31.96500
C  44.26700 10.72000 32.77100
C  45.00500 9.87600 33.75800
O  45.63100 8.88600 33.55200
O  44.73400 10.43900 34.99900
C  45.53000 9.81600 36.07000
H  38.78100 6.36600 32.32100
H  38.93200 7.14500 25.85700
H  44.33700 10.10000 26.42300
H  42.43000 8.45100 34.60700
H  39.74200 8.03700 34.24100
H  42.08600 6.33500 34.81100
H  41.18000 5.48200 33.62300
H  40.28800 6.00200 35.00400
H  40.21200 10.30800 34.13000
H  41.75800 11.08600 34.05200
H  41.67200 9.31500 36.47600
H  40.06500 10.04100 36.21200
H  37.83700 4.51800 31.10000
H  36.38400 4.63800 29.98300
H  36.44700 5.63400 31.37900
H  34.96500 5.46000 28.73400
H  35.62800 4.17800 27.76800
H  34.62500 5.56000 27.04100
H  40.65600 8.13000 24.29400
H  43.34300 8.56400 24.65600
H  41.55200 5.57100 25.40700
H  42.93900 6.23900 24.64100
H  41.34600 6.09600 23.72300
H  41.79100 10.96200 25.57300
H  40.99700 10.20200 24.18900
H  43.68200 10.14800 23.36600
H  43.51500 11.73800 24.19700
H  42.47200 11.24300 22.87300
H  45.85400 11.43000 27.32400
H  46.93500 10.25200 27.92400
H  46.71500 11.81100 28.84000
H  43.87200 11.65700 33.16600
H  45.30900 10.30000 37.02100
H  46.58000 9.60300 35.87000
H  45.16800 8.79200 36.16100

