158

Mg 24.75700 -4.03500 45.67200
C  26.98500 -1.76400 43.89700
C  22.34300 -3.06500 43.56100
C  23.13300 -6.87400 46.48900
C  27.73400 -5.26400 47.33400
N  24.70800 -2.47800 43.95800
C  25.64500 -1.70800 43.38500
C  25.09200 -0.79500 42.25400
C  23.62500 -1.26300 42.25300
C  23.52100 -2.34900 43.31000
C  22.60400 -0.12700 42.36300
C  25.78000 -1.00800 40.92800
C  25.88300 0.07700 39.89000
H  25.16800 -0.14400 38.52600
N  22.92300 -4.76400 45.25300
C  22.05700 -4.23400 44.33800
C  20.80100 -4.95900 44.35000
C  21.01000 -6.10100 45.19800
C  22.44200 -5.97300 45.70900
C  19.57400 -4.51800 43.57200
C  20.00000 -7.22200 45.35700
O  18.84400 -7.06900 44.97000
C  20.35800 -8.57200 45.99000
N  25.45800 -5.87700 46.57200
C  24.48200 -6.82100 46.92800
C  25.15800 -7.96800 47.70900
C  26.54500 -7.34000 48.14800
C  26.62700 -6.10000 47.25400
C  24.35200 -8.67600 48.82400
C  27.80200 -8.31300 48.13700
C  28.24200 -8.91600 49.38800
N  26.85500 -3.58300 45.79300
C  27.88300 -4.13500 46.52100
C  29.06700 -3.37100 46.31100
C  28.80200 -2.44100 45.29800
C  27.42500 -2.63000 44.93200
C  30.38600 -3.46300 47.03900
C  29.36600 -1.32500 44.48800
O  30.51000 -0.83800 44.46500
C  28.19000 -0.79200 43.62900
C  28.04800 0.68400 43.96200
O  27.32600 1.10100 44.79500
O  28.63500 1.46300 42.95300
C  28.32200 2.91500 42.94300
H  21.49500 -2.73700 42.95700
H  22.65200 -7.76400 46.89900
H  28.55500 -5.65900 47.93500
H  25.28000 0.24800 42.50800
H  23.30900 -1.78900 41.35200
H  21.84700 -0.13300 41.57900
H  23.11100 0.83100 42.24200
H  22.15300 -0.18000 43.35400
H  25.22300 -1.83600 40.49100
H  26.82100 -1.30700 41.05400
H  26.89300 0.38700 39.62000
H  25.34800 0.92400 40.31800
H  19.78100 -4.60500 42.50600
H  19.61700 -3.43000 43.62600
H  18.63700 -5.02600 43.79900
H  20.57600 -8.39500 47.04300
H  21.12500 -9.13200 45.45300
H  19.48400 -9.22200 46.02800
H  25.31700 -8.68400 46.90300
H  26.46400 -6.99200 49.17800
H  24.18200 -9.74700 48.70800
H  23.33600 -8.36200 49.06100
H  24.95900 -8.48300 49.70800
H  28.67100 -7.80600 47.71600
H  27.63500 -9.17400 47.49100
H  28.02700 -9.98500 49.39100
H  27.63400 -8.46700 50.17400
H  29.28900 -8.85900 49.68400
H  31.10700 -2.89600 46.45000
H  30.72100 -4.43800 47.39200
H  30.41400 -2.85700 47.94400
H  28.47700 -0.97100 42.59300
H  28.72900 3.52800 43.74700
H  27.24800 3.10200 42.97800
H  28.67700 3.35500 42.01200
Mg 40.76100 10.14100 29.73600
C  42.95000 10.95700 32.38400
C  38.54500 8.86300 32.07500
C  38.89300 9.07700 27.27400
C  43.45100 10.75800 27.51100
N  40.86100 9.92000 31.97100
C  41.78300 10.45600 32.87000
C  41.24500 10.47800 34.31600
C  39.98800 9.54600 34.16800
C  39.72000 9.42000 32.61400
C  39.92800 8.28400 34.97700
C  41.12600 11.92300 34.86200
C  40.17200 12.25800 36.06400
H  40.88500 12.71000 37.34000
N  38.89400 9.20000 29.69500
C  38.17700 8.76500 30.74100
C  36.90700 8.28800 30.24500
C  37.02500 8.33700 28.81700
C  38.29200 8.96900 28.53900
C  35.76200 7.82200 31.19900
C  36.04000 7.95200 27.73300
O  36.21100 8.15100 26.51200
C  34.71400 7.30900 28.07700
N  41.14200 9.86000 27.73700
C  40.21400 9.43400 26.87900
C  40.66800 9.41100 25.40600
C  41.98800 10.20900 25.58300
C  42.23300 10.27400 27.04300
C  40.84700 7.93500 24.89200
C  42.07700 11.54700 24.77300
C  41.27700 12.63800 25.36700
N  42.83100 10.67500 29.88700
C  43.76200 10.94100 28.91100
C  44.99100 11.43400 29.45500
C  44.66600 11.50000 30.85900
C  43.35200 11.03300 31.01900
C  46.33400 11.72900 28.72100
C  45.19900 11.87500 32.15800
O  46.26000 12.36900 32.37900
C  44.06300 11.58900 33.20600
C  44.63000 10.81500 34.29800
O  45.14300 9.67900 34.09600
O  44.56900 11.53800 35.53100
C  45.23800 10.92600 36.65100
H  37.81400 8.51800 32.80900
H  38.37900 8.76500 26.36200
H  44.31600 10.98600 26.88500
H  41.94600 9.93000 34.94600
H  39.14000 10.11400 34.55000
H  40.16600 7.40600 34.37700
H  38.87200 8.32800 35.24400
H  40.52400 8.38300 35.88400
H  40.87400 12.69000 34.13000
H  42.06400 12.19800 35.34400
H  39.74000 11.30300 36.36400
H  39.32300 12.91900 35.88700
H  35.98200 7.88000 32.26500
H  35.42400 6.80500 31.00000
H  34.94200 8.50400 30.97700
H  34.08200 7.89200 28.74700
H  34.90600 6.31300 28.47600
H  34.25400 7.18800 27.09700
H  39.88000 9.89800 24.83200
H  42.85900 9.61300 25.30800
H  41.62500 7.76000 24.14900
H  39.99500 7.85000 24.21700
H  40.92500 7.25400 25.74000
H  41.57200 11.22900 23.86100
H  43.12600 11.84100 24.77900
H  41.95100 13.46000 25.60800
H  40.72600 12.39700 26.27600
H  40.56300 12.97800 24.61600
H  46.43000 12.81100 28.63100
H  46.29500 11.32100 27.71100
H  47.22100 11.36300 29.23900
H  43.86200 12.56800 33.64100
H  44.74000 10.04300 37.05100
H  45.23900 11.72500 37.39300
H  46.25500 10.72000 36.31800

