158

Mg 42.50000 41.94600 26.21900
C  41.50300 44.27400 28.70000
C  43.41900 39.77400 28.80000
C  43.50900 39.63300 23.93000
C  41.88700 44.21000 23.80000
N  42.33900 41.98500 28.51900
C  41.91900 43.07300 29.25700
C  41.89600 42.64700 30.76200
C  42.66800 41.22400 30.79500
C  42.75500 40.93600 29.26500
C  43.86600 41.02400 31.69200
C  40.47100 42.57700 31.40900
C  40.33700 43.23600 32.75000
H  41.34600 42.97800 33.84600
N  43.37500 40.07000 26.32600
C  43.66500 39.42000 27.48300
C  44.11300 38.07400 27.12900
C  43.97200 37.91800 25.72600
C  43.67400 39.21000 25.21900
C  44.51000 36.91900 28.17400
C  44.16600 36.70500 24.87400
O  44.04500 36.66800 23.66900
C  44.48100 35.35300 25.50800
N  42.75900 41.89600 24.21400
C  43.26200 40.89700 23.43200
C  43.34400 41.28700 21.92900
C  42.69800 42.71800 21.90200
C  42.39700 42.94100 23.43200
C  44.73000 41.14600 21.15600
C  41.40600 42.69000 21.10700
C  40.18600 42.06400 21.81900
N  41.75000 43.82100 26.20600
C  41.58300 44.66000 25.12200
C  41.18700 46.01900 25.59400
C  41.12700 45.86700 27.00900
C  41.45200 44.51900 27.32200
C  40.93200 47.21100 24.79700
C  40.75100 46.53700 28.23600
O  40.52900 47.76300 28.34600
C  41.01400 45.54200 29.42500
C  42.02300 46.10200 30.24500
O  43.01100 46.59700 29.74200
O  41.79200 45.82100 31.56800
C  42.85200 46.28600 32.43300
H  43.50000 38.99300 29.55900
H  43.87500 38.97000 23.14300
H  41.68700 45.01200 23.08700
H  42.47700 43.35200 31.35500
H  42.10400 40.35400 31.13300
H  44.56000 40.41900 31.10900
H  43.66500 40.58000 32.66800
H  44.44900 41.93000 31.85500
H  40.05800 41.57000 31.37400
H  39.92200 43.16200 30.67100
H  39.40000 42.84800 33.14800
H  40.20500 44.31000 32.61500
H  45.45000 36.44100 27.89900
H  43.68500 36.22200 28.31700
H  44.67600 37.40400 29.13600
H  43.86000 35.21900 26.39400
H  45.56300 35.38400 25.63700
H  44.29400 34.46000 24.91100
H  42.73500 40.57300 21.37300
H  43.38800 43.44500 21.47400
H  45.38200 41.96400 21.46100
H  44.56300 41.24500 20.08300
H  45.09800 40.14400 21.37900
H  41.58000 42.06400 20.23200
H  41.19800 43.73400 20.87300
H  39.83500 41.17400 21.29700
H  39.51900 42.92700 21.83700
H  40.36100 41.69700 22.83000
H  41.40500 46.94300 23.85300
H  41.57600 47.92000 25.31900
H  39.90600 47.52800 24.61100
H  40.14800 45.23300 30.01000
H  43.26000 47.25100 32.13300
H  43.71500 45.62800 32.33900
H  42.51500 46.31600 33.46900
Mg 27.33000 50.56500 26.69400
C  25.22900 51.84600 29.25400
C  29.33100 49.29400 29.01700
C  29.23300 49.46200 24.18500
C  24.96600 51.80100 24.33200
N  27.29600 50.62300 28.92100
C  26.33800 51.17800 29.78200
C  26.76100 50.88400 31.21600
C  28.19200 50.18500 31.09400
C  28.30700 50.04200 29.60000
C  29.39900 50.96100 31.67800
C  25.62900 50.13500 32.07700
C  25.00300 50.90600 33.32900
H  25.35500 50.53500 34.80900
N  29.07600 49.64100 26.60800
C  29.75000 49.17600 27.69900
C  31.00400 48.53700 27.29700
C  30.99000 48.43400 25.88200
C  29.74200 49.20600 25.48800
C  31.96200 48.01500 28.30400
C  31.98400 47.76200 24.95000
O  31.76700 47.75300 23.75200
C  33.16200 46.93200 25.46100
N  27.16000 50.70700 24.49000
C  28.02300 50.13500 23.74500
C  27.72800 50.16500 22.23300
C  26.29000 50.94600 22.28800
C  26.08500 51.12000 23.77600
C  28.63400 50.99300 21.24200
C  25.06600 50.17300 21.66000
C  24.35500 49.13800 22.60600
N  25.56200 51.74100 26.71600
C  24.70800 52.00500 25.68600
C  23.54800 52.75300 26.22700
C  23.72100 52.67300 27.67100
C  24.95200 52.01900 27.88600
C  22.44000 53.40400 25.48100
C  23.00800 52.94100 28.90600
O  21.93900 53.53800 29.16000
C  23.96500 52.33800 30.00200
C  24.25200 53.47300 30.89700
O  25.04900 54.33100 30.57600
O  23.59700 53.49000 32.06100
C  23.98000 54.46500 33.12700
H  29.98700 48.84400 29.76600
H  29.82100 49.10700 23.33700
H  24.22100 51.97000 23.55100
H  26.96100 51.80100 31.77000
H  28.26400 49.15200 31.43300
H  30.09700 51.38900 30.95900
H  29.91100 50.25300 32.33000
H  29.14900 51.79400 32.33600
H  26.16500 49.28200 32.49200
H  24.81200 49.69800 31.50400
H  23.94400 51.13800 33.21400
H  25.45400 51.89400 33.41300
H  31.96800 46.92600 28.25900
H  31.70300 48.16400 29.35300
H  32.92500 48.50700 28.16600
H  33.84000 47.50300 26.09600
H  33.77200 46.62900 24.60900
H  32.80400 46.00600 25.90900
H  27.70500 49.15900 21.81400
H  26.34700 51.86000 21.69600
H  28.92500 50.40800 20.37000
H  29.59300 51.16100 21.73200
H  28.22000 51.94300 20.90300
H  25.28300 49.58900 20.76600
H  24.35200 50.88100 21.24000
H  23.60200 49.68800 23.17100
H  25.09100 48.79800 23.33400
H  23.92200 48.46000 21.87100
H  22.16500 52.96100 24.52400
H  22.73900 54.44800 25.38300
H  21.53000 53.29100 26.07000
H  23.44800 51.51800 30.49900
H  24.29400 55.41600 32.69600
H  24.78700 54.15900 33.79100
H  23.19400 54.51500 33.88000

