158

Mg 27.29400 51.21200 26.59100
C  25.36400 52.25800 29.17600
C  29.66300 50.03800 28.91800
C  29.46000 50.43600 24.03400
C  25.01800 52.45500 24.32000
N  27.45100 50.99000 28.73600
C  26.49500 51.52700 29.60600
C  26.79000 51.12500 31.01700
C  28.31400 50.67600 30.93500
C  28.51100 50.58500 29.42700
C  29.24600 51.75000 31.54200
C  25.72500 50.08400 31.48700
C  25.08600 50.07200 32.88500
H  26.05000 50.37600 34.05500
N  29.24500 50.25000 26.50000
C  30.01900 49.80300 27.56200
C  31.21700 49.14600 27.05400
C  31.17000 49.41000 25.61000
C  29.91100 50.11500 25.31700
C  32.35000 48.49800 27.91000
C  32.26600 49.16700 24.63400
O  32.21800 49.47400 23.40800
C  33.52100 48.51000 25.02600
N  27.33700 51.61600 24.51600
C  28.34700 51.15600 23.67800
C  27.84900 51.07500 22.22800
C  26.40900 51.66700 22.30700
C  26.19200 51.90800 23.81400
C  28.78200 51.90200 21.25800
C  25.38400 50.74400 21.79200
C  24.90100 49.51600 22.58600
N  25.49000 52.09900 26.70600
C  24.63300 52.52900 25.72700
C  23.54600 53.32200 26.28100
C  23.74300 53.15600 27.68800
C  24.93500 52.43500 27.88300
C  22.52000 54.13600 25.50200
C  23.20200 53.45200 28.95400
O  22.18600 54.03800 29.22800
C  24.17400 52.78000 29.98100
C  24.58900 53.78000 31.01800
O  25.42000 54.67900 30.78400
O  24.02500 53.59700 32.24600
C  24.29100 54.54000 33.33900
H  30.29500 49.54300 29.65800
H  30.05900 50.06400 23.20000
H  24.21600 52.67900 23.61400
H  26.82500 52.04100 31.60600
H  28.62500 49.66400 31.19200
H  30.26800 51.50800 31.25100
H  29.25300 51.61300 32.62300
H  29.07600 52.79000 31.26400
H  26.34300 49.18700 31.45000
H  24.99200 49.89100 30.70400
H  24.72700 49.06100 33.07700
H  24.19300 50.69600 32.86300
H  32.25900 47.41600 27.82300
H  32.17800 48.58900 28.98300
H  33.29700 48.99900 27.71200
H  33.37700 47.61600 25.63200
H  34.26900 49.08100 25.57500
H  34.01000 48.23100 24.09200
H  27.76900 50.01500 21.99000
H  26.35500 52.58800 21.72600
H  29.75300 52.17900 21.66900
H  28.30200 52.76300 20.79200
H  29.09800 51.35400 20.37100
H  25.73700 50.38000 20.82700
H  24.50800 51.32900 21.51300
H  25.70300 49.27400 23.28200
H  24.82200 48.58100 22.03100
H  24.05100 49.71400 23.23900
H  22.81700 55.14000 25.20100
H  21.74000 54.29800 26.24600
H  22.24100 53.68400 24.55100
H  23.48300 52.03700 30.37900
H  24.86000 55.40600 32.99900
H  24.88900 53.95500 34.03800
H  23.35000 54.90600 33.74800
Mg 17.48100 52.70300 26.47900
C  19.38000 51.42800 29.17200
C  14.86900 53.17100 28.63800
C  15.70300 53.71000 23.90400
C  20.07000 51.53600 24.31300
N  17.13600 52.39100 28.66300
C  18.14100 52.04000 29.54800
C  17.71200 52.21700 30.99200
C  16.18300 52.63400 30.92500
C  16.05100 52.72600 29.34000
C  15.15100 51.68400 31.64800
C  18.67200 53.15200 31.84800
C  18.86000 52.94100 33.33300
H  17.73000 52.15100 34.07200
N  15.53500 53.29900 26.29400
C  14.59300 53.45800 27.31500
C  13.36100 54.05200 26.85700
C  13.65400 54.27800 25.45300
C  15.04900 53.79200 25.18100
C  12.18200 54.40500 27.79700
C  12.77500 55.00200 24.37500
O  13.18800 55.30200 23.25000
C  11.52200 55.69600 24.89100
N  17.89100 52.73500 24.45300
C  16.93400 53.21700 23.60900
C  17.48000 53.20300 22.17900
C  18.88800 52.55400 22.26600
C  18.93700 52.19700 23.72800
C  16.54800 52.39600 21.17700
C  20.03200 53.50800 21.70400
C  20.17200 54.75700 22.60700
N  19.27800 51.63000 26.65100
C  20.17600 51.31500 25.71100
C  21.28200 50.69200 26.30300
C  20.97700 50.64200 27.66000
C  19.76800 51.28800 27.85600
C  22.38300 49.98500 25.67800
C  21.48800 50.23200 28.94800
O  22.47800 49.57800 29.28700
C  20.50300 50.74600 30.00200
C  19.87300 49.63300 30.81100
O  18.96600 48.93800 30.41800
O  20.44200 49.39500 32.03400
C  19.81200 48.55800 33.00600
H  14.04100 53.48900 29.27500
H  15.19100 54.00100 22.98500
H  20.85000 51.15300 23.65200
H  17.83600 51.21000 31.38800
H  16.03400 53.67200 31.21900
H  14.76400 51.05400 30.84700
H  14.34300 52.21400 32.15300
H  15.62800 51.05600 32.40100
H  18.17000 54.10600 31.68600
H  19.62600 53.25600 31.33100
H  18.96700 53.88700 33.86400
H  19.81600 52.44300 33.49200
H  11.22000 54.53000 27.29800
H  12.51200 55.28900 28.34200
H  12.07200 53.67600 28.59900
H  10.90000 54.88900 25.27800
H  11.14100 56.14400 23.97400
H  11.75400 56.50400 25.58400
H  17.46100 54.24900 21.87400
H  19.09200 51.59700 21.78700
H  16.74200 51.32900 21.28200
H  16.73500 52.87800 20.21700
H  15.50800 52.60900 21.42500
H  19.82200 53.86000 20.69400
H  21.03200 53.07500 21.72000
H  19.64800 55.68600 22.38500
H  21.23000 54.97900 22.47100
H  19.98300 54.43700 23.63200
H  22.93400 50.71000 25.07800
H  21.95000 49.32000 24.93100
H  23.04100 49.32700 26.24500
H  20.93400 51.54100 30.61000
H  19.93000 49.02500 33.98400
H  20.27200 47.57100 33.04400
H  18.73300 48.55100 32.84700

