158

Mg 55.56600 24.69600 44.12800
C  52.92500 26.96800 43.13100
C  53.82700 22.27900 42.75900
C  58.27300 22.88400 44.46100
C  57.13500 27.49200 45.44900
N  53.76300 24.75600 42.77200
C  52.75900 25.71200 42.62800
C  51.42600 25.09300 42.13100
C  51.67300 23.60500 42.59300
C  53.19200 23.51700 42.67200
C  50.94000 23.13900 43.93500
C  51.11900 25.29800 40.63400
C  52.20100 25.71100 39.56000
H  51.77600 26.13600 38.19400
N  55.94300 22.81300 43.70100
C  55.13300 21.92100 43.09600
C  55.73300 20.62200 42.97100
C  57.02800 20.71200 43.54200
C  57.13100 22.18200 43.94300
C  55.08100 19.43600 42.29500
C  58.00000 19.65400 43.66400
O  57.75300 18.64100 43.04400
C  59.15100 19.79000 44.59800
N  57.44500 25.18000 44.78200
C  58.42200 24.21500 44.77800
C  59.76300 24.77800 45.23100
C  59.38000 26.25600 45.74100
C  57.93800 26.39300 45.30100
C  60.66700 23.94500 46.22100
C  60.32900 27.27600 45.12200
C  60.67800 28.60200 45.92500
N  55.14700 26.77500 44.30000
C  55.91600 27.74500 44.91800
C  55.17900 28.94800 44.85800
C  54.04300 28.70800 44.08900
C  54.05700 27.32600 43.83100
C  55.62400 30.22700 45.50900
C  52.84200 29.32000 43.56300
O  52.48400 30.49800 43.43400
C  51.94400 28.13500 43.24700
C  51.16500 28.37400 42.03300
O  51.45200 28.93200 40.97300
O  49.85800 28.02300 42.32000
C  48.94400 28.39500 41.23200
H  53.17700 21.48500 42.38500
H  59.20400 22.32800 44.59800
H  57.56900 28.38200 45.90900
H  50.58000 25.41300 42.73900
H  51.33200 22.89700 41.83700
H  51.52600 23.33600 44.83300
H  50.77600 22.06400 43.87100
H  49.87800 23.38400 43.94400
H  50.16500 25.80800 40.50300
H  50.69000 24.35400 40.29600
H  52.76100 24.77600 39.52100
H  52.95300 26.43200 39.88100
H  55.63900 19.15300 41.40200
H  54.09100 19.66500 41.90300
H  54.96600 18.71000 43.10000
H  58.74000 20.23600 45.50400
H  59.89500 20.45000 44.15100
H  59.45500 18.81600 44.98000
H  60.39900 24.80000 44.34600
H  59.41100 26.30700 46.83000
H  60.29500 22.92100 46.18600
H  60.50500 24.42300 47.18800
H  61.74500 23.94800 46.06400
H  59.92300 27.66500 44.18800
H  61.33300 26.94300 44.85900
H  60.75300 28.25100 46.95400
H  59.98000 29.39900 45.66600
H  61.67900 28.90600 45.61900
H  55.30200 30.15400 46.54800
H  55.23900 31.15200 45.07900
H  56.71200 30.21900 45.44800
H  51.30500 28.01300 44.12200
H  47.96600 28.04700 41.56300
H  49.16100 27.84800 40.31400
H  48.99800 29.48300 41.26900
Mg 47.54400 15.55800 28.72500
C  45.66300 15.54200 31.75300
C  49.85100 17.32300 30.40300
C  48.81800 16.48900 25.82400
C  44.69000 14.40600 27.11400
N  47.68200 16.36900 30.86300
C  46.87900 16.18400 31.95400
C  47.42700 16.94100 33.19200
C  48.73000 17.66000 32.71300
C  48.82400 16.98500 31.27800
C  48.62800 19.27600 32.47300
C  47.72900 15.90500 34.27800
C  47.76200 16.50800 35.76000
H  47.45500 17.99200 35.95300
N  49.25800 16.41800 28.23600
C  50.13900 17.04700 29.06700
C  51.38300 17.35700 28.30000
C  51.06500 17.12800 26.93400
C  49.61900 16.65300 26.94000
C  52.66400 17.91500 28.86100
C  51.89300 17.32100 25.71200
O  51.48400 17.07800 24.59100
C  53.23800 17.88800 25.83000
N  46.84400 15.56900 26.75800
C  47.54400 15.96200 25.72200
C  46.79600 15.70300 24.36600
C  45.52400 14.89500 24.81900
C  45.71500 14.88900 26.31600
C  46.44700 17.05000 23.67200
C  45.34900 13.55900 24.12100
C  46.47300 12.51500 24.51200
N  45.72600 14.86000 29.26100
C  44.65500 14.40200 28.52900
C  43.59700 13.92100 29.30400
C  43.93100 14.37200 30.56300
C  45.21800 14.99800 30.51200
C  42.26500 13.29600 28.89000
C  43.44100 14.52000 31.89800
O  42.36900 14.12200 32.35300
C  44.59300 15.15900 32.78100
C  43.89300 16.39400 33.23100
O  43.16200 17.11300 32.53200
O  44.14900 16.51700 34.55500
C  43.32700 17.61700 35.19400
H  50.60700 18.01500 30.77800
H  49.29000 16.65000 24.85300
H  43.93500 13.88200 26.52400
H  46.74200 17.67700 33.61100
H  49.64300 17.40700 33.25300
H  49.57500 19.68400 32.82700
H  47.75400 19.71200 32.95600
H  48.55300 19.43800 31.39800
H  48.67800 15.47300 33.96100
H  47.05100 15.07400 34.08400
H  48.72900 16.36400 36.24100
H  47.10100 15.93800 36.41200
H  52.71600 18.99600 28.72700
H  53.48900 17.37000 28.40200
H  52.80300 17.86000 29.94000
H  53.67500 18.01700 24.84000
H  53.77200 17.14800 26.42700
H  53.11600 18.86700 26.29500
H  47.44600 15.06200 23.77100
H  44.66200 15.52500 24.59900
H  47.29200 17.34000 23.04800
H  46.27400 17.78100 24.46100
H  45.59100 16.91000 23.01200
H  45.35000 13.58300 23.03100
H  44.34800 13.19500 24.35300
H  46.13600 12.00500 25.41400
H  47.52100 12.80600 24.57900
H  46.46500 11.81000 23.68100
H  42.50800 12.23900 29.00000
H  41.97400 13.51600 27.86300
H  41.51300 13.47900 29.65700
H  44.99900 14.44800 33.50100
H  43.67900 17.73800 36.21800
H  42.25200 17.44100 35.24200
H  43.46200 18.57400 34.68900

