158

Mg 1.87700 -2.38200 45.73700
C  5.11100 -1.24900 44.76600
C  0.61500 0.06900 43.53500
C  -1.30400 -3.62200 46.14900
C  3.33500 -5.26900 46.98300
N  2.78300 -0.96400 44.12000
C  4.06400 -0.55400 44.10600
C  4.31900 0.65100 43.16300
C  2.84900 0.99200 42.85000
C  2.03700 -0.00200 43.60700
C  2.46400 2.46000 43.21900
C  5.17100 0.35100 41.82900
C  6.61700 0.96000 41.69100
H  7.45500 0.32800 40.61200
N  -0.06300 -1.74500 45.08400
C  -0.33400 -0.73200 44.21700
C  -1.77900 -0.51500 44.21500
C  -2.40300 -1.59100 44.98500
C  -1.25900 -2.42800 45.39400
C  -2.41700 0.65200 43.47700
C  -3.85700 -1.70700 45.22900
O  -4.61700 -0.76400 45.02200
C  -4.35800 -2.95900 45.84500
N  1.16100 -4.20500 46.51400
C  -0.22100 -4.48400 46.57600
C  -0.42200 -5.91700 47.01900
C  1.04200 -6.50000 47.22300
C  1.90600 -5.28900 46.85900
C  -1.35900 -6.24900 48.18400
C  1.38200 -7.81100 46.38300
C  1.43800 -9.04300 47.28300
N  3.82400 -3.06000 46.04800
C  4.25100 -4.25500 46.60600
C  5.70100 -4.17200 46.77200
C  6.09800 -3.00800 46.13300
C  4.91200 -2.40200 45.62300
C  6.55000 -5.22200 47.46200
C  7.26100 -2.18200 45.78000
O  8.45000 -2.15600 46.09000
C  6.58200 -1.07900 44.82600
C  6.96100 0.20000 45.35100
O  6.25700 0.87800 46.11700
O  8.19500 0.51100 44.92500
C  8.57700 1.87000 45.29500
H  0.11600 0.83800 42.94200
H  -2.27400 -4.11000 46.26600
H  3.70400 -6.16300 47.49000
H  4.73500 1.43100 43.80100
H  2.47600 0.98500 41.82600
H  1.63800 2.78800 42.58800
H  3.29300 3.12800 42.99000
H  2.13300 2.54800 44.25400
H  4.59500 0.74300 40.99100
H  5.29400 -0.72900 41.74400
H  7.22100 0.89400 42.59600
H  6.32600 2.00200 41.56300
H  -2.31200 0.45500 42.41000
H  -1.92700 1.59000 43.73800
H  -3.45800 0.79400 43.76800
H  -4.08300 -3.75400 45.15200
H  -5.44400 -2.94500 45.94200
H  -3.88300 -3.00100 46.82500
H  -0.97500 -6.38200 46.20200
H  1.28200 -6.57100 48.28400
H  -2.34500 -6.53100 47.81500
H  -1.63500 -5.38800 48.79200
H  -1.05700 -7.03600 48.87600
H  2.26200 -7.65700 45.75900
H  0.63100 -8.00900 45.61800
H  1.23700 -8.79600 48.32500
H  2.46600 -9.40300 47.24300
H  0.70000 -9.81700 47.07000
H  5.98300 -5.69000 48.26700
H  7.42700 -4.83200 47.97900
H  6.65200 -6.03100 46.74000
H  7.00400 -1.08400 43.82100
H  7.69900 2.39200 44.91400
H  9.42000 2.21400 44.69500
H  8.96600 2.03300 46.30000
Mg -5.52700 24.91200 25.64300
C  -4.21800 25.99400 28.69300
C  -7.43700 22.64500 27.44900
C  -6.55600 23.65000 22.70700
C  -3.32100 27.07200 23.97400
N  -5.64100 24.32600 27.73300
C  -5.17200 24.97200 28.85400
C  -5.64600 24.43000 30.17800
C  -6.49800 23.23000 29.70100
C  -6.56000 23.42800 28.16500
C  -5.86700 21.81100 30.13600
C  -6.44900 25.58800 30.96300
C  -6.47100 25.47200 32.47500
H  -5.62500 24.33900 33.10000
N  -6.84200 23.37100 25.17000
C  -7.59400 22.60200 26.02500
C  -8.53500 21.78900 25.32500
C  -8.27400 21.97800 23.92300
C  -7.13300 23.02700 23.86200
C  -9.54600 20.87600 25.97100
C  -8.87800 21.25100 22.74000
O  -8.52000 21.56600 21.64100
C  -9.94000 20.14500 22.82000
N  -4.99000 25.19700 23.63200
C  -5.53400 24.54700 22.56300
C  -4.88300 24.93000 21.18700
C  -4.02300 26.20300 21.62000
C  -4.09000 26.17100 23.16100
C  -4.12100 23.77500 20.40800
C  -4.54300 27.66700 21.20500
C  -4.14000 28.12800 19.78200
N  -4.16700 26.33000 26.16400
C  -3.36200 27.14700 25.38500
C  -2.59400 27.91900 26.30500
C  -2.87000 27.41500 27.54700
C  -3.81200 26.54900 27.46300
C  -1.51800 28.91600 25.99100
C  -2.40900 27.63100 28.91300
O  -1.55800 28.40900 29.44400
C  -3.37200 26.69500 29.75400
C  -2.62000 25.88000 30.70300
O  -2.03900 24.83500 30.40200
O  -2.52500 26.53200 31.92000
C  -1.73900 25.83700 32.88900
H  -8.07500 22.07400 28.12700
H  -6.97000 23.18200 21.81100
H  -2.60000 27.76000 23.52800
H  -4.72500 24.10100 30.66000
H  -7.47100 23.21100 30.19100
H  -5.68500 21.19700 29.25400
H  -6.56800 21.22000 30.72600
H  -4.95400 21.89600 30.72600
H  -7.50000 25.52100 30.67900
H  -6.29000 26.65200 30.78800
H  -7.54100 25.32800 32.62200
H  -6.19900 26.44100 32.89200
H  -10.47100 21.01300 25.41100
H  -9.63400 21.01100 27.04900
H  -9.17500 19.86500 25.80500
H  -9.97900 19.61800 21.86700
H  -10.94300 20.48400 23.07500
H  -9.56600 19.48900 23.60600
H  -5.62400 25.25500 20.45600
H  -2.97400 26.26600 21.33000
H  -4.92500 23.29100 19.85300
H  -3.80300 22.94900 21.04400
H  -3.32100 24.22200 19.81800
H  -4.09700 28.39900 21.87800
H  -5.59600 27.63000 21.48500
H  -3.91500 27.26600 19.15300
H  -3.16600 28.60800 19.87500
H  -4.93000 28.78500 19.41800
H  -1.39100 29.02500 24.91400
H  -0.60100 28.58000 26.47700
H  -1.77800 29.86600 26.46000
H  -4.17600 27.27000 30.21400
H  -1.72600 24.74900 32.83300
H  -2.30700 25.98500 33.80800
H  -0.68600 26.11600 32.93400

