158

Mg 0.27700 8.56900 26.46100
C  1.12100 10.50300 29.29000
C  -0.03200 5.82300 28.62300
C  -0.18100 6.55500 23.81700
C  1.16600 11.16100 24.39400
N  0.62000 8.20700 28.73400
C  0.83500 9.13700 29.66100
C  0.76600 8.58600 31.11700
C  0.65800 7.02800 30.87800
C  0.35900 6.98700 29.34200
C  1.96500 6.25400 31.33900
C  -0.50500 9.05100 31.88600
C  -0.17700 9.49700 33.33000
H  1.02100 8.94700 34.13500
N  -0.15700 6.45700 26.26700
C  -0.24500 5.54900 27.27400
C  -0.48900 4.24100 26.69300
C  -0.68500 4.47800 25.29700
C  -0.30100 5.85000 25.04100
C  -0.57200 2.97700 27.45300
C  -1.18800 3.46500 24.23000
O  -1.30500 3.83900 23.05100
C  -1.62300 2.13200 24.58300
N  0.47900 8.87300 24.50500
C  0.18200 7.90000 23.57000
C  0.51900 8.34700 22.15900
C  0.82500 9.90300 22.40000
C  0.82200 9.99700 23.85700
C  1.68800 7.57100 21.54000
C  -0.11100 10.95600 21.68700
C  -1.38500 11.43300 22.46200
N  1.17700 10.44000 26.76800
C  1.39200 11.41500 25.82700
C  1.77900 12.66500 26.51700
C  1.79900 12.36500 27.85000
C  1.36200 10.97600 27.92600
C  2.06400 13.96900 25.93200
C  1.87200 12.89400 29.20600
O  2.10400 13.97900 29.63000
C  1.48500 11.72200 30.18800
C  2.67500 11.57600 31.28200
O  3.54900 10.71700 31.23300
O  2.43100 12.49400 32.29600
C  3.42600 12.56200 33.33600
H  -0.10200 4.97600 29.30900
H  -0.66300 6.05000 22.97700
H  1.36400 11.94700 23.66300
H  1.67900 8.92300 31.60700
H  -0.17900 6.48400 31.31600
H  2.72100 7.01500 31.53400
H  2.39700 5.51500 30.66500
H  1.57300 5.73400 32.21300
H  -1.25400 8.26100 31.93800
H  -1.04300 9.84500 31.36800
H  -1.03500 9.38400 33.99300
H  -0.00300 10.57200 33.27800
H  -0.28600 2.95600 28.50500
H  0.17300 2.28200 27.06400
H  -1.57000 2.54500 27.38200
H  -0.89000 1.45000 25.01300
H  -2.14100 1.80100 23.68200
H  -2.39100 2.36400 25.32100
H  -0.32100 8.37400 21.46600
H  1.80900 10.18000 22.02300
H  2.61100 7.72500 22.10000
H  1.94600 7.87600 20.52600
H  1.40700 6.51900 21.49500
H  -0.50400 10.49900 20.77800
H  0.51800 11.82200 21.48600
H  -1.50200 11.07700 23.48500
H  -2.36600 11.27200 22.01300
H  -1.30500 12.51300 22.58400
H  1.56900 13.97800 24.96100
H  3.09300 13.93300 25.57600
H  1.78500 14.87800 26.46500
H  0.62400 11.96500 30.81100
H  4.30900 13.12300 33.02800
H  3.70400 11.62200 33.81200
H  2.97900 13.18100 34.11400
Mg -1.70700 35.58200 26.49100
C  -3.43900 33.72400 28.86900
C  -0.80700 37.78500 28.95700
C  0.16600 37.22400 24.08700
C  -2.90400 33.48900 24.07700
N  -2.16900 35.75700 28.63200
C  -2.83300 34.82900 29.44500
C  -2.71000 35.20700 30.93100
C  -2.07100 36.65700 30.89100
C  -1.64100 36.74000 29.41100
C  -3.07000 37.77200 31.22700
C  -1.99300 34.18700 31.85900
C  -2.88700 33.40900 32.89100
H  -2.32200 33.18600 34.36100
N  -0.55000 37.22100 26.56900
C  -0.31500 38.03000 27.63300
C  0.53600 39.11300 27.21300
C  0.90200 38.92400 25.83300
C  0.17300 37.71900 25.43500
C  0.93100 40.20800 28.17500
C  1.89500 39.67500 24.94700
O  2.13800 39.39300 23.79400
C  2.58900 40.84600 25.56400
N  -1.22500 35.28400 24.39600
C  -0.57700 36.12200 23.59100
C  -0.68300 35.73900 22.13400
C  -1.48500 34.42500 22.15900
C  -1.89200 34.39500 23.62400
C  -1.20100 36.81900 21.24200
C  -0.66600 33.12200 21.76000
C  -1.48500 31.99400 21.12500
N  -2.98000 34.02700 26.44100
C  -3.40700 33.30100 25.37200
C  -4.35300 32.30100 25.82300
C  -4.36300 32.48800 27.17300
C  -3.53800 33.48300 27.53700
C  -5.10300 31.42000 24.98900
C  -4.87600 31.97100 28.34900
O  -5.72600 31.13600 28.55600
C  -4.23200 32.75600 29.60700
C  -5.44400 33.18600 30.33500
O  -6.12600 34.17400 30.07000
O  -5.65700 32.36100 31.36200
C  -6.83800 32.62400 32.22900
H  -0.51900 38.50800 29.72400
H  0.67300 37.82900 23.33100
H  -3.33700 32.92400 23.24800
H  -3.68400 35.28800 31.41300
H  -1.18100 36.65600 31.51900
H  -4.05500 37.42500 30.91600
H  -2.73200 38.73500 30.84400
H  -3.17200 37.99700 32.28900
H  -1.33300 34.72200 32.54100
H  -1.57200 33.34900 31.30300
H  -2.98200 32.37100 32.57300
H  -3.89000 33.83600 32.89400
H  1.93400 40.04700 28.57100
H  0.19800 40.21900 28.98100
H  0.77700 41.21600 27.79000
H  3.18900 41.42800 24.86400
H  3.26800 40.55000 26.36300
H  1.82900 41.53100 25.94100
H  0.34600 35.42300 21.96700
H  -2.36400 34.60700 21.54000
H  -1.90300 37.47200 21.76100
H  -1.89400 36.40500 20.50900
H  -0.38900 37.36000 20.75700
H  -0.27800 32.82100 22.73300
H  0.15900 33.47600 21.14200
H  -1.85900 31.28500 21.86400
H  -0.82800 31.37900 20.51000
H  -2.21000 32.27300 20.36100
H  -4.69200 31.44900 23.98000
H  -6.17500 31.60600 25.05900
H  -4.97600 30.38600 25.31000
H  -3.63600 32.13300 30.27400
H  -6.62500 33.35800 33.00700
H  -7.22700 31.70700 32.67000
H  -7.52900 32.99700 31.47300

