158

Mg -1.46700 34.81900 27.29000
C  -3.15500 33.04200 29.82700
C  0.14300 36.62500 29.82800
C  -0.15000 36.74100 25.00000
C  -3.18800 33.03900 24.92900
N  -1.56600 34.91500 29.59700
C  -2.34400 34.05800 30.42700
C  -2.11700 34.42400 31.91500
C  -1.15400 35.69100 31.85900
C  -0.85100 35.83000 30.28400
C  -1.69800 36.93200 32.43800
C  -1.47000 33.10400 32.63900
C  -2.24700 32.47700 33.86100
H  -1.55000 32.54200 35.17500
N  -0.20700 36.54600 27.35000
C  0.40100 37.04200 28.48200
C  1.45000 37.98500 28.11400
C  1.42000 38.02800 26.67300
C  0.33100 37.09300 26.28700
C  2.25500 38.83600 29.05400
C  2.28400 38.80600 25.63500
O  1.98900 38.85600 24.44400
C  3.44900 39.50500 26.19100
N  -1.63400 34.87300 25.27800
C  -1.05700 35.82300 24.48600
C  -1.31400 35.73700 22.94100
C  -2.12800 34.40400 22.98500
C  -2.44900 34.11800 24.44700
C  -2.05300 36.92300 22.33900
C  -1.38800 33.18800 22.32700
C  -0.37800 32.39500 23.19700
N  -2.85000 33.34400 27.29400
C  -3.43100 32.68000 26.26900
C  -4.40600 31.72700 26.70300
C  -4.25500 31.82500 28.13900
C  -3.31200 32.83100 28.41900
C  -5.21800 30.81900 25.94600
C  -4.67300 31.16900 29.41400
O  -5.39300 30.21200 29.59900
C  -4.02400 31.95800 30.49500
C  -5.19100 32.51200 31.31300
O  -5.95300 33.48600 30.95400
O  -5.17600 31.88400 32.53000
C  -6.18100 32.15600 33.53400
H  0.67000 37.05500 30.68200
H  0.26600 37.43500 24.26600
H  -3.53100 32.50700 24.03900
H  -3.15700 34.63600 32.16200
H  -0.27800 35.40300 32.43900
H  -2.17600 36.73300 33.39800
H  -2.34400 37.45600 31.73300
H  -0.83700 37.54900 32.69700
H  -0.41000 33.16800 32.88100
H  -1.50200 32.32900 31.87300
H  -2.30000 31.40400 33.67700
H  -3.18400 33.02200 33.97500
H  3.29000 38.51300 29.16400
H  1.74100 38.72000 30.00800
H  2.21200 39.86400 28.69600
H  4.13100 38.78300 26.64000
H  3.19500 40.27100 26.92400
H  3.95700 40.05300 25.39800
H  -0.39200 35.51200 22.40300
H  -3.06700 34.59100 22.46500
H  -1.71800 37.83300 22.83700
H  -3.11900 36.70300 22.30500
H  -1.64200 36.96800 21.33100
H  -0.85000 33.59900 21.47200
H  -2.06900 32.46700 21.87400
H  -0.38500 32.79400 24.21100
H  0.56700 32.59600 22.69300
H  -0.57800 31.32400 23.25000
H  -5.39700 31.17500 24.93100
H  -6.09400 30.97100 26.57600
H  -4.73300 29.84500 26.00800
H  -3.47500 31.28900 31.15600
H  -7.02200 32.75000 33.17600
H  -5.73200 32.70000 34.36500
H  -6.54200 31.21000 33.93600
Mg -5.41400 25.91300 26.04900
C  -4.06400 27.05200 29.06200
C  -7.44100 23.64300 27.93200
C  -6.32700 24.45400 23.27400
C  -2.87800 27.73600 24.40500
N  -5.69600 25.46400 28.16100
C  -5.05400 26.04800 29.19100
C  -5.53600 25.54600 30.58000
C  -6.42800 24.31300 30.18500
C  -6.60500 24.51800 28.66200
C  -5.75800 22.96200 30.65500
C  -6.34400 26.65400 31.24400
C  -6.71500 26.51900 32.75800
H  -6.12100 25.34800 33.62400
N  -6.85000 24.37000 25.65100
C  -7.62600 23.62500 26.50600
C  -8.48500 22.74200 25.71300
C  -8.16700 22.93600 24.29800
C  -7.06200 23.89200 24.35400
C  -9.51600 21.84600 26.29200
C  -8.84000 22.32600 23.13300
O  -8.41700 22.44200 21.98700
C  -10.00700 21.42400 23.23200
N  -4.86900 26.12500 24.17300
C  -5.37400 25.42700 23.13000
C  -4.68300 25.71300 21.79100
C  -3.87100 26.99300 22.12200
C  -3.87400 26.96500 23.67200
C  -3.97600 24.44200 21.24300
C  -4.55100 28.29200 21.58900
C  -3.68500 29.17400 20.65300
N  -3.91200 27.30700 26.57900
C  -3.00900 27.92200 25.77600
C  -2.13500 28.75000 26.56500
C  -2.56700 28.43900 27.87200
C  -3.61000 27.60200 27.80600
C  -1.10400 29.67000 26.12400
C  -2.25300 28.69100 29.27000
O  -1.47100 29.44700 29.86100
C  -3.24500 27.79100 30.08300
C  -2.45300 27.07700 31.05500
O  -1.81000 26.01600 30.95200
O  -2.57000 27.80900 32.21800
C  -1.89100 27.11400 33.39200
H  -8.07600 22.98800 28.53200
H  -6.63300 23.98000 22.33900
H  -2.12100 28.20800 23.77400
H  -4.74200 25.17500 31.22900
H  -7.39300 24.46500 30.67000
H  -5.10100 23.07600 31.51700
H  -5.18100 22.45600 29.88000
H  -6.52400 22.22300 30.89000
H  -7.20200 26.88200 30.61100
H  -5.71900 27.54700 31.27500
H  -7.80300 26.48900 32.80400
H  -6.34800 27.44500 33.20100
H  -10.46900 22.30300 26.02600
H  -9.55300 21.97300 27.37400
H  -9.43300 20.79200 26.02700
H  -9.84200 20.42200 23.62800
H  -10.36800 21.20600 22.22600
H  -10.80400 21.86600 23.83100
H  -5.51300 25.98700 21.14100
H  -2.87100 26.96000 21.69000
H  -4.46800 24.20600 20.29900
H  -3.99600 23.56400 21.88800
H  -2.90600 24.61300 21.13300
H  -4.73900 28.90200 22.47300
H  -5.54700 28.10800 21.18600
H  -2.76800 28.63800 20.40800
H  -3.49200 30.18300 21.01800
H  -4.25600 29.30400 19.73400
H  -0.31700 29.25300 25.49600
H  -0.51000 29.94700 26.99400
H  -1.48700 30.59100 25.68600
H  -3.96200 28.43600 30.59100
H  -0.80700 27.22700 33.40900
H  -2.03000 26.03400 33.42000
H  -2.09800 27.54800 34.37100

