158

Mg 16.56700 51.82000 26.40800
C  18.47500 50.83000 29.20200
C  14.08400 52.75000 28.46900
C  14.85900 52.82100 23.65900
C  19.21300 50.86600 24.34800
N  16.33900 51.85000 28.55100
C  17.22000 51.40000 29.53700
C  16.65500 51.58100 30.93500
C  15.15000 51.89000 30.61000
C  15.19400 52.17800 29.10800
C  14.05500 50.82300 30.99500
C  17.40600 52.65500 31.78600
C  17.80800 52.21000 33.15600
H  16.80700 52.70100 34.20100
N  14.78000 52.75700 26.15200
C  13.84300 53.01400 27.12800
C  12.72300 53.73100 26.54200
C  12.91000 53.74600 25.14100
C  14.19800 53.02900 24.95400
C  11.54600 54.30300 27.39400
C  12.07200 54.36700 24.02600
O  12.39100 54.37300 22.87900
C  10.68200 54.95200 24.31800
N  16.89000 51.68500 24.29100
C  16.05700 52.24700 23.36900
C  16.68800 52.29300 21.95500
C  18.08200 51.65900 22.20900
C  18.12600 51.47800 23.69500
C  15.84400 51.67300 20.85400
C  19.33100 52.50600 21.75200
C  20.29300 51.90500 20.72900
N  18.39000 50.82500 26.65600
C  19.38200 50.54700 25.72500
C  20.55100 49.92000 26.39100
C  20.24300 50.07800 27.76400
C  18.90900 50.58900 27.86200
C  21.85100 49.44200 25.81900
C  20.72000 49.88000 29.11300
O  21.84000 49.52300 29.49400
C  19.56400 50.20000 30.13000
C  19.14100 48.94000 30.83800
O  18.65400 47.95600 30.31100
O  19.21700 49.14900 32.16700
C  18.73800 48.05500 33.08600
H  13.32800 53.08200 29.18400
H  14.37300 53.07200 22.71400
H  20.10900 50.60100 23.78400
H  16.74000 50.60500 31.41200
H  14.85300 52.79700 31.13800
H  13.47000 51.12400 31.86500
H  14.59200 49.87700 31.05500
H  13.36600 50.67900 30.16200
H  16.90200 53.62100 31.79600
H  18.37200 52.83200 31.31300
H  18.77900 52.63500 33.41100
H  17.90800 51.12700 33.22800
H  10.62500 53.87600 26.99700
H  11.55200 55.38700 27.28600
H  11.57900 53.99300 28.43800
H  10.20500 55.09100 23.34800
H  10.89200 55.76800 25.00900
H  10.07600 54.11300 24.66100
H  16.83600 53.35300 21.75300
H  18.15300 50.67400 21.74700
H  16.19200 50.73600 20.41800
H  15.73400 52.50800 20.16200
H  14.92000 51.35200 21.33600
H  19.86100 52.92900 22.60500
H  18.96400 53.40500 21.25600
H  21.18100 52.53600 20.75900
H  19.81500 51.99900 19.75400
H  20.44400 50.83400 20.86900
H  21.72600 48.51600 25.25800
H  22.59800 49.36900 26.61000
H  22.07100 50.15300 25.02200
H  20.07200 50.83300 30.85600
H  17.68700 48.29900 33.24000
H  19.23300 48.06600 34.05700
H  18.88300 47.06200 32.66200
Mg -2.24400 34.92100 26.20700
C  -4.20800 33.49100 28.53600
C  -1.33300 37.36400 28.47000
C  -0.39600 36.51600 23.76200
C  -3.93100 33.17900 23.66500
N  -2.63000 35.23800 28.32700
C  -3.36100 34.45600 29.08100
C  -3.30800 34.90200 30.55200
C  -2.51600 36.24400 30.46700
C  -2.17700 36.31600 28.96600
C  -3.33900 37.56000 30.89900
C  -2.71600 33.78000 31.45400
C  -2.31900 34.16900 32.93100
H  -2.86600 33.28000 34.02700
N  -0.99800 36.68900 26.13700
C  -0.83500 37.54600 27.18600
C  0.13400 38.61500 26.81900
C  0.46400 38.37800 25.42200
C  -0.27800 37.12100 25.02600
C  0.62800 39.61600 27.79100
C  1.27200 39.21600 24.42200
O  1.44500 38.95100 23.21000
C  1.88300 40.45300 24.91500
N  -2.18800 34.90700 23.98800
C  -1.20100 35.52100 23.23500
C  -1.19200 34.94700 21.81100
C  -2.51000 34.11900 21.81000
C  -2.89000 34.05400 23.21000
C  -1.13100 35.93800 20.59700
C  -2.35500 32.73200 21.16800
C  -3.41700 32.30000 20.16100
N  -3.72100 33.59000 26.03900
C  -4.22600 32.85800 24.97500
C  -5.16600 31.85000 25.41700
C  -5.14500 32.08200 26.84300
C  -4.25500 33.12300 27.16800
C  -5.98100 30.95100 24.56400
C  -5.76800 31.56900 28.10700
O  -6.47100 30.59800 28.25200
C  -5.21100 32.59400 29.21400
C  -6.43900 33.29200 29.76100
O  -7.25600 34.02800 29.18500
O  -6.56900 33.05400 31.10000
C  -7.56600 33.75800 31.93000
H  -0.99100 38.10800 29.19300
H  0.26200 36.93400 22.99700
H  -4.57300 32.64400 22.96300
H  -4.35400 35.08100 30.80500
H  -1.68900 36.35400 31.16900
H  -4.31800 37.25400 31.26700
H  -3.48300 38.32600 30.13800
H  -2.73100 38.06300 31.65200
H  -1.90800 33.29800 30.90400
H  -3.57000 33.11100 31.56000
H  -2.60100 35.21300 33.06500
H  -1.23100 34.18500 32.99300
H  -0.02300 40.48900 27.82100
H  1.62400 39.88400 27.43700
H  0.77000 39.16500 28.77300
H  1.23000 40.94700 25.63300
H  2.15800 40.96600 23.99300
H  2.87300 40.18600 25.28700
H  -0.37800 34.22100 21.80700
H  -3.22300 34.72500 21.25100
H  -0.10900 36.15500 20.28800
H  -1.40600 36.88500 21.06000
H  -1.86400 35.63300 19.85100
H  -2.36400 31.99300 21.96800
H  -1.43600 32.63200 20.59100
H  -2.90700 32.10900 19.21800
H  -4.05500 33.15200 19.92500
H  -3.99500 31.45200 20.52600
H  -6.79100 31.53600 24.12800
H  -6.26700 29.99700 25.00600
H  -5.31800 30.61300 23.76700
H  -4.74300 32.02800 30.01900
H  -7.00900 34.22200 32.74400
H  -8.13900 32.94800 32.38100
H  -8.16500 34.53600 31.45600

