158

Mg 41.05800 9.47300 30.20300
C  43.10400 10.42900 32.86800
C  38.84900 8.16100 32.56100
C  39.41300 7.99800 27.71400
C  43.87200 9.97400 28.06300
N  41.02100 9.37800 32.46000
C  41.96500 9.81600 33.34800
C  41.44800 9.74000 34.79900
C  40.12800 8.80900 34.63500
C  39.96800 8.76100 33.08900
C  40.11200 7.43800 35.30500
C  41.29800 11.10800 35.52700
C  40.65200 11.05700 36.84500
H  41.11400 11.95900 37.96200
N  39.28100 8.48900 30.09800
C  38.55400 7.98900 31.16900
C  37.39300 7.25100 30.66500
C  37.46500 7.28600 29.25500
C  38.77500 7.91800 28.95600
C  36.38900 6.58100 31.58100
C  36.56700 6.77300 28.23300
O  36.84000 6.61700 27.02000
C  35.12700 6.37700 28.68600
N  41.66200 8.90900 28.20900
C  40.68200 8.46800 27.37600
C  41.15700 8.36000 25.89500
C  42.63900 8.89100 26.03200
C  42.76900 9.28100 27.52100
C  41.10400 6.87200 25.32900
C  42.96100 10.03700 25.07600
C  42.00700 11.32800 25.13500
N  43.05100 10.09300 30.41000
C  44.02500 10.33900 29.43600
C  45.12500 11.02100 29.98800
C  44.81900 11.07400 31.35600
C  43.54100 10.47700 31.57600
C  46.32800 11.45800 29.30800
C  45.28900 11.53400 32.64600
O  46.27600 12.18100 32.93500
C  44.19800 11.10100 33.69900
C  44.95400 10.17800 34.70800
O  45.85600 9.42600 34.34200
O  44.52600 10.39100 35.98600
C  45.17900 9.60900 37.01100
H  38.07100 7.88200 33.27500
H  38.99100 7.43600 26.87800
H  44.64400 10.25000 27.34200
H  42.24600 9.25200 35.36000
H  39.29000 9.38000 35.03600
H  40.79400 7.35200 36.15100
H  40.35100 6.74400 34.49900
H  39.10100 7.14200 35.58600
H  40.65500 11.79100 34.97400
H  42.30600 11.50100 35.65700
H  40.70100 10.04500 37.24900
H  39.60700 11.33300 36.70800
H  35.49700 7.20200 31.67000
H  36.82900 6.40600 32.56200
H  36.12000 5.62600 31.12800
H  34.70300 7.12100 29.36000
H  35.06000 5.39200 29.14700
H  34.45500 6.31000 27.83000
H  40.51500 9.00400 25.29400
H  43.35300 8.10900 25.77500
H  41.23000 6.15800 26.14300
H  41.74000 6.66300 24.46800
H  40.08000 6.73400 24.98100
H  43.07700 9.62100 24.07500
H  43.94400 10.36400 25.41500
H  42.57300 12.23300 25.35300
H  41.26100 11.33300 25.92900
H  41.42900 11.40500 24.21400
H  46.64800 12.47400 29.54100
H  46.08300 11.57200 28.25200
H  47.13700 10.74400 29.46100
H  43.83000 11.97000 34.24400
H  46.25800 9.73700 37.09400
H  45.01900 8.55300 36.79300
H  44.66700 9.80400 37.95300
Mg -10.56500 40.04800 39.96900
C  -9.00800 36.94500 39.16200
C  -7.78600 41.66100 38.93700
C  -12.32100 42.97100 39.65500
C  -13.68800 38.21800 40.30200
N  -8.67000 39.39100 39.16100
C  -8.23100 38.08300 38.81600
C  -6.92200 38.11200 38.08400
C  -6.45200 39.58700 38.38100
C  -7.75200 40.27600 38.81000
C  -5.34500 39.78200 39.46600
C  -7.04000 37.71900 36.55600
C  -6.22000 36.53500 35.94100
H  -6.87700 35.93000 34.65500
N  -10.02900 42.06100 39.69600
C  -8.80400 42.53800 39.31400
C  -8.74000 44.01300 39.42600
C  -10.11000 44.40200 39.70700
C  -10.89000 43.13600 39.74800
C  -7.48200 44.85700 39.23100
C  -10.57600 45.80600 39.91800
O  -9.77900 46.73600 39.80500
C  -12.00900 46.07700 40.34100
N  -12.68900 40.56800 39.98200
C  -13.10500 41.82300 39.69900
C  -14.64500 41.98000 39.68100
C  -15.10000 40.46600 39.98900
C  -13.75100 39.63900 40.12300
C  -15.07600 43.05600 40.65600
C  -16.01500 39.75100 38.83800
C  -17.29300 38.98500 39.16700
N  -11.25700 38.08000 39.89200
C  -12.48600 37.48000 40.16400
C  -12.34000 36.00100 40.25400
C  -11.02800 35.79000 39.93200
C  -10.40600 37.03600 39.68100
C  -13.46900 35.06900 40.55100
C  -10.04000 34.80100 39.57100
O  -10.12200 33.59000 39.49200
C  -8.74900 35.49900 39.11200
C  -7.62200 35.02200 39.98200
O  -7.63000 35.03800 41.19000
O  -6.57200 34.62500 39.17500
C  -5.60300 33.81800 39.80500
H  -6.88700 42.21900 38.66700
H  -12.97400 43.83900 39.54000
H  -14.64800 37.73100 40.48700
H  -6.18200 37.53600 38.63900
H  -6.10300 40.10300 37.48700
H  -5.71800 40.18800 40.40600
H  -4.66200 40.54000 39.08100
H  -4.69900 38.95300 39.75500
H  -6.73400 38.60800 36.00300
H  -8.09500 37.60700 36.30400
H  -6.34300 35.77600 36.71400
H  -5.17900 36.84200 35.84000
H  -7.31600 45.13800 38.19100
H  -6.59000 44.31100 39.53700
H  -7.63600 45.76000 39.82200
H  -12.07100 47.11400 40.66900
H  -12.18100 45.34400 41.13000
H  -12.66500 46.01800 39.47300
H  -14.98900 42.21500 38.67400
H  -15.56600 40.38200 40.97100
H  -14.78900 44.07600 40.40000
H  -14.50500 42.90200 41.57100
H  -16.16100 43.07300 40.76400
H  -15.45600 39.06000 38.20600
H  -16.26300 40.50700 38.09300
H  -18.18700 39.35600 38.66400
H  -17.50000 39.01600 40.23700
H  -17.17700 37.95400 38.83100
H  -14.02100 35.36500 41.44300
H  -13.03600 34.09700 40.79000
H  -14.21100 35.04500 39.75400
H  -8.59600 35.11500 38.10400
H  -5.53100 33.77000 40.89200
H  -4.60900 34.20700 39.58300
H  -5.47700 32.80600 39.41900

