158

Mg 47.04900 15.79500 28.22300
C  44.92400 15.60100 31.03200
C  49.27000 17.37300 30.43400
C  49.16300 16.26300 25.63900
C  44.64900 14.48700 26.27900
N  47.05900 16.45400 30.50500
C  46.12800 16.15300 31.43000
C  46.59600 16.41500 32.87800
C  47.91100 17.19900 32.57600
C  48.12600 16.99600 31.09000
C  47.96200 18.72200 32.99100
C  46.66800 15.12100 33.77700
C  46.25700 15.39000 35.25900
H  46.10800 16.82000 35.78500
N  48.98000 16.58600 28.04800
C  49.75800 17.10900 29.07600
C  51.04400 17.29400 28.54100
C  51.03600 17.06300 27.09400
C  49.67400 16.58300 26.86500
C  52.18300 17.75000 29.33800
C  52.17500 17.18800 26.05100
O  52.19600 16.75900 24.89500
C  53.51600 17.80800 26.48800
N  46.97600 15.36300 26.27800
C  47.88600 15.74300 25.36100
C  47.51900 15.39400 23.92300
C  46.11900 14.76400 24.16200
C  45.88400 14.79500 25.68800
C  47.64100 16.52400 22.86000
C  46.01300 13.29200 23.72000
C  45.08400 13.15200 22.59000
N  45.12700 15.17000 28.53900
C  44.28200 14.58100 27.62300
C  43.10100 14.18600 28.31900
C  43.30400 14.54700 29.64900
C  44.55300 15.13700 29.73600
C  41.95500 13.51400 27.63300
C  42.69500 14.54800 31.03400
O  41.66000 14.08400 31.40000
C  43.82800 15.12000 31.99200
C  43.19400 16.26500 32.79800
O  43.21800 17.47600 32.52100
O  42.55800 15.66900 33.90200
C  41.90100 16.65500 34.77000
H  49.98500 17.96900 31.00600
H  49.73900 16.61400 24.77900
H  43.86200 14.08600 25.63700
H  45.84000 17.08000 33.29400
H  48.66900 16.67400 33.15700
H  46.95500 18.99700 33.30300
H  48.27700 19.35000 32.15800
H  48.73000 18.73900 33.76500
H  47.70300 14.80400 33.90800
H  46.21500 14.30200 33.21900
H  46.92600 14.84100 35.92100
H  45.29400 14.88300 35.32800
H  53.13400 17.36800 28.96700
H  52.02900 17.33800 30.33600
H  52.17600 18.84000 29.34000
H  53.50900 18.70300 27.11000
H  54.10000 18.02700 25.59500
H  54.09200 17.02500 26.98100
H  48.19400 14.59500 23.61600
H  45.40000 15.42300 23.67400
H  47.35200 17.50100 23.24700
H  47.07400 16.16200 22.00200
H  48.66300 16.61800 22.49500
H  45.74400 12.59700 24.51600
H  47.02500 13.02400 23.41500
H  45.47700 12.39700 21.90900
H  45.01200 14.11100 22.07700
H  44.10900 12.89800 23.00500
H  41.74200 14.08000 26.72700
H  41.02800 13.48600 28.20500
H  42.22700 12.50000 27.34000
H  44.08800 14.26700 32.61800
H  40.95300 17.03500 34.39100
H  42.48000 17.57400 34.86700
H  41.71700 16.25000 35.76500
Mg 35.28400 49.15200 24.92200
C  35.77100 47.24700 27.85700
C  34.79600 51.86200 26.85200
C  34.80600 50.81600 22.11000
C  36.21500 46.29700 23.09800
N  35.05500 49.44100 27.10000
C  35.45400 48.59500 28.09200
C  35.38800 49.30500 29.44800
C  35.26000 50.82300 29.10100
C  35.06300 50.72000 27.58200
C  34.00600 51.54300 29.75600
C  36.64300 48.94900 30.33000
C  36.38300 48.35100 31.75000
H  34.94900 48.41300 32.32900
N  34.86100 51.04900 24.57700
C  34.64900 52.04100 25.45200
C  34.49000 53.33400 24.82000
C  34.38400 53.01700 23.42900
C  34.72100 51.57200 23.30600
C  34.41600 54.60800 25.66900
C  34.10600 53.92200 22.30400
O  34.26000 53.59800 21.17400
C  33.74700 55.39300 22.40500
N  35.21900 48.53800 22.87500
C  35.15800 49.46200 21.87800
C  35.64900 48.91800 20.51300
C  36.49500 47.63000 20.98500
C  35.99800 47.48700 22.44300
C  34.32400 48.53000 19.68800
C  38.09000 47.67800 20.90500
C  38.84200 46.39700 20.35000
N  35.77400 47.18900 25.30900
C  36.14500 46.16100 24.44900
C  36.70600 45.01500 25.16400
C  36.50400 45.35000 26.56800
C  35.95400 46.67300 26.58400
C  37.23100 43.80200 24.50600
C  36.60700 44.85800 27.88600
O  37.07300 43.79600 28.37100
C  36.17500 46.10100 28.81900
C  35.08900 45.56800 29.67200
O  33.91200 45.51200 29.35700
O  35.59000 44.83200 30.76100
C  34.50700 44.25400 31.57000
H  34.63600 52.80800 27.37300
H  34.42700 51.30700 21.21100
H  36.55000 45.41000 22.55500
H  34.43200 48.90300 29.78200
H  36.22200 51.31000 29.26000
H  34.28800 52.47800 30.24000
H  33.56200 50.90900 30.52300
H  33.33400 51.93200 28.99100
H  37.09000 49.90500 30.60600
H  37.39500 48.36400 29.80100
H  37.02300 48.79100 32.51500
H  36.88700 47.38600 31.80400
H  34.25700 55.48600 25.04200
H  35.40800 54.77200 26.08800
H  33.66900 54.40500 26.43700
H  32.89600 55.55600 23.06800
H  33.43500 55.68400 21.40200
H  34.65400 55.91500 22.71000
H  36.39100 49.62200 20.13700
H  36.37500 46.71200 20.40900
H  33.53800 49.16600 20.09500
H  34.06300 47.48500 19.85900
H  34.52600 48.77800 18.64700
H  38.47700 47.94400 21.88900
H  38.25000 48.49300 20.19900
H  39.91900 46.55400 20.28800
H  38.57800 46.12000 19.32900
H  38.61000 45.46100 20.85800
H  37.94300 44.17900 23.77100
H  36.30500 43.34200 24.16100
H  37.75600 43.28400 25.30800
H  37.04500 46.22500 29.46400
H  33.95900 43.48000 31.03200
H  33.90300 45.02500 32.04600
H  35.15300 43.63800 32.19500

