158

Mg 49.52300 35.26300 26.71900
C  47.36700 34.05600 29.13600
C  50.00600 38.03900 28.45900
C  51.42600 36.41200 24.10500
C  48.74400 32.41000 24.78500
N  48.67400 36.00000 28.56300
C  47.96700 35.26800 29.45600
C  48.06100 35.88400 30.79500
C  48.62200 37.28500 30.58300
C  49.11200 37.17600 29.10400
C  47.67100 38.53900 30.80500
C  49.19100 35.12100 31.64600
C  48.94400 34.67900 33.04900
H  47.85200 35.47000 33.80300
N  50.52400 37.07400 26.28200
C  50.64200 38.09300 27.20400
C  51.52000 39.11700 26.67900
C  51.95200 38.62400 25.40900
C  51.32500 37.33200 25.21700
C  51.77300 40.42900 27.39900
C  52.70500 39.35500 24.39200
O  52.77100 39.00300 23.22500
C  53.30900 40.68300 24.68900
N  49.97500 34.52100 24.77300
C  50.78500 35.16600 23.90200
C  51.16600 34.29900 22.70900
C  50.44500 32.97200 22.95300
C  49.63300 33.28800 24.20400
C  50.88700 35.05600 21.26000
C  51.45800 31.83900 23.03500
C  51.23400 30.77300 22.00600
N  48.30400 33.67400 26.85100
C  48.05600 32.63300 25.98100
C  47.11600 31.72200 26.54200
C  46.73300 32.25700 27.82600
C  47.52500 33.41900 27.89700
C  46.74700 30.33800 25.90700
C  45.92700 31.97000 28.95000
O  45.12400 31.10600 29.27000
C  46.43000 33.12800 29.95300
C  46.97700 32.45500 31.15300
O  48.09400 31.98100 31.24700
O  45.85400 32.34300 32.05100
C  46.10200 31.58000 33.26700
H  50.23200 38.84600 29.15900
H  52.10100 36.65800 23.28200
H  48.51100 31.44300 24.33400
H  47.14200 35.94900 31.37700
H  49.50900 37.47400 31.18800
H  47.56800 39.11800 29.88700
H  48.18800 39.11600 31.57200
H  46.66600 38.46100 31.22000
H  50.16400 35.60800 31.57600
H  49.26400 34.22700 31.02700
H  49.81300 35.04400 33.59700
H  48.88600 33.59800 33.17800
H  51.51600 40.29100 28.44900
H  51.20000 41.24200 26.95300
H  52.84200 40.63900 27.43400
H  52.52700 41.40100 24.94000
H  53.88200 41.13500 23.88000
H  54.01500 40.45100 25.48600
H  52.24700 34.17900 22.76900
H  49.70600 32.83600 22.16300
H  50.65000 36.10100 21.46100
H  50.31400 34.54000 20.48900
H  51.88000 35.11700 20.81600
H  51.33700 31.35900 24.00600
H  52.45900 32.22900 22.84700
H  51.87700 30.81500 21.12700
H  50.22700 30.64800 21.60800
H  51.42400 29.82700 22.51300
H  45.90100 29.90400 26.44100
H  47.52600 29.58200 25.81100
H  46.47700 30.40800 24.85300
H  45.54700 33.67000 30.29100
H  47.09100 31.12500 33.21500
H  45.46900 30.70400 33.40700
H  45.97000 32.29200 34.08100
Mg 16.46600 52.65600 26.19800
C  18.70700 51.23100 28.39300
C  14.28500 53.15500 28.72000
C  14.53500 54.04800 23.87900
C  18.74100 51.60200 23.61500
N  16.60000 52.32100 28.28500
C  17.56200 51.81700 29.04500
C  17.23100 51.89200 30.54100
C  15.72100 52.04600 30.56200
C  15.51700 52.53900 29.11600
C  15.01600 50.71900 30.84400
C  17.99700 53.12200 31.12900
C  18.23400 53.25200 32.61700
H  17.30500 52.51000 33.53700
N  14.60600 53.45100 26.26500
C  13.88100 53.64600 27.46800
C  12.60300 54.35400 27.14900
C  12.69700 54.68800 25.74800
C  13.97500 54.06600 25.22600
C  11.68200 54.85000 28.20200
C  11.73700 55.56800 24.91700
O  11.83900 55.78800 23.72200
C  10.60800 56.33500 25.53100
N  16.69000 52.76300 24.03900
C  15.70500 53.41900 23.35000
C  16.10900 53.54900 21.87000
C  17.54100 52.94600 21.84700
C  17.71300 52.45500 23.23900
C  15.09400 52.91400 20.78400
C  18.67500 53.83500 21.32100
C  19.83600 54.28700 22.38700
N  18.29100 51.55700 25.97200
C  19.05700 51.16000 24.91200
C  20.24300 50.51500 25.31500
C  20.13400 50.48600 26.69700
C  18.91400 51.11100 27.03700
C  21.36500 49.99900 24.35800
C  20.80300 50.08000 27.88700
O  21.84400 49.40900 28.02800
C  19.92500 50.60300 29.03000
C  19.60000 49.59200 29.99500
O  18.89300 48.61100 29.77500
O  19.97500 50.00600 31.24700
C  19.56900 49.18400 32.37800
H  13.52600 53.21800 29.50400
H  13.94400 54.62700 23.16600
H  19.40000 51.34200 22.78400
H  17.45100 51.02600 31.16400
H  15.57800 52.74700 31.38400
H  14.00300 50.81100 30.45100
H  14.91300 50.62000 31.92500
H  15.60900 49.84000 30.59400
H  17.51300 54.05000 30.82200
H  18.92100 53.19900 30.55500
H  18.17500 54.32600 32.79700
H  19.28100 52.96100 32.70800
H  11.83400 54.28000 29.11900
H  10.68300 54.75000 27.77700
H  11.92300 55.87200 28.49300
H  10.28700 57.05800 24.78100
H  11.05200 56.81500 26.40400
H  9.93600 55.50600 25.75300
H  16.13300 54.61300 21.63400
H  17.42700 52.08900 21.18300
H  14.09300 53.08400 21.18100
H  15.32800 51.88800 20.50000
H  15.28100 53.52900 19.90300
H  18.33300 54.64800 20.68000
H  19.33300 53.28500 20.64900
H  20.79300 53.78500 22.24400
H  19.59100 54.38700 23.44400
H  20.12600 55.28500 22.05700
H  21.95900 49.17700 24.75700
H  22.04800 50.84000 24.24100
H  21.02100 49.69300 23.37000
H  20.47500 51.33200 29.62700
H  20.29000 48.39800 32.60100
H  18.62300 48.64400 32.41300
H  19.54700 49.93000 33.17300

