158

Mg 23.06500 -7.50300 46.22200
C  25.72900 -5.33600 44.86600
C  20.87100 -5.89200 44.27700
C  21.04600 -10.14300 46.58600
C  25.73100 -9.33600 47.75900
N  23.28500 -5.79000 44.78000
C  24.42600 -5.06000 44.35000
C  23.99500 -3.97900 43.25800
C  22.43200 -4.06700 43.27600
C  22.15500 -5.36600 44.07900
C  21.74600 -2.93900 43.93800
C  24.75900 -4.13300 41.84200
C  24.72200 -2.80700 40.98600
H  23.93300 -2.77800 39.64000
N  21.19700 -7.92600 45.56100
C  20.38100 -7.11500 44.84400
C  19.15700 -7.76600 44.44500
C  19.11900 -8.95400 45.26500
C  20.50300 -9.09800 45.79200
C  18.09400 -7.12900 43.56400
C  17.94700 -9.97200 45.39300
O  16.90000 -9.84200 44.68700
C  18.00000 -11.09000 46.36800
N  23.36600 -9.39900 46.98600
C  22.29600 -10.25900 47.13400
C  22.68600 -11.55800 47.91000
C  24.21600 -11.29000 48.18400
C  24.51200 -9.95100 47.50700
C  21.89300 -11.84100 49.18700
C  25.08200 -12.55200 47.88700
C  26.35300 -12.70800 48.70700
N  25.28100 -7.29700 46.49600
C  26.17000 -8.12200 47.19600
C  27.49200 -7.55400 47.06500
C  27.39100 -6.48300 46.17800
C  25.99700 -6.41800 45.77100
C  28.73500 -8.08000 47.64600
C  28.13300 -5.32000 45.62500
O  29.24900 -4.91100 45.87700
C  27.07900 -4.62200 44.62100
C  27.14900 -3.22700 45.09100
O  26.54400 -2.89700 46.11100
O  27.64900 -2.36500 44.12700
C  27.70300 -0.91700 44.50400
H  20.18100 -5.15800 43.85700
H  20.40800 -11.02200 46.69900
H  26.53200 -9.93200 48.20000
H  24.30100 -2.97700 43.55900
H  22.04000 -4.21300 42.26900
H  22.45400 -2.58900 44.68900
H  20.86400 -3.11000 44.55500
H  21.65700 -2.16500 43.17600
H  24.24900 -4.98000 41.38400
H  25.79400 -4.45800 41.94800
H  25.77500 -2.85800 40.70700
H  24.55100 -1.95700 41.64600
H  18.16300 -7.77300 42.68700
H  18.29600 -6.07200 43.38900
H  17.08400 -7.20200 43.96600
H  18.36300 -10.75300 47.33900
H  18.58700 -11.91300 45.96000
H  17.01800 -11.53800 46.52400
H  22.61900 -12.28000 47.09700
H  24.32900 -11.14100 49.25800
H  22.48000 -11.59500 50.07200
H  21.60800 -12.89100 49.12400
H  20.98800 -11.23500 49.13800
H  25.27100 -12.43000 46.82000
H  24.50600 -13.44900 48.11500
H  27.16200 -12.79900 47.98300
H  26.41200 -13.49100 49.46300
H  26.62300 -11.79400 49.23700
H  29.49600 -8.15600 46.87000
H  28.57600 -9.02100 48.17200
H  29.06900 -7.45400 48.47400
H  27.37600 -4.70400 43.57600
H  28.70300 -0.61900 44.81800
H  27.00100 -0.71300 45.31300
H  27.39600 -0.40100 43.59500
Mg 16.48300 -2.97700 28.01300
C  15.89300 -0.92900 30.74300
C  18.26200 -5.04600 30.24700
C  17.71100 -4.76700 25.40100
C  15.36200 -0.49400 25.92700
N  17.02800 -2.94300 30.26100
C  16.54900 -2.08400 31.17700
C  16.90000 -2.49000 32.58900
C  17.65900 -3.78700 32.42800
C  17.74700 -3.89800 30.85200
C  19.09100 -3.96500 33.12700
C  15.66000 -2.73300 33.53000
C  15.67400 -1.93100 34.84600
H  17.03100 -1.58800 35.44600
N  17.64400 -4.76700 27.86600
C  18.28100 -5.47500 28.87200
C  18.82900 -6.59900 28.31900
C  18.78500 -6.48200 26.91200
C  18.03700 -5.29300 26.66400
C  19.40100 -7.56200 29.24200
C  19.51000 -7.38500 25.95800
O  19.44900 -7.22400 24.74100
C  20.31600 -8.51100 26.45100
N  16.59700 -2.60600 26.05100
C  17.11500 -3.49900 25.07700
C  17.10900 -2.90300 23.63600
C  16.20600 -1.65800 23.85700
C  16.01200 -1.56400 25.36900
C  18.51800 -2.45100 23.08000
C  14.87800 -1.56400 22.95300
C  13.61400 -1.99500 23.71100
N  15.47100 -1.21000 28.24200
C  15.12400 -0.25600 27.33500
C  14.47700 0.79600 27.94400
C  14.72800 0.57300 29.30500
C  15.42900 -0.66300 29.44900
C  13.74500 1.96400 27.27000
C  14.62400 1.12900 30.63300
O  14.15300 2.21500 30.95900
C  15.28500 0.17300 31.61100
C  16.32000 0.88100 32.38600
O  17.50800 1.04900 32.13000
O  15.71500 1.50900 33.38200
C  16.47800 2.47100 34.18400
H  18.76000 -5.62800 31.02600
H  17.92800 -5.28700 24.46600
H  15.08500 0.31200 25.24400
H  17.53100 -1.66900 32.92900
H  17.07400 -4.62600 32.80400
H  19.83800 -3.76100 32.36100
H  19.07300 -4.95500 33.58300
H  19.20600 -3.31700 33.99600
H  15.60100 -3.80400 33.72200
H  14.85800 -2.37900 32.88200
H  15.18300 -2.54200 35.60300
H  15.02900 -1.06200 34.71900
H  18.75000 -7.85500 30.06600
H  20.26800 -7.20400 29.79600
H  19.62000 -8.52000 28.76900
H  21.13000 -8.24000 27.12400
H  20.82500 -8.96600 25.60100
H  19.72500 -9.31100 26.89700
H  16.51000 -3.49300 22.94200
H  16.74200 -0.73500 23.63400
H  19.12700 -2.36600 23.98000
H  18.60600 -1.45200 22.65200
H  19.08000 -3.08900 22.40000
H  14.95700 -2.11400 22.01500
H  14.73100 -0.50700 22.73200
H  13.81500 -2.87100 24.32800
H  12.93900 -2.29500 22.91000
H  13.17900 -1.23000 24.35500
H  12.94000 1.65500 26.60400
H  14.48600 2.45800 26.64100
H  13.37500 2.57500 28.09300
H  14.53400 -0.11300 32.34700
H  16.51400 3.49000 33.79900
H  17.52700 2.23000 34.35200
H  16.01300 2.56100 35.16600

