158

Mg 25.52800 -8.42100 47.28800
C  27.87500 -6.05800 46.54500
C  23.43600 -6.95700 44.92900
C  23.23200 -10.83700 47.95100
C  28.00500 -10.26900 48.98500
N  25.61200 -6.68200 45.91400
C  26.72200 -5.87200 45.77300
C  26.59000 -4.86900 44.66800
C  25.09200 -4.96900 44.34800
C  24.61400 -6.26200 45.12600
C  24.23400 -3.66200 44.77600
C  27.46500 -5.25900 43.46900
C  28.37400 -4.25300 42.77600
H  27.96500 -3.67700 41.41000
N  23.54800 -8.81200 46.62100
C  22.86900 -8.07700 45.57800
C  21.61600 -8.77000 45.33400
C  21.49400 -9.71800 46.33400
C  22.77200 -9.83200 47.02100
C  20.60900 -8.23200 44.31800
C  20.25800 -10.49600 46.61400
O  19.31900 -10.42400 45.83800
C  20.07500 -11.33500 47.89400
N  25.59700 -10.27200 48.27900
C  24.50700 -11.03900 48.55500
C  24.93100 -12.35600 49.25700
C  26.47500 -12.30600 49.23700
C  26.76800 -10.87400 48.77100
C  24.19300 -12.51300 50.60200
C  27.35000 -13.34100 48.49100
C  27.74500 -14.56000 49.30300
N  27.53100 -8.29400 47.71900
C  28.40000 -9.05900 48.42800
C  29.71300 -8.44300 48.43500
C  29.56500 -7.19700 47.81600
C  28.18800 -7.15300 47.39500
C  30.99100 -9.05500 48.90400
C  30.28000 -6.03900 47.30100
O  31.45300 -5.65600 47.45800
C  29.22800 -5.25300 46.46400
C  29.04600 -3.83300 46.93600
O  28.55500 -3.51200 48.00600
O  29.49400 -2.96200 45.94700
C  29.12500 -1.59000 46.02100
H  22.89600 -6.38600 44.17100
H  22.52900 -11.65900 48.10100
H  28.76700 -10.86700 49.48900
H  26.91100 -3.91000 45.07600
H  24.88500 -5.16400 43.29600
H  23.67400 -3.78100 45.70300
H  23.48100 -3.44400 44.01900
H  24.85400 -2.77400 44.90200
H  26.80500 -5.58400 42.66400
H  28.00000 -6.16600 43.74900
H  29.27400 -4.82600 42.55300
H  28.71800 -3.42700 43.39900
H  21.00200 -7.34400 43.82500
H  19.76500 -7.73700 44.79900
H  20.31200 -9.02200 43.62800
H  20.52200 -12.26600 47.54500
H  19.01400 -11.44600 48.11900
H  20.62500 -10.90600 48.73200
H  24.51700 -13.09900 48.57500
H  26.65800 -12.24800 50.31000
H  24.55400 -13.34400 51.20700
H  23.12500 -12.50200 50.38500
H  24.47600 -11.61700 51.15400
H  28.18600 -12.86700 47.97700
H  26.65500 -13.75200 47.75800
H  28.73800 -14.80600 48.92600
H  27.02300 -15.31100 48.98200
H  27.68200 -14.41100 50.38100
H  31.55300 -8.30100 49.45500
H  31.56500 -9.50100 48.09100
H  30.82600 -9.94600 49.50900
H  29.46000 -5.27400 45.39900
H  28.13200 -1.54600 45.57400
H  29.82800 -0.92400 45.52200
H  29.11200 -1.16700 47.02600
Mg -0.43000 43.35900 25.25800
C  1.69700 42.61300 27.88200
C  -2.99600 42.80400 27.39300
C  -2.52100 43.37800 22.62500
C  2.44500 43.20100 23.12000
N  -0.60200 42.60000 27.41000
C  0.40900 42.64500 28.32500
C  -0.14200 42.64200 29.75300
C  -1.65000 42.31000 29.49900
C  -1.78100 42.59000 28.00400
C  -2.28300 40.94400 29.90000
C  0.07400 44.08900 30.37900
C  0.05100 44.13800 31.94300
H  -0.20900 42.84300 32.76700
N  -2.49000 43.32000 25.04000
C  -3.37100 43.06400 26.06800
C  -4.72400 43.15300 25.53900
C  -4.59800 43.24400 24.14400
C  -3.16000 43.33400 23.84700
C  -5.94800 43.04000 26.44000
C  -5.66800 43.39500 23.04500
O  -5.46000 43.71700 21.90100
C  -7.19600 43.24300 23.49300
N  -0.07800 43.36800 23.20300
C  -1.07500 43.31500 22.28900
C  -0.55000 43.40300 20.82300
C  0.95100 43.75800 21.10800
C  1.16200 43.39600 22.54200
C  -0.77900 41.97800 20.14000
C  1.51100 45.22400 20.78100
C  1.20300 46.42300 21.64800
N  1.64100 43.13700 25.38000
C  2.64100 43.00000 24.50900
C  3.92200 42.73400 25.15000
C  3.61700 42.59800 26.49500
C  2.19500 42.78000 26.55100
C  5.24400 42.57500 24.40400
C  4.18600 42.21300 27.75300
O  5.36700 41.97900 28.03900
C  3.02100 42.49900 28.74400
C  3.14600 41.40300 29.75700
O  2.78200 40.19900 29.72500
O  3.65700 41.92800 30.91100
C  4.13800 41.02300 31.98900
H  -3.82800 42.69400 28.09200
H  -3.12600 43.44100 21.71800
H  3.34000 43.22600 22.49500
H  0.42100 41.94900 30.37800
H  -2.28400 43.03800 30.00500
H  -3.07400 40.75600 29.17400
H  -2.71300 41.08900 30.89100
H  -1.45700 40.23500 29.96000
H  -0.63100 44.80700 29.96000
H  1.01600 44.50200 30.02000
H  -0.63700 44.94700 32.19100
H  0.98200 44.49400 32.38400
H  -6.56000 43.93900 26.37900
H  -5.83100 42.87500 27.51100
H  -6.47400 42.23800 25.92100
H  -7.44500 42.33900 24.04800
H  -7.60500 43.30100 22.48400
H  -7.62800 44.08800 24.02900
H  -0.94300 44.10700 20.08900
H  1.47800 43.07100 20.44700
H  -1.39500 41.30800 20.73900
H  0.18500 41.48700 20.00500
H  -1.32800 42.16700 19.21800
H  1.12000 45.23300 19.76400
H  2.59200 45.09400 20.73500
H  1.07300 47.29900 21.01400
H  2.08500 46.61300 22.26000
H  0.28600 46.30600 22.22600
H  5.96200 42.26200 25.16100
H  5.60600 43.44300 23.85100
H  5.11100 41.72800 23.73100
H  3.19200 43.49600 29.15100
H  5.19900 40.94800 31.75000
H  3.67000 40.03900 32.00800
H  4.05000 41.49000 32.97000

