158

Mg 54.55900 24.82400 44.51600
C  52.24000 27.25200 43.52600
C  52.49600 22.39300 43.28600
C  57.15100 22.66900 44.49400
C  56.85400 27.44500 45.03300
N  52.57300 24.87500 43.56400
C  51.86200 25.94800 43.14300
C  50.57500 25.48500 42.27300
C  50.43600 24.11200 42.92800
C  51.93900 23.73600 43.27400
C  49.62900 23.91000 44.25100
C  51.00100 25.50400 40.76700
C  49.97200 26.21000 39.78500
H  49.75800 25.47800 38.48800
N  54.75400 22.73900 44.02300
C  53.77600 21.93300 43.59200
C  54.32300 20.60900 43.43300
C  55.64400 20.64700 43.93000
C  55.96600 22.02700 44.16400
C  53.40400 19.46400 42.88600
C  56.52900 19.42600 44.10600
O  56.18800 18.29100 43.83000
C  57.95800 19.53100 44.52800
N  56.79900 25.05800 44.42600
C  57.58200 23.99200 44.60100
C  58.98800 24.44000 44.97300
C  58.95500 26.01900 44.89700
C  57.46300 26.20200 44.88100
C  59.55700 23.94300 46.32200
C  59.78800 26.79100 43.87900
C  60.91800 27.64500 44.42600
N  54.51900 26.95500 44.60300
C  55.50800 27.89000 44.91700
C  54.87700 29.25300 44.85000
C  53.59000 29.02400 44.29100
C  53.47300 27.66200 44.13600
C  55.54300 30.54300 45.15100
C  52.43000 29.67100 43.80600
O  52.18600 30.85100 43.74700
C  51.49800 28.57600 43.39400
C  50.99000 28.81400 42.04300
O  51.61200 29.07500 40.98700
O  49.64100 28.77000 42.11100
C  48.87600 29.50800 41.12100
H  51.82500 21.61000 42.92700
H  57.98000 21.95800 44.46100
H  57.53100 28.29800 45.12300
H  49.73700 26.16800 42.41100
H  50.13300 23.36800 42.19100
H  49.08100 24.84700 44.35300
H  50.31700 23.67900 45.06400
H  48.93000 23.08700 44.10000
H  51.44900 24.57400 40.41500
H  51.83800 26.18500 40.61400
H  50.41400 27.17200 39.53000
H  49.02700 26.32400 40.31700
H  53.92600 18.51000 42.82000
H  53.00800 19.70100 41.89900
H  52.52800 19.21100 43.48300
H  58.49500 18.59700 44.69500
H  58.07800 20.10300 45.44700
H  58.51900 20.11800 43.80000
H  59.74900 24.07700 44.28200
H  59.29600 26.38900 45.86400
H  58.78700 23.97100 47.09300
H  60.38100 24.55300 46.69000
H  59.84400 22.91400 46.10500
H  59.08900 27.35900 43.26400
H  60.22900 26.01000 43.25900
H  61.95400 27.34900 44.26000
H  60.81300 27.83600 45.49400
H  60.79800 28.63600 43.98800
H  54.94400 31.35200 44.73400
H  56.50600 30.49200 44.64200
H  55.76900 30.66700 46.21100
H  50.64600 28.56700 44.07300
H  48.89700 29.01800 40.14800
H  49.19700 30.53600 40.95400
H  47.84800 29.45800 41.48100
Mg 42.29600 41.45200 26.08800
C  41.65600 43.52400 28.81600
C  44.03400 39.35000 28.37200
C  43.07500 39.45600 23.58400
C  41.33800 43.90800 23.99800
N  42.91500 41.51700 28.35100
C  42.34200 42.36900 29.27200
C  42.71800 41.96400 30.77300
C  43.47200 40.60400 30.59200
C  43.49800 40.48900 28.99700
C  44.95900 40.66700 31.12300
C  41.46600 41.90700 31.76500
C  41.77600 42.42800 33.21100
H  40.82500 42.02500 34.43000
N  43.41000 39.64300 25.98100
C  44.03100 38.90900 27.02000
C  44.41800 37.57600 26.43100
C  44.02400 37.58900 25.08000
C  43.44000 38.94000 24.82100
C  45.02300 36.50500 27.29000
C  44.08300 36.47700 23.96900
O  43.79100 36.57000 22.84400
C  44.56900 35.14900 24.52200
N  42.24100 41.67400 24.06700
C  42.62500 40.72500 23.15600
C  42.19400 41.08600 21.73800
C  41.70400 42.50800 21.89200
C  41.81900 42.76900 23.37300
C  43.38500 40.97100 20.64700
C  40.35800 42.89300 21.19100
C  40.52400 44.18200 20.32700
N  41.68900 43.33700 26.30900
C  41.23500 44.21400 25.33900
C  40.68800 45.36700 25.97300
C  40.93200 45.18400 27.37900
C  41.40500 43.89300 27.50200
C  40.22500 46.60000 25.16200
C  40.73900 45.72500 28.60500
O  40.19900 46.78300 28.94400
C  41.18800 44.66800 29.67500
C  42.24700 45.24300 30.49800
O  43.44500 45.18500 30.35400
O  41.67000 45.78000 31.67300
C  42.65100 46.43000 32.62100
H  44.37200 38.72200 29.19900
H  43.23400 38.82400 22.70700
H  40.98900 44.67500 23.30300
H  43.45600 42.67200 31.14900
H  42.94200 39.74900 31.01200
H  44.83200 40.87300 32.18600
H  45.52500 41.43100 30.58900
H  45.31300 39.64300 31.01100
H  41.19500 40.86300 31.91700
H  40.61700 42.43400 31.32900
H  41.78900 43.48800 32.95600
H  42.81700 42.16300 33.39300
H  45.01700 36.86000 28.32100
H  46.06800 36.37300 27.01000
H  44.50900 35.54700 27.22200
H  44.59900 34.40900 23.72200
H  43.78000 34.94600 25.24600
H  45.57900 35.34600 24.88300
H  41.45900 40.29300 21.60700
H  42.51600 43.13600 21.52500
H  44.32600 40.50600 20.94300
H  43.61300 41.93900 20.19900
H  42.90900 40.34500 19.89200
H  39.55400 42.97200 21.92300
H  40.04500 42.08900 20.52500
H  39.76600 44.94400 20.50400
H  40.79700 43.97500 19.29200
H  41.41500 44.74700 20.60200
H  40.81700 46.70600 24.25300
H  40.28300 47.46100 25.82800
H  39.16900 46.48600 24.91500
H  40.33800 44.47300 30.32800
H  43.10600 47.21600 32.01800
H  43.45400 45.80800 33.01600
H  42.23800 46.92300 33.50100

