158

Mg 23.22600 -6.35200 45.84600
C  25.43300 -3.92600 44.85200
C  20.88800 -5.06700 43.66700
C  21.21700 -9.10800 46.34800
C  25.89400 -8.09500 47.29800
N  23.12800 -4.66600 44.54000
C  24.16300 -3.78600 44.33000
C  23.73700 -2.71100 43.33400
C  22.17600 -2.89700 43.24800
C  22.08000 -4.26800 43.81800
C  21.36600 -1.83800 44.02400
C  24.51800 -2.62400 41.97500
C  25.11700 -1.13400 41.59600
H  24.59200 -0.41000 40.40600
N  21.18800 -6.96600 45.21600
C  20.43800 -6.34900 44.23200
C  19.17400 -7.09900 44.03800
C  19.24600 -8.32100 44.78100
C  20.57900 -8.19400 45.49900
C  18.18100 -6.51400 43.07300
C  18.15200 -9.33200 44.86400
O  17.19700 -9.26400 44.07200
C  18.19800 -10.49600 45.83400
N  23.52700 -8.33500 46.75700
C  22.49300 -9.19800 46.92900
C  22.91700 -10.43300 47.64300
C  24.43600 -10.05600 47.95900
C  24.64700 -8.73800 47.35900
C  22.00600 -10.74800 48.85400
C  25.50400 -11.06700 47.60400
C  26.55300 -11.27800 48.63200
N  25.25500 -6.11300 46.15300
C  26.23800 -6.90900 46.69000
C  27.49200 -6.14300 46.74100
C  27.22700 -4.98000 46.03100
C  25.86300 -4.96800 45.70100
C  28.80600 -6.64900 47.42700
C  27.78000 -3.78600 45.48600
O  28.91100 -3.28200 45.59200
C  26.65700 -3.05200 44.75100
C  26.51000 -1.76200 45.46800
O  25.88400 -1.64800 46.52400
O  27.16900 -0.67200 44.88700
C  26.97700 0.53000 45.62500
H  20.11300 -4.55500 43.09100
H  20.64100 -9.95000 46.73800
H  26.72500 -8.61800 47.77700
H  23.92800 -1.82500 43.93900
H  21.72600 -3.00300 42.26100
H  20.38400 -2.22700 44.29200
H  21.24600 -1.07600 43.25300
H  21.92200 -1.42900 44.86800
H  23.81500 -2.79200 41.16000
H  25.24000 -3.42600 41.81700
H  26.18800 -1.29500 41.46900
H  24.99900 -0.44000 42.42800
H  18.24300 -7.07000 42.13700
H  18.38200 -5.50300 42.71700
H  17.16800 -6.66500 43.44400
H  17.28200 -11.07000 45.97200
H  18.50200 -10.21900 46.84400
H  19.02700 -11.14000 45.54300
H  22.87600 -11.20700 46.87700
H  24.44900 -9.82300 49.02300
H  21.14200 -10.08700 48.92700
H  22.60100 -10.85800 49.76100
H  21.60800 -11.75100 48.69900
H  26.02900 -10.72200 46.71300
H  25.16200 -12.05600 47.29700
H  27.53100 -10.87000 48.37800
H  26.66400 -12.34800 48.81100
H  26.21200 -10.80800 49.55400
H  28.98700 -7.70300 47.21300
H  28.67200 -6.55200 48.50500
H  29.55600 -6.00300 46.97000
H  27.00900 -2.81000 43.74800
H  27.59600 1.27300 45.12200
H  27.41500 0.50200 46.62200
H  25.92600 0.78500 45.48400
Mg 49.42400 45.37600 43.00000
C  45.88000 45.47300 42.44700
C  49.28200 42.03500 42.13000
C  52.64700 45.42500 42.77400
C  49.22100 48.87800 43.46300
N  47.79000 43.94900 42.38100
C  46.42700 44.11900 42.27200
C  45.69100 42.86800 42.07600
C  46.77700 41.77100 42.44700
C  48.06600 42.63500 42.29400
C  46.66200 41.05500 43.77900
C  44.97400 42.57500 40.78200
C  45.30600 43.39100 39.48400
H  45.09600 42.74900 38.07800
N  50.85800 43.91300 42.52900
C  50.60000 42.60100 42.26500
C  51.88900 41.90900 42.26100
C  52.85200 42.89700 42.20400
C  52.14800 44.16000 42.49700
C  52.03500 40.40500 42.16400
C  54.27400 42.68300 41.96800
O  54.70500 41.64300 41.58900
C  55.36200 43.67200 42.12700
N  50.70200 46.93800 43.10500
C  52.04400 46.71300 42.95400
C  52.87000 48.03400 42.95500
C  51.67300 49.11800 43.15000
C  50.46500 48.25900 43.34700
C  53.92600 48.17900 44.14900
C  51.51900 50.11700 41.95000
C  52.40700 51.38600 41.99600
N  47.89400 46.91400 43.07900
C  47.97600 48.31500 43.24000
C  46.67500 48.91000 43.11100
C  45.82600 47.85500 42.80800
C  46.60900 46.63200 42.82300
C  46.39800 50.33500 43.13200
C  44.49200 47.52700 42.36600
O  43.56100 48.24600 42.19200
C  44.49400 46.04900 42.03400
C  43.32300 45.46100 42.71100
O  42.49600 44.67400 42.29000
O  43.33400 45.93900 44.03200
C  42.10500 45.71300 44.83400
H  49.17700 40.95100 42.05300
H  53.72900 45.56300 42.82900
H  49.16000 49.95100 43.65800
H  44.91800 42.83400 42.84300
H  46.80400 40.97400 41.70400
H  46.74800 39.98200 43.60800
H  45.74600 41.21900 44.34600
H  47.46600 41.37500 44.44200
H  43.94400 42.74700 41.09100
H  45.08000 41.52100 40.52400
H  46.36700 43.62300 39.57500
H  44.73700 44.32000 39.44000
H  53.08100 40.09800 42.17600
H  51.68800 39.99500 41.21500
H  51.58400 39.98300 43.06100
H  55.28000 44.46900 41.38700
H  56.35300 43.22600 42.20500
H  55.22500 44.30200 43.00600
H  53.27600 48.32800 41.98700
H  51.91500 49.72600 44.02200
H  54.39800 49.15700 44.04800
H  54.69100 47.40700 44.07000
H  53.48700 48.18300 45.14700
H  50.48200 50.41500 41.79500
H  51.62900 49.61000 40.99200
H  52.86800 51.42600 41.00900
H  53.19600 51.40100 42.74800
H  51.73600 52.24000 42.08800
H  47.12500 50.94100 42.59200
H  46.44600 50.60400 44.18800
H  45.37600 50.50800 42.79600
H  44.42700 45.83900 40.96700
H  42.31800 46.04400 45.85000
H  41.63000 44.73200 44.85800
H  41.35600 46.31200 44.31600

