158

Mg 47.30000 34.52000 26.60700
C  45.45700 33.35300 29.38800
C  47.61900 37.57000 28.28400
C  48.63700 35.71600 23.78600
C  46.34700 31.60500 24.90000
N  46.74200 35.25800 28.65800
C  46.05200 34.58800 29.69500
C  46.22100 35.42200 31.00600
C  46.48800 36.87000 30.45300
C  47.04000 36.58300 29.06100
C  45.23500 37.82300 30.35000
C  47.35700 34.82200 31.90700
C  46.97400 34.52500 33.30900
H  47.91000 34.98300 34.42900
N  48.13000 36.38800 26.17100
C  48.14100 37.51600 26.96600
C  48.70700 38.56800 26.19300
C  49.01400 38.02600 24.86000
C  48.60200 36.64700 24.92600
C  48.75900 39.98700 26.73500
C  49.76500 38.73500 23.68200
O  49.92400 38.20000 22.57800
C  50.41100 40.07400 23.83900
N  47.44500 33.78000 24.70300
C  48.12200 34.42700 23.70200
C  48.30300 33.56900 22.41600
C  47.79200 32.14800 22.85600
C  47.20400 32.52700 24.27400
C  47.47900 34.13900 21.27000
C  48.79100 31.06800 23.24200
C  49.85400 30.59400 22.14700
N  46.08300 32.77500 26.96500
C  45.86000 31.63200 26.22400
C  45.02400 30.74700 27.03300
C  44.74700 31.42400 28.26600
C  45.54700 32.61000 28.19400
C  44.56800 29.41600 26.54200
C  44.12900 31.25100 29.56400
O  43.44500 30.37500 30.12200
C  44.44500 32.58700 30.24900
C  44.82000 32.30500 31.71800
O  45.71000 31.55100 32.13600
O  43.89700 32.83500 32.54200
C  43.84400 32.43700 33.93400
H  47.64500 38.57600 28.70800
H  49.10600 35.95000 22.82800
H  46.18900 30.69500 24.31700
H  45.25600 35.44900 31.51300
H  47.20600 37.50100 30.97700
H  45.42200 38.65900 31.02400
H  44.29100 37.33200 30.58700
H  45.11300 38.24000 29.35000
H  48.22500 35.47900 31.94100
H  47.62900 33.87800 31.43600
H  47.03300 33.43800 33.36700
H  46.01200 34.96700 33.56900
H  48.23800 40.19900 27.66900
H  48.16900 40.57400 26.03100
H  49.73100 40.47900 26.77100
H  49.70600 40.80900 24.22700
H  50.76000 40.56800 22.93200
H  51.20900 39.80200 24.53000
H  49.37100 33.59300 22.20100
H  47.01000 31.68200 22.25700
H  47.99000 34.15700 20.30800
H  47.04400 35.13200 21.38600
H  46.68000 33.45300 20.98700
H  48.20000 30.22100 23.59000
H  49.26600 31.37200 24.17500
H  50.84600 30.61000 22.59800
H  49.89000 31.24200 21.27100
H  49.70200 29.56200 21.83300
H  45.03300 29.27500 25.56600
H  43.47900 29.45200 26.57600
H  44.95000 28.63500 27.19900
H  43.54600 33.20300 30.23200
H  44.58500 32.94400 34.55100
H  43.93400 31.36500 34.11300
H  42.86100 32.73100 34.30300
Mg -10.62900 39.58200 41.79600
C  -9.48700 36.39000 41.26800
C  -7.62800 40.90200 40.50200
C  -12.05700 42.67100 41.55100
C  -13.91000 38.26000 42.28800
N  -8.72400 38.75200 41.14300
C  -8.50700 37.35400 40.96100
C  -7.19900 37.17000 40.24100
C  -6.51900 38.63100 40.19200
C  -7.62800 39.46600 40.65700
C  -5.27800 38.81500 41.09100
C  -7.45400 36.56100 38.80900
C  -6.91300 35.09600 38.54900
H  -6.65800 34.69000 37.12200
N  -9.87300 41.54400 41.23900
C  -8.63100 41.86200 40.83000
C  -8.52100 43.25300 40.66100
C  -9.72500 43.80500 41.09700
C  -10.62900 42.67100 41.25000
C  -7.24700 43.98900 40.26100
C  -10.08600 45.28600 41.15100
O  -9.32000 46.18100 40.67600
C  -11.28700 45.60500 42.02200
N  -12.71000 40.34800 41.81300
C  -12.95800 41.65000 41.92600
C  -14.48200 41.94200 41.95600
C  -15.05800 40.51800 42.10800
C  -13.82200 39.62000 42.05200
C  -14.93900 43.03000 43.03000
C  -16.08800 40.10600 41.00200
C  -17.34900 39.32800 41.45600
N  -11.53400 37.71500 41.98000
C  -12.85600 37.35900 42.19400
C  -12.87500 35.88300 42.26100
C  -11.59500 35.46500 41.83900
C  -10.81800 36.60700 41.67000
C  -14.06800 35.12700 42.66800
C  -10.79700 34.25300 41.62300
O  -11.08300 33.09100 41.87100
C  -9.42300 34.86900 41.09700
C  -8.23300 34.42700 41.92400
O  -7.69200 34.97100 42.91600
O  -7.84200 33.20500 41.39300
C  -6.50600 32.74000 41.76000
H  -6.72100 41.19500 39.96800
H  -12.54900 43.63500 41.40800
H  -14.84500 37.70300 42.37400
H  -6.54800 36.54700 40.85500
H  -6.12700 38.84300 39.19700
H  -5.44200 39.47600 41.94200
H  -4.48200 39.17000 40.43500
H  -4.95400 37.89400 41.57500
H  -7.12800 37.12500 37.93500
H  -8.54000 36.54500 38.71800
H  -7.64000 34.37300 38.91900
H  -6.03400 34.91400 39.16700
H  -7.29700 44.32500 39.22500
H  -6.42200 43.28300 40.35800
H  -7.06900 44.86000 40.89100
H  -11.35200 44.84200 42.79900
H  -12.23600 45.56800 41.48800
H  -11.23600 46.64000 42.35900
H  -14.58000 42.32000 40.93800
H  -15.46800 40.31000 43.09600
H  -14.88600 44.01900 42.57400
H  -14.20300 42.98900 43.83200
H  -15.98000 42.84600 43.29700
H  -15.73800 39.39600 40.25300
H  -16.29000 40.90900 40.29400
H  -17.19600 38.26400 41.27200
H  -18.25000 39.60500 40.91000
H  -17.50000 39.36400 42.53500
H  -13.72800 34.11200 42.87600
H  -14.74000 35.28300 41.82400
H  -14.53300 35.53500 43.56500
H  -9.31700 34.54300 40.06200
H  -6.67400 32.33300 42.75700
H  -5.78600 33.55800 41.74400
H  -6.17600 31.96300 41.07000

