158

Mg 25.94800 -0.76900 29.14700
C  28.04700 -1.05300 31.94100
C  23.24900 -0.77200 31.29000
C  23.96700 -0.74200 26.53400
C  28.74700 -1.26700 27.07000
N  25.70600 -1.00500 31.43900
C  26.69200 -1.07800 32.31800
C  26.10300 -1.07400 33.79800
C  24.52800 -1.01700 33.50400
C  24.43800 -0.95400 31.96100
C  23.62700 -2.19900 34.04800
C  26.75100 -0.04100 34.78300
C  25.81800 0.64600 35.86400
H  26.49800 1.22900 37.14900
N  23.98600 -0.68800 28.97100
C  23.01100 -0.54100 29.92600
C  21.73200 -0.29600 29.34000
C  21.87500 -0.30100 27.91400
C  23.29400 -0.59600 27.76000
C  20.46900 -0.43500 30.13700
C  20.86600 -0.12200 26.79600
O  21.07700 -0.17600 25.59300
C  19.46700 0.11900 27.17100
N  26.33100 -0.77800 27.04700
C  25.30500 -0.91400 26.25000
C  25.80300 -0.88600 24.80100
C  27.36000 -1.08200 24.91100
C  27.54800 -1.16000 26.41100
C  25.15000 -2.07500 23.87800
C  28.13100 0.11100 24.34300
C  28.53300 -0.02500 22.85200
N  28.01200 -0.98000 29.47000
C  28.98200 -1.19700 28.49100
C  30.29000 -1.27400 29.18700
C  29.98100 -1.21100 30.54400
C  28.59200 -1.08600 30.65700
C  31.57100 -1.63600 28.46400
C  30.47500 -1.21700 31.86500
O  31.58700 -1.35300 32.27100
C  29.26800 -1.11500 32.87100
C  29.26800 -2.27500 33.92000
O  28.87600 -3.37600 33.67600
O  29.68100 -1.84200 35.09800
C  29.42100 -2.60500 36.31500
H  22.49800 -0.68400 32.07800
H  23.41300 -0.66500 25.59600
H  29.60000 -1.45900 26.41700
H  26.31700 -2.10400 34.08500
H  24.17200 -0.03800 33.82600
H  24.16200 -3.03400 34.50000
H  22.98500 -2.68800 33.31500
H  22.98600 -1.84600 34.85500
H  27.10000 0.80900 34.19700
H  27.55000 -0.44700 35.40300
H  25.02000 -0.03800 36.15300
H  25.28300 1.37200 35.25200
H  19.55800 -0.28700 29.55600
H  20.34000 0.38600 30.84200
H  20.48500 -1.24100 30.87000
H  19.09800 -0.79500 27.63500
H  18.95200 0.21600 26.21500
H  19.38200 1.04200 27.74400
H  25.60300 0.13100 24.46300
H  27.64900 -2.06300 24.53300
H  24.95100 -1.60600 22.91500
H  24.31000 -2.58500 24.34900
H  25.79500 -2.91000 23.60200
H  29.01100 0.30100 24.95800
H  27.59100 1.05700 24.36700
H  28.11300 0.66600 22.12100
H  28.31400 -1.02500 22.47900
H  29.59800 0.18200 22.74600
H  31.29300 -1.89100 27.44200
H  31.84400 -2.59200 28.91100
H  32.43200 -0.98300 28.60700
H  29.56400 -0.14100 33.26000
H  30.27100 -3.20600 36.64000
H  28.56700 -3.25900 36.14000
H  29.11900 -1.88700 37.07700
Mg 47.31700 25.05500 28.25300
C  47.81800 27.54600 30.66000
C  46.52600 22.81000 30.64800
C  46.95900 22.76600 25.87500
C  48.64600 27.44100 25.88800
N  47.30900 25.13000 30.34300
C  47.51800 26.28100 31.16400
C  47.24700 25.92900 32.61500
C  46.84400 24.46000 32.61100
C  46.92300 24.03800 31.10800
C  47.66600 23.53600 33.58200
C  46.29800 26.92900 33.37300
C  45.71700 26.42200 34.73300
H  46.68800 26.03400 35.84700
N  46.76800 23.08100 28.25300
C  46.45200 22.27000 29.31700
C  46.18500 20.90700 28.90700
C  46.31800 20.96100 27.43300
C  46.70300 22.27300 27.13100
C  46.05900 19.76200 29.88200
C  46.13800 19.75500 26.53100
O  46.39300 19.72800 25.35900
C  45.74100 18.43700 27.06400
N  47.97800 25.03500 26.26500
C  47.61000 23.98800 25.44900
C  47.75100 24.34300 23.97100
C  47.80900 25.88400 23.95900
C  48.19600 26.15400 25.43200
C  48.88400 23.53600 23.21400
C  46.57300 26.61900 23.52500
C  45.35000 26.55700 24.47800
N  48.19200 26.99800 28.22500
C  48.68400 27.80300 27.22400
C  49.00200 29.09900 27.73200
C  48.67700 29.08200 29.11800
C  48.25600 27.72500 29.32100
C  49.53000 30.29600 26.86800
C  48.73100 29.83600 30.39000
O  48.98100 31.00600 30.55700
C  48.21200 28.83000 31.39300
C  49.30600 28.66900 32.41400
O  50.49800 28.33700 32.24400
O  48.95600 29.24700 33.65300
C  49.82000 29.01200 34.87200
H  46.27500 22.16000 31.48900
H  46.87900 21.98900 25.11100
H  48.67900 28.19100 25.09500
H  48.25100 25.96200 33.04000
H  45.78200 24.38600 32.84400
H  48.51300 24.05200 34.03400
H  48.17800 22.74300 33.03700
H  47.11800 22.91500 34.29100
H  45.48400 27.28700 32.74200
H  46.83300 27.74400 33.86100
H  45.08200 25.54700 34.59300
H  44.97500 27.18900 34.95300
H  46.63100 18.88400 29.58200
H  45.04400 19.37600 29.79800
H  46.05300 19.94000 30.95700
H  45.21100 17.89200 26.28300
H  45.10300 18.47600 27.94600
H  46.73300 18.02200 27.24200
H  46.82000 24.06100 23.47800
H  48.60800 26.32800 23.36400
H  49.36900 22.85000 23.90800
H  49.61600 24.24800 22.83300
H  48.45600 22.87500 22.46000
H  46.38600 26.01500 22.63800
H  46.88200 27.59700 23.15600
H  44.36900 26.46200 24.01200
H  45.34700 27.37900 25.19300
H  45.59600 25.63800 25.01100
H  50.08300 30.90900 27.58000
H  48.64500 30.74000 26.41100
H  50.19800 29.88400 26.11200
H  47.36300 29.22000 31.95400
H  50.62000 29.75000 34.91900
H  50.32900 28.04900 34.91300
H  49.25200 29.14100 35.79300

