158

Mg -3.24600 35.68500 26.53800
C  -5.08800 33.83400 28.91200
C  -1.99800 37.59300 29.12800
C  -1.80400 37.67200 24.16600
C  -5.02100 33.97000 23.95200
N  -3.45600 35.58800 28.77900
C  -4.30700 34.80900 29.55500
C  -4.21600 35.12400 31.00000
C  -3.25200 36.38300 31.05700
C  -2.84700 36.54900 29.60000
C  -3.73800 37.67700 31.76900
C  -3.54400 33.87500 31.86500
C  -4.18300 33.47200 33.22000
H  -3.33100 33.22500 34.42400
N  -2.03600 37.34300 26.65900
C  -1.56500 37.94200 27.83000
C  -0.59400 39.00100 27.42000
C  -0.60000 39.06400 26.06200
C  -1.52900 38.02600 25.53700
C  0.23700 39.73800 28.40200
C  0.26400 39.89200 25.18900
O  0.26700 39.81400 24.00500
C  1.17900 41.02800 25.67000
N  -3.51400 35.84700 24.38900
C  -2.73700 36.75600 23.70300
C  -3.02200 36.57800 22.21800
C  -3.97300 35.30700 22.12000
C  -4.13800 34.98800 23.55400
C  -3.57200 37.82800 21.54000
C  -3.39900 34.20200 21.29300
C  -2.30800 33.30400 21.90400
N  -4.71100 34.12700 26.39600
C  -5.30000 33.54000 25.26700
C  -6.19500 32.49100 25.73900
C  -6.03800 32.52700 27.20000
C  -5.21800 33.56600 27.50800
C  -6.96600 31.50400 24.90100
C  -6.47000 31.99600 28.41700
O  -7.15400 30.97900 28.54000
C  -5.89900 32.78000 29.58100
C  -6.93900 33.41100 30.41200
O  -7.56200 34.35500 30.06400
O  -7.08600 32.71300 31.65000
C  -8.03600 33.34600 32.52300
H  -1.66000 38.27500 29.91100
H  -1.21500 38.21700 23.42500
H  -5.61500 33.50000 23.16500
H  -5.20600 35.43900 31.32800
H  -2.33300 36.14500 31.59400
H  -3.28100 37.85100 32.74400
H  -4.80300 37.54800 31.95900
H  -3.45400 38.57900 31.22600
H  -2.49400 34.13700 31.99400
H  -3.42100 33.00900 31.21500
H  -4.84800 32.63900 32.99400
H  -4.81100 34.31100 33.51800
H  1.31500 39.67700 28.25100
H  -0.09100 39.32100 29.35500
H  -0.06700 40.78400 28.36900
H  0.63400 41.80200 26.21100
H  1.81200 41.41300 24.87200
H  1.85300 40.62200 26.42500
H  -2.17800 36.34400 21.56900
H  -4.97400 35.52600 21.74900
H  -2.80200 38.27300 20.90900
H  -3.86300 38.57200 22.28200
H  -4.41800 37.64000 20.87900
H  -2.97200 34.57600 20.36300
H  -4.24700 33.56700 21.03500
H  -1.99400 33.77500 22.83500
H  -1.52600 33.01000 21.20300
H  -2.60500 32.34500 22.32800
H  -7.62100 30.83700 25.46000
H  -6.27200 30.81400 24.42200
H  -7.54700 31.91000 24.07300
H  -5.36100 32.04200 30.17600
H  -8.83500 33.74100 31.89700
H  -7.51500 34.05000 33.17100
H  -8.54300 32.57100 33.09800
Mg -12.27300 16.34700 41.26400
C  -8.85100 15.34900 40.57900
C  -11.54800 19.36000 39.70400
C  -15.49400 16.88600 41.13500
C  -12.93500 12.90900 42.09000
N  -10.40000 17.18400 40.19200
C  -9.11800 16.64000 40.32000
C  -8.07400 17.72400 39.83500
C  -8.99700 19.06500 39.61800
C  -10.40500 18.54500 39.80700
C  -8.73400 20.25700 40.48500
C  -7.35800 17.33800 38.50100
C  -5.92300 17.75800 38.23400
H  -5.65500 18.66500 37.02000
N  -13.34200 17.91500 40.62800
C  -12.89900 19.07400 39.96900
C  -14.11700 19.94100 39.69400
C  -15.24200 19.19600 40.09400
C  -14.72300 17.94800 40.66900
C  -14.02600 21.19800 38.97900
C  -16.81400 19.69700 39.93700
O  -17.08700 20.72700 39.35600
C  -17.99600 18.90900 40.47100
N  -13.97300 15.03400 41.71900
C  -15.16500 15.65100 41.62300
C  -16.30500 14.61500 42.03800
C  -15.49000 13.37200 42.52500
C  -14.06200 13.72900 42.06000
C  -17.47000 15.07000 42.98900
C  -15.85400 12.01600 41.90200
C  -15.71200 11.78200 40.38000
N  -11.14800 14.51000 41.37100
C  -11.60100 13.25500 41.82200
C  -10.47000 12.38200 41.78200
C  -9.35100 13.20300 41.37400
C  -9.79200 14.45900 41.06300
C  -10.51800 11.02300 42.24000
C  -7.90000 13.14200 41.17400
O  -7.10400 12.26700 41.39200
C  -7.52900 14.62200 40.67900
C  -6.60400 15.32100 41.66200
O  -6.69200 15.21500 42.84200
O  -5.55700 15.94100 40.98700
C  -4.60500 16.60400 41.89100
H  -11.34800 20.35400 39.29900
H  -16.58200 16.95500 41.19900
H  -13.09900 11.85600 42.32900
H  -7.37500 17.81300 40.66600
H  -8.74400 19.42600 38.62100
H  -9.26700 21.15900 40.18500
H  -7.65600 20.36200 40.36300
H  -8.85600 20.10600 41.55700
H  -7.81000 17.73600 37.59300
H  -7.39000 16.25800 38.36000
H  -5.24700 16.91500 38.09100
H  -5.59900 18.28300 39.13200
H  -13.01700 21.55000 38.76500
H  -14.66300 21.97700 39.39800
H  -14.46200 20.88600 38.03000
H  -18.88800 19.44800 40.15400
H  -17.98000 18.90300 41.56100
H  -18.01600 17.88900 40.08800
H  -16.75900 14.33200 41.08900
H  -15.53900 13.30300 43.61100
H  -18.40000 14.84600 42.46700
H  -17.53100 16.11700 43.28800
H  -17.40500 14.39100 43.84000
H  -16.91600 12.12900 42.12000
H  -15.53100 11.06000 42.31500
H  -16.66700 12.07000 39.94000
H  -15.54400 10.72600 40.16800
H  -14.94600 12.39600 39.90600
H  -10.84600 10.35600 41.44300
H  -11.22000 11.08300 43.07200
H  -9.51400 10.67300 42.48000
H  -7.04200 14.40600 39.72800
H  -3.97000 15.90000 42.42800
H  -5.16900 17.31600 42.49300
H  -3.90300 17.23000 41.34100

