158

Mg 47.87000 14.51500 28.84400
C  45.73400 14.52300 31.42500
C  49.98500 16.66400 30.64800
C  49.86300 14.80200 26.17500
C  45.44600 13.06400 26.66800
N  47.87100 15.56200 30.81700
C  46.91700 15.24100 31.80600
C  47.41200 15.82000 33.18400
C  48.72000 16.66300 32.82800
C  48.79900 16.35000 31.31400
C  48.64900 18.16400 33.06400
C  47.55600 14.71400 34.29500
C  46.84700 15.18600 35.64600
H  47.02700 16.68100 36.06000
N  49.74500 15.47000 28.51400
C  50.41200 16.25100 29.39500
C  51.65900 16.60000 28.80800
C  51.72200 16.03500 27.46800
C  50.41500 15.38200 27.30800
C  52.69800 17.45100 29.51800
C  52.77200 16.07000 26.47600
O  52.77000 15.37700 25.48200
C  54.02000 16.86800 26.60900
N  47.66600 14.02500 26.68300
C  48.65000 14.17500 25.83600
C  48.27300 13.88200 24.37400
C  47.04300 13.04800 24.65800
C  46.64000 13.39300 26.10300
C  47.89900 15.12400 23.49600
C  47.14300 11.48700 24.46800
C  48.38000 10.91100 25.24600
N  45.97100 13.91000 28.94700
C  45.10000 13.33700 28.05900
C  43.85300 12.97600 28.76200
C  43.99500 13.48200 30.02900
C  45.34400 13.97800 30.12600
C  42.73300 12.17300 28.21000
C  43.40800 13.59300 31.33700
O  42.27700 13.26300 31.66700
C  44.43600 14.28400 32.24500
C  43.81600 15.56400 32.83000
O  43.53200 16.55200 32.16100
O  43.77800 15.41900 34.19900
C  43.33500 16.67900 34.85500
H  50.70000 17.21100 31.26700
H  50.38700 14.91000 25.22300
H  44.82000 12.44700 26.02000
H  46.56900 16.41200 33.53900
H  49.56800 16.19100 33.32400
H  48.88800 18.64500 32.11500
H  49.42100 18.49600 33.75800
H  47.70800 18.62400 33.36700
H  48.55600 14.49000 34.66500
H  47.09000 13.90800 33.72700
H  47.16600 14.58600 36.49900
H  45.76900 15.03500 35.60000
H  52.38900 17.88800 30.46700
H  53.02400 18.31300 28.93600
H  53.50000 16.74700 29.73600
H  53.75300 17.91300 26.76900
H  54.50600 16.81400 25.63500
H  54.66500 16.52700 27.41900
H  49.05200 13.26700 23.92100
H  46.34400 13.36700 23.88500
H  46.86700 15.47300 23.51500
H  48.08900 14.73600 22.49500
H  48.54500 15.94000 23.82100
H  47.16600 11.25600 23.40300
H  46.31900 10.96400 24.95300
H  49.07700 10.63200 24.45500
H  48.09500 10.16900 25.99200
H  48.93400 11.67000 25.79800
H  42.98200 11.91400 27.18100
H  41.80000 12.73700 28.18700
H  42.50300 11.32500 28.85500
H  44.61300 13.58900 33.06600
H  43.53300 16.53200 35.91700
H  42.24600 16.72000 34.83600
H  43.74400 17.63100 34.51700
Mg 47.41800 35.23300 27.68800
C  45.86700 33.48200 30.25900
C  47.64400 37.93600 29.87600
C  48.38100 37.27700 25.12800
C  46.75000 32.60500 25.50200
N  46.97400 35.59500 29.82800
C  46.34900 34.73900 30.74100
C  46.38900 35.26400 32.20600
C  46.38200 36.83300 31.85000
C  47.04300 36.81000 30.44300
C  45.07200 37.56400 31.84300
C  47.71600 34.88700 32.88700
C  47.48700 34.30500 34.30600
H  47.59800 35.38300 35.41900
N  48.09200 37.22800 27.52800
C  48.14300 38.16300 28.53300
C  48.74500 39.40900 28.02700
C  48.96800 39.23000 26.61400
C  48.44000 37.87600 26.35700
C  49.06100 40.51600 29.04400
C  49.56200 40.17000 25.54000
O  49.73700 39.86200 24.38300
C  49.96300 41.55900 26.05900
N  47.62600 34.96100 25.61200
C  48.03100 35.96700 24.72800
C  48.06500 35.37600 23.30200
C  47.63100 33.88500 23.49500
C  47.38500 33.75700 24.99000
C  47.19400 36.22900 22.30400
C  48.64700 32.79000 22.93100
C  50.04600 32.66600 23.61800
N  46.58900 33.35600 27.82500
C  46.40800 32.34900 26.89700
C  45.66700 31.18300 27.46900
C  45.42300 31.70000 28.76900
C  46.04900 32.93500 28.93400
C  45.23300 29.91800 26.80500
C  44.80700 31.37300 30.04000
O  44.18200 30.33100 30.37700
C  44.94700 32.51700 30.94700
C  45.28000 32.02400 32.27500
O  46.34400 31.48300 32.58200
O  44.22100 32.20800 33.16400
C  44.47500 31.51800 34.44800
H  47.65300 38.75100 30.60300
H  48.67900 37.70500 24.16800
H  46.56600 31.75600 24.84100
H  45.58400 35.05600 32.91100
H  46.90500 37.36800 32.64200
H  44.79300 38.09300 32.75500
H  44.27100 36.83100 31.74700
H  45.04900 38.23600 30.98600
H  48.32600 35.78700 32.96000
H  48.33200 34.18200 32.32900
H  48.25500 33.53200 34.27500
H  46.45200 33.96300 34.35000
H  49.90400 41.11200 28.69200
H  49.22200 40.26700 30.09300
H  48.21000 41.19300 28.97500
H  49.11700 42.07700 26.51100
H  50.39900 42.12600 25.23600
H  50.75400 41.42000 26.79600
H  49.11200 35.34700 23.00000
H  46.68900 33.77900 22.95700
H  46.84900 37.18200 22.70600
H  46.26800 35.80500 21.91700
H  47.87900 36.43600 21.48200
H  48.83900 32.89000 21.86200
H  48.22800 31.78500 22.98600
H  50.88100 32.78400 22.92700
H  50.15800 31.72500 24.15600
H  50.10700 33.49500 24.32400
H  45.65600 29.90100 25.80100
H  44.15300 29.77300 26.79000
H  45.61500 29.09100 27.40400
H  43.94300 32.93500 31.01400
H  44.86600 30.53500 34.18800
H  43.59000 31.39100 35.07200
H  45.10600 32.04700 35.16200

