158

Mg 17.11900 51.51900 25.72200
C  19.11500 50.24100 28.39100
C  14.72700 52.34100 28.09000
C  15.06400 52.05100 23.20800
C  19.67800 50.28000 23.55400
N  17.02700 51.33600 28.03000
C  17.99500 50.87100 28.98000
C  17.53500 51.04600 30.40200
C  16.02000 51.52300 30.15400
C  15.95000 51.83700 28.64700
C  14.89100 50.44100 30.56600
C  18.44800 51.85700 31.35600
C  18.41500 51.48500 32.84700
H  17.59600 52.36700 33.89000
N  15.14000 52.08600 25.66300
C  14.33800 52.45800 26.74200
C  13.07200 52.97500 26.24700
C  13.16600 52.84000 24.83600
C  14.50900 52.36100 24.48700
C  11.95500 53.56500 27.11400
C  12.13100 53.23900 23.78000
O  12.21200 52.98700 22.59600
C  10.83700 53.94400 24.23400
N  17.33100 51.10700 23.67800
C  16.34800 51.59200 22.83100
C  16.92900 51.64000 21.41000
C  18.40600 51.17200 21.54000
C  18.49900 50.79500 23.00500
C  16.01800 50.70300 20.46600
C  19.45100 52.31600 21.25000
C  20.72800 51.94400 20.46400
N  19.02600 50.50200 25.86400
C  19.91500 50.06800 24.92700
C  21.01700 49.34200 25.56000
C  20.80900 49.45400 26.92000
C  19.56600 50.12200 27.04200
C  22.20900 48.63600 24.89300
C  21.30100 48.96900 28.15300
O  22.27300 48.25100 28.36300
C  20.37500 49.62600 29.23900
C  19.88800 48.69700 30.31100
O  19.06500 47.82000 30.11700
O  20.38400 49.02300 31.53300
C  19.96700 48.18300 32.67600
H  13.91100 52.50200 28.79700
H  14.50200 52.34000 22.31800
H  20.51400 49.97300 22.92200
H  17.50300 50.02400 30.77900
H  15.75800 52.43500 30.69000
H  13.95700 50.97200 30.75100
H  15.15800 50.04700 31.54600
H  14.72400 49.76200 29.73000
H  17.89900 52.79200 31.23800
H  19.46500 51.92100 30.96900
H  19.47600 51.47900 33.09800
H  18.12000 50.44300 32.97200
H  11.64000 54.52300 26.69900
H  12.26000 53.77000 28.14100
H  11.22300 52.76100 27.18300
H  10.17000 54.16600 23.40100
H  11.15200 54.92200 24.59700
H  10.28600 53.29300 24.91200
H  16.87700 52.67800 21.08300
H  18.66600 50.33000 20.90000
H  15.05200 50.62500 20.96500
H  16.43400 49.70500 20.33200
H  15.77400 51.18200 19.51800
H  19.77900 52.63100 22.24000
H  18.89800 53.14900 20.81700
H  20.89600 52.63000 19.63400
H  20.73300 50.98200 19.95000
H  21.55800 51.97600 21.16900
H  23.07400 48.39700 25.51100
H  22.50700 49.29000 24.07300
H  21.69700 47.75900 24.49700
H  20.97200 50.43700 29.65700
H  19.92600 48.81600 33.56200
H  20.72200 47.42900 32.89600
H  18.98500 47.72200 32.57300
Mg -2.24400 33.72400 26.58900
C  -3.85300 31.94500 29.07700
C  -0.78800 35.78300 28.94500
C  -0.97300 35.59100 24.06100
C  -4.17000 31.94900 24.18900
N  -2.53500 33.91300 28.82000
C  -3.09600 32.97800 29.68400
C  -2.78300 33.31600 31.09800
C  -1.83000 34.54900 30.99200
C  -1.71700 34.82000 29.50900
C  -2.34200 35.80700 31.80500
C  -2.13100 32.09800 31.89100
C  -2.81600 31.75600 33.19100
H  -1.94600 31.46900 34.39100
N  -1.00100 35.41000 26.47000
C  -0.48600 36.11800 27.53300
C  0.51400 37.10700 27.03600
C  0.37400 37.05400 25.56300
C  -0.57200 35.95100 25.31700
C  1.33100 37.97400 27.98500
C  1.07400 37.89200 24.47300
O  0.73800 37.98000 23.27600
C  2.17700 38.69900 24.87400
N  -2.70800 33.89700 24.35900
C  -1.98500 34.70600 23.55700
C  -2.30200 34.47300 21.96200
C  -3.06200 33.13100 22.17400
C  -3.40200 32.96600 23.64900
C  -3.16400 35.69700 21.54400
C  -2.40100 31.90500 21.44900
C  -1.42700 31.12200 22.29000
N  -3.66500 32.20600 26.59000
C  -4.38500 31.58500 25.57300
C  -5.23800 30.57400 26.14400
C  -5.05500 30.71600 27.51300
C  -4.08000 31.67400 27.72100
C  -6.19100 29.74000 25.37100
C  -5.50400 30.22000 28.75000
O  -6.29800 29.36300 29.00800
C  -4.72500 31.00500 29.91500
C  -5.70900 31.65700 30.76400
O  -6.30500 32.68400 30.47300
O  -5.99500 30.85000 31.86000
C  -7.01900 31.36300 32.79700
H  -0.34200 36.45800 29.67900
H  -0.47300 36.16000 23.27500
H  -4.77400 31.40600 23.45900
H  -3.67100 33.59100 31.66700
H  -0.83500 34.31000 31.36900
H  -1.82200 35.84200 32.76200
H  -3.40900 35.69400 31.99500
H  -2.29800 36.68600 31.16300
H  -1.12000 32.37000 32.19500
H  -1.94500 31.28600 31.18800
H  -3.45800 30.91900 32.91500
H  -3.43500 32.56700 33.57400
H  2.31200 37.68200 27.61100
H  1.24900 37.67800 29.03100
H  1.22900 39.04100 27.78500
H  1.85100 39.50300 25.53400
H  2.62200 39.19600 24.01200
H  3.04000 38.13000 25.22100
H  -1.36600 34.40300 21.40700
H  -4.07100 33.32200 21.81100
H  -3.47600 36.43800 22.28000
H  -4.05200 35.26400 21.08400
H  -2.63600 36.17100 20.71700
H  -1.86500 32.11100 20.52300
H  -3.28000 31.29900 21.23000
H  -1.00300 31.83200 23.00000
H  -0.75900 30.62900 21.58400
H  -1.97200 30.35000 22.83200
H  -6.38100 30.28100 24.44400
H  -7.04900 29.67300 26.04000
H  -5.81800 28.73300 25.18300
H  -4.13700 30.31600 30.52100
H  -7.89300 31.70700 32.24500
H  -6.62400 32.20300 33.36900
H  -7.35400 30.63800 33.53900

