158

Mg 45.54500 4.54100 47.90600
C  43.82000 7.39200 46.95900
C  43.06200 2.58400 47.43100
C  47.83700 1.85800 48.07800
C  48.50800 6.64700 47.74000
N  43.73800 4.87400 47.03500
C  43.13100 6.11700 46.90000
C  41.65100 5.87500 46.41400
C  41.30300 4.38300 46.68900
C  42.74700 3.89900 47.03800
C  40.19200 4.03400 47.68900
C  41.36100 6.27400 44.92900
C  40.09500 7.10800 44.75400
H  39.13300 6.80200 43.62200
N  45.48800 2.53700 47.73800
C  44.30800 1.87900 47.63500
C  44.56400 0.43900 47.68200
C  45.87300 0.25300 48.02900
C  46.47300 1.59100 47.92800
C  43.47100 -0.54000 47.49200
C  46.53400 -1.11600 48.43500
O  45.86400 -2.18900 48.36600
C  47.96400 -1.15200 48.83900
N  47.76800 4.29800 47.97500
C  48.42300 3.10200 47.93300
C  49.91500 3.21200 47.94900
C  50.10400 4.71300 47.83000
C  48.69500 5.30100 47.77200
C  50.67300 2.54500 49.12700
C  51.01000 5.10900 46.62000
C  52.43700 5.65600 46.84200
N  46.09300 6.62400 47.70300
C  47.29300 7.35700 47.70700
C  47.01600 8.77000 47.51400
C  45.61000 8.83100 47.32500
C  45.15700 7.54900 47.34600
C  47.86500 9.94300 47.26500
C  44.50600 9.72900 46.89900
O  44.45500 10.89200 46.54400
C  43.26200 8.79300 46.73400
C  42.24500 9.05300 47.82200
O  42.40100 8.81600 49.01200
O  41.11200 9.48300 47.25100
C  39.93600 9.69900 48.12100
H  42.26500 1.84400 47.53000
H  48.57700 1.05600 48.03600
H  49.44900 7.18500 47.87200
H  41.13100 6.56800 47.07600
H  41.08800 3.85400 45.76000
H  39.77900 3.03800 47.53000
H  39.34000 4.70200 47.57300
H  40.54100 4.16400 48.71300
H  41.30100 5.37500 44.31500
H  42.12900 6.97100 44.59400
H  40.24400 8.18500 44.67600
H  39.50800 6.93000 45.65500
H  43.68300 -1.54900 47.84600
H  43.32300 -0.62300 46.41500
H  42.53800 -0.27300 47.98900
H  48.05500 -1.98900 49.53100
H  48.33200 -0.38000 49.51500
H  48.61100 -1.30800 47.97500
H  50.26900 2.65000 47.08400
H  50.59900 4.98900 48.76100
H  49.98100 2.39200 49.95500
H  51.56200 3.09700 49.43500
H  51.03000 1.52700 48.97600
H  50.47200 5.86000 46.04200
H  51.13000 4.32900 45.86800
H  53.13200 5.06400 46.24600
H  52.67800 5.72100 47.90300
H  52.45700 6.61500 46.32500
H  48.93300 9.74800 47.16900
H  47.75400 10.71200 48.02900
H  47.46400 10.36000 46.34100
H  42.79100 8.86200 45.75400
H  39.36200 8.78600 48.27800
H  39.17800 10.43900 47.86500
H  40.27400 9.92600 49.13200
Mg 40.97000 9.24600 29.60900
C  42.77600 10.37700 32.46700
C  38.61900 7.84300 31.73800
C  39.32100 8.72000 26.96600
C  43.69300 10.61900 27.67100
N  40.83800 9.03300 31.85100
C  41.70600 9.56600 32.80500
C  41.13000 9.29100 34.21000
C  39.89200 8.31300 33.94900
C  39.71700 8.44000 32.45400
C  40.18400 6.84300 34.38900
C  40.78900 10.55000 35.02200
C  41.27300 10.41700 36.49300
H  41.18000 11.54400 37.40200
N  39.27100 8.37800 29.39000
C  38.41900 7.91100 30.35600
C  37.24100 7.43200 29.64400
C  37.43400 7.71500 28.28300
C  38.75400 8.29600 28.20100
C  36.24200 6.68400 30.38100
C  36.35100 7.64200 27.15600
O  36.48600 8.07800 26.05000
C  35.11200 6.93700 27.47200
N  41.53400 9.47300 27.55900
C  40.55400 9.29700 26.66500
C  41.07400 9.39700 25.17100
C  42.46900 10.09300 25.46300
C  42.55900 10.14300 27.03900
C  41.12500 8.06200 24.42100
C  42.70400 11.49100 24.84400
C  41.65900 12.57500 25.17000
N  42.82100 10.16300 29.95500
C  43.85700 10.62100 29.09200
C  44.92100 11.25900 29.78800
C  44.47500 11.23700 31.09300
C  43.24900 10.57200 31.16000
C  46.14200 12.03800 29.28100
C  44.89800 11.62600 32.36800
O  45.90900 12.19300 32.78100
C  43.77900 11.10900 33.33200
C  44.52100 10.29200 34.36800
O  44.87500 9.16600 34.22800
O  44.87000 11.03200 35.51100
C  45.40600 10.29500 36.63100
H  37.98300 7.36900 32.48900
H  38.68300 8.51900 26.10200
H  44.42100 11.12500 27.03300
H  41.87200 8.76700 34.81300
H  39.08300 8.57900 34.63000
H  39.38400 6.54900 35.07000
H  41.14700 6.87000 34.89800
H  40.20000 6.13100 33.56300
H  39.70200 10.53900 35.09300
H  40.97800 11.47100 34.46900
H  42.30200 10.06000 36.52500
H  40.67300 9.61600 36.92300
H  35.38700 7.33900 30.20900
H  36.34800 6.51700 31.45200
H  36.06900 5.76000 29.83000
H  34.51700 7.56400 28.13600
H  35.20700 6.01700 28.05000
H  34.43200 6.72100 26.64900
H  40.39700 10.04500 24.61400
H  43.31700 9.49400 25.12900
H  41.93200 8.09100 23.68900
H  40.18800 7.75000 23.95900
H  41.35500 7.22700 25.08200
H  42.84900 11.37100 23.77000
H  43.62300 11.92400 25.23800
H  42.21000 13.47300 25.44900
H  40.90000 12.24200 25.87700
H  41.24300 12.85300 24.20200
H  46.33300 11.88800 28.21900
H  46.99700 11.71100 29.87400
H  46.02200 13.09000 29.53800
H  43.34100 11.99900 33.78500
H  45.56500 9.22000 36.54800
H  44.76900 10.36000 37.51200
H  46.34700 10.72000 36.98100

