158

Mg 46.95200 25.36300 28.37600
C  47.34400 27.52400 31.05300
C  46.17900 22.77100 30.71400
C  47.31200 23.25300 25.98300
C  48.40600 27.88000 26.42100
N  46.50300 25.25600 30.58300
C  46.69900 26.28500 31.44800
C  46.53000 25.75900 32.91200
C  46.12100 24.27300 32.72200
C  46.31800 24.03900 31.29100
C  46.92200 23.27200 33.50500
C  45.61500 26.66000 33.80900
C  46.03100 26.69400 35.29800
H  44.91600 26.61800 36.37000
N  46.43700 23.28400 28.29200
C  46.12800 22.40100 29.29600
C  45.96500 21.10300 28.68800
C  46.31300 21.22400 27.32400
C  46.65400 22.64000 27.12100
C  45.51700 19.88400 29.52200
C  46.58700 20.02500 26.31700
O  46.88600 20.23200 25.16800
C  46.22100 18.63500 26.63900
N  47.82800 25.48300 26.50400
C  47.75800 24.50300 25.58100
C  48.45500 24.88300 24.27400
C  48.42800 26.42700 24.36000
C  48.25200 26.65600 25.84600
C  49.86500 24.21500 24.04700
C  47.34300 27.12600 23.55800
C  47.79900 28.27500 22.68000
N  47.74100 27.38200 28.61200
C  48.25700 28.24000 27.73500
C  48.53200 29.49900 28.36900
C  48.23700 29.17800 29.72400
C  47.71000 27.94000 29.81600
C  49.16300 30.63100 27.74100
C  48.28000 29.82400 30.98700
O  48.85700 30.89600 31.27500
C  47.68400 28.70100 31.95600
C  48.66100 28.50000 33.00500
O  49.68300 27.96100 32.89700
O  48.24200 29.13100 34.17200
C  49.14000 29.16100 35.27100
H  45.85300 22.03100 31.44800
H  47.44100 22.47600 25.22700
H  48.66000 28.70400 25.75000
H  47.56900 25.84200 33.23300
H  45.05200 24.10300 32.85200
H  47.47700 22.64900 32.80300
H  46.27400 22.60800 34.07600
H  47.64100 23.68700 34.21100
H  44.60500 26.25000 33.80200
H  45.50600 27.66700 33.40600
H  46.46000 27.67800 35.48900
H  46.86900 26.00500 35.39800
H  44.83900 19.19000 29.02500
H  45.02500 20.24700 30.42500
H  46.46700 19.38500 29.70900
H  46.69200 18.26500 27.55000
H  46.58900 17.95100 25.87500
H  45.13700 18.64600 26.75600
H  47.78500 24.62900 23.45200
H  49.40600 26.80000 24.05800
H  49.86800 23.34100 23.39600
H  50.27500 23.85400 24.99000
H  50.64700 24.88700 23.69500
H  46.56200 27.47600 24.23200
H  46.86800 26.47700 22.82200
H  47.63500 27.93600 21.65700
H  48.84100 28.57900 22.78100
H  47.11300 29.08000 22.94500
H  48.40000 31.08900 27.11200
H  49.94400 30.40700 27.01400
H  49.58800 31.40300 28.38300
H  46.79300 29.12300 32.42100
H  48.95300 28.16900 35.68300
H  48.86200 29.98200 35.93200
H  50.20000 29.24000 35.03300
Mg 26.12700 50.54000 26.41100
C  23.90700 51.38200 29.01600
C  28.48600 49.75100 28.95200
C  28.47800 50.33600 24.14700
C  23.87400 51.74200 24.11800
N  26.08700 50.47600 28.73500
C  25.08100 50.93500 29.56000
C  25.39500 50.75300 31.11000
C  26.97800 50.40400 31.03200
C  27.23200 50.13300 29.45600
C  27.92400 51.53200 31.69700
C  24.49800 49.77800 31.81200
C  23.84300 50.16200 33.15700
H  24.67200 50.66400 34.32300
N  28.17600 50.03200 26.49800
C  28.90700 49.62500 27.59800
C  30.19700 49.25100 27.27500
C  30.34100 49.53500 25.89100
C  28.97200 49.99800 25.40600
C  31.20200 48.64700 28.19000
C  31.49400 49.47000 24.90600
O  31.49700 49.92100 23.76000
C  32.76800 48.90900 25.45600
N  26.15900 50.93000 24.40600
C  27.26600 50.68400 23.59600
C  26.97700 50.96400 22.07000
C  25.45100 51.33300 22.14000
C  25.12700 51.35300 23.59500
C  27.94000 51.88600 21.30800
C  24.54700 50.46900 21.26300
C  24.33900 49.03800 21.85600
N  24.25200 51.28800 26.48300
C  23.46600 51.72600 25.47600
C  22.17300 52.17300 25.95000
C  22.32900 52.10300 27.34000
C  23.57200 51.51400 27.62000
C  21.02600 52.64800 25.12200
C  21.71400 52.46100 28.54000
O  20.61700 53.09500 28.67000
C  22.68200 51.98100 29.71600
C  23.05000 53.10400 30.59100
O  24.09500 53.78700 30.52500
O  22.11700 53.26300 31.50400
C  22.23200 54.39600 32.44200
H  29.18700 49.50300 29.75200
H  29.23100 50.19100 23.36900
H  23.19900 52.01400 23.30400
H  25.27300 51.75500 31.52000
H  27.18900 49.46600 31.54500
H  28.25200 52.24700 30.94200
H  28.73300 50.90400 32.07000
H  27.40100 52.07600 32.48300
H  25.02900 48.86900 32.09300
H  23.72200 49.52500 31.08900
H  23.33500 49.25700 33.48700
H  23.06700 50.92700 33.12200
H  31.52000 47.66400 27.84100
H  30.88100 48.48400 29.21900
H  32.00400 49.37200 28.05300
H  32.62300 47.99000 26.02300
H  33.05700 49.60400 26.24500
H  33.59900 48.79000 24.76000
H  27.01200 49.99900 21.56400
H  25.35700 52.40100 21.94200
H  28.57300 52.48100 21.96500
H  27.33600 52.59000 20.73500
H  28.47900 51.25600 20.60000
H  24.61400 50.42900 20.17500
H  23.65100 51.08800 21.20900
H  25.07000 48.71700 22.59800
H  24.13800 48.29300 21.08600
H  23.35500 49.10200 22.32000
H  20.07600 52.53600 25.64500
H  20.90600 52.05500 24.21400
H  21.03700 53.71400 24.89500
H  22.15200 51.17600 30.22400
H  22.29700 54.08800 33.48500
H  21.27300 54.89500 32.30300
H  22.94100 55.19700 32.23100

