158

Mg -1.85500 17.41700 26.03600
C  -2.60500 15.14300 28.73400
C  -2.63900 19.96800 28.15900
C  -1.64500 19.38100 23.34800
C  -1.40400 14.60400 23.99100
N  -2.50900 17.50600 28.25600
C  -2.77300 16.46700 29.06600
C  -2.91000 17.05000 30.50000
C  -3.39100 18.54800 30.23300
C  -2.85500 18.71200 28.79700
C  -4.93400 18.63900 30.41700
C  -1.56500 17.08200 31.31000
C  -1.73000 17.48500 32.78000
H  -1.81300 16.38500 33.81900
N  -2.01800 19.40500 25.82100
C  -2.25200 20.31000 26.83100
C  -2.14200 21.70100 26.22700
C  -1.73900 21.52700 24.85900
C  -1.84000 20.06900 24.60800
C  -2.35000 23.01000 27.06700
C  -1.24900 22.51400 23.83300
O  -1.06300 22.25900 22.65900
C  -0.76200 23.86700 24.18600
N  -1.72200 17.01500 23.81600
C  -1.51700 18.04800 22.98600
C  -1.23500 17.55000 21.56600
C  -1.05500 16.00700 21.85500
C  -1.41900 15.82100 23.28600
C  -2.34100 17.85300 20.59100
C  0.38400 15.40100 21.57300
C  1.47600 16.01500 22.47700
N  -1.95600 15.36800 26.27000
C  -1.67700 14.39400 25.35900
C  -1.75500 13.05700 25.96100
C  -2.03600 13.30300 27.30500
C  -2.18700 14.71900 27.48100
C  -1.57700 11.74600 25.18000
C  -2.29600 12.65700 28.52700
O  -2.31100 11.47100 28.87200
C  -2.66600 13.82200 29.55200
C  -1.70800 13.59000 30.67200
O  -0.50900 14.01200 30.65600
O  -2.20700 12.78500 31.66500
C  -1.19800 12.26100 32.58300
H  -2.81800 20.79500 28.85000
H  -1.39500 19.90800 22.42400
H  -1.18600 13.75000 23.34600
H  -3.56500 16.46500 31.14500
H  -2.95300 19.24700 30.94600
H  -5.14200 19.52700 31.01500
H  -5.41700 17.75700 30.83700
H  -5.33100 18.83600 29.42100
H  -1.07700 17.92900 30.82700
H  -0.93200 16.20300 31.19200
H  -2.58400 18.15300 32.89000
H  -0.80300 17.99900 33.03200
H  -2.73600 22.93000 28.08300
H  -2.99400 23.50500 26.34000
H  -1.50400 23.68700 27.19000
H  -1.29200 24.39900 24.97600
H  -0.76300 24.62300 23.40000
H  0.22900 23.65500 24.58800
H  -0.30200 17.99400 21.21900
H  -1.69000 15.50600 21.12400
H  -2.99100 17.01000 20.35600
H  -2.01400 18.18000 19.60400
H  -3.05800 18.59900 20.93400
H  0.74200 15.48400 20.54700
H  0.24400 14.34800 21.81800
H  1.01000 16.78600 23.09000
H  2.22100 16.52700 21.86800
H  1.97000 15.22900 23.04800
H  -1.41700 10.92100 25.87300
H  -0.83300 11.75100 24.38400
H  -2.57500 11.66600 24.74700
H  -3.67100 13.58000 29.89900
H  -0.47000 12.97400 32.96900
H  -0.63200 11.39800 32.22900
H  -1.83800 11.84200 33.36000
Mg 43.78100 4.03300 47.68900
C  41.52300 6.74000 47.05300
C  41.22300 1.90600 47.75900
C  45.99300 1.51200 47.15600
C  46.37200 6.46000 46.81300
N  41.64300 4.31300 47.15600
C  40.89000 5.44900 47.05600
C  39.38700 5.19500 47.00300
C  39.33000 3.76800 47.70100
C  40.85400 3.27900 47.68500
C  38.75600 3.79500 49.19200
C  38.88200 5.29300 45.47900
C  37.67600 6.28200 45.25000
H  37.08400 6.50900 43.90300
N  43.71000 2.04000 47.58100
C  42.48200 1.39100 47.57300
C  42.75400 -0.06300 47.54500
C  44.13400 -0.24500 47.21600
C  44.69800 1.08500 47.33000
C  41.77100 -1.21800 47.58500
C  44.74200 -1.58700 46.82100
O  44.15000 -2.65900 46.79600
C  46.18900 -1.61900 46.21300
N  45.84700 3.97300 47.15500
C  46.56500 2.79600 47.12300
C  48.02800 3.05200 46.77900
C  48.16400 4.61900 46.72600
C  46.72300 5.08300 46.87300
C  49.03500 2.34500 47.72700
C  48.83300 5.17700 45.55000
C  49.71900 6.40600 45.76400
N  43.96800 6.15900 47.34700
C  45.06900 6.96300 47.02000
C  44.65300 8.36100 46.99800
C  43.26200 8.28200 47.05000
C  42.87100 6.93900 47.16200
C  45.49600 9.49900 46.88500
C  42.04600 9.11600 47.04000
O  41.85700 10.27400 46.75100
C  40.90900 8.11800 47.02800
C  40.04500 8.32300 48.20000
O  40.13600 8.08700 49.40300
O  38.86900 8.83200 47.61700
C  37.61500 8.94600 48.47700
H  40.36100 1.23600 47.77700
H  46.77800 0.75400 47.13600
H  47.22000 7.10700 46.57600
H  38.90200 5.99800 47.55800
H  38.67600 3.25700 46.99500
H  38.62700 4.82700 49.52000
H  39.49600 3.39200 49.88300
H  37.79600 3.29200 49.07400
H  38.52500 4.36600 45.03000
H  39.68400 5.75200 44.90200
H  38.10600 7.23800 45.55100
H  37.01800 5.93200 46.04500
H  41.83400 -1.64500 46.58400
H  40.76700 -0.93800 47.90300
H  42.02800 -1.95300 48.34800
H  46.87800 -1.34300 47.01100
H  46.33100 -0.78900 45.52100
H  46.44000 -2.55600 45.71600
H  48.06400 2.68800 45.75200
H  48.60600 4.96700 47.66000
H  48.67600 1.83900 48.62300
H  49.67800 3.04600 48.25700
H  49.74200 1.70500 47.20000
H  48.08100 5.52200 44.84100
H  49.37600 4.34300 45.10500
H  50.69700 6.10300 45.38900
H  49.77000 6.70700 46.81000
H  49.39700 7.24400 45.14700
H  45.24200 10.12100 47.74300
H  45.33400 10.09400 45.98600
H  46.53700 9.17600 46.86900
H  40.27200 8.09900 46.14400
H  36.73100 8.77800 47.86200
H  37.54100 9.95700 48.87900
H  37.62600 8.19900 49.27100

