158

Mg 53.46500 24.98300 43.92900
C  50.86700 27.19400 43.33500
C  51.34500 22.46500 42.77300
C  56.05100 22.89000 43.90000
C  55.56400 27.75400 44.10300
N  51.45600 24.87600 42.90300
C  50.53100 25.87400 42.96700
C  49.15500 25.37800 42.49300
C  49.26900 23.82200 42.51700
C  50.79700 23.74700 42.70400
C  48.48200 23.06900 43.63100
C  48.65100 25.93600 41.12600
C  49.58200 26.21300 39.95500
H  49.42000 25.49100 38.66500
N  53.64900 22.97100 43.58300
C  52.65400 22.08400 43.14600
C  53.23700 20.74400 42.91500
C  54.60200 20.75500 43.22000
C  54.84000 22.22000 43.58200
C  52.48400 19.46600 42.43900
C  55.51700 19.60700 43.23400
O  55.18700 18.45700 42.78400
C  56.88300 19.68200 43.97500
N  55.45600 25.28700 43.89400
C  56.38300 24.26900 43.91800
C  57.80200 24.89100 43.94900
C  57.60400 26.41200 43.78600
C  56.11800 26.48000 43.90800
C  58.65000 24.42300 45.17400
C  58.15300 27.03800 42.47600
C  59.01400 28.30500 42.69700
N  53.34100 27.07500 43.83200
C  54.22600 28.09700 44.10400
C  53.55900 29.39600 44.29800
C  52.20700 29.06700 44.05700
C  52.18000 27.63200 43.66700
C  54.15900 30.70300 44.52800
C  50.88800 29.59700 44.01700
O  50.47500 30.69000 44.33300
C  50.02700 28.45300 43.38100
C  49.64200 28.96700 41.97700
O  50.42300 29.18800 41.04300
O  48.31500 29.30600 41.96500
C  47.90100 30.05500 40.71300
H  50.68800 21.63000 42.51900
H  56.92500 22.23600 43.94500
H  56.21100 28.63400 44.09200
H  48.43400 25.74800 43.22200
H  48.96200 23.41100 41.55400
H  47.78200 23.73000 44.14100
H  49.14400 22.63400 44.37900
H  47.90400 22.31200 43.10000
H  48.01500 26.76900 41.42300
H  47.92200 25.21600 40.75200
H  50.47800 25.67000 40.25800
H  49.71700 27.25500 39.66700
H  53.05700 18.79800 41.79500
H  51.46600 19.59200 42.06900
H  52.49900 18.94200 43.39400
H  57.39400 18.71900 44.00900
H  56.75100 20.07500 44.98300
H  57.48000 20.34700 43.35200
H  58.30200 24.42600 43.09900
H  58.00500 26.92800 44.65800
H  58.08400 23.66200 45.71000
H  58.99600 25.30200 45.71900
H  59.49000 23.86300 44.76400
H  57.33900 27.36400 41.82900
H  58.81300 26.30700 42.00900
H  59.18300 28.46800 43.76100
H  58.57500 29.10700 42.10300
H  59.95100 28.09900 42.17900
H  53.99600 31.19900 43.57100
H  55.23300 30.75400 44.70500
H  53.64400 31.28600 45.29200
H  49.10600 28.28400 43.93900
H  46.93100 30.52700 40.87100
H  47.82100 29.32700 39.90600
H  48.55600 30.80600 40.27000
Mg 26.92700 49.93400 26.30300
C  24.72500 50.96100 28.77300
C  29.16500 49.16700 28.62700
C  29.14700 49.52800 23.73600
C  24.66900 51.34800 23.90600
N  26.97100 50.16200 28.47600
C  25.93000 50.47900 29.25500
C  26.23200 50.17000 30.75200
C  27.72900 49.59800 30.72500
C  27.95900 49.66500 29.19700
C  28.82500 50.34800 31.53100
C  25.26000 49.06600 31.26800
C  25.17200 48.85900 32.76000
H  25.87000 49.79800 33.79400
N  28.79700 49.25100 26.21500
C  29.66900 49.07800 27.27100
C  30.98000 48.79900 26.82000
C  30.91300 48.81100 25.41300
C  29.53700 49.20700 25.05500
C  32.12000 48.49800 27.79300
C  32.04500 48.57300 24.44400
O  31.91300 48.70100 23.25600
C  33.37600 48.18400 24.93800
N  26.99500 50.45300 24.18800
C  27.98100 50.09100 23.31200
C  27.58100 50.17100 21.81300
C  26.24300 50.95400 21.89900
C  25.87400 50.82000 23.40200
C  28.60900 51.06700 21.03600
C  25.14800 50.27000 20.97800
C  24.45900 51.17100 19.85000
N  25.05600 51.01300 26.28300
C  24.25800 51.43500 25.26200
C  23.08800 52.14100 25.87100
C  23.27700 52.05300 27.25100
C  24.44900 51.27800 27.46400
C  22.07600 52.85100 25.10300
C  22.68400 52.39000 28.53300
O  21.67800 53.03300 28.83700
C  23.60300 51.65400 29.57900
C  23.95800 52.61800 30.58000
O  24.89200 53.41800 30.50100
O  23.06500 52.61200 31.59800
C  23.23900 53.69100 32.57700
H  29.89200 48.86900 29.38600
H  29.79900 49.31700 22.88600
H  23.98600 51.73100 23.14400
H  26.40600 51.03800 31.38800
H  27.81500 48.61700 31.19100
H  29.51500 50.94700 30.93700
H  29.43400 49.65400 32.11000
H  28.44700 51.01800 32.30400
H  25.61600 48.09000 30.93800
H  24.25800 49.22500 30.86900
H  25.22400 47.80100 33.02000
H  24.16400 49.12900 33.07800
H  32.13900 47.40800 27.76300
H  31.81600 48.84100 28.78200
H  33.14000 48.86000 27.66100
H  33.20400 47.39700 25.67300
H  33.75600 49.11200 25.36500
H  33.95700 47.89600 24.06100
H  27.56300 49.15900 21.40700
H  26.31000 52.01100 21.64000
H  28.83900 50.56700 20.09500
H  29.52400 51.20700 21.61100
H  28.21000 52.03500 20.73000
H  24.57500 49.64000 21.65900
H  25.63200 49.53600 20.33300
H  25.11100 51.93900 19.43400
H  23.62900 51.78200 20.20400
H  24.18900 50.50000 19.03400
H  21.62300 52.26200 24.30600
H  22.42700 53.75800 24.61100
H  21.20800 53.05000 25.73100
H  22.89800 50.90900 29.94900
H  22.38000 53.91400 33.20900
H  23.48100 54.62300 32.06800
H  23.95200 53.35500 33.33000

