158

Mg 34.80700 2.68700 30.56200
C  32.48600 3.60800 32.90200
C  37.37900 3.05300 32.71500
C  36.93400 1.68700 28.11600
C  32.10500 2.77900 28.21400
N  34.87400 3.16700 32.50700
C  33.82700 3.52100 33.34100
C  34.24600 3.64800 34.76100
C  35.81500 3.70700 34.65100
C  36.08600 3.32600 33.15100
C  36.35900 5.21400 35.02400
C  33.68100 2.43200 35.60900
C  33.76900 2.63500 37.09900
H  34.17400 4.00400 37.67600
N  36.86300 2.41900 30.39800
C  37.78900 2.63300 31.41000
C  39.11600 2.16600 31.03600
C  39.00300 1.89200 29.65900
C  37.58800 2.04000 29.34000
C  40.26100 2.02300 32.00900
C  40.12700 1.58900 28.68000
O  39.84800 1.41200 27.46800
C  41.63100 1.59600 29.14600
N  34.57900 2.35300 28.49700
C  35.63700 1.92600 27.74600
C  35.21300 1.94200 26.22200
C  33.70300 2.08000 26.36900
C  33.44700 2.49400 27.86000
C  35.84000 3.11100 25.45800
C  32.91400 0.82000 25.99500
C  32.60800 0.67600 24.51500
N  32.75300 3.19200 30.47300
C  31.80200 3.13700 29.48200
C  30.48400 3.47400 30.00200
C  30.72200 3.65300 31.36600
C  32.10900 3.55800 31.57600
C  29.20000 3.56300 29.32100
C  30.01800 4.03300 32.54300
O  28.81100 4.10700 32.71600
C  31.14200 3.92400 33.64000
C  31.11000 5.07100 34.52100
O  31.76700 6.09800 34.37100
O  30.22900 4.88200 35.60100
C  30.25500 5.89300 36.63600
H  38.20400 3.27700 33.39500
H  37.54700 1.20900 27.34900
H  31.33200 2.79300 27.44200
H  33.93600 4.59700 35.19900
H  36.26400 3.00600 35.35400
H  36.94200 5.03700 35.92800
H  35.64600 5.98200 35.32600
H  37.05200 5.64800 34.30300
H  34.35900 1.63900 35.29400
H  32.66800 2.08800 35.40300
H  34.45000 1.92600 37.56900
H  32.78300 2.35000 37.46600
H  41.09800 2.64000 31.68100
H  40.49000 0.95700 32.01800
H  39.99600 2.31900 33.02400
H  41.87000 0.86900 29.92200
H  41.73300 2.63300 29.46700
H  42.26700 1.40700 28.28200
H  35.47400 1.05800 25.64100
H  33.34000 2.95900 25.83600
H  36.48900 2.62000 24.73300
H  36.27500 3.83400 26.14800
H  35.19900 3.65200 24.76200
H  31.97400 0.81700 26.54700
H  33.46300 -0.08500 26.25700
H  33.39900 1.06600 23.87400
H  31.70600 1.18000 24.16800
H  32.53600 -0.40800 24.43400
H  29.34800 3.16900 28.31600
H  28.84100 4.59200 29.34300
H  28.52400 2.89200 29.85100
H  30.80700 3.13600 34.31400
H  29.61800 6.69600 36.26500
H  31.25600 6.28700 36.81200
H  29.85500 5.59100 37.60500
Mg 17.40300 53.08100 26.42300
C  19.65700 51.72000 28.63300
C  15.08800 53.46600 28.93500
C  15.15600 54.43000 24.23800
C  19.44500 52.19400 23.78200
N  17.31700 52.60200 28.47900
C  18.43800 52.11900 29.19900
C  18.14900 52.21200 30.66800
C  16.57600 52.28900 30.72700
C  16.24500 52.76900 29.29200
C  15.81100 50.96500 31.08400
C  18.90600 53.42400 31.31400
C  19.21600 53.28400 32.86700
H  18.17300 52.55200 33.68300
N  15.53000 53.95800 26.56500
C  14.75000 54.08500 27.74300
C  13.50600 54.79700 27.42800
C  13.56600 55.07600 26.00600
C  14.77800 54.49700 25.56000
C  12.42600 55.03500 28.47800
C  12.53100 55.83900 25.16100
O  12.71300 56.19800 23.98100
C  11.15900 56.21900 25.73400
N  17.28300 53.22000 24.28300
C  16.27300 53.88800 23.61600
C  16.60200 53.96600 22.09800
C  17.99500 53.29700 22.02100
C  18.31300 52.92400 23.45100
C  15.53800 53.31400 21.11500
C  19.04200 54.19000 21.27900
C  19.94400 55.02300 22.11700
N  19.11200 51.96400 26.15300
C  19.88800 51.73800 25.05400
C  21.11200 51.05500 25.46300
C  21.07800 51.08300 26.88700
C  19.83100 51.67000 27.23900
C  22.11100 50.40100 24.55600
C  21.79000 50.71900 28.13500
O  22.89700 50.24700 28.25000
C  20.82700 51.17900 29.31700
C  20.45600 50.09000 30.20200
O  19.52900 49.29300 29.98700
O  21.03800 50.33400 31.37700
C  20.66000 49.42700 32.45900
H  14.36400 53.45600 29.75300
H  14.47600 54.75200 23.44600
H  20.22700 51.97200 23.05300
H  18.46800 51.26900 31.11300
H  16.16900 53.04900 31.39400
H  15.16300 51.22200 31.92200
H  16.50600 50.20900 31.45000
H  15.27600 50.60600 30.20500
H  18.33600 54.35200 31.29900
H  19.87000 53.62100 30.84300
H  19.24700 54.30400 33.25100
H  20.14800 52.73500 33.00200
H  11.53400 55.55500 28.12700
H  12.76700 55.62700 29.32700
H  12.13000 54.02700 28.76700
H  11.39000 57.10600 26.32300
H  10.77400 55.33200 26.23700
H  10.33300 56.48900 25.07700
H  16.74100 54.99300 21.76000
H  17.93300 52.32000 21.54300
H  15.09900 52.42300 21.56400
H  15.96800 53.15300 20.12600
H  14.77400 54.07000 20.93400
H  18.54800 54.89900 20.61500
H  19.66700 53.64800 20.56900
H  20.67200 54.28100 22.44300
H  19.39600 55.37400 22.99100
H  20.46300 55.83900 21.61400
H  22.04100 50.72500 23.51800
H  22.06500 49.31400 24.61900
H  23.07100 50.75700 24.92900
H  21.35700 51.91600 29.92100
H  20.66200 48.40000 32.09200
H  19.74800 49.76100 32.95200
H  21.47300 49.58800 33.16700

