158

Mg 48.19600 33.87400 27.35100
C  46.18000 32.77600 30.00600
C  48.60800 36.89100 29.10800
C  49.28200 35.26500 24.55700
C  46.93500 31.12600 25.48000
N  47.64700 34.65200 29.40300
C  46.84100 33.99800 30.33900
C  46.81900 34.72900 31.60700
C  47.28600 36.19300 31.23300
C  47.90500 35.95700 29.81400
C  46.20700 37.30500 31.24800
C  47.88800 34.06500 32.51500
C  47.56700 34.13800 34.06400
H  48.49800 35.03800 34.97900
N  49.09600 35.78800 26.96000
C  49.20100 36.83600 27.84200
C  50.02900 37.80200 27.22800
C  50.20400 37.39200 25.85300
C  49.54600 36.09600 25.72100
C  50.63900 39.02700 27.84200
C  50.91100 38.07000 24.70000
O  50.93400 37.56000 23.56100
C  51.48300 39.47000 24.81600
N  47.95100 33.45800 25.27300
C  48.61600 34.10800 24.30800
C  48.55800 33.35300 22.99100
C  47.72500 32.09200 23.29200
C  47.57200 32.18300 24.80800
C  47.94100 34.24200 21.82800
C  48.42500 30.72700 22.81700
C  49.60400 30.35600 23.62600
N  47.12700 32.16200 27.73000
C  46.75300 31.07200 26.89800
C  46.00500 30.12300 27.54100
C  45.74900 30.81800 28.77200
C  46.42000 32.02500 28.81800
C  45.44500 28.78000 27.05800
C  44.89900 30.76500 29.92400
O  44.10600 29.88000 30.31200
C  45.15000 32.03700 30.76400
C  45.45200 31.70500 32.17400
O  46.40700 31.10100 32.63500
O  44.43400 32.23200 33.02000
C  44.41100 31.70700 34.44300
H  48.93200 37.77400 29.66300
H  49.85700 35.44500 23.64700
H  46.51500 30.30200 24.90000
H  45.83200 34.77100 32.06800
H  48.10100 36.36800 31.93600
H  45.18200 37.00900 31.47100
H  46.15700 37.71700 30.24000
H  46.46400 38.10200 31.94600
H  48.91300 34.41900 32.40900
H  48.14700 33.04900 32.21800
H  47.56700 33.11400 34.43800
H  46.57600 34.55500 34.23900
H  50.18800 39.96400 27.51500
H  51.70100 39.10600 27.61100
H  50.72000 38.88700 28.92000
H  50.81400 40.18200 25.30000
H  51.68600 39.93100 23.84900
H  52.43200 39.41500 25.35000
H  49.54400 33.07700 22.61600
H  46.74500 32.03600 22.81900
H  47.71100 35.23400 22.21600
H  46.97400 33.82500 21.54800
H  48.60600 34.37500 20.97500
H  48.84400 30.81100 21.81400
H  47.82300 29.82500 22.70800
H  50.39800 30.23200 22.89000
H  49.44600 29.40100 24.12700
H  49.87700 31.07300 24.39900
H  45.41000 28.76800 25.96800
H  44.38200 28.84300 27.29000
H  45.92700 27.92300 27.52800
H  44.15000 32.47100 30.74000
H  44.80700 30.69600 34.54000
H  43.44100 31.70700 34.93900
H  44.99300 32.34300 35.11000
Mg 26.03200 49.50500 26.69100
C  24.14600 50.95300 29.30600
C  28.51300 48.95000 28.92500
C  27.83200 48.36700 24.08200
C  23.84100 50.99900 24.39800
N  26.23500 49.93400 28.89800
C  25.29500 50.38000 29.76600
C  25.62700 50.06700 31.18800
C  27.15200 49.71000 31.00600
C  27.35000 49.55800 29.54900
C  28.23200 50.69000 31.67400
C  24.61700 49.03200 31.78700
C  24.04700 49.16800 33.28600
H  24.85600 50.04800 34.20600
N  27.93900 48.76600 26.50600
C  28.78400 48.56000 27.62300
C  30.03600 48.07600 27.09500
C  29.91900 47.94700 25.65400
C  28.53800 48.37200 25.34800
C  31.20100 47.84700 27.99600
C  30.99500 47.50000 24.61400
O  30.61800 47.33700 23.44500
C  32.40800 47.13700 25.01100
N  25.88100 49.61600 24.55800
C  26.59500 48.88200 23.69300
C  25.94300 48.77000 22.27800
C  24.70300 49.64200 22.46700
C  24.82800 50.13400 23.92400
C  26.89500 49.20800 21.10800
C  23.28100 48.97400 22.13600
C  22.60900 49.70200 20.98900
N  24.43300 50.79100 26.76200
C  23.63700 51.38200 25.75300
C  22.44800 52.03400 26.32700
C  22.67800 51.88600 27.70500
C  23.86100 51.13900 27.92000
C  21.32300 52.74900 25.63200
C  22.06700 52.21500 29.01600
O  21.01300 52.81800 29.29000
C  22.95400 51.54100 30.05600
C  23.40600 52.63400 31.00000
O  24.20200 53.51800 30.77200
O  22.73400 52.46100 32.24800
C  23.08000 53.45100 33.30000
H  29.24300 48.66100 29.68400
H  28.34300 47.97500 23.20100
H  23.07700 51.42000 23.74000
H  25.60600 51.01800 31.72100
H  27.30200 48.70500 31.39900
H  27.81900 51.66400 31.93200
H  29.09000 50.84000 31.01800
H  28.49600 50.13800 32.57600
H  25.16500 48.09000 31.75100
H  23.84200 48.83000 31.04700
H  23.89100 48.19800 33.75800
H  23.04700 49.60200 33.30500
H  32.10400 48.12500 27.45200
H  31.36300 46.78700 28.19200
H  31.34200 48.37400 28.93900
H  32.91800 47.98600 25.46400
H  32.98900 46.84800 24.13500
H  32.37700 46.37900 25.79400
H  25.75000 47.74800 21.95400
H  24.70400 50.57100 21.89600
H  27.89300 49.42400 21.48900
H  26.48700 50.09600 20.62500
H  26.98500 48.44900 20.33100
H  22.68600 49.09100 23.04200
H  23.37700 47.90800 21.92700
H  22.81700 49.06600 20.12900
H  23.00500 50.68600 20.73800
H  21.52600 49.75000 21.10600
H  20.35200 52.25400 25.62400
H  21.59500 53.12600 24.64600
H  21.02000 53.60200 26.23800
H  22.31000 50.81700 30.55400
H  24.13100 53.56900 33.56400
H  22.57400 53.26300 34.24700
H  22.68300 54.35300 32.83400

