158

Mg 1.86800 -1.67200 45.52100
C  5.10700 -0.72900 44.62700
C  0.75100 0.99600 43.83500
C  -1.21200 -3.04200 45.67500
C  3.22300 -4.67300 46.95500
N  2.88400 0.05300 44.47300
C  4.15700 0.18500 44.15900
C  4.38400 1.53900 43.41400
C  2.96400 2.21500 43.48900
C  2.10800 1.05000 43.98300
C  2.78800 3.45500 44.46800
C  4.97900 1.36900 41.97100
C  6.25200 2.14800 41.74500
H  7.42700 1.48100 40.98700
N  0.01500 -1.10500 44.80800
C  -0.23000 -0.00900 44.07500
C  -1.62800 0.02600 43.64500
C  -2.23200 -1.13300 44.20100
C  -1.14900 -1.83800 44.91000
C  -2.16400 1.26200 42.82200
C  -3.69000 -1.52000 44.03500
O  -4.40900 -0.83600 43.33200
C  -4.35100 -2.76500 44.47000
N  1.10100 -3.51100 46.44400
C  -0.25900 -3.77800 46.44000
C  -0.59400 -5.13000 47.13600
C  0.88900 -5.60400 47.61200
C  1.83300 -4.55200 46.99200
C  -1.71800 -5.04700 48.25000
C  1.35600 -7.09100 47.25100
C  1.57800 -8.01000 48.49800
N  3.74200 -2.62100 45.71400
C  4.15000 -3.76400 46.41000
C  5.59900 -3.81200 46.25900
C  6.00500 -2.62800 45.69100
C  4.85800 -1.94900 45.34000
C  6.38100 -4.97900 46.67900
C  7.08900 -1.86800 45.24900
O  8.27100 -2.04100 45.43000
C  6.62400 -0.58000 44.58600
C  7.00500 0.55100 45.41600
O  6.26600 1.17000 46.16400
O  8.34600 0.86500 45.19800
C  8.80500 2.12700 45.70000
H  0.44600 1.92100 43.34100
H  -2.24300 -3.37900 45.80300
H  3.66900 -5.59200 47.34100
H  5.05100 2.16200 44.01100
H  2.61000 2.47100 42.49100
H  1.85800 3.48900 45.03400
H  2.79300 4.37000 43.87600
H  3.64300 3.55600 45.13600
H  4.30900 1.67800 41.16900
H  5.22900 0.32700 41.76900
H  6.81000 2.37700 42.65300
H  5.94400 3.06300 41.23900
H  -2.09400 1.18300 41.73700
H  -1.64700 2.16000 43.16100
H  -3.21500 1.44600 43.04500
H  -4.24100 -2.69500 45.55200
H  -3.75100 -3.50300 43.93800
H  -5.40500 -2.69500 44.19900
H  -0.96200 -5.78300 46.34400
H  1.02100 -5.46900 48.68500
H  -1.26700 -5.32000 49.20400
H  -2.60400 -5.63000 47.99900
H  -2.10000 -4.03400 48.37700
H  2.22000 -7.06900 46.58700
H  0.47900 -7.45100 46.71200
H  0.58500 -8.16900 48.91900
H  2.03600 -7.35100 49.23600
H  2.27000 -8.82800 48.29800
H  7.43300 -4.77000 46.87000
H  6.26300 -5.80700 45.98000
H  6.05200 -5.44700 47.60700
H  7.12100 -0.35700 43.64200
H  9.61400 1.93500 46.40400
H  8.09400 2.71300 46.28200
H  9.26900 2.63300 44.85400
Mg 0.75000 7.54100 27.24000
C  1.38500 9.67900 29.91500
C  0.38200 4.97500 29.54700
C  0.01500 5.74200 24.69600
C  1.34500 10.30600 25.07900
N  0.89800 7.34200 29.42200
C  1.19700 8.38700 30.33300
C  1.32000 7.80900 31.74500
C  1.34800 6.28600 31.57600
C  0.83300 6.19500 30.09700
C  2.87100 5.83500 31.68500
C  0.11600 8.35600 32.60700
C  0.15700 7.97200 34.05700
H  1.32600 7.27100 34.83300
N  0.17300 5.63200 27.14400
C  0.00800 4.68000 28.17500
C  -0.56900 3.49200 27.58000
C  -0.67700 3.71800 26.15300
C  -0.23000 5.08400 25.92900
C  -0.99500 2.25500 28.33200
C  -1.02600 2.68300 24.98100
O  -0.79800 2.91200 23.82100
C  -1.56300 1.29700 25.29400
N  0.75800 7.98300 25.15800
C  0.41000 6.99300 24.32800
C  0.50500 7.47000 22.82400
C  0.68600 9.06000 23.00100
C  1.00800 9.13000 24.49300
C  1.60700 6.72900 22.03200
C  -0.61700 9.86400 22.67700
C  -0.39200 11.31200 22.21900
N  1.27700 9.56200 27.37800
C  1.43500 10.59500 26.45600
C  1.76400 11.79200 27.06600
C  1.87300 11.52000 28.42900
C  1.43200 10.15700 28.56500
C  2.11200 13.09300 26.47600
C  2.21000 12.05700 29.71000
O  2.47600 13.18000 29.96500
C  1.74900 10.93900 30.74000
C  2.67000 10.79300 31.82400
O  3.82200 10.39300 31.68300
O  2.18000 11.24000 33.04000
C  2.97000 11.15100 34.26900
H  0.30500 4.19200 30.30500
H  -0.38500 5.12800 23.88700
H  1.40800 11.22100 24.48600
H  2.22900 8.30200 32.08800
H  0.68000 5.72000 32.22500
H  3.02400 5.15300 32.52200
H  3.56100 6.63600 31.95000
H  3.17800 5.37700 30.74500
H  -0.81400 7.88700 32.28400
H  0.10000 9.44100 32.50600
H  -0.80400 7.50000 34.26000
H  0.04500 8.82300 34.73000
H  -2.05700 2.01400 28.29400
H  -0.74900 2.37600 29.38700
H  -0.42000 1.40700 27.96100
H  -0.69800 0.80300 25.73700
H  -1.88200 0.78300 24.38700
H  -2.42100 1.31200 25.96700
H  -0.48300 7.30500 22.39500
H  1.65000 9.36000 22.59100
H  1.27400 6.22000 21.12800
H  2.01400 5.99400 22.72600
H  2.47500 7.24000 21.61400
H  -1.27400 9.83500 23.54600
H  -1.01700 9.22500 21.89000
H  -0.53800 12.01400 23.04000
H  -1.05000 11.56800 21.39000
H  0.63000 11.55700 21.92900
H  1.23300 13.73600 26.45400
H  2.57700 12.97200 25.49800
H  2.77200 13.56500 27.20400
H  0.84500 11.41400 31.12200
H  2.63100 10.43600 35.01800
H  2.90400 12.10100 34.79900
H  4.00300 10.88100 34.05300

