158

Mg 8.72600 2.85400 27.37500
C  10.05000 1.36900 30.33500
C  6.74800 4.82400 29.42200
C  7.35200 4.11300 24.52400
C  10.36300 0.27400 25.55000
N  8.40300 2.92300 29.58600
C  9.13700 2.37200 30.56700
C  8.83700 2.95500 31.90100
C  7.77000 3.97700 31.59300
C  7.55500 3.90200 30.09200
C  6.38900 3.79400 32.31400
C  10.01900 3.44600 32.82600
C  9.77800 4.29400 34.08300
H  10.45200 4.00900 35.41900
N  7.44000 4.38300 27.06100
C  6.68800 5.07700 28.00000
C  5.80200 5.91000 27.33400
C  5.99700 5.78500 25.92900
C  6.98200 4.69100 25.75100
C  4.89900 6.81900 28.08700
C  5.36600 6.61700 24.81200
O  5.62500 6.39100 23.61100
C  4.51200 7.80900 25.14800
N  8.95200 2.33000 25.37400
C  8.30500 3.03300 24.34500
C  8.51800 2.36000 22.97300
C  9.66600 1.35500 23.30800
C  9.55000 1.22100 24.82200
C  7.15700 1.83600 22.44700
C  11.14700 1.73000 22.95500
C  11.75300 0.85400 21.85200
N  9.97000 1.16400 27.78600
C  10.62400 0.26200 26.96100
C  11.37900 -0.70200 27.68100
C  11.21200 -0.26100 29.01200
C  10.35900 0.84000 29.02600
C  12.33300 -1.67900 27.07600
C  11.66900 -0.49300 30.36400
O  12.44700 -1.38600 30.79400
C  10.93100 0.52900 31.29100
C  10.23900 -0.18000 32.36200
O  9.41400 -0.95900 32.22700
O  10.78900 0.23200 33.54800
C  10.28300 -0.38700 34.76400
H  6.18900 5.47600 30.09600
H  6.93900 4.43400 23.56600
H  11.00300 -0.38900 24.96500
H  8.29300 2.18500 32.44900
H  8.00900 5.02000 31.80000
H  5.79900 3.08000 31.74000
H  5.89000 4.76000 32.38900
H  6.46500 3.32000 33.29200
H  10.65300 4.00200 32.13500
H  10.62100 2.64800 33.26100
H  8.70300 4.24200 34.25400
H  9.99500 5.29500 33.70800
H  5.11900 7.84600 27.79400
H  4.79500 6.66100 29.16000
H  3.99400 6.60700 27.51700
H  3.59900 7.46900 25.63800
H  4.18900 8.16400 24.16900
H  5.00600 8.62800 25.66900
H  8.86800 3.09200 22.24500
H  9.46800 0.38500 22.85300
H  6.87900 2.40800 21.56200
H  6.35600 1.99300 23.16900
H  7.19900 0.78700 22.15200
H  11.77600 1.97100 23.81200
H  11.03000 2.67600 22.42800
H  12.01500 1.35500 20.92000
H  11.11400 -0.00100 21.63600
H  12.60200 0.27800 22.22000
H  11.84400 -2.65100 27.02200
H  13.08900 -1.94300 27.81400
H  12.73800 -1.33800 26.12200
H  11.67600 1.16900 31.76500
H  9.23900 -0.69400 34.70000
H  10.35200 0.27600 35.62600
H  10.90700 -1.21700 35.09500
Mg -9.99100 39.80400 41.43100
C  -8.81300 36.46700 40.74000
C  -7.03700 40.91800 40.17100
C  -11.27100 42.77100 41.71800
C  -13.19000 38.26800 41.96700
N  -8.20800 38.72500 40.36900
C  -7.92800 37.42600 40.28600
C  -6.53600 37.25500 39.60200
C  -5.91900 38.71000 39.40800
C  -7.08400 39.51100 40.14900
C  -4.53300 38.90700 40.12500
C  -6.74200 36.60800 38.18400
C  -5.99300 35.26100 37.89900
H  -5.18500 35.25800 36.59400
N  -9.30700 41.67300 41.04400
C  -8.02900 41.92600 40.54900
C  -7.80900 43.35700 40.42400
C  -8.97600 44.00600 40.91000
C  -9.95700 42.80400 41.27700
C  -6.50500 44.02200 39.86100
C  -9.27000 45.48300 41.11100
O  -8.48000 46.32000 40.75400
C  -10.50500 45.95700 41.69000
N  -11.94400 40.42500 41.65200
C  -12.19000 41.76000 41.88600
C  -13.65000 42.00700 42.24300
C  -14.35900 40.59900 42.26400
C  -13.10200 39.68800 41.90800
C  -13.91500 42.69800 43.55700
C  -15.58800 40.40000 41.38500
C  -16.79300 39.51300 41.89200
N  -10.80000 37.69700 41.62900
C  -12.10900 37.29300 41.85800
C  -12.20200 35.81500 41.88300
C  -10.85200 35.44800 41.49600
C  -10.12100 36.65700 41.27300
C  -13.42700 35.07500 42.24800
C  -9.91900 34.36700 41.24900
O  -10.02800 33.16500 41.52100
C  -8.64600 34.98000 40.65300
C  -7.43700 34.47600 41.42100
O  -7.09100 34.88400 42.55000
O  -6.79200 33.47200 40.71300
C  -5.58400 32.87500 41.41800
H  -6.07000 41.31600 39.85600
H  -11.76600 43.72900 41.89100
H  -14.16500 37.90000 42.29300
H  -5.99700 36.65500 40.33500
H  -5.93800 39.02300 38.36400
H  -4.16000 37.94700 40.48100
H  -4.68400 39.52300 41.01100
H  -3.72700 39.32900 39.52500
H  -6.58300 37.36300 37.41400
H  -7.78300 36.28800 38.14400
H  -6.74200 34.47500 37.79600
H  -5.35900 34.95200 38.72900
H  -6.58400 44.18600 38.78600
H  -5.64000 43.36100 39.90600
H  -6.32700 45.04800 40.18300
H  -11.24200 45.72500 40.92100
H  -10.55700 47.03500 41.84000
H  -10.66800 45.45000 42.64100
H  -14.17700 42.55400 41.46100
H  -14.74800 40.22400 43.21000
H  -13.88700 43.78400 43.46400
H  -13.27900 42.27500 44.33400
H  -14.91900 42.48300 43.92400
H  -15.30000 39.78800 40.53000
H  -16.02400 41.36500 41.12800
H  -17.76900 39.97400 41.73800
H  -16.63700 39.06800 42.87500
H  -16.79300 38.65600 41.21900
H  -14.13700 35.74700 42.73000
H  -13.00200 34.37500 42.96700
H  -13.84100 34.65600 41.33100
H  -8.54200 34.73500 39.59600
H  -4.87500 33.46700 41.99700
H  -4.96700 32.34600 40.69100
H  -6.07100 32.24600 42.16400

