158

Mg -0.70100 7.15700 26.72200
C  0.39100 9.23700 29.36100
C  -1.06700 4.66800 29.12500
C  -1.24300 5.07000 24.19900
C  0.22100 9.73700 24.39800
N  -0.36100 7.02500 28.98700
C  -0.03600 8.04700 29.87000
C  -0.30400 7.68900 31.29700
C  -0.37200 6.07800 31.16700
C  -0.60400 5.89300 29.72200
C  1.00400 5.50900 31.79800
C  -1.54900 8.45200 31.91100
C  -1.72200 8.66700 33.48500
H  -0.73400 8.25300 34.48900
N  -1.15300 5.15200 26.71500
C  -1.32400 4.30500 27.73600
C  -1.75900 3.04000 27.26200
C  -1.77300 3.07700 25.85800
C  -1.39000 4.45900 25.50500
C  -1.96900 1.81200 28.12600
C  -2.19400 2.01900 24.79300
O  -2.05300 2.14500 23.58100
C  -2.82000 0.73100 25.26000
N  -0.59600 7.37900 24.56700
C  -0.93800 6.37900 23.75600
C  -0.95200 6.84100 22.30800
C  -0.63900 8.38900 22.45100
C  -0.32000 8.55300 23.90500
C  0.05900 6.03600 21.36400
C  -1.68600 9.41500 21.98800
C  -1.24700 10.50600 20.95400
N  0.27300 9.05200 26.76900
C  0.59700 9.90800 25.74800
C  1.18600 11.12700 26.30100
C  1.05800 10.94100 27.71200
C  0.55900 9.58500 27.96800
C  1.63400 12.35600 25.61700
C  1.28700 11.53800 29.03100
O  1.72200 12.64200 29.25700
C  0.78900 10.50200 30.11800
C  1.80900 10.44900 31.21400
O  2.57600 9.50200 31.31700
O  1.77500 11.52000 31.99200
C  2.46900 11.40200 33.29200
H  -1.28400 3.86700 29.83500
H  -1.31600 4.35800 23.37500
H  0.49500 10.39800 23.57300
H  0.47600 8.07600 31.95200
H  -1.12100 5.53600 31.74300
H  0.68400 4.84700 32.60200
H  1.63500 6.29200 32.21900
H  1.55700 5.04300 30.98300
H  -2.40600 7.84200 31.62600
H  -1.73700 9.44100 31.49400
H  -2.62300 8.14500 33.80700
H  -1.99500 9.70500 33.67700
H  -1.92300 2.10300 29.17500
H  -1.23900 1.01400 27.98900
H  -2.97200 1.47200 27.87000
H  -3.14000 0.11700 24.41900
H  -3.75300 0.98600 25.76200
H  -2.13100 0.17600 25.89700
H  -1.98300 6.74300 21.96800
H  0.29100 8.48600 21.89000
H  0.62300 5.39000 22.03800
H  0.78000 6.64200 20.81600
H  -0.55900 5.46500 20.67100
H  -2.18700 9.91000 22.82000
H  -2.48800 8.82900 21.54000
H  -1.74600 10.47500 19.98600
H  -0.16100 10.55200 20.87700
H  -1.58800 11.43400 21.41300
H  0.99100 12.70700 24.80900
H  2.60700 12.05600 25.22900
H  1.75400 13.05800 26.44100
H  0.00600 10.88700 30.77100
H  2.38800 10.41500 33.74900
H  1.96200 12.01200 34.03900
H  3.48100 11.78100 33.15000
Mg 27.23900 51.02400 26.73100
C  25.31100 51.97600 29.42200
C  29.60200 49.75800 28.93500
C  29.00800 50.14000 23.99500
C  25.13300 52.98400 24.46300
N  27.53600 51.17500 29.10500
C  26.51000 51.37100 29.94100
C  26.96600 50.95800 31.40000
C  28.52200 50.54800 31.16800
C  28.59400 50.53600 29.64700
C  29.56600 51.49600 31.74400
C  26.07400 49.88900 32.14600
C  24.92400 50.31500 33.12600
H  24.59500 49.50600 34.42100
N  29.05200 50.00000 26.49300
C  29.87300 49.48000 27.51500
C  30.91400 48.65300 26.91400
C  30.76700 48.74400 25.50400
C  29.54400 49.62800 25.24100
C  31.94700 47.91600 27.70700
C  31.53600 48.05000 24.40700
O  31.25400 48.20600 23.23300
C  32.65800 47.10100 24.78100
N  27.03800 51.39500 24.58100
C  27.94100 50.95200 23.69800
C  27.58700 51.26300 22.19300
C  26.36300 52.15700 22.31300
C  26.18400 52.25000 23.89700
C  28.72500 51.79700 21.18300
C  25.03400 51.57900 21.54400
C  24.02900 52.66800 21.00500
N  25.61900 52.30600 26.86600
C  24.86700 53.04800 25.89300
C  23.78400 53.77200 26.54500
C  23.96400 53.37000 27.90700
C  25.03000 52.42600 28.06100
C  22.83000 54.74600 25.89800
C  23.43500 53.57900 29.16100
O  22.45700 54.23300 29.50400
C  24.15900 52.61000 30.24800
C  24.76600 53.41700 31.36800
O  25.80000 54.13000 31.33200
O  23.91500 53.29900 32.48900
C  24.18500 54.35200 33.42100
H  30.26200 49.23200 29.62800
H  29.51700 49.85500 23.07200
H  24.53800 53.48900 23.69900
H  27.07100 51.80800 32.07400
H  28.76800 49.53200 31.47900
H  29.95300 51.12200 32.69200
H  29.04600 52.43300 31.94400
H  30.29600 51.79800 30.99400
H  26.70100 49.17000 32.67200
H  25.59000 49.35000 31.33100
H  23.97300 50.19800 32.60700
H  25.13000 51.34800 33.40500
H  32.11400 46.92700 27.28100
H  31.75600 47.74800 28.76700
H  32.87900 48.48000 27.75900
H  33.28500 47.56600 25.54200
H  33.12500 46.74400 23.86300
H  32.16000 46.19700 25.13300
H  27.19800 50.31800 21.81400
H  26.54100 53.10700 21.80900
H  29.64000 51.97300 21.74900
H  28.48500 52.75400 20.72100
H  28.73700 51.12000 20.32900
H  24.59200 50.89100 22.26500
H  25.34200 50.99400 20.67800
H  23.55300 52.34300 20.08000
H  24.37300 53.69700 20.90400
H  23.21300 52.59500 21.72400
H  23.45400 55.28700 25.18700
H  22.54900 55.50900 26.62500
H  21.97800 54.27100 25.41100
H  23.59400 51.76400 30.64100
H  24.22500 55.28100 32.85400
H  25.14300 54.21500 33.92300
H  23.38200 54.38700 34.15700

