158

Mg 26.06300 -0.70200 29.10000
C  27.65100 -0.60700 32.32400
C  23.06400 -0.33600 30.74600
C  24.67700 -0.47600 26.12700
C  29.32900 -1.35500 27.74600
N  25.38100 -0.59700 31.33000
C  26.29300 -0.44300 32.44800
C  25.50100 -0.09400 33.70600
C  23.99800 -0.09900 33.16300
C  24.11300 -0.35700 31.68100
C  22.98900 -1.14700 33.92900
C  25.91400 1.31200 34.23900
C  25.36300 1.61200 35.61900
H  26.37800 2.01400 36.75800
N  24.09900 -0.61600 28.57600
C  23.02200 -0.43400 29.37600
C  21.85400 -0.36600 28.55200
C  22.29200 -0.28600 27.23300
C  23.75400 -0.46100 27.22100
C  20.43000 -0.22200 29.11600
C  21.38600 -0.07500 25.93500
O  21.84800 -0.09700 24.79800
C  19.95500 0.43600 26.18500
N  26.95200 -0.74700 27.23400
C  26.12600 -0.69100 26.14000
C  26.99300 -0.82800 24.84400
C  28.44000 -1.05000 25.43200
C  28.24100 -1.01300 26.89000
C  26.51800 -1.95100 23.89100
C  29.57700 -0.05200 24.91100
C  29.47600 0.59000 23.54500
N  28.01700 -1.01400 29.83300
C  29.20900 -1.34400 29.10800
C  30.23200 -1.45500 30.03200
C  29.66800 -1.10300 31.30200
C  28.36800 -0.90500 31.13100
C  31.60000 -1.81600 29.72400
C  30.01400 -0.84700 32.69600
O  31.06400 -0.71000 33.23300
C  28.65600 -0.42200 33.41900
C  28.44400 -1.34600 34.61300
O  28.23800 -2.51400 34.51900
O  28.75500 -0.62800 35.70600
C  28.66300 -1.32600 37.03000
H  22.12300 -0.09800 31.24700
H  24.30700 -0.32300 25.11100
H  30.30200 -1.51200 27.27500
H  25.67400 -0.89200 34.42700
H  23.61700 0.86200 33.50900
H  22.03900 -0.79300 34.32900
H  23.55800 -1.43300 34.81300
H  22.79800 -2.07700 33.39400
H  25.54300 2.05100 33.52800
H  26.98300 1.49000 34.34800
H  24.77700 0.74700 35.92900
H  24.68600 2.43800 35.40200
H  19.91200 0.68700 28.81000
H  20.20800 -0.18900 30.18200
H  19.87900 -1.12000 28.83800
H  19.58700 0.77600 25.21800
H  20.04100 1.28400 26.86400
H  19.34900 -0.40800 26.51500
H  26.80600 0.14600 24.39200
H  28.71600 -2.07400 25.17800
H  26.22700 -2.81500 24.49000
H  27.22600 -2.26900 23.12600
H  25.73600 -1.58200 23.22700
H  30.50600 -0.61100 25.02200
H  29.54800 0.79700 25.59400
H  30.41900 0.46900 23.01100
H  29.43100 1.67400 23.65200
H  28.69900 0.21200 22.88000
H  32.26600 -0.99700 29.99600
H  31.70900 -1.98500 28.65200
H  31.93400 -2.71900 30.23400
H  28.76900 0.55000 33.89800
H  27.86500 -0.72600 37.46800
H  29.57000 -1.47800 37.61400
H  28.26400 -2.33200 36.90600
Mg 44.23400 4.53600 48.70800
C  41.96800 7.05300 47.82200
C  41.48300 2.24500 48.23400
C  46.35100 2.01600 48.76800
C  46.81800 6.83700 48.41500
N  41.92500 4.63400 48.00600
C  41.31400 5.80100 47.81500
C  39.84100 5.56700 47.40800
C  39.64200 4.07900 47.92400
C  41.12200 3.58900 48.12200
C  38.81800 3.89500 49.27000
C  39.65900 5.69200 45.87400
C  38.52500 6.58700 45.36300
H  37.80200 6.14900 44.14700
N  43.98800 2.41400 48.60100
C  42.78200 1.69600 48.44700
C  43.08600 0.26500 48.43900
C  44.52200 0.19000 48.63600
C  45.02600 1.55600 48.67400
C  41.93400 -0.71300 48.30400
C  45.22200 -1.11400 48.73400
O  44.69400 -2.22800 48.57200
C  46.67600 -1.09200 49.27200
N  46.29800 4.49800 48.59900
C  46.94900 3.25300 48.79900
C  48.43700 3.46300 49.07800
C  48.60900 5.01500 49.17000
C  47.21800 5.50200 48.70400
C  48.98400 2.76800 50.32400
C  49.82700 5.58100 48.41500
C  50.61000 6.68800 49.16600
N  44.40000 6.56400 48.27400
C  45.53000 7.41700 48.13800
C  45.20400 8.76200 47.88200
C  43.77800 8.69300 47.81500
C  43.39700 7.30800 47.93100
C  46.24000 9.88500 47.74600
C  42.53500 9.49800 47.68300
O  42.37800 10.71000 47.59800
C  41.38500 8.38300 47.55800
C  40.35100 8.70400 48.64000
O  40.34100 8.21500 49.77200
O  39.47600 9.63100 48.14800
C  38.58200 10.06500 49.17100
H  40.56700 1.65100 48.23800
H  47.07200 1.19700 48.79900
H  47.45400 7.72300 48.46300
H  39.12100 6.23300 47.88200
H  39.06600 3.43600 47.25800
H  39.48900 3.60300 50.07800
H  38.05400 3.12400 49.16400
H  38.31800 4.83300 49.51300
H  39.45200 4.70100 45.47000
H  40.56600 6.01800 45.36600
H  39.02700 7.54500 45.23100
H  37.67900 6.74800 46.03100
H  41.40200 -0.82900 49.24800
H  42.28500 -1.64700 47.86500
H  41.16100 -0.31100 47.64900
H  47.45100 -0.74200 48.59100
H  46.95600 -2.04700 49.71700
H  46.63500 -0.37700 50.09400
H  48.94900 3.18500 48.15600
H  48.71600 5.32000 50.21100
H  48.12500 2.26100 50.76300
H  49.48400 3.44500 51.01700
H  49.68100 2.00100 49.98600
H  49.36800 6.10800 47.57800
H  50.49000 4.82100 48.00000
H  49.99900 6.93000 50.03600
H  50.56200 7.59800 48.56900
H  51.64400 6.45500 49.41900
H  45.64400 10.79700 47.74500
H  46.74600 9.75300 46.79000
H  46.98800 9.87000 48.53900
H  40.95200 8.43500 46.55900
H  38.84600 9.83300 50.20300
H  37.54200 9.79400 48.98600
H  38.69500 11.13900 49.03000

