158

Mg 52.51500 24.03800 44.68500
C  50.18100 26.39000 44.05000
C  50.46100 21.64700 43.13000
C  55.16200 21.80700 44.72200
C  54.69400 26.45400 45.90300
N  50.64800 24.13000 43.51800
C  49.82100 25.19300 43.42700
C  48.51900 24.94100 42.61100
C  48.52800 23.35500 42.80000
C  50.00100 22.99300 43.15900
C  47.49200 22.89300 43.89200
C  48.64400 25.22700 41.02600
C  50.06100 25.26300 40.40800
H  50.23400 25.94000 39.07900
N  52.64900 21.90200 44.22300
C  51.73600 21.12600 43.54100
C  52.30600 19.79100 43.54200
C  53.63400 19.84300 44.04600
C  53.87900 21.24000 44.34200
C  51.47800 18.56500 43.07500
C  54.51600 18.61400 44.26500
O  54.16600 17.51000 43.86000
C  55.69100 18.69700 45.12100
N  54.67500 24.12400 45.08000
C  55.54200 23.10600 45.08400
C  56.92400 23.38600 45.48500
C  56.76700 24.88200 45.91600
C  55.25500 25.17500 45.63500
C  57.52600 22.39200 46.50300
C  57.72500 25.86400 45.11800
C  57.21800 26.40000 43.71200
N  52.54000 26.00300 44.93100
C  53.45600 26.88200 45.55100
C  52.81500 28.12200 45.72500
C  51.55100 27.96100 45.17600
C  51.44400 26.66600 44.69100
C  53.48500 29.40500 46.35400
C  50.26600 28.64300 44.93500
O  49.86600 29.79700 45.21600
C  49.39800 27.62200 44.21600
C  48.70600 28.11300 42.94600
O  49.30000 28.53200 41.97200
O  47.38100 27.99000 43.12600
C  46.55200 28.49800 42.05000
H  49.79200 20.87100 42.75400
H  55.94700 21.05100 44.65300
H  55.47400 27.14000 46.23800
H  47.60500 25.38600 43.00400
H  48.17600 22.90900 41.87000
H  46.71900 22.20400 43.55000
H  47.06200 23.78600 44.34500
H  48.07600 22.38000 44.65600
H  48.05300 26.12400 40.83900
H  48.11700 24.44900 40.47300
H  50.38300 24.22600 40.30800
H  50.75500 25.79000 41.06200
H  50.55700 18.92400 42.61500
H  51.19600 17.93700 43.92000
H  52.04500 17.87900 42.44600
H  55.67500 19.46000 45.90000
H  56.56800 18.87000 44.49800
H  55.81100 17.74000 45.62700
H  57.41700 23.26600 44.52000
H  56.86600 25.08800 46.98200
H  56.92000 21.52400 46.76400
H  57.73300 22.88100 47.45400
H  58.39800 21.98600 45.98900
H  58.68500 25.37100 44.96900
H  57.85300 26.69900 45.80800
H  57.94700 26.02700 42.99200
H  57.21100 27.48500 43.60600
H  56.25100 26.03300 43.36800
H  52.77700 30.08300 46.83200
H  54.16200 29.97500 45.71800
H  54.10900 29.09900 47.19400
H  48.59100 27.42200 44.92100
H  46.11900 27.68300 41.46900
H  47.07900 29.26000 41.47600
H  45.73200 29.09900 42.44400
Mg -2.82700 35.45600 26.55300
C  -4.53600 33.37100 28.82700
C  -1.41900 37.12900 29.10000
C  -1.44400 37.42100 24.26700
C  -4.70900 33.75800 23.98900
N  -3.11400 35.36700 28.60200
C  -3.70500 34.30600 29.39500
C  -3.43100 34.49400 30.86300
C  -2.55900 35.81900 30.92700
C  -2.34800 36.13400 29.40400
C  -3.15400 37.07500 31.72800
C  -2.68200 33.29200 31.50600
C  -3.47600 32.61500 32.69000
H  -2.69900 32.64700 33.97000
N  -1.43600 36.89300 26.69000
C  -0.89800 37.44400 27.84600
C  0.12500 38.45400 27.46100
C  0.10000 38.55400 26.02200
C  -0.96500 37.54500 25.58400
C  1.00000 39.11100 28.46700
C  0.96100 39.41900 25.07800
O  0.93000 39.43200 23.82300
C  1.98000 40.25700 25.76100
N  -3.24400 35.73900 24.53000
C  -2.46900 36.57800 23.77600
C  -2.87400 36.49600 22.28600
C  -3.75600 35.22700 22.19400
C  -4.02200 34.93800 23.66200
C  -3.50000 37.78300 21.71100
C  -3.01300 34.04600 21.34000
C  -1.86400 33.35600 22.12600
N  -4.44800 34.00700 26.36400
C  -5.05500 33.36600 25.27500
C  -5.94900 32.32200 25.76300
C  -5.76300 32.21500 27.10800
C  -4.89000 33.28100 27.41400
C  -6.85600 31.41900 24.90400
C  -6.19400 31.58600 28.30700
O  -6.98300 30.69300 28.49600
C  -5.35300 32.28800 29.43700
C  -6.42900 32.87600 30.34600
O  -7.24300 33.69100 30.02900
O  -6.42200 32.29500 31.59400
C  -7.42200 32.83100 32.55900
H  -0.97900 37.66000 29.94700
H  -0.90100 38.04000 23.55000
H  -5.25700 33.28400 23.17200
H  -4.40400 34.62400 31.33500
H  -1.56700 35.69700 31.36200
H  -2.87900 36.85100 32.75900
H  -4.21600 37.22600 31.53500
H  -2.56400 37.94800 31.44600
H  -1.71100 33.68100 31.80900
H  -2.62800 32.55500 30.70400
H  -3.66300 31.55200 32.53500
H  -4.43600 33.02800 33.00200
H  0.88200 38.74100 29.48500
H  0.84500 40.18900 28.51400
H  2.02100 38.87500 28.16600
H  2.48000 40.88000 25.01900
H  2.78800 39.72300 26.26000
H  1.41200 40.87200 26.46000
H  -1.89600 36.38000 21.81900
H  -4.66500 35.44800 21.63400
H  -4.54900 37.63900 21.45200
H  -3.00500 38.08700 20.78800
H  -3.37000 38.53400 22.49000
H  -2.60100 34.30500 20.36500
H  -3.78100 33.29600 21.15300
H  -2.20400 32.41600 22.56200
H  -1.60100 34.10000 22.87800
H  -0.97900 33.27600 21.49600
H  -7.20900 30.53300 25.43200
H  -6.19900 31.16300 24.07300
H  -7.65600 31.95000 24.38800
H  -4.77400 31.55500 29.99900
H  -7.92400 31.99500 33.04600
H  -8.23000 33.41400 32.11700
H  -6.96100 33.55200 33.23500

