158

Mg -1.67000 34.45700 26.88600
C  -3.18100 32.72300 29.53000
C  -0.18200 36.48500 28.85500
C  -1.29600 36.60700 24.22100
C  -4.03200 32.60200 24.62000
N  -1.97800 34.77900 28.91900
C  -2.34700 33.83200 29.87700
C  -1.84800 34.13600 31.25300
C  -0.96200 35.37000 30.96100
C  -1.05200 35.60100 29.45800
C  -1.19800 36.59300 31.87000
C  -1.20400 32.94200 32.07600
C  -1.51400 32.99100 33.62700
H  -0.43300 32.69800 34.65500
N  -0.65300 36.20700 26.49800
C  0.00700 36.84800 27.50200
C  0.68900 37.95300 26.95100
C  0.37600 37.97200 25.53500
C  -0.54100 36.92300 25.35300
C  1.43800 39.04200 27.73100
C  0.90200 38.89600 24.46800
O  0.44600 38.90100 23.36100
C  1.87800 39.89000 24.76600
N  -2.58300 34.58600 24.75800
C  -2.31900 35.61700 23.97200
C  -3.02000 35.59800 22.52400
C  -3.81100 34.23500 22.61200
C  -3.43200 33.75600 24.05800
C  -4.01600 36.79200 22.41000
C  -3.27900 33.21200 21.49000
C  -1.68900 32.97300 21.42900
N  -3.13800 32.94100 26.97500
C  -3.93800 32.28200 26.03300
C  -4.72300 31.25000 26.66100
C  -4.39300 31.35100 28.05500
C  -3.54000 32.44600 28.16700
C  -5.64900 30.27300 25.99900
C  -4.73000 30.80800 29.38900
O  -5.48200 29.92400 29.74100
C  -3.86500 31.64700 30.42100
C  -4.73100 32.28300 31.37400
O  -5.60700 33.06900 31.06300
O  -4.55600 31.82300 32.63800
C  -5.45700 32.42600 33.62500
H  0.38500 37.05800 29.59100
H  -1.17900 37.21200 23.31900
H  -4.66300 32.03000 23.93700
H  -2.71400 34.49800 31.80700
H  0.01500 34.92400 31.15100
H  -1.99100 36.37500 32.58500
H  -1.48200 37.42500 31.22500
H  -0.28500 36.76800 32.43800
H  -0.11500 32.96400 32.11500
H  -1.47900 31.95300 31.70700
H  -2.25000 32.20400 33.78900
H  -1.83700 34.01000 33.83700
H  1.68100 38.73900 28.75000
H  0.93700 40.00600 27.64100
H  2.42600 39.12000 27.27800
H  2.37500 40.16700 23.83600
H  2.69800 39.42700 25.31400
H  1.47500 40.75900 25.28600
H  -2.31000 35.66300 21.70000
H  -4.89600 34.31700 22.67900
H  -5.04500 36.51900 22.17800
H  -3.60100 37.34800 21.56900
H  -3.98300 37.44700 23.28100
H  -3.75100 33.42400 20.53000
H  -3.59800 32.18600 21.67600
H  -1.46500 33.16900 20.38100
H  -1.22400 32.02700 21.70400
H  -1.18200 33.75300 21.99800
H  -5.46600 29.27700 26.40200
H  -5.61500 30.24200 24.91000
H  -6.64000 30.58100 26.33300
H  -3.29700 30.89900 30.97400
H  -5.96200 33.34400 33.32800
H  -4.75100 32.71600 34.40400
H  -6.15400 31.78600 34.16700
Mg -8.79100 18.39800 42.90500
C  -5.40400 17.59800 42.62000
C  -8.11400 21.62300 42.07700
C  -12.13100 18.88700 42.66200
C  -9.40900 14.94200 43.10100
N  -6.98300 19.43200 42.60700
C  -5.70700 18.97500 42.49800
C  -4.68100 20.09200 42.25900
C  -5.60500 21.38400 42.48600
C  -7.02600 20.80600 42.42300
C  -5.29600 22.23800 43.77500
C  -4.03300 20.07900 40.84300
C  -5.05000 20.13400 39.60500
H  -4.80300 19.07500 38.54200
N  -10.02600 20.06300 42.44400
C  -9.52800 21.32500 42.09900
C  -10.68800 22.15600 41.93200
C  -11.86700 21.36400 42.01600
C  -11.38200 20.01500 42.37800
C  -10.45700 23.61400 41.53100
C  -13.28900 21.83500 41.65800
O  -13.54000 22.97500 41.30700
C  -14.40100 20.86300 41.49200
N  -10.53900 17.06400 42.71000
C  -11.81900 17.54300 42.82300
C  -12.85500 16.39300 42.83600
C  -12.00800 15.13400 42.74600
C  -10.56100 15.75600 42.85000
C  -14.00200 16.54500 43.92500
C  -12.29200 14.18500 41.57500
C  -13.26600 13.07500 41.99300
N  -7.66400 16.55900 42.93300
C  -8.04600 15.21200 42.99000
C  -6.83300 14.37600 43.12400
C  -5.80100 15.29600 42.95700
C  -6.34500 16.59300 42.83600
C  -6.76600 12.91700 43.37400
C  -4.36300 15.41600 43.07800
O  -3.53700 14.49700 43.28300
C  -4.02500 16.91900 42.87900
C  -3.36500 17.34900 44.10600
O  -2.55400 18.25400 44.21300
O  -3.96400 16.72100 45.20600
C  -3.40500 17.09900 46.50500
H  -8.01100 22.69100 41.87600
H  -13.20800 18.93500 42.83400
H  -9.73900 13.91900 43.29500
H  -3.99600 20.12900 43.10500
H  -5.44200 22.03400 41.62700
H  -4.53000 21.76700 44.39000
H  -6.16100 22.34700 44.42900
H  -4.99100 23.23800 43.46900
H  -3.42800 19.17800 40.73900
H  -3.30700 20.89200 40.84600
H  -4.98700 21.07900 39.06600
H  -6.06000 20.01600 39.99600
H  -9.74300 23.67900 40.71100
H  -9.98000 24.16600 42.34000
H  -11.38000 24.17300 41.37800
H  -14.88100 20.41300 42.36200
H  -14.04000 20.06600 40.84300
H  -15.25100 21.36400 41.02800
H  -13.31900 16.63300 41.87900
H  -12.00100 14.58200 43.68600
H  -14.16800 15.54300 44.32000
H  -14.98300 16.75900 43.50200
H  -13.76400 17.17600 44.78100
H  -11.41900 13.59800 41.29200
H  -12.58100 14.71200 40.66600
H  -12.98300 12.09100 41.62000
H  -14.25200 13.30600 41.58800
H  -13.09400 12.92300 43.05900
H  -5.86300 12.36000 43.12400
H  -7.51800 12.38600 42.79100
H  -6.96200 12.63600 44.40900
H  -3.32800 17.07800 42.05700
H  -3.78400 16.41800 47.26700
H  -3.70000 18.06400 46.91900
H  -2.31900 17.01300 46.50600

