158

Mg -0.38900 6.55000 26.14800
C  0.54500 8.85600 28.62600
C  0.21300 3.95800 28.28500
C  -0.79700 4.52900 23.59900
C  0.01900 9.31500 23.92600
N  0.39000 6.33000 28.21800
C  0.42600 7.48800 29.08400
C  0.40600 6.97200 30.58900
C  0.49900 5.39600 30.41600
C  0.30400 5.18000 28.89900
C  1.73700 4.70800 31.05400
C  -0.80000 7.49200 31.40000
C  -0.51400 8.34000 32.60600
H  0.63400 7.86300 33.49600
N  -0.36200 4.53800 25.93400
C  0.00900 3.61200 26.89500
C  -0.14500 2.31600 26.38700
C  -0.56000 2.44700 25.03200
C  -0.63100 3.85500 24.80400
C  0.04500 1.14300 27.23900
C  -0.93300 1.40200 24.04200
O  -1.54000 1.71600 23.02400
C  -0.68600 -0.05300 24.34000
N  -0.48000 6.93700 24.10500
C  -0.67300 5.90600 23.26900
C  -0.43200 6.34000 21.84900
C  -0.51100 7.86200 21.91700
C  -0.31600 8.09900 23.41600
C  0.97600 5.90700 21.33200
C  -1.74200 8.59700 21.28700
C  -2.82200 9.15200 22.25900
N  0.18600 8.68200 26.16100
C  0.25800 9.65700 25.20600
C  0.79600 10.85900 25.75600
C  0.84200 10.65500 27.09400
C  0.48500 9.29200 27.25300
C  1.20000 12.04300 25.03900
C  1.22900 11.26600 28.39700
O  1.63400 12.39500 28.71100
C  0.89900 10.14400 29.40700
C  2.11700 9.99200 30.24100
O  3.03600 9.23200 29.97000
O  1.97100 10.81200 31.36000
C  3.12500 10.98300 32.20600
H  0.30300 3.16400 29.02900
H  -0.90200 3.84600 22.75400
H  0.32800 10.12000 23.25600
H  1.27800 7.31300 31.14700
H  -0.40500 4.97400 30.85500
H  2.08800 5.40700 31.81300
H  2.49000 4.50500 30.29200
H  1.38200 3.73100 31.38100
H  -1.57000 6.77100 31.67300
H  -1.23200 8.17800 30.67200
H  -1.35700 8.36600 33.29600
H  -0.41900 9.39400 32.34500
H  -0.87300 0.81000 27.72300
H  0.64500 1.26300 28.14100
H  0.57700 0.37400 26.68000
H  -1.00800 -0.33200 25.34400
H  0.33200 -0.42400 24.22500
H  -1.26100 -0.68400 23.66300
H  -1.28500 6.09100 21.21800
H  0.38200 8.29100 21.46200
H  1.25400 4.93200 21.73000
H  1.78100 6.63200 21.45300
H  0.95200 5.75800 20.25200
H  -2.28600 7.93600 20.61300
H  -1.28600 9.44300 20.77200
H  -2.81100 10.23800 22.17100
H  -2.64800 9.08800 23.33300
H  -3.73300 8.70800 21.85700
H  0.45300 12.40500 24.33300
H  2.09500 12.01100 24.41700
H  1.13100 12.88000 25.73400
H  0.06700 10.46100 30.03600
H  3.95300 11.22000 31.53700
H  3.38700 10.03800 32.68300
H  2.99000 11.66200 33.04800
Mg -11.67200 15.64400 42.11500
C  -8.79500 13.78100 41.68700
C  -10.35500 18.19700 40.51800
C  -14.79100 17.11100 41.95400
C  -13.29900 12.61100 43.26400
N  -9.69500 15.87800 41.10400
C  -8.70500 15.09200 41.18000
C  -7.47600 15.80100 40.48000
C  -7.96300 17.29100 40.35600
C  -9.46100 17.12600 40.66000
C  -7.24800 18.33700 41.28600
C  -6.97400 15.15100 39.15100
C  -5.46400 14.96500 38.91600
H  -4.97500 15.62200 37.65500
N  -12.42200 17.46200 41.44700
C  -11.70600 18.34800 40.70800
C  -12.51900 19.44600 40.29600
C  -13.82600 19.19600 40.74900
C  -13.74600 17.88600 41.45900
C  -11.96700 20.63600 39.54700
C  -14.98300 20.12800 40.57400
O  -14.86800 21.18500 39.91500
C  -16.30400 19.88700 41.19700
N  -13.76700 15.02400 42.58800
C  -14.80900 15.79600 42.35100
C  -16.17800 15.07500 42.65600
C  -15.67500 13.66400 43.13200
C  -14.18200 13.69400 42.97800
C  -17.21700 15.66700 43.61500
C  -16.31900 12.47600 42.27900
C  -16.41700 11.10000 42.93400
N  -11.18300 13.54900 42.53400
C  -11.90900 12.48500 42.96200
C  -10.93400 11.39600 43.16600
C  -9.71700 11.80000 42.61700
C  -9.91500 13.15000 42.27400
C  -11.22600 10.02300 43.69000
C  -8.34100 11.45200 42.25800
O  -7.72300 10.40600 42.32700
C  -7.64700 12.70500 41.72900
C  -6.62300 13.10100 42.72100
O  -6.71500 13.42900 43.90000
O  -5.41600 12.86500 42.11700
C  -4.23300 13.43200 42.73900
H  -9.83500 19.03300 40.04500
H  -15.83500 17.33400 41.72600
H  -13.79200 11.69100 43.58500
H  -6.72500 15.69200 41.26200
H  -7.85900 17.68200 39.34400
H  -6.18700 18.08900 41.25900
H  -7.64700 18.24500 42.29600
H  -7.41600 19.34500 40.90700
H  -7.45500 15.57600 38.27000
H  -7.49200 14.19200 39.14000
H  -5.27500 13.89200 38.90000
H  -4.92900 15.38300 39.76900
H  -12.56600 20.83900 38.65900
H  -11.03000 20.31900 39.09000
H  -11.72500 21.51500 40.14400
H  -17.00600 20.70200 41.02400
H  -16.07500 19.74600 42.25300
H  -16.75700 18.99700 40.76000
H  -16.59000 14.97500 41.65200
H  -15.92200 13.47600 44.17700
H  -17.57000 15.00900 44.40900
H  -18.07900 15.94800 43.00900
H  -16.80200 16.57500 44.05100
H  -15.75900 12.29700 41.36100
H  -17.37300 12.66700 42.07700
H  -17.23100 10.57400 42.43600
H  -16.60500 11.29400 43.99000
H  -15.51200 10.52300 42.74400
H  -11.89500 10.01100 44.55000
H  -10.37100 9.49200 44.10900
H  -11.73200 9.47700 42.89400
H  -7.17200 12.51500 40.76700
H  -3.46300 13.43700 41.96800
H  -3.86500 12.81200 43.55700
H  -4.41700 14.43300 43.13000

