158

Mg 25.62500 0.61900 29.01200
C  27.72800 0.31500 31.98600
C  22.94900 1.00800 31.06600
C  23.84600 0.88300 26.26000
C  28.47500 -0.23300 27.11800
N  25.41000 0.60500 31.24400
C  26.38700 0.60400 32.27100
C  25.62200 0.89600 33.65800
C  24.09400 1.12600 33.30700
C  24.17500 0.85600 31.80200
C  23.05200 0.23300 34.03000
C  26.21900 2.14400 34.37100
C  25.57400 2.47100 35.80100
H  26.68400 2.50200 36.95200
N  23.67000 0.88900 28.70100
C  22.70800 0.95100 29.63900
C  21.45500 1.17900 28.98000
C  21.69300 1.18000 27.62500
C  23.13700 0.93500 27.44700
C  20.16000 1.28400 29.79300
C  20.71000 1.59800 26.43200
O  21.06100 1.58900 25.27100
C  19.22900 1.94300 26.65200
N  26.10000 0.41300 27.03800
C  25.21300 0.64600 26.03000
C  25.76500 0.64000 24.63600
C  27.22200 0.23000 24.90400
C  27.28400 0.08000 26.43500
C  24.97600 -0.18200 23.59800
C  28.25900 1.19800 24.26300
C  28.96700 0.81300 22.92800
N  27.64700 0.10600 29.39800
C  28.62900 -0.21700 28.50300
C  29.78900 -0.72100 29.25800
C  29.51000 -0.40900 30.60100
C  28.19200 0.09300 30.64100
C  30.99200 -1.35200 28.69200
C  30.06900 -0.40000 31.93700
O  31.17300 -0.78700 32.29200
C  28.92700 0.00200 32.87800
C  28.63900 -1.02300 33.88300
O  27.85400 -1.97300 33.68000
O  29.49800 -0.88700 34.96300
C  29.33700 -2.01200 35.98100
H  22.13600 1.26900 31.74700
H  23.36400 1.24800 25.35000
H  29.15200 -0.66400 26.37700
H  25.77800 0.01100 34.27300
H  23.70300 2.13400 33.45100
H  22.22700 0.90500 34.27000
H  23.42100 -0.07500 35.00800
H  22.78900 -0.61300 33.39600
H  26.13700 3.04200 33.75800
H  27.28700 2.02500 34.55400
H  24.84200 1.69500 36.02500
H  25.11800 3.45900 35.73800
H  19.81900 2.28500 29.52800
H  20.29400 1.18200 30.87000
H  19.40100 0.59900 29.41600
H  18.76500 2.48300 25.82700
H  19.09400 2.62200 27.49300
H  18.73500 0.98300 26.80300
H  25.71400 1.70600 24.41300
H  27.38700 -0.74500 24.44700
H  24.81100 0.51300 22.77500
H  24.04800 -0.61400 23.97300
H  25.59600 -1.02900 23.30500
H  29.12000 1.28600 24.92500
H  27.81900 2.19400 24.21300
H  28.64300 -0.12900 22.48600
H  30.05300 0.86400 23.00800
H  28.64000 1.63700 22.29400
H  31.19300 -0.87100 27.73500
H  30.60200 -2.35000 28.49000
H  31.83000 -1.23300 29.37800
H  29.27500 0.90000 33.38800
H  29.05400 -1.56400 36.93300
H  30.24600 -2.61200 36.02500
H  28.64600 -2.83800 35.81400
Mg -11.87800 16.69600 41.14700
C  -8.73500 15.07300 40.78700
C  -10.31900 19.61900 40.05900
C  -14.76700 17.82600 40.18000
C  -13.24700 13.49200 41.75400
N  -9.74600 17.25000 40.61400
C  -8.66600 16.45400 40.52800
C  -7.39700 17.35000 40.30700
C  -7.85700 18.85100 40.52000
C  -9.44900 18.56300 40.41400
C  -7.45800 19.56700 41.85500
C  -6.97600 17.13900 38.81100
C  -5.51600 16.59800 38.69100
H  -4.64700 17.09100 37.52300
N  -12.42600 18.62700 40.44500
C  -11.70300 19.65600 39.95700
C  -12.49400 20.72100 39.51000
C  -13.79100 20.13200 39.33200
C  -13.69100 18.78300 39.98000
C  -12.10100 22.15100 39.02300
C  -15.00900 20.69900 38.60200
O  -14.98100 21.89300 38.26000
C  -16.33200 19.94600 38.23900
N  -13.81900 15.76500 41.09900
C  -14.83000 16.51700 40.72300
C  -16.09600 15.60500 40.87100
C  -15.63500 14.17000 41.31800
C  -14.14200 14.43700 41.44300
C  -17.15900 16.35800 41.74200
C  -15.96500 12.98200 40.39900
C  -16.51800 11.69500 41.08600
N  -11.19800 14.70400 41.33900
C  -11.85900 13.56300 41.65200
C  -10.97900 12.43200 41.72900
C  -9.73700 13.02300 41.36600
C  -9.90600 14.38800 41.11800
C  -11.29400 11.00700 42.22800
C  -8.29200 12.68800 41.07700
O  -7.68800 11.59800 41.13300
C  -7.62300 14.05700 40.66800
C  -6.72500 14.31300 41.84000
O  -7.00000 14.32500 43.05500
O  -5.48200 14.44900 41.30800
C  -4.49500 15.16500 42.04800
H  -9.90000 20.58000 39.75300
H  -15.73900 18.28100 39.97800
H  -13.63500 12.47200 41.72200
H  -6.64800 17.19100 41.08300
H  -7.51900 19.44700 39.67200
H  -6.91000 18.84000 42.45400
H  -8.33700 19.86400 42.42700
H  -6.80800 20.42400 41.68000
H  -7.04000 18.04300 38.20600
H  -7.53200 16.39700 38.23900
H  -5.57400 15.51300 38.60400
H  -5.06100 16.89800 39.63500
H  -12.45200 22.22000 37.99300
H  -11.01200 22.15600 39.00200
H  -12.41400 22.89400 39.75700
H  -16.88600 20.56200 37.53100
H  -16.96100 19.74500 39.10600
H  -16.13100 19.01100 37.71500
H  -16.63800 15.46200 39.93600
H  -15.94900 13.85800 42.31400
H  -16.79000 17.29400 42.16200
H  -17.54200 15.65000 42.47700
H  -17.99900 16.54100 41.07300
H  -15.03400 12.68600 39.91600
H  -16.72200 13.17400 39.63800
H  -15.71500 10.97100 41.22300
H  -17.14800 11.13500 40.39500
H  -16.93400 11.85100 42.08200
H  -11.99000 10.56000 41.51800
H  -11.76200 11.05300 43.21100
H  -10.38300 10.41000 42.20200
H  -7.11600 14.01200 39.70500
H  -4.23300 16.03800 41.45100
H  -3.62600 14.50700 42.08000
H  -4.90800 15.40000 43.02900

