158

Mg 2.70100 -3.13000 45.13200
C  5.61000 -1.42200 44.55300
C  0.95700 -0.82700 43.12900
C  -0.12800 -5.12800 45.19700
C  4.45200 -5.71100 46.57800
N  3.24200 -1.34500 44.09300
C  4.49500 -0.88500 43.91700
C  4.58700 0.30400 42.85600
C  3.03200 0.65800 42.72100
C  2.34800 -0.61100 43.30400
C  2.57400 1.91900 43.53900
C  5.22500 -0.23100 41.55200
C  6.10100 0.85700 40.91500
H  5.49700 1.55600 39.63600
N  0.71600 -2.93500 44.27500
C  0.18200 -1.87600 43.58900
C  -1.22200 -2.10400 43.31600
C  -1.55200 -3.30000 43.96600
C  -0.26400 -3.85700 44.47900
C  -2.11100 -1.10700 42.52300
C  -3.01700 -3.75900 44.21000
O  -3.96900 -3.18100 43.70900
C  -3.39400 -5.00200 44.99600
N  2.25200 -5.30900 45.51800
C  0.99900 -5.77100 45.66700
C  0.90500 -7.10400 46.49000
C  2.44800 -7.40600 46.67100
C  3.10600 -6.09600 46.17600
C  -0.04300 -7.13300 47.74700
C  3.01600 -8.60900 45.90200
C  4.15600 -9.43100 46.54000
N  4.60500 -3.56900 45.52400
C  5.23200 -4.61500 46.15400
C  6.67000 -4.29600 46.41500
C  6.84100 -3.04900 45.76700
C  5.57300 -2.61500 45.27900
C  7.72300 -5.17300 47.02300
C  7.78500 -2.08600 45.41800
O  8.97500 -2.05700 45.63900
C  7.06200 -1.04400 44.48300
C  7.24300 0.18600 45.13500
O  6.62600 0.63000 46.10100
O  8.19900 0.77800 44.31700
C  8.58300 2.12900 44.59000
H  0.69600 -0.06600 42.39100
H  -1.01300 -5.74400 45.37100
H  4.97600 -6.53100 47.07300
H  5.03100 1.20600 43.27600
H  2.62900 0.93000 41.74500
H  2.14500 1.65900 44.50700
H  1.81300 2.35600 42.89200
H  3.40000 2.60800 43.71300
H  4.44800 -0.37000 40.80100
H  5.76400 -1.13000 41.85300
H  7.07500 0.40500 40.72500
H  6.25500 1.66200 41.63400
H  -1.59400 -0.30000 42.00300
H  -2.81200 -0.65800 43.22700
H  -2.65900 -1.66300 41.76300
H  -2.89900 -5.90100 44.62700
H  -4.44700 -5.27100 44.91200
H  -3.07000 -4.83400 46.02300
H  0.45200 -7.82200 45.80600
H  2.61700 -7.43300 47.74800
H  -0.92700 -7.73600 47.54100
H  -0.33900 -6.14800 48.11000
H  0.49200 -7.65300 48.54100
H  3.32800 -8.33600 44.89400
H  2.21100 -9.33600 45.80200
H  4.51200 -9.07300 47.50600
H  5.06200 -9.51700 45.93900
H  3.72600 -10.40700 46.76300
H  8.35900 -4.73200 47.79100
H  8.40100 -5.55200 46.25800
H  7.21600 -6.07100 47.37600
H  7.47600 -1.00200 43.47500
H  7.77900 2.86200 44.65300
H  9.37300 2.48800 43.93000
H  9.03700 2.21000 45.57700
Mg 6.46000 53.96900 40.73500
C  5.42000 50.55600 40.45800
C  9.58100 53.02200 39.75100
C  7.01100 57.18900 40.27000
C  3.03600 54.66000 41.77900
N  7.20200 52.10300 39.85900
C  6.67500 50.82100 39.85400
C  7.64900 49.80400 39.15000
C  9.00100 50.52600 39.47600
C  8.60300 52.01200 39.66500
C  9.70800 49.90500 40.75600
C  7.22900 49.66800 37.65400
C  7.59500 48.26800 36.93500
H  6.73200 47.84900 35.80200
N  8.15900 54.96700 40.12100
C  9.33300 54.39200 39.81100
C  10.23800 55.43200 39.55000
C  9.60400 56.69000 39.71300
C  8.14400 56.34300 40.01800
C  11.72700 55.20500 39.15600
C  10.22400 58.01200 39.51100
O  11.42600 58.13000 39.20600
C  9.43100 59.30000 39.50800
N  5.17800 55.60800 40.81900
C  5.68100 56.89200 40.65300
C  4.52900 57.94000 40.92700
C  3.38800 57.08700 41.57500
C  3.96000 55.68800 41.47200
C  4.94100 59.18600 41.79300
C  1.95500 57.15100 40.90500
C  1.40900 58.60300 40.59500
N  4.60400 52.86300 41.17500
C  3.41400 53.27900 41.68400
C  2.51800 52.14300 41.98700
C  3.31500 51.06300 41.56200
C  4.51000 51.53600 41.05300
C  1.17400 52.11600 42.55700
C  3.41600 49.60600 41.36600
O  2.61500 48.70100 41.65300
C  4.85200 49.19800 40.77100
C  4.69900 48.29000 39.57300
O  4.21400 48.52600 38.49700
O  5.05100 47.01100 39.94900
C  5.02900 45.92600 38.97000
H  10.58300 52.66600 39.49800
H  7.13000 58.27400 40.30300
H  2.06300 54.95200 42.18000
H  7.57800 48.83200 39.63800
H  9.66500 50.31300 38.63800
H  9.13700 49.13600 41.27800
H  9.92300 50.71300 41.45600
H  10.61500 49.40600 40.41700
H  7.82200 50.45300 37.18500
H  6.21600 50.00500 37.43100
H  7.60200 47.52900 37.73700
H  8.61200 48.49100 36.61300
H  11.90100 54.13300 39.06500
H  12.40900 55.62400 39.89600
H  11.96200 55.63500 38.18300
H  10.04500 60.19200 39.37500
H  8.97800 59.20500 40.49400
H  8.81100 59.29100 38.61200
H  4.17100 58.25300 39.94600
H  3.18900 57.25500 42.63300
H  4.06200 59.64200 42.24800
H  5.40700 59.88300 41.09600
H  5.73300 58.96000 42.50700
H  1.28900 56.65100 41.60800
H  2.02900 56.63800 39.94600
H  2.05600 59.34400 41.06500
H  0.36500 58.72900 40.88000
H  1.44300 58.61100 39.50500
H  0.64000 53.06600 42.54600
H  1.16900 51.74300 43.58100
H  0.64500 51.31000 42.04700
H  5.47200 48.68100 41.50400
H  4.20800 45.99600 38.25600
H  5.06700 44.96000 39.47300
H  5.88000 46.09400 38.31100

