158

Mg 8.05700 3.23000 27.53800
C  9.54300 1.98300 30.32300
C  6.18000 5.39200 29.36800
C  6.57300 4.29900 24.63000
C  9.51700 0.58700 25.63900
N  7.92400 3.65200 29.61000
C  8.62600 3.01500 30.61000
C  8.26000 3.64100 32.01800
C  7.07500 4.55500 31.69700
C  7.02000 4.52300 30.11000
C  5.70700 4.32500 32.40400
C  9.51300 4.36300 32.65500
C  9.22400 5.31400 33.87800
H  10.04700 5.15900 35.08500
N  6.67000 4.72900 27.02800
C  5.95200 5.46000 27.93900
C  5.04700 6.37600 27.32300
C  5.09800 6.08500 25.93000
C  6.17500 5.05300 25.81700
C  4.12100 7.34000 28.05800
C  4.36200 6.72200 24.76900
O  4.72700 6.49800 23.61500
C  3.23700 7.66800 24.96400
N  8.15200 2.57300 25.37300
C  7.41100 3.15200 24.37300
C  7.70900 2.55900 23.07800
C  8.67300 1.38700 23.40200
C  8.77500 1.46300 24.90400
C  6.42700 2.15300 22.21900
C  10.04100 1.24300 22.54100
C  11.23400 1.85700 23.30700
N  9.20600 1.56300 27.86100
C  9.76000 0.63200 27.03700
C  10.68400 -0.26700 27.77900
C  10.73200 0.30800 29.07600
C  9.75000 1.39300 29.07600
C  11.55800 -1.41200 27.28100
C  11.40300 0.23100 30.37400
O  12.17900 -0.58600 30.79300
C  10.55100 1.29700 31.27200
C  9.88300 0.56700 32.42800
O  9.16600 -0.41700 32.30200
O  10.26200 1.10100 33.69600
C  9.91000 0.35500 34.88600
H  5.68500 6.07500 30.06200
H  6.06100 4.74200 23.77300
H  9.98100 -0.15100 24.98100
H  7.94600 2.75200 32.56500
H  7.32700 5.59200 31.91800
H  5.22800 5.25400 32.71300
H  5.83500 3.72000 33.30100
H  5.11600 3.84800 31.62200
H  9.88000 5.00500 31.85400
H  10.30800 3.65600 32.89300
H  8.19500 5.31500 34.23700
H  9.33400 6.36200 33.59800
H  4.30900 7.39800 29.13000
H  3.09200 6.98300 28.08800
H  4.20600 8.35200 27.66300
H  2.43800 7.24200 25.57100
H  2.79600 7.91600 23.99800
H  3.64800 8.55000 25.45600
H  8.31900 3.27600 22.52800
H  8.18300 0.41600 23.33200
H  5.58200 2.31300 22.88900
H  6.46700 1.06900 22.10800
H  6.40900 2.74500 21.30500
H  10.00000 1.83500 21.62600
H  10.19900 0.21100 22.22800
H  10.89300 2.51300 24.10700
H  12.01200 2.34800 22.72200
H  11.72700 1.05300 23.85300
H  12.29400 -0.96300 26.61400
H  11.02100 -2.12200 26.65200
H  12.07000 -1.91100 28.10400
H  11.25800 2.00800 31.69800
H  9.69700 -0.70500 34.75100
H  9.04400 0.86200 35.31400
H  10.76800 0.45600 35.55000
Mg 41.09000 9.06600 29.54800
C  42.64600 10.28100 32.45600
C  38.74300 7.57400 31.57500
C  39.44500 8.23000 26.85100
C  43.72900 10.22500 27.65800
N  40.79400 8.95300 31.81300
C  41.50600 9.53500 32.78400
C  40.87800 9.38500 34.16400
C  39.75500 8.23400 33.88700
C  39.71300 8.23400 32.36400
C  40.21400 6.85000 34.42400
C  40.23900 10.74100 34.59700
C  40.22100 11.07300 36.11600
H  41.25100 12.07600 36.67700
N  39.30600 8.20500 29.32900
C  38.51100 7.53000 30.17100
C  37.35800 6.94700 29.54600
C  37.50200 7.25700 28.18300
C  38.78300 7.97100 28.04200
C  36.17400 6.29300 30.28200
C  36.48400 6.98400 26.99600
O  36.68700 7.41100 25.83800
C  35.20200 6.16100 27.15700
N  41.51300 9.37100 27.48000
C  40.68100 8.88600 26.57400
C  41.26400 8.87000 25.13000
C  42.60500 9.64900 25.44100
C  42.61000 9.78300 26.93200
C  41.43300 7.35300 24.51500
C  42.84800 11.05100 24.74500
C  41.99800 12.41700 25.10100
N  42.88600 9.96000 29.94200
C  43.92900 10.35100 29.06400
C  45.00900 10.89800 29.91200
C  44.51000 10.96700 31.18300
C  43.23200 10.37100 31.16100
C  46.21100 11.46700 29.41900
C  44.79300 11.42800 32.47700
O  45.80800 11.99800 32.92800
C  43.64000 10.94300 33.36500
C  44.18600 10.14100 34.36200
O  44.64600 9.01400 34.12200
O  44.06400 10.74700 35.60800
C  44.98200 10.13400 36.55200
H  38.01900 6.95000 32.10200
H  38.90300 7.78800 26.01200
H  44.51400 10.62500 27.01300
H  41.54000 9.02600 34.95300
H  38.76200 8.39500 34.30600
H  39.49600 6.59700 35.20400
H  41.22300 6.79500 34.83100
H  40.19400 6.12400 33.61100
H  39.16400 10.64600 34.44000
H  40.63300 11.56100 33.99600
H  40.30600 10.11900 36.63500
H  39.27100 11.51800 36.41100
H  36.32200 6.23400 31.36000
H  36.04600 5.32000 29.80900
H  35.28500 6.91900 30.20000
H  35.55000 5.14800 27.35900
H  34.63400 6.07500 26.23100
H  34.74200 6.48300 28.09200
H  40.71600 9.55500 24.48200
H  43.48700 9.03000 25.27900
H  40.76000 6.68500 25.05200
H  42.38900 6.83200 24.56800
H  41.08200 7.44000 23.48700
H  42.74400 11.06800 23.66000
H  43.88700 11.22200 25.02700
H  41.38900 12.18300 25.97400
H  41.21500 12.61300 24.36900
H  42.59500 13.23700 25.50200
H  46.80200 10.91700 28.68700
H  46.92400 11.52700 30.24200
H  46.10100 12.48500 29.04500
H  43.05200 11.77900 33.74400
H  45.96700 9.81400 36.21300
H  44.46500 9.28800 37.00400
H  45.14300 10.82300 37.38100

