158

Mg 44.31100 4.73700 46.89600
C  42.28500 7.60800 46.37700
C  41.42500 2.76400 46.54700
C  46.39500 2.10200 46.53100
C  47.10200 6.95400 46.95800
N  42.10900 5.15000 46.43600
C  41.52300 6.39400 46.30900
C  39.95800 6.23000 46.17300
C  39.78700 4.69500 46.68700
C  41.22500 4.16700 46.48400
C  39.19300 4.52100 48.12600
C  39.44500 6.57200 44.77200
C  38.49800 7.75500 44.52200
H  38.94100 8.77000 43.47300
N  43.96600 2.73300 46.43500
C  42.71600 2.13400 46.42900
C  42.86200 0.69300 46.31900
C  44.25500 0.47100 46.21100
C  44.98800 1.77900 46.28000
C  41.66500 -0.24700 46.28200
C  44.89000 -0.95000 45.96700
O  44.30800 -2.03500 46.17900
C  46.31900 -1.02300 45.47500
N  46.40300 4.55500 46.72900
C  47.00700 3.32200 46.76600
C  48.47300 3.40400 47.02700
C  48.68800 4.97500 47.05400
C  47.23600 5.61700 46.90400
C  48.75700 2.73300 48.40800
C  49.70300 5.46300 45.90100
C  50.85700 6.36400 46.27200
N  44.67600 6.85900 46.84500
C  45.90300 7.59400 46.81000
C  45.62800 8.98000 46.77300
C  44.20800 9.06300 46.65400
C  43.68000 7.70300 46.57900
C  46.59000 10.07700 46.88900
C  43.11100 9.94100 46.51600
O  43.17000 11.16200 46.37800
C  41.85300 9.01900 46.33200
C  40.88600 9.39100 47.46100
O  41.03100 9.02900 48.63100
O  40.12400 10.50900 47.17000
C  39.40700 11.17100 48.24500
H  40.47400 2.22800 46.57600
H  46.96800 1.17800 46.64200
H  47.99100 7.57500 47.08000
H  39.61700 7.02400 46.83800
H  39.24100 4.00900 46.04000
H  38.32500 3.86400 48.06500
H  38.85200 5.51400 48.41900
H  39.91600 4.25800 48.89800
H  38.79600 5.75400 44.45800
H  40.31500 6.53300 44.11600
H  38.35600 8.40900 45.38300
H  37.49800 7.45000 44.21300
H  41.64300 -0.90900 47.14800
H  41.60400 -0.83500 45.36700
H  40.69100 0.23900 46.22300
H  47.10200 -0.91800 46.22500
H  46.44700 -0.08500 44.93400
H  46.43300 -1.94300 44.90200
H  48.93600 2.80000 46.24700
H  49.07600 5.15900 48.05600
H  49.76000 2.93700 48.78200
H  48.59200 1.66300 48.28400
H  48.18000 3.18900 49.21200
H  49.14500 6.05400 45.17400
H  50.03600 4.51400 45.48200
H  51.07600 7.14400 45.54300
H  51.77000 5.76900 46.26800
H  50.68400 6.80400 47.25400
H  47.15700 10.30100 45.98500
H  47.18700 9.82300 47.76400
H  45.93400 10.92000 47.11000
H  41.38400 9.21300 45.36700
H  40.00900 12.04800 48.48100
H  39.18600 10.63500 49.16800
H  38.48300 11.59900 47.85500
Mg 30.55100 57.56500 40.41000
C  27.83400 55.76800 38.99100
C  32.76800 55.23800 39.22700
C  33.07200 59.87400 40.83700
C  28.29700 60.20500 40.95700
N  30.27600 55.71000 39.07700
C  29.11100 55.11100 38.68100
C  29.39600 53.62300 38.31200
C  31.02000 53.48800 38.43100
C  31.42300 54.90400 38.95300
C  31.41700 52.24500 39.23700
C  28.77000 53.12700 37.00800
C  29.31600 53.85100 35.72700
H  28.34200 54.69400 34.92100
N  32.57200 57.49300 40.14900
C  33.36000 56.41300 39.70300
C  34.75500 56.75400 39.77200
C  34.81800 58.02300 40.36100
C  33.42100 58.51900 40.53800
C  35.83400 55.78700 39.41100
C  36.14400 58.70500 40.72500
O  37.20700 58.15700 40.38100
C  36.15300 59.93100 41.67800
N  30.68200 59.68700 40.90100
C  31.82100 60.42100 40.93900
C  31.55800 61.88100 41.25200
C  30.04600 61.89100 41.50600
C  29.60100 60.53900 41.07200
C  32.37300 62.55600 42.41400
C  29.31800 63.16800 40.84700
C  28.31100 63.82800 41.77500
N  28.48300 57.91100 40.14500
C  27.74800 59.04400 40.47800
C  26.40500 58.75600 40.30800
C  26.31800 57.46700 39.75200
C  27.65200 57.01300 39.63600
C  25.22500 59.62800 40.66400
C  25.45300 56.46700 39.17400
O  24.26300 56.42600 38.91200
C  26.38700 55.32300 38.68200
C  26.00900 54.01700 39.27500
O  26.43700 53.45600 40.26200
O  25.19900 53.33200 38.33900
C  24.67600 52.06600 38.93300
H  33.39100 54.37000 39.00300
H  33.92800 60.54600 40.75100
H  27.53200 60.93300 41.23500
H  29.01600 53.11000 39.19500
H  31.57500 53.50600 37.49300
H  30.65400 51.54500 39.57800
H  31.78300 52.76300 40.12300
H  32.15200 51.75400 38.59800
H  27.68800 53.25500 37.02700
H  29.13800 52.10000 37.00400
H  29.68900 53.19400 34.94200
H  30.14400 54.50800 35.99500
H  36.43100 56.36500 38.70500
H  35.57500 54.85300 38.91300
H  36.38600 55.56200 40.32400
H  36.10200 60.86300 41.11600
H  37.10700 59.76500 42.17800
H  35.42200 59.84500 42.48200
H  31.75900 62.44400 40.34100
H  29.88000 62.02300 42.57500
H  31.65400 63.12700 43.00100
H  33.12400 63.22000 41.98700
H  32.89900 61.90900 43.11600
H  28.73800 62.77700 40.01100
H  29.99500 63.90200 40.40900
H  28.20800 64.90600 41.65200
H  28.58500 63.73300 42.82600
H  27.33200 63.35000 41.72600
H  24.79300 59.98200 39.72800
H  25.32600 60.34000 41.48400
H  24.47200 58.96900 41.09400
H  26.27900 55.18300 37.60600
H  24.20700 52.26900 39.89600
H  25.36700 51.23000 39.03800
H  23.86900 51.65200 38.32900

