158

Mg 49.83200 44.66200 40.37900
C  46.47400 44.91100 39.22700
C  49.86400 41.44600 39.26200
C  53.15500 44.71900 40.58700
C  49.72800 48.24400 40.69100
N  48.31500 43.39000 39.33000
C  47.05000 43.69000 38.92900
C  46.45900 42.67000 38.06800
C  47.35600 41.37400 38.42700
C  48.60100 42.07400 39.11200
C  46.73100 40.23500 39.37200
C  46.32500 43.02300 36.63800
C  44.99600 42.84400 35.99500
H  44.72400 43.52000 34.57900
N  51.29000 43.22100 40.13200
C  51.09100 41.89100 39.72300
C  52.37300 41.17300 39.75100
C  53.35600 42.10500 40.27300
C  52.64700 43.45400 40.35200
C  52.53300 39.75800 39.39400
C  54.78900 41.84200 40.65900
O  55.20900 40.74300 40.50700
C  55.67700 42.93000 41.24700
N  51.28100 46.26200 40.48800
C  52.57300 45.98800 40.72900
C  53.41500 47.24500 41.03000
C  52.28100 48.35500 41.07800
C  50.99900 47.57800 40.73000
C  54.52700 47.26300 42.13600
C  52.49300 49.68100 40.17800
C  52.09200 51.06100 40.86500
N  48.37800 46.28300 40.23800
C  48.50400 47.65500 40.38700
C  47.20500 48.29300 40.20100
C  46.36800 47.24900 39.82100
C  47.09000 46.05400 39.83100
C  46.75700 49.76300 40.27900
C  45.01400 46.96900 39.32900
O  44.05800 47.64500 39.12700
C  45.10200 45.45200 38.85100
C  43.95900 44.71600 39.48100
O  43.10600 44.16500 38.82000
O  43.85000 45.08300 40.86500
C  42.48000 44.88400 41.51400
H  50.03300 40.38100 39.09000
H  54.24600 44.75000 40.55200
H  49.84100 49.32700 40.76900
H  45.47800 42.40700 38.46300
H  47.70900 40.81800 37.55800
H  46.53800 39.31000 38.83000
H  45.72100 40.51500 39.67400
H  47.29100 40.01600 40.28100
H  47.01800 42.37300 36.10400
H  46.68000 44.01000 36.34300
H  44.18800 43.19100 36.63800
H  45.05300 41.75900 35.90600
H  53.24100 39.52400 38.59800
H  51.62800 39.20600 39.14100
H  52.98600 39.35800 40.30100
H  55.23400 43.35100 42.15000
H  55.96500 43.65000 40.48200
H  56.65900 42.59800 41.58400
H  53.98400 47.37300 40.10900
H  52.07600 48.57700 42.12500
H  54.29400 47.99600 42.90800
H  55.56500 47.36500 41.82100
H  54.46200 46.26600 42.57200
H  51.85900 49.50500 39.30900
H  53.51400 49.89900 39.86400
H  51.49700 50.96400 41.77400
H  51.41200 51.56900 40.18100
H  52.96200 51.68700 41.06500
H  45.93600 49.77100 40.99600
H  46.51800 50.12700 39.28000
H  47.55400 50.40500 40.65400
H  44.91300 45.39500 37.78000
H  42.60600 43.90600 41.97800
H  41.65000 45.05200 40.82800
H  42.48200 45.62100 42.31600
Mg -10.42000 40.04800 39.14000
C  -9.17800 36.85700 38.67700
C  -7.29800 41.34300 38.54800
C  -11.80100 43.08600 39.16800
C  -13.74100 38.61300 39.18100
N  -8.48200 39.16100 38.69100
C  -8.16200 37.86400 38.60000
C  -6.62500 37.68600 38.51500
C  -6.12200 39.12600 38.85100
C  -7.36600 39.95000 38.70000
C  -5.40600 39.17800 40.19200
C  -6.10100 37.04700 37.18400
C  -6.74400 37.51600 35.87300
H  -7.19900 36.50400 34.87200
N  -9.67600 41.93100 38.87300
C  -8.34300 42.27800 38.74700
C  -8.29800 43.75900 38.63000
C  -9.62600 44.27100 38.78000
C  -10.41300 43.09900 38.91600
C  -7.02300 44.54200 38.43600
C  -9.98600 45.80400 38.73500
O  -9.06800 46.60600 38.56900
C  -11.38700 46.38500 38.95000
N  -12.48800 40.76200 39.04800
C  -12.72100 42.03700 39.30900
C  -14.19500 42.36200 39.63600
C  -14.84900 41.00300 39.25300
C  -13.66500 40.04400 39.15200
C  -14.37000 42.74900 41.12600
C  -15.64500 40.96300 37.91900
C  -17.12500 40.56400 38.03000
N  -11.30500 38.10700 39.14400
C  -12.62200 37.72500 39.19100
C  -12.75100 36.24500 39.27700
C  -11.40300 35.84900 39.04200
C  -10.62000 36.99400 38.90700
C  -14.01300 35.39900 39.54600
C  -10.48900 34.70700 38.95700
O  -10.80000 33.55900 38.98100
C  -9.04900 35.37400 38.69900
C  -8.33300 34.83500 39.88800
O  -8.76700 34.90400 41.05300
O  -7.23100 34.12500 39.48600
C  -6.31700 33.64900 40.50900
H  -6.30200 41.73800 38.33600
H  -12.23700 44.08400 39.23700
H  -14.68300 38.06700 39.26100
H  -6.52600 37.04800 39.39300
H  -5.54400 39.38100 37.96200
H  -5.92400 39.88800 40.83700
H  -4.39700 39.46400 39.89600
H  -5.32200 38.24700 40.75200
H  -6.07100 35.96000 37.26900
H  -5.07600 37.40600 37.27800
H  -5.94900 38.07500 35.38000
H  -7.60600 38.16700 36.02100
H  -6.93700 45.12200 37.51800
H  -6.07400 44.00700 38.48700
H  -6.92300 45.29800 39.21500
H  -12.13200 46.09200 38.21000
H  -11.44800 47.45700 39.13900
H  -11.58000 45.88000 39.89700
H  -14.60000 43.13800 38.98600
H  -15.46600 40.69400 40.09700
H  -15.11900 42.14200 41.63500
H  -14.70300 43.78600 41.16100
H  -13.46200 42.78800 41.72700
H  -15.16700 40.15000 37.37200
H  -15.59200 41.93300 37.42500
H  -17.68700 41.40800 38.43000
H  -17.25900 39.74000 38.73000
H  -17.49700 40.22400 37.06300
H  -13.77300 34.36200 39.31300
H  -14.89700 35.79100 39.04200
H  -14.31900 35.41600 40.59200
H  -8.65500 34.78400 37.87100
H  -5.72500 34.51600 40.80200
H  -5.79000 32.92800 39.88400
H  -6.77800 33.11000 41.33700

