158

Mg 40.43600 8.87600 28.90200
C  42.33100 10.01700 31.70100
C  38.62600 7.12100 31.22600
C  38.91700 7.44200 26.43400
C  42.97800 9.97100 26.81900
N  40.51500 8.58500 31.17100
C  41.29700 9.23600 32.13000
C  40.90100 8.93000 33.56800
C  39.85100 7.75300 33.31000
C  39.68400 7.77800 31.82800
C  40.36600 6.39500 33.82600
C  40.29900 10.14000 34.22600
C  39.58600 9.90600 35.55600
H  39.97900 10.70700 36.71300
N  38.84200 7.55900 28.77900
C  38.22600 6.95700 29.85900
C  37.07500 6.22400 29.38700
C  37.08100 6.44000 27.92400
C  38.28700 7.21400 27.68300
C  36.05800 5.49400 30.21200
C  36.07000 6.02600 26.91300
O  36.08700 6.44800 25.76500
C  35.05100 5.07000 27.34000
N  40.90500 8.65200 26.92700
C  40.16200 8.00500 26.11200
C  40.62300 8.11300 24.59600
C  41.82500 9.01700 24.69800
C  41.92600 9.25600 26.24400
C  40.87600 6.68400 23.93900
C  41.70100 10.38600 23.88100
C  41.03600 11.70300 24.54000
N  42.26100 9.77100 29.13800
C  43.15100 10.16300 28.19000
C  44.27400 10.87900 28.82700
C  43.95600 10.92900 30.20900
C  42.81100 10.13700 30.35800
C  45.43000 11.56000 28.17300
C  44.30600 11.42800 31.54800
O  45.28400 12.05400 31.85700
C  43.29000 10.81400 32.58300
C  44.01400 10.09900 33.53000
O  44.66100 9.08000 33.31600
O  43.92500 10.70400 34.74700
C  44.34600 9.88900 35.89000
H  38.05700 6.56800 31.97500
H  38.44600 6.94600 25.58300
H  43.71600 10.41900 26.15100
H  41.74200 8.63000 34.19300
H  38.92200 7.89700 33.86200
H  40.80100 5.73400 33.07600
H  39.59500 5.88000 34.39900
H  41.13800 6.51800 34.58500
H  39.65700 10.68100 33.53100
H  41.13700 10.81600 34.39400
H  39.71600 8.85800 35.82900
H  38.53300 10.14200 35.40400
H  35.04900 5.75600 29.89300
H  36.10300 5.87000 31.23500
H  36.20100 4.41400 30.18500
H  34.31500 5.42700 28.06000
H  35.52800 4.19600 27.78400
H  34.67900 4.74200 26.36900
H  39.84500 8.54900 23.96900
H  42.76600 8.63500 24.30300
H  40.89900 5.85200 24.64300
H  41.75300 6.78500 23.30100
H  40.02200 6.46600 23.29700
H  41.18000 10.12100 22.96200
H  42.71900 10.65800 23.60100
H  40.52400 11.47400 25.47400
H  40.29000 12.05200 23.82600
H  41.73700 12.53800 24.58000
H  46.33600 11.06600 28.52500
H  45.53400 12.63100 28.35000
H  45.31900 11.46600 27.09300
H  42.61100 11.55700 33.00200
H  43.57500 9.73300 36.64400
H  45.12500 10.48600 36.36400
H  44.82700 8.92600 35.72100
Mg 46.50600 24.94600 29.16100
C  47.11000 27.31200 31.63600
C  45.51500 22.74200 31.56700
C  46.46400 22.64400 26.87800
C  48.17300 27.21100 26.87500
N  46.23500 25.10400 31.34200
C  46.55100 26.14400 32.12300
C  46.08700 25.85400 33.52100
C  45.80900 24.30500 33.53600
C  45.96900 23.96100 32.07200
C  46.63900 23.44400 34.45800
C  44.95100 26.78300 34.12600
C  45.17900 27.62500 35.46000
H  45.73400 26.87000 36.66000
N  45.90000 22.98700 29.17900
C  45.47400 22.27200 30.24300
C  45.04000 20.92200 29.83700
C  45.28800 20.85700 28.38500
C  45.96300 22.17400 28.08700
C  44.44500 19.88700 30.66200
C  44.88800 19.77700 27.35500
O  45.16100 19.89000 26.18400
C  44.10600 18.57200 27.75400
N  47.17300 25.01200 27.15800
C  47.10100 23.84900 26.42800
C  47.67900 24.03800 24.96300
C  48.27600 25.46400 25.11000
C  47.81000 25.93000 26.44300
C  48.83100 23.03900 24.69600
C  47.78300 26.34400 23.92300
C  48.73200 26.55400 22.75700
N  47.38500 26.95100 29.18000
C  47.98400 27.68000 28.18900
C  48.34200 28.93300 28.64900
C  48.01500 28.90700 30.05700
C  47.47100 27.61600 30.31300
C  49.16300 29.98800 27.94200
C  48.12300 29.62800 31.31500
O  48.52400 30.80900 31.51300
C  47.57600 28.50700 32.42200
C  48.57800 28.04800 33.45700
O  49.22900 27.00800 33.40700
O  48.70800 29.07600 34.35700
C  49.51400 28.74800 35.52500
H  45.17800 22.04500 32.33700
H  46.37700 21.87500 26.10800
H  48.67300 27.86000 26.15300
H  46.96700 25.97600 34.15200
H  44.76900 24.06300 33.75600
H  47.34100 22.76200 33.97800
H  46.02600 22.83400 35.12200
H  47.20300 24.04500 35.17200
H  44.02800 26.25400 34.36200
H  44.62700 27.46800 33.34300
H  44.17000 27.93600 35.73100
H  45.91100 28.35500 35.11500
H  43.55500 19.45000 30.20900
H  44.11600 20.19200 31.65600
H  45.03900 18.99200 30.84600
H  43.06400 18.86500 27.87900
H  44.52900 18.08200 28.63000
H  44.17100 17.84700 26.94200
H  46.80000 23.81700 24.35700
H  49.36500 25.42800 25.08600
H  49.41300 23.48100 23.88800
H  48.35100 22.10300 24.41100
H  49.46100 22.76000 25.54000
H  47.52500 27.34700 24.26200
H  46.88700 25.87800 23.51400
H  49.26300 27.50500 22.70200
H  48.02600 26.53300 21.92600
H  49.45200 25.74600 22.63500
H  49.48800 29.59700 26.97800
H  49.96100 30.39600 28.56300
H  48.59200 30.89400 27.73600
H  46.81800 28.91900 33.08700
H  48.85200 28.54500 36.36600
H  50.09600 29.57300 35.93600
H  50.22100 27.92600 35.41300

