158

Mg 49.15500 35.46700 27.69900
C  46.73000 34.00100 29.88900
C  49.42400 38.01000 29.86300
C  50.89800 37.06600 25.38800
C  48.52400 32.87400 25.41300
N  48.20000 35.86900 29.72700
C  47.26100 35.22400 30.42000
C  46.99900 35.90600 31.74800
C  47.57000 37.27800 31.55500
C  48.41300 37.12400 30.24000
C  46.56900 38.51300 31.31100
C  47.55700 35.15200 33.04800
C  49.08100 34.64500 32.92100
H  50.12000 35.44100 33.84400
N  50.20400 37.21900 27.73000
C  50.22100 38.08900 28.71400
C  51.14300 39.18300 28.43800
C  51.47100 39.04700 27.05500
C  50.82800 37.71500 26.66400
C  51.47900 40.20300 29.52300
C  52.26700 39.90400 26.18200
O  52.45100 39.62000 25.01900
C  52.84900 41.12500 26.76400
N  49.69000 35.03100 25.61500
C  50.37400 35.87300 24.84000
C  50.52900 35.34100 23.41200
C  49.96200 33.87700 23.55400
C  49.40100 33.88000 24.94500
C  49.82200 36.24500 22.40200
C  51.03100 32.71400 23.51700
C  51.39900 32.59500 22.03600
N  48.00700 33.77300 27.62100
C  47.88500 32.80000 26.68500
C  47.02900 31.79900 27.15000
C  46.51000 32.24100 28.36800
C  47.12500 33.47300 28.63200
C  46.73000 30.51200 26.44700
C  45.57400 31.85000 29.45200
O  44.79800 30.90800 29.65300
C  45.76900 33.02800 30.49400
C  46.23400 32.38800 31.68700
O  47.26800 31.76300 31.74000
O  45.33000 32.43100 32.76400
C  45.85500 31.88100 34.03500
H  49.35700 38.85900 30.54700
H  51.43100 37.46800 24.52400
H  48.39200 31.98400 24.79600
H  45.91600 35.89700 31.87000
H  48.20700 37.49600 32.41200
H  46.74900 39.21500 32.12400
H  45.56200 38.16000 31.53600
H  46.61300 39.05300 30.36500
H  46.89300 34.34800 33.36500
H  47.43800 35.87000 33.86000
H  49.56500 34.61900 31.94500
H  49.09100 33.66500 33.39800
H  52.55200 40.39000 29.54900
H  51.12100 40.03300 30.53900
H  51.11700 41.20000 29.27200
H  52.05200 41.63000 27.31100
H  53.24600 41.76500 25.97600
H  53.67600 40.85400 27.42000
H  51.58000 35.44100 23.14300
H  49.24100 33.63100 22.77400
H  49.22100 37.00600 22.89900
H  49.18600 35.74100 21.67300
H  50.51400 36.78700 21.75800
H  50.65200 31.83500 24.03800
H  51.90600 33.11400 24.03000
H  52.29400 33.17500 21.80900
H  50.64500 33.03000 21.38000
H  51.46400 31.52700 21.82800
H  46.17800 30.74400 25.53600
H  46.07000 29.88800 27.04900
H  47.56800 29.88800 26.13600
H  44.77800 33.44400 30.67500
H  46.90600 32.12600 34.18800
H  45.62900 30.82600 34.18800
H  45.28300 32.37400 34.82000
Mg -12.33100 15.52200 41.89500
C  -9.25700 13.91800 41.80000
C  -10.74000 18.26800 40.60700
C  -15.27500 16.90300 41.47900
C  -13.90700 12.38900 42.74400
N  -10.25900 15.94100 41.06100
C  -9.18200 15.12600 41.19600
C  -7.89600 15.76500 40.63500
C  -8.32900 17.24700 40.64500
C  -9.86400 17.24400 40.79300
C  -7.78200 18.09700 41.93700
C  -7.60900 15.15300 39.20400
C  -6.07600 14.88400 38.87000
H  -5.62500 15.76300 37.69600
N  -12.90700 17.39700 41.18900
C  -12.12900 18.42700 40.75000
C  -12.99500 19.55800 40.42700
C  -14.31800 19.21300 40.77400
C  -14.21500 17.76900 41.12700
C  -12.47500 20.87200 39.88700
C  -15.58700 20.02500 40.74300
O  -15.48800 21.14700 40.28900
C  -16.92200 19.59300 41.04500
N  -14.31100 14.65900 41.78800
C  -15.32500 15.51700 41.85500
C  -16.72900 14.87600 42.05700
C  -16.25600 13.36000 42.25800
C  -14.76600 13.46400 42.28900
C  -17.52900 15.36700 43.28300
C  -16.76200 12.39700 41.04100
C  -17.99600 11.53400 41.26900
N  -11.72300 13.58400 42.30800
C  -12.45600 12.48500 42.77100
C  -11.51400 11.46400 43.16900
C  -10.26700 11.93800 42.82600
C  -10.41400 13.18800 42.24300
C  -11.81100 10.12700 43.84500
C  -8.87500 11.64700 42.87700
O  -8.21600 10.69700 43.29200
C  -8.12100 12.96200 42.18000
C  -7.13700 13.63800 43.15900
O  -7.46600 14.38800 44.04500
O  -5.85600 13.49000 42.74900
C  -4.86100 14.31100 43.44400
H  -10.20900 19.21700 40.50400
H  -16.30800 17.25600 41.50300
H  -14.37600 11.42700 42.96100
H  -7.09700 15.56500 41.34900
H  -8.00800 17.76800 39.74300
H  -7.27500 17.42600 42.63100
H  -8.58000 18.70900 42.35700
H  -6.98500 18.70600 41.50900
H  -8.04800 15.80500 38.45000
H  -7.92700 14.11100 39.17700
H  -5.98900 13.84100 38.56500
H  -5.40600 15.06000 39.71100
H  -13.00400 21.28800 39.02900
H  -11.38900 20.89900 39.80700
H  -12.67800 21.56000 40.70800
H  -17.68300 20.37300 41.02100
H  -16.79800 19.30600 42.08900
H  -17.19500 18.73800 40.42700
H  -17.42400 14.88700 41.21800
H  -16.67200 12.95200 43.17900
H  -18.60300 15.44300 43.10900
H  -17.13200 16.32700 43.61200
H  -17.46300 14.72700 44.16300
H  -15.93600 11.84400 40.59500
H  -16.97500 13.11000 40.24400
H  -18.25800 11.40500 42.31900
H  -17.84800 10.49800 40.96400
H  -18.86400 11.96700 40.77300
H  -11.93400 10.22200 44.92400
H  -11.00500 9.45100 43.55900
H  -12.75000 9.65800 43.55200
H  -7.50000 12.66900 41.33300
H  -4.26300 14.79800 42.67400
H  -4.24500 13.62000 44.01900
H  -5.17600 15.10300 44.12300

