158

Mg -0.10500 7.18600 26.55700
C  0.30800 9.37600 29.20800
C  0.52900 4.56700 28.86800
C  -0.59500 5.02400 24.24800
C  -0.05100 9.77200 24.38300
N  0.21700 6.94500 28.74100
C  0.21700 8.04200 29.62500
C  0.01000 7.54200 31.06400
C  0.74300 6.10300 30.85900
C  0.62400 5.87400 29.40200
C  2.22200 6.01300 31.26100
C  -1.48400 7.48400 31.39500
C  -1.78000 7.64900 32.91400
H  -0.64700 7.38700 33.88200
N  -0.03700 5.05200 26.53400
C  0.16900 4.20900 27.57000
C  0.09700 2.91000 27.07500
C  -0.30700 2.97300 25.70800
C  -0.31400 4.37200 25.42600
C  0.41700 1.69800 27.84700
C  -0.56400 1.88900 24.70000
O  -0.82400 2.10700 23.54000
C  -0.34200 0.46100 25.14800
N  -0.33500 7.34700 24.56700
C  -0.54000 6.30300 23.79100
C  -0.85600 6.70700 22.31300
C  -0.73700 8.28000 22.44900
C  -0.38500 8.53000 23.88300
C  0.16100 6.19800 21.27400
C  -1.97600 9.10000 21.95500
C  -1.85700 10.06200 20.77700
N  0.21100 9.20000 26.68300
C  0.32400 10.15900 25.69000
C  0.59600 11.42400 26.28200
C  0.49200 11.19800 27.70400
C  0.31200 9.80800 27.88100
C  0.63800 12.76700 25.65900
C  0.54400 11.83000 29.01100
O  0.70900 13.00900 29.39800
C  0.34100 10.60400 29.98500
C  1.47000 10.59200 30.92100
O  2.55100 10.08500 30.69100
O  1.21800 11.22800 32.13300
C  2.37200 11.43700 33.01100
H  0.65400 3.73300 29.56200
H  -0.89700 4.33900 23.45300
H  -0.11100 10.65900 23.74900
H  0.54200 8.20700 31.74400
H  0.20100 5.35500 31.43800
H  2.24900 5.27600 32.06400
H  2.59000 6.98700 31.58200
H  2.72700 5.58900 30.39300
H  -1.99300 6.62100 30.96500
H  -2.00200 8.29500 30.88400
H  -2.68400 7.11600 33.20800
H  -2.12800 8.66300 33.11000
H  -0.44300 1.03100 27.78400
H  0.44800 1.86400 28.92400
H  1.34800 1.20600 27.56300
H  0.67100 0.27800 25.50600
H  -0.46500 -0.19000 24.28300
H  -1.15600 0.38100 25.86800
H  -1.91400 6.45400 22.24400
H  0.08600 8.59000 21.80400
H  0.38800 5.15000 21.47400
H  1.09000 6.76800 21.27300
H  -0.35900 6.26500 20.31800
H  -2.44000 9.63300 22.78500
H  -2.74800 8.37400 21.69900
H  -2.04900 11.10700 21.02200
H  -2.56300 9.86400 19.97100
H  -0.88900 9.94900 20.29000
H  0.09700 13.47600 26.28600
H  0.27700 12.83600 24.63200
H  1.67400 13.10600 25.63600
H  -0.54800 10.68400 30.61000
H  2.81800 12.38100 32.69800
H  3.02700 10.56500 33.01900
H  2.02600 11.64000 34.02400
Mg 24.91400 1.65200 29.57400
C  26.83600 1.33600 32.49100
C  22.14200 1.72000 31.50200
C  23.01500 1.61500 26.73300
C  27.76800 1.39000 27.76100
N  24.52600 1.49400 31.78800
C  25.43000 1.46100 32.73300
C  24.75900 1.64700 34.12800
C  23.19200 1.59400 33.79600
C  23.25000 1.57400 32.29900
C  22.30300 0.45700 34.39300
C  25.30400 2.92700 34.89900
C  26.02000 2.68900 36.28300
H  25.61200 3.60600 37.51200
N  22.87700 1.69800 29.15000
C  21.87400 1.80800 30.08300
C  20.68400 2.05400 29.46200
C  20.90100 1.80600 28.08400
C  22.32600 1.65000 27.91200
C  19.36000 2.27700 30.20400
C  19.87600 1.60400 26.94000
O  20.12800 1.42400 25.76100
C  18.43000 1.64300 27.35900
N  25.34400 1.45600 27.60800
C  24.38600 1.55200 26.63800
C  25.08800 1.65000 25.26100
C  26.53200 1.85100 25.59800
C  26.56100 1.66500 27.09400
C  24.74300 0.51800 24.26900
C  27.38900 3.07100 25.04400
C  26.76100 4.48200 25.34700
N  26.93600 1.24000 30.05400
C  27.97800 1.21200 29.14300
C  29.21200 0.93200 29.89300
C  28.81400 0.99800 31.29700
C  27.44800 1.13200 31.28900
C  30.50000 0.84200 29.22200
C  29.27900 1.05000 32.63600
O  30.37000 1.04600 33.15300
C  27.98400 1.32700 33.51100
C  27.94700 0.29600 34.66400
O  27.46900 -0.81100 34.63800
O  28.58400 0.83400 35.72200
C  28.68100 -0.05900 36.94800
H  21.28500 1.63500 32.17300
H  22.52600 1.83900 25.78200
H  28.67800 1.39800 27.15600
H  25.00000 0.82700 34.80500
H  22.71800 2.51500 34.13300
H  21.66100 0.92200 35.14100
H  22.87700 -0.24300 34.99900
H  21.68400 -0.04200 33.64700
H  24.43500 3.56800 35.04800
H  25.89900 3.55500 34.23600
H  27.08000 2.92800 36.19800
H  25.87800 1.66900 36.64100
H  19.56900 2.75300 31.16200
H  18.82800 1.34300 30.38600
H  18.84700 2.97300 29.54100
H  18.24800 0.80600 28.03200
H  17.86500 1.44900 26.44700
H  18.06600 2.58100 27.77800
H  24.72700 2.60700 24.88500
H  27.14700 1.01600 25.26100
H  25.52900 -0.23700 24.25400
H  24.48900 0.82000 23.25300
H  23.89700 -0.03500 24.67500
H  27.56100 3.05800 23.96800
H  28.36300 3.01400 25.52900
H  25.93300 4.34700 26.04400
H  26.40600 4.88200 24.39800
H  27.59400 5.10800 25.66600
H  30.55500 1.43900 28.31100
H  30.61500 -0.23100 29.06700
H  31.27300 1.24900 29.87500
H  27.99900 2.34000 33.91200
H  29.19800 0.34700 37.81700
H  29.02600 -1.05400 36.66600
H  27.66100 -0.06300 37.33400

