158

Mg 2.59300 -0.98300 44.19300
C  5.98800 -0.17000 43.40500
C  1.55800 1.60400 42.36200
C  -0.55000 -2.20500 44.41500
C  3.77000 -4.16400 45.17000
N  3.67600 0.47900 42.94700
C  5.04100 0.67400 42.83200
C  5.30700 2.00000 42.08000
C  3.84900 2.61700 41.88200
C  2.95200 1.48600 42.37900
C  3.54700 4.06100 42.38400
C  6.25200 1.77500 40.88200
C  7.10400 2.95400 40.45700
H  6.71300 3.63200 39.09500
N  0.76400 -0.28300 43.59400
C  0.53700 0.79600 42.84700
C  -0.86300 0.96400 42.59200
C  -1.51100 -0.05900 43.25200
C  -0.37900 -0.94400 43.79700
C  -1.44300 2.16200 41.80600
C  -3.04900 -0.23700 43.32700
O  -3.85500 0.54800 42.84800
C  -3.59800 -1.36300 44.11500
N  1.73800 -2.90300 44.75600
C  0.42100 -3.14800 44.82500
C  0.16100 -4.60100 45.15100
C  1.56000 -5.22200 45.27700
C  2.42900 -4.01700 45.09200
C  -0.81800 -4.81500 46.28500
C  1.76200 -6.41500 44.27500
C  1.43200 -7.82400 44.76000
N  4.41900 -1.91700 44.41100
C  4.74600 -3.19600 44.89500
C  6.14400 -3.42700 44.90400
C  6.71700 -2.16300 44.45900
C  5.60700 -1.34200 44.11400
C  6.79200 -4.75000 45.32000
C  8.00100 -1.47300 44.20500
O  9.15300 -1.87500 44.42200
C  7.53300 -0.15100 43.45900
C  8.05900 1.02600 44.34200
O  7.46300 1.40900 45.36400
O  9.14500 1.64500 43.76000
C  9.71600 2.74400 44.59600
H  1.35200 2.54400 41.84700
H  -1.51900 -2.65700 44.63700
H  4.15400 -5.18400 45.23300
H  5.90700 2.60900 42.75700
H  3.73100 2.59900 40.79800
H  3.26000 4.65600 41.51600
H  4.46800 4.42100 42.84200
H  2.67300 4.22300 43.01500
H  5.62300 1.56400 40.01700
H  7.04100 1.03700 41.02600
H  8.14500 2.67100 40.30400
H  7.21400 3.70800 41.23600
H  -1.86300 1.76000 40.88400
H  -0.77900 2.99300 41.56600
H  -2.18100 2.66900 42.42700
H  -4.68400 -1.31000 44.04800
H  -3.24100 -1.23200 45.13700
H  -3.24500 -2.30500 43.69500
H  -0.28500 -4.94000 44.21500
H  1.67100 -5.49000 46.32800
H  -1.41500 -3.90600 46.34800
H  -0.31300 -4.95400 47.24100
H  -1.39000 -5.69900 46.00100
H  2.75000 -6.36400 43.81900
H  1.22100 -6.23500 43.34600
H  0.57700 -8.23100 44.22000
H  1.16700 -7.92600 45.81200
H  2.23600 -8.54500 44.60900
H  6.53800 -5.10000 46.32100
H  7.86700 -4.66200 45.16900
H  6.55200 -5.54600 44.61500
H  8.07200 -0.14700 42.51100
H  10.77000 2.88200 44.35500
H  9.67200 2.47800 45.65200
H  9.12800 3.65000 44.45600
Mg 25.84100 1.08100 28.84200
C  27.66200 0.71000 31.75200
C  22.95500 0.70600 30.57200
C  24.07400 0.80000 25.87800
C  28.84800 0.76500 26.97300
N  25.41800 0.70000 30.92800
C  26.27900 0.78200 31.99500
C  25.56500 0.98000 33.31700
C  24.12700 1.04500 32.90000
C  24.15100 0.72400 31.34500
C  23.14600 0.13000 33.69300
C  25.93300 2.24500 34.12600
C  25.64900 2.20300 35.60000
H  26.70000 2.77700 36.59800
N  23.79400 0.76000 28.23200
C  22.73800 0.75000 29.14700
C  21.50600 0.65800 28.50600
C  21.81600 0.76900 27.11900
C  23.26200 0.76100 26.97300
C  20.14100 0.53700 29.06700
C  20.88600 0.69700 25.89400
O  21.32500 0.63800 24.76600
C  19.38400 0.73000 26.07100
N  26.44500 0.83500 26.70000
C  25.50300 0.78200 25.69700
C  26.18100 0.78100 24.31300
C  27.68300 1.22800 24.68500
C  27.68400 0.99600 26.20400
C  26.22100 -0.70600 23.68300
C  28.06000 2.70900 24.35500
C  28.86400 2.96500 23.08400
N  27.86700 0.68900 29.23200
C  28.97100 0.49900 28.35900
C  30.08500 0.17100 29.19500
C  29.72600 0.32400 30.55100
C  28.35600 0.64900 30.49500
C  31.46500 -0.17800 28.61700
C  30.05200 0.23400 31.95900
O  31.11500 0.08300 32.51000
C  28.73300 0.56100 32.80400
C  28.63700 -0.49600 33.79100
O  28.03800 -1.55000 33.64900
O  29.37800 -0.20200 34.91200
C  29.31400 -1.17400 36.04600
H  21.98200 0.85100 31.04600
H  23.62400 0.72100 24.88700
H  29.82300 0.70000 26.48500
H  25.73900 0.13300 33.98000
H  23.71800 2.05600 32.90600
H  23.46100 0.06500 34.73400
H  22.89600 -0.88700 33.39100
H  22.18800 0.61800 33.87500
H  25.45200 3.16800 33.80300
H  26.99700 2.43400 33.98600
H  25.54900 1.17500 35.95000
H  24.69300 2.65100 35.87100
H  20.17100 0.50500 30.15600
H  19.64800 -0.35500 28.67900
H  19.48400 1.30900 28.66700
H  19.05100 1.54800 26.70900
H  18.93500 -0.20500 26.40700
H  18.95800 0.89200 25.08100
H  25.73900 1.46200 23.58600
H  28.39900 0.58200 24.17700
H  25.40500 -1.29400 24.10400
H  27.14400 -1.28000 23.76100
H  25.94400 -0.67800 22.62900
H  28.70200 3.10700 25.14100
H  27.11800 3.25500 24.29600
H  29.95100 2.91600 23.14400
H  28.54900 3.96900 22.79800
H  28.57500 2.26100 22.30400
H  32.00200 0.60600 28.08400
H  31.29800 -0.78100 27.72500
H  31.94600 -0.71400 29.43600
H  28.94700 1.54100 33.23100
H  28.43000 -0.99900 36.65800
H  30.20100 -0.90300 36.61900
H  29.26100 -2.22800 35.77400

