158

Mg 46.50400 24.86600 28.21500
C  47.35700 27.10000 30.88500
C  46.06500 22.35200 30.35600
C  46.56300 22.79400 25.53200
C  47.59100 27.52900 26.07900
N  46.72100 24.75500 30.30200
C  46.78900 25.81700 31.21000
C  46.39800 25.44700 32.62500
C  46.18200 23.89900 32.42100
C  46.24800 23.64700 30.93000
C  47.12800 22.96500 33.24500
C  45.11200 26.21000 33.18100
C  45.40200 27.00100 34.47900
H  44.54600 26.82100 35.70900
N  46.24700 22.85000 27.91900
C  46.07400 21.96200 28.98300
C  46.05100 20.58700 28.42000
C  46.30600 20.67400 26.98100
C  46.40700 22.16100 26.74300
C  45.79200 19.36100 29.37200
C  46.44400 19.62400 25.90900
O  46.82200 19.78000 24.74200
C  46.25900 18.19900 26.46000
N  46.85900 25.18000 26.11100
C  46.63800 24.18100 25.22100
C  47.13200 24.61700 23.87700
C  47.03900 26.17300 24.00400
C  47.26600 26.31800 25.50100
C  48.58000 24.14100 23.48200
C  45.73900 26.81000 23.50600
C  44.39000 26.38900 24.08400
N  47.36300 26.88200 28.36500
C  47.73100 27.80000 27.43600
C  48.18900 29.00100 28.06800
C  48.01100 28.82400 29.47100
C  47.56500 27.44900 29.61200
C  48.60800 30.27100 27.42100
C  48.18600 29.33300 30.78800
O  48.56300 30.44200 31.24900
C  47.79500 28.22400 31.76900
C  48.89600 27.95900 32.75600
O  49.95400 27.50600 32.46400
O  48.46400 28.43500 33.99600
C  49.38200 28.12400 35.13100
H  45.86000 21.57500 31.09600
H  46.53500 22.21100 24.61000
H  47.86500 28.37400 25.44400
H  47.24700 25.49500 33.30700
H  45.12600 23.69300 32.59500
H  46.52500 22.39100 33.95000
H  48.03700 23.44800 33.60300
H  47.60300 22.20600 32.62300
H  44.38500 25.43100 33.41000
H  44.71800 26.83500 32.38100
H  45.36800 28.07500 34.29700
H  46.42300 26.74400 34.75900
H  45.00100 18.74900 28.93800
H  45.50300 19.79000 30.33200
H  46.68000 18.74100 29.48800
H  47.09800 18.02000 27.13300
H  46.34900 17.38700 25.73800
H  45.30100 18.12800 26.97500
H  46.49500 24.42500 23.01300
H  47.87000 26.60200 23.44200
H  48.95300 23.56700 24.33000
H  49.36500 24.89600 23.43300
H  48.50000 23.57800 22.55200
H  45.72700 26.50500 22.46000
H  45.76500 27.89800 23.44300
H  43.95700 27.27800 24.54400
H  44.55800 25.53000 24.73400
H  43.75800 26.11100 23.24100
H  49.57000 30.53800 27.85900
H  47.87600 31.07200 27.51700
H  48.88900 30.05500 26.39000
H  46.84800 28.45200 32.25700
H  50.42800 27.95800 34.87500
H  49.14800 27.11900 35.48200
H  49.19000 28.74700 36.00600
Mg -3.10500 34.52000 26.51500
C  -4.28900 33.17200 29.62300
C  -1.21200 36.69700 28.43100
C  -2.65200 36.28100 23.66200
C  -4.84100 32.08500 24.88000
N  -2.85400 34.92200 28.77600
C  -3.29300 34.14700 29.84700
C  -2.67300 34.58900 31.16500
C  -1.91200 35.86300 30.80900
C  -1.97200 35.84300 29.26800
C  -2.41600 37.17100 31.48100
C  -1.87000 33.45800 31.95600
C  -2.45800 33.12800 33.39300
H  -1.48200 33.02200 34.55500
N  -2.08500 36.29800 26.13900
C  -1.29300 36.92800 27.02800
C  -0.56000 37.92700 26.21400
C  -1.04100 37.84100 24.89700
C  -1.92800 36.70500 24.82000
C  0.39000 38.86200 26.88600
C  -0.68400 38.74100 23.73200
O  -0.84900 38.37300 22.56800
C  -0.07200 40.17600 23.96200
N  -3.74300 34.38200 24.57100
C  -3.39600 35.12100 23.51700
C  -3.93800 34.48700 22.18300
C  -4.23500 33.01000 22.60600
C  -4.26300 33.15400 24.12800
C  -5.17900 35.21900 21.59800
C  -3.22900 31.92000 22.14000
C  -3.98000 30.61300 21.83500
N  -4.43100 33.01500 27.08700
C  -4.88200 31.98600 26.28200
C  -5.55900 30.97000 27.16500
C  -5.37200 31.37800 28.44300
C  -4.70300 32.63600 28.38100
C  -6.36000 29.83500 26.63900
C  -5.56500 31.06900 29.88000
O  -6.16800 30.14700 30.41500
C  -4.88300 32.21400 30.62600
C  -5.86600 32.88900 31.49100
O  -6.63300 33.78000 31.16800
O  -5.74600 32.36300 32.76900
C  -6.48300 32.92300 33.80900
H  -0.55900 37.43200 28.90700
H  -2.63700 36.91700 22.77500
H  -5.29200 31.14400 24.55800
H  -3.50100 34.84900 31.82500
H  -0.89000 35.77900 31.17800
H  -2.18300 37.12700 32.54500
H  -3.50300 37.18300 31.40000
H  -1.92400 38.04300 31.05000
H  -0.86100 33.84400 32.10200
H  -1.74400 32.50700 31.43700
H  -2.96900 32.16600 33.37400
H  -3.14800 33.89300 33.74700
H  1.07300 39.22800 26.11900
H  1.02100 38.33300 27.60000
H  -0.13700 39.59800 27.49400
H  -0.47800 40.77100 23.14300
H  1.00300 40.04500 23.84300
H  -0.26400 40.55400 24.96600
H  -3.11700 34.65300 21.48500
H  -5.29000 32.80300 22.43200
H  -5.01000 35.73300 20.65200
H  -5.47400 36.04900 22.24100
H  -6.02200 34.55000 21.42500
H  -2.58300 31.75200 23.00200
H  -2.84400 32.31800 21.20100
H  -3.39300 30.06900 21.09500
H  -4.92500 30.90200 21.37600
H  -4.10000 29.96400 22.70300
H  -6.31200 28.91000 27.21300
H  -6.15000 29.64100 25.58700
H  -7.38800 30.15900 26.79700
H  -4.03600 31.84400 31.20400
H  -5.81000 33.65100 34.26100
H  -6.79700 32.22100 34.58100
H  -7.36900 33.36000 33.34700

