158

Mg 25.00000 0.72600 29.05600
C  27.30800 0.90500 31.88400
C  22.47200 1.12800 31.17400
C  23.09100 1.15200 26.29700
C  27.84500 0.25300 27.04200
N  25.02300 0.87300 31.32300
C  26.00000 1.01400 32.26400
C  25.42900 1.18300 33.68100
C  23.84700 1.10400 33.40100
C  23.74800 0.96000 31.83900
C  23.26000 -0.18800 34.01500
C  25.84700 2.53600 34.31800
C  25.07100 3.00000 35.62100
H  25.91800 3.40600 36.88300
N  23.07600 0.99600 28.78700
C  22.19900 1.01300 29.80000
C  20.79700 1.14500 29.21600
C  20.98000 1.08000 27.79300
C  22.39800 1.06700 27.54100
C  19.54600 1.25000 29.93600
C  19.87400 1.23400 26.74800
O  20.12800 1.26000 25.55700
C  18.44900 1.44400 27.10100
N  25.39800 0.68400 27.09500
C  24.41000 0.96400 26.05900
C  24.87400 0.72500 24.65400
C  26.47100 0.64400 24.91900
C  26.60400 0.41400 26.45900
C  24.17700 -0.44200 23.83600
C  27.15800 1.88400 24.38500
C  27.01900 3.19700 25.15600
N  27.12500 0.54000 29.32900
C  28.12800 0.39700 28.42300
C  29.35300 0.51400 29.07100
C  29.10800 0.66500 30.45300
C  27.72200 0.64400 30.57400
C  30.63700 0.62800 28.31100
C  29.76500 0.80800 31.74500
O  30.95500 0.89900 32.10300
C  28.55100 1.00100 32.77300
C  28.68600 0.04300 33.87300
O  28.25400 -1.10400 33.86900
O  29.39100 0.64200 34.91500
C  29.19800 0.12500 36.25500
H  21.60000 1.24700 31.82100
H  22.43600 1.25600 25.43000
H  28.66300 0.02800 26.35600
H  25.80800 0.31600 34.22200
H  23.32600 2.00600 33.72100
H  23.43800 -1.00500 33.31600
H  22.19000 -0.08100 34.19400
H  23.77400 -0.51200 34.92000
H  26.03300 3.39900 33.67800
H  26.82100 2.35300 34.77100
H  24.40400 2.17900 35.88300
H  24.47000 3.84900 35.29600
H  19.12700 2.23000 29.70900
H  19.68200 1.18400 31.01500
H  18.91900 0.43700 29.57200
H  18.36100 2.32400 27.73800
H  18.10900 0.52400 27.57700
H  17.88000 1.67000 26.20000
H  24.69000 1.61800 24.05700
H  26.78800 -0.18300 24.28500
H  24.89800 -1.14600 23.42000
H  23.63500 -0.03700 22.98100
H  23.47900 -1.03700 24.42500
H  26.81800 2.05500 23.36300
H  28.22000 1.64400 24.32800
H  27.92700 3.51900 25.66600
H  26.20100 3.15700 25.87500
H  26.69300 3.95700 24.44600
H  30.85600 -0.31900 27.81800
H  31.49800 0.76900 28.96500
H  30.67100 1.37400 27.51800
H  28.70100 2.00800 33.16200
H  30.17900 -0.03300 36.70300
H  28.56900 -0.76000 36.35300
H  28.76600 0.94500 36.82900
Mg -1.44000 34.46600 27.44100
C  -3.19400 32.56100 29.82200
C  -0.01600 36.21300 29.91200
C  -0.13900 36.40600 25.05000
C  -3.23200 32.70400 25.03100
N  -1.70600 34.41200 29.55100
C  -2.37500 33.57800 30.37500
C  -2.16900 33.89000 31.88700
C  -1.31000 35.18400 31.80100
C  -1.01900 35.31500 30.32300
C  -2.00900 36.38900 32.49900
C  -1.38700 32.70800 32.63800
C  -2.12900 32.03700 33.91400
H  -1.47600 32.08400 35.28200
N  -0.15300 36.07300 27.50000
C  0.36700 36.60100 28.63100
C  1.38000 37.52200 28.25600
C  1.41800 37.62200 26.79500
C  0.30800 36.69800 26.38600
C  2.28800 38.14500 29.21700
C  2.26200 38.46900 25.87100
O  2.29300 38.33200 24.63800
C  3.17900 39.44200 26.44400
N  -1.91300 34.76100 25.31800
C  -1.10800 35.57600 24.58600
C  -1.51500 35.41900 23.04400
C  -2.35000 34.06500 23.07800
C  -2.54200 33.86100 24.55300
C  -2.20900 36.60900 22.42300
C  -1.54300 32.91600 22.48400
C  -1.75700 32.58600 20.99000
N  -2.88600 32.88700 27.40800
C  -3.39000 32.25000 26.35300
C  -4.17600 31.12700 26.80800
C  -4.14600 31.25700 28.18100
C  -3.27700 32.28600 28.47800
C  -4.89800 30.16800 25.95000
C  -4.64900 30.63800 29.33500
O  -5.33500 29.58700 29.43200
C  -4.02400 31.49400 30.48300
C  -5.13600 32.12900 31.22800
O  -5.67500 33.20300 30.96800
O  -5.43400 31.43300 32.40500
C  -6.39500 32.03600 33.31700
H  0.52300 36.69000 30.73300
H  0.31400 36.94200 24.21300
H  -3.54300 32.00500 24.25100
H  -3.15300 34.07200 32.32000
H  -0.36100 35.11600 32.33300
H  -3.01500 36.10300 32.80400
H  -2.11200 37.35300 31.99900
H  -1.49300 36.63900 33.42600
H  -0.47800 33.15200 33.04200
H  -1.02200 32.02100 31.87400
H  -2.22700 30.96700 33.73200
H  -3.19100 32.27000 33.99200
H  1.83600 38.08200 30.20700
H  2.41400 39.21100 29.02700
H  3.23500 37.60600 29.20300
H  2.57300 40.09500 27.07200
H  3.57200 39.97700 25.57900
H  4.04700 38.97100 26.90500
H  -0.65200 35.20200 22.41400
H  -3.35900 34.17800 22.68100
H  -2.15200 37.50400 23.04300
H  -3.27700 36.39600 22.39900
H  -1.86300 36.90500 21.43300
H  -1.71200 31.96300 22.98500
H  -0.47900 33.14300 22.55100
H  -2.53300 33.24500 20.59900
H  -2.11900 31.57000 20.83200
H  -0.79500 32.81000 20.53000
H  -5.32200 29.40300 26.60100
H  -4.26400 29.61900 25.25300
H  -5.70700 30.56600 25.33800
H  -3.50000 30.83200 31.17300
H  -6.58800 33.10000 33.17900
H  -5.87700 32.00000 34.27500
H  -7.34000 31.50100 33.21900

