158

Mg 24.71200 -6.29700 46.10700
C  26.75600 -4.02000 44.28900
C  22.05900 -5.42500 44.00700
C  23.01300 -9.10300 47.06600
C  27.53000 -7.39400 47.67600
N  24.45400 -4.76900 44.38500
C  25.35900 -3.84600 43.95000
C  24.70700 -2.97600 42.81000
C  23.19900 -3.38200 42.99900
C  23.18700 -4.65400 43.78200
C  22.27500 -2.31900 43.62600
C  25.24900 -3.09900 41.36200
C  25.98900 -1.89500 40.70300
H  25.73000 -1.76000 39.16600
N  22.80000 -7.13500 45.58300
C  21.85800 -6.57800 44.75700
C  20.61600 -7.33200 44.81400
C  20.86500 -8.38400 45.82500
C  22.24300 -8.29300 46.18100
C  19.40900 -7.22100 43.95200
C  19.91200 -9.38600 46.24400
O  18.74500 -9.41200 45.82200
C  20.20900 -10.37400 47.36800
N  25.19500 -8.08400 47.11500
C  24.34000 -9.02600 47.51400
C  25.10700 -10.11300 48.35100
C  26.53600 -9.63400 48.24000
C  26.42200 -8.25100 47.67500
C  24.57400 -10.12200 49.81900
C  27.49900 -10.62300 47.39700
C  28.73200 -11.17500 48.13000
N  26.71700 -5.60000 46.24200
C  27.68100 -6.18700 47.01000
C  28.95800 -5.62200 46.56500
C  28.60700 -4.79400 45.52900
C  27.25400 -4.77900 45.36400
C  30.33600 -5.93400 47.04800
C  29.18700 -3.96900 44.45200
O  30.32400 -3.60900 44.20200
C  27.96800 -3.24600 43.75000
C  27.92900 -1.81000 44.16200
O  27.76300 -0.94400 43.34900
O  27.98700 -1.68800 45.50800
C  27.43900 -0.42600 46.09200
H  21.18900 -5.03300 43.47600
H  22.54200 -9.96500 47.54300
H  28.50800 -7.65000 48.08900
H  24.86500 -1.93000 43.07000
H  22.70200 -3.79200 42.12100
H  22.78000 -1.39100 43.89600
H  21.94600 -2.82700 44.53300
H  21.47100 -2.30200 42.89100
H  24.40800 -3.35000 40.71700
H  25.89400 -3.97400 41.44200
H  27.06400 -1.99000 40.85900
H  25.81800 -0.99100 41.28800
H  19.61800 -6.81400 42.96200
H  18.70700 -6.55100 44.44800
H  18.87900 -8.14800 43.73300
H  20.89100 -11.14200 47.00500
H  19.18400 -10.72000 47.50400
H  20.65400 -9.85200 48.21600
H  25.07900 -11.08300 47.85500
H  27.02500 -9.61300 49.21300
H  25.19000 -9.57000 50.52900
H  24.36900 -11.09700 50.26100
H  23.61800 -9.60200 49.76800
H  27.78200 -10.11500 46.47500
H  26.95900 -11.45800 46.95300
H  28.34600 -12.16800 48.35900
H  28.82400 -10.60900 49.05700
H  29.65200 -11.11900 47.55000
H  30.79500 -6.78400 46.54200
H  30.28800 -5.95100 48.13700
H  31.11200 -5.18300 46.90200
H  28.07300 -3.37600 42.67300
H  26.93000 -0.63900 47.03200
H  26.70200 0.05700 45.45000
H  28.23200 0.29400 46.29300
Mg 53.47200 24.35800 45.75600
C  51.05000 26.23800 44.32700
C  52.21600 21.64100 44.00300
C  56.36700 22.64000 46.39700
C  55.01000 27.37800 46.84400
N  52.02400 24.12300 44.19200
C  51.14400 24.99300 43.77000
C  50.37600 24.53600 42.57700
C  50.28900 22.99700 42.93800
C  51.60400 22.85900 43.75500
C  48.90300 22.60200 43.64000
C  51.01100 24.83900 41.30800
C  50.16800 25.09600 40.09900
H  50.91100 25.46700 38.82400
N  54.15100 22.38400 45.35000
C  53.46400 21.39500 44.68000
C  54.14900 20.14600 44.79000
C  55.36500 20.46700 45.45200
C  55.35000 21.87700 45.75800
C  53.56200 18.81300 44.24500
C  56.32800 19.46000 45.86800
O  55.95900 18.28000 45.83700
C  57.66100 19.74400 46.54800
N  55.36100 24.89300 46.59300
C  56.37600 23.96000 46.78000
C  57.57300 24.61100 47.47300
C  57.27600 26.13500 47.27000
C  55.75300 26.16400 46.87000
C  57.68700 24.13900 48.99000
C  58.16100 26.86500 46.18600
C  58.77000 28.14000 46.63600
N  53.04800 26.36100 45.79700
C  53.69100 27.48100 46.33000
C  52.79000 28.66300 46.35800
C  51.71400 28.13800 45.57500
C  51.99700 26.85400 45.19800
C  52.94300 29.96800 47.04600
C  50.49600 28.48600 44.98900
O  49.77000 29.50400 45.09500
C  49.98000 27.25900 44.11400
C  49.76800 27.71800 42.77200
O  50.61200 28.27100 42.08800
O  48.45700 27.70600 42.43000
C  48.05200 28.53500 41.25300
H  51.72400 20.77000 43.56800
H  57.30800 22.11900 46.59000
H  55.40000 28.28500 47.31000
H  49.42200 25.06300 42.55200
H  50.29700 22.41300 42.01800
H  48.28400 23.48800 43.78100
H  49.10700 22.19900 44.63200
H  48.36600 21.83500 43.08200
H  51.69200 24.04000 41.01500
H  51.65300 25.71900 41.31200
H  49.75500 26.00500 40.53700
H  49.29800 24.50500 39.81600
H  53.96000 17.89700 44.68000
H  53.75900 18.79300 43.17300
H  52.47800 18.76500 44.35000
H  57.43200 20.17900 47.52100
H  58.29400 20.35500 45.90500
H  58.15800 18.78200 46.67800
H  58.45600 24.36000 46.88500
H  57.33500 26.69700 48.20200
H  58.70200 23.83800 49.25100
H  56.95500 23.36800 49.23000
H  57.56600 24.94500 49.71400
H  57.65700 27.08900 45.24600
H  58.88000 26.14300 45.79900
H  59.67300 28.10000 46.02800
H  58.85600 28.18700 47.72100
H  58.12800 29.00000 46.44100
H  53.61600 29.82000 47.89100
H  51.99900 30.36500 47.42000
H  53.38500 30.78200 46.47200
H  49.07700 26.99500 44.66400
H  48.53700 28.14800 40.35700
H  48.32900 29.58300 41.37300
H  46.98500 28.56100 41.03200

