158

Mg 56.49800 22.87800 45.21000
C  54.80100 25.70300 44.33800
C  53.85900 20.99200 43.88400
C  58.52200 20.15100 45.15400
C  59.28700 24.84200 45.89000
N  54.58000 23.33800 43.98400
C  54.06900 24.58900 43.85000
C  52.68800 24.47600 43.09100
C  52.31000 23.02200 43.38500
C  53.65400 22.38400 43.71500
C  51.20800 22.98000 44.47100
C  52.87400 24.78200 41.53300
C  51.68000 25.53700 40.88700
H  50.91900 24.80800 39.84400
N  56.15900 20.88000 44.76300
C  55.04200 20.29200 44.28900
C  55.18000 18.82500 44.19200
C  56.46600 18.56600 44.64000
C  57.10900 19.88700 44.93900
C  54.16000 17.83700 43.53600
C  57.08200 17.17300 44.74500
O  56.43900 16.13600 44.55500
C  58.39400 17.04300 45.40100
N  58.65700 22.54600 45.39000
C  59.22700 21.26000 45.45300
C  60.76100 21.36500 45.59700
C  60.94000 22.89700 45.84600
C  59.56600 23.49500 45.68800
C  61.33500 20.37500 46.66100
C  62.03400 23.57000 45.08600
C  63.27400 24.11600 45.82800
N  56.92800 24.87700 45.40400
C  58.11500 25.57900 45.64200
C  57.84600 26.98100 45.69300
C  56.52900 27.06000 45.19100
C  56.05100 25.74000 44.94200
C  58.81500 27.99800 46.26500
C  55.53700 27.99600 44.81100
O  55.54100 29.17000 44.80800
C  54.39900 27.14300 44.27100
C  53.99600 27.72000 42.92000
O  54.74800 27.74300 41.97400
O  52.71800 28.19200 43.13100
C  52.03200 28.93000 42.05200
H  53.00900 20.42800 43.49500
H  59.20600 19.30400 45.05700
H  60.18600 25.41200 46.13600
H  51.98500 25.16300 43.56300
H  51.90400 22.58200 42.47400
H  51.42700 22.01600 44.93000
H  50.15100 22.93600 44.21000
H  51.34800 23.78000 45.19800
H  52.99000 23.81800 41.03700
H  53.80700 25.33600 41.43200
H  52.00800 26.52100 40.55100
H  50.98200 25.83300 41.67000
H  53.24300 18.31800 43.19400
H  53.92700 17.10300 44.30600
H  54.71600 17.30600 42.76300
H  58.55500 17.75200 46.21300
H  59.22600 17.04200 44.69700
H  58.49500 16.05600 45.85300
H  61.27400 21.08400 44.67800
H  61.09500 23.08800 46.90800
H  62.15400 20.89000 47.16300
H  61.73300 19.47300 46.19600
H  60.62800 20.07500 47.43500
H  61.71400 24.33100 44.37400
H  62.45000 22.79100 44.44800
H  63.16000 23.94900 46.89900
H  63.64800 25.12600 45.65900
H  64.08200 23.48900 45.45300
H  58.45300 28.97700 45.95300
H  59.88800 27.89800 46.10200
H  58.73100 28.06200 47.35000
H  53.61100 27.34700 44.99600
H  52.51100 28.80200 41.08100
H  51.98700 30.00100 42.25000
H  51.04000 28.50100 41.91300
Mg 41.61200 40.64700 26.49300
C  40.97800 43.12100 28.93000
C  42.94800 38.55800 28.77200
C  42.52200 38.57300 23.89100
C  40.71300 43.04500 24.02600
N  42.15900 40.95900 28.63600
C  41.59900 41.96100 29.44700
C  41.73400 41.44600 30.93900
C  42.68200 40.18600 30.79200
C  42.55500 39.83200 29.34600
C  44.14300 40.36200 31.21600
C  40.34300 41.14600 31.52800
C  39.76600 42.06700 32.62800
H  39.32900 41.33000 33.88700
N  42.53500 38.76900 26.35600
C  42.92600 38.09900 27.41000
C  43.33200 36.74900 26.98900
C  43.35000 36.79800 25.52200
C  42.73800 38.07800 25.17300
C  43.77300 35.73600 27.91700
C  43.96000 35.80200 24.53800
O  43.95600 35.94500 23.30500
C  44.69200 34.59700 25.03900
N  41.57600 40.78000 24.28400
C  42.01600 39.77000 23.45200
C  41.74600 40.15200 21.98100
C  40.89200 41.41200 22.06400
C  41.06100 41.78700 23.55600
C  43.09500 40.30300 21.13200
C  39.40500 41.25500 21.63500
C  38.45700 40.29400 22.41800
N  41.08400 42.63800 26.39600
C  40.76300 43.43500 25.32100
C  40.25000 44.77000 25.75300
C  40.34600 44.66100 27.19500
C  40.83700 43.36900 27.50400
C  39.81100 45.88200 25.01400
C  40.04700 45.38400 28.43400
O  39.55700 46.48800 28.53400
C  40.27800 44.31900 29.61000
C  41.09500 45.00800 30.68600
O  42.21800 44.68900 31.06800
O  40.26200 45.64100 31.51400
C  40.80000 45.90400 32.81200
H  43.37400 37.84500 29.48100
H  42.68900 37.86200 23.07900
H  40.37200 43.77600 23.29100
H  42.23900 42.12600 31.62400
H  42.37500 39.39400 31.47500
H  44.12800 40.68100 32.25900
H  44.70000 41.01800 30.54700
H  44.44500 39.31500 31.18300
H  40.33400 40.10800 31.86300
H  39.59900 41.29800 30.74500
H  38.84900 42.51900 32.25000
H  40.62200 42.66100 32.94700
H  44.79500 35.83500 28.28300
H  43.54100 34.74100 27.53700
H  43.06200 35.82500 28.73800
H  45.49700 34.84200 25.73100
H  45.14200 34.15300 24.15200
H  43.90400 33.95700 25.43700
H  41.15100 39.33000 21.58100
H  41.31700 42.15000 21.38400
H  43.40600 41.33700 20.97900
H  43.01200 39.86500 20.13700
H  43.95000 39.87900 21.65700
H  39.42700 40.65900 20.72300
H  38.94500 42.20400 21.35900
H  39.08300 40.03500 23.27200
H  38.24100 39.37000 21.88100
H  37.53500 40.78400 22.73000
H  40.63800 46.40200 24.53000
H  39.36500 46.66400 25.62900
H  39.07000 45.53200 24.29600
H  39.32500 44.05800 30.07000
H  41.74700 46.44300 32.77600
H  40.83100 44.92800 33.29700
H  40.06600 46.48600 33.36900

