158

Mg -11.77700 38.21300 41.93900
C  -9.58300 35.63500 40.89600
C  -9.50900 40.44100 40.53400
C  -14.13100 40.47100 41.92800
C  -13.94600 35.79200 43.13000
N  -9.68000 38.09200 41.03500
C  -9.01200 36.96600 40.72800
C  -7.79100 37.23400 39.91100
C  -7.59800 38.83400 40.12200
C  -9.00100 39.17200 40.63700
C  -6.51900 39.11700 41.19100
C  -7.95800 36.86200 38.38800
C  -6.91300 35.92500 37.75500
H  -5.99900 36.56000 36.70300
N  -11.82400 40.15700 41.40200
C  -10.78700 40.94600 40.83100
C  -11.19400 42.29700 40.67500
C  -12.58800 42.30700 40.97000
C  -12.88600 40.94400 41.49600
C  -10.34000 43.39200 40.06700
C  -13.44700 43.55800 40.80500
O  -12.99300 44.59400 40.27800
C  -14.93000 43.54400 41.10700
N  -13.79800 38.12000 42.29700
C  -14.45900 39.27500 42.53600
C  -15.87700 39.05000 43.17200
C  -15.97500 37.50400 43.26000
C  -14.48600 37.10100 42.98500
C  -16.08200 39.89600 44.54200
C  -16.86000 36.83400 42.16100
C  -17.33600 35.42200 42.47800
N  -11.90400 36.11000 41.95400
C  -12.74100 35.29100 42.60400
C  -12.28100 33.88900 42.46000
C  -11.06100 33.98400 41.72300
C  -10.84600 35.40000 41.54700
C  -13.08500 32.70300 42.76900
C  -10.04800 33.21000 40.99200
O  -9.94400 31.99000 40.77300
C  -9.19600 34.32400 40.31000
C  -7.69800 33.91900 40.37400
O  -6.89700 34.24700 41.25300
O  -7.36900 33.22400 39.23300
C  -6.06800 32.52500 39.33200
H  -8.81200 41.18900 40.14800
H  -14.97900 41.13900 41.76400
H  -14.62300 35.08100 43.60800
H  -6.97700 36.63900 40.32500
H  -7.34700 39.33600 39.18800
H  -5.74600 38.36100 41.32500
H  -7.00000 39.41200 42.12400
H  -5.99800 39.99000 40.79800
H  -7.92400 37.77500 37.79400
H  -8.95900 36.49400 38.16400
H  -7.31500 35.08800 37.18400
H  -6.28700 35.49600 38.53700
H  -10.80300 43.82500 39.18100
H  -9.38000 43.05000 39.68000
H  -10.14600 44.15500 40.82200
H  -15.47100 42.86400 40.44800
H  -15.28000 44.55400 40.89300
H  -15.09500 43.51100 42.18400
H  -16.71200 39.31000 42.52200
H  -16.32800 37.06100 44.19200
H  -16.68400 39.32400 45.24700
H  -16.65800 40.77700 44.25800
H  -15.11300 40.00700 45.03000
H  -16.24900 36.81500 41.25900
H  -17.73000 37.45300 41.94100
H  -17.73600 35.10800 43.44200
H  -16.66800 34.60300 42.21100
H  -18.18800 35.19200 41.83800
H  -14.14100 32.86400 42.55300
H  -13.04900 32.53400 43.84500
H  -12.88500 31.79200 42.20600
H  -9.51300 34.46100 39.27600
H  -5.52000 32.51200 40.27400
H  -5.37500 32.90300 38.58000
H  -6.28700 31.50500 39.01800
Mg -12.00500 16.45300 41.30200
C  -8.81000 15.12100 40.93500
C  -11.04000 19.37300 39.81700
C  -15.25400 17.40300 41.34900
C  -13.11400 13.23600 42.44000
N  -10.17300 17.06800 40.29400
C  -8.93600 16.42100 40.30800
C  -7.83000 17.22200 39.62400
C  -8.54500 18.62100 39.26200
C  -10.03100 18.33000 39.78600
C  -7.93300 19.87000 39.84500
C  -7.04200 16.48300 38.48500
C  -6.03700 17.33600 37.69600
H  -6.06700 17.27100 36.15200
N  -13.04700 18.17900 40.70300
C  -12.45400 19.31100 40.23400
C  -13.42900 20.39600 40.25100
C  -14.58800 19.82500 40.82500
C  -14.34500 18.44000 41.05800
C  -13.13400 21.86500 39.87300
C  -15.83000 20.62300 41.24200
O  -15.98000 21.84500 40.96400
C  -16.94300 19.95600 42.03100
N  -13.91900 15.33400 41.75900
C  -15.10300 15.99000 41.62800
C  -16.33400 15.18700 42.03200
C  -15.59100 13.87200 42.56100
C  -14.10200 14.14000 42.26200
C  -17.32000 15.80000 43.03800
C  -16.10300 12.54600 41.81300
C  -16.04900 11.23000 42.63300
N  -11.19300 14.50600 41.57700
C  -11.68800 13.33600 42.16900
C  -10.65900 12.40000 42.34600
C  -9.55100 13.01600 41.83200
C  -9.88900 14.28100 41.34000
C  -10.76400 10.95500 42.86500
C  -8.14400 12.95900 41.63800
O  -7.38500 12.02600 41.86600
C  -7.63500 14.24600 41.03300
C  -6.65500 14.77400 41.99700
O  -6.89900 15.54700 42.91600
O  -5.37400 14.21300 41.76200
C  -4.43900 14.59600 42.81900
H  -10.76900 20.35700 39.42900
H  -16.32100 17.63300 41.36700
H  -13.46200 12.26200 42.79000
H  -7.07900 17.33600 40.40700
H  -8.55700 18.72600 38.17700
H  -8.56100 20.30200 40.62400
H  -7.83400 20.56600 39.01200
H  -6.97000 19.67200 40.31500
H  -7.72400 15.83100 37.94000
H  -6.42200 15.74400 38.99300
H  -5.08600 16.98600 38.09800
H  -6.15900 18.34800 38.08300
H  -13.66300 22.31100 39.03000
H  -12.08300 21.99300 39.61400
H  -13.32300 22.46700 40.76200
H  -17.56400 20.79200 42.35000
H  -16.51600 19.53600 42.94200
H  -17.45600 19.32300 41.30700
H  -16.80200 15.01000 41.06400
H  -15.68600 13.72100 43.63700
H  -17.87700 14.86600 43.11500
H  -17.81500 16.69800 42.66900
H  -16.70000 16.07100 43.89300
H  -15.54600 12.43600 40.88300
H  -17.13000 12.79200 41.54400
H  -17.09500 10.97700 42.80700
H  -15.54200 11.39600 43.58400
H  -15.63800 10.43200 42.01400
H  -11.71800 10.53800 42.54500
H  -10.68200 11.05500 43.94800
H  -9.96800 10.33700 42.45000
H  -7.11000 14.02500 40.10400
H  -4.14200 15.63400 42.66800
H  -3.52900 13.99900 42.75700
H  -4.73800 14.54300 43.86500

