158

Mg 41.24400 40.32200 26.93700
C  40.51700 42.48600 29.49500
C  42.32500 37.98400 29.37100
C  42.26200 38.22100 24.40300
C  40.92900 42.83300 24.65100
N  41.53400 40.31000 29.33300
C  40.97100 41.25900 30.10800
C  40.98600 40.77200 31.55700
C  41.73800 39.36600 31.55400
C  41.86200 39.20500 30.04100
C  43.00100 39.10400 32.54800
C  39.54300 40.92600 32.30800
C  39.41300 40.14300 33.61800
H  38.92100 40.84300 34.90700
N  42.16300 38.38500 26.89500
C  42.55500 37.57400 28.01300
C  43.00000 36.31200 27.51400
C  42.96100 36.36200 26.07800
C  42.34700 37.65700 25.72900
C  43.45100 35.17800 28.44700
C  43.42600 35.26100 25.01700
O  43.34700 35.48100 23.82600
C  43.91200 33.93500 25.50300
N  41.68800 40.53300 24.74900
C  41.91200 39.44800 23.94100
C  41.82600 39.84600 22.48300
C  41.19700 41.26400 22.66000
C  41.23600 41.59400 24.06500
C  43.20100 39.76000 21.81500
C  39.72200 41.34100 22.21700
C  38.70100 40.30700 22.63800
N  40.79100 42.12200 26.96400
C  40.74800 43.12400 25.98800
C  40.61300 44.36300 26.53800
C  40.33200 44.13700 27.93400
C  40.50500 42.79800 28.10500
C  40.77800 45.57000 25.73200
C  39.95000 44.82000 29.14500
O  39.76100 45.98500 29.30200
C  40.05000 43.77600 30.31200
C  41.06400 44.20700 31.41500
O  42.23100 44.29400 31.25400
O  40.42800 44.52000 32.58300
C  41.22300 45.16800 33.55600
H  42.38900 37.08200 29.98400
H  42.33200 37.44400 23.63900
H  40.72800 43.64000 23.94300
H  41.66500 41.40500 32.12700
H  41.06600 38.56200 31.85500
H  43.94700 39.37200 32.07600
H  43.14200 38.06400 32.84000
H  42.80500 39.66300 33.46300
H  38.84200 40.52700 31.57400
H  39.29800 41.98200 32.42400
H  40.44300 40.02000 33.95200
H  39.02800 39.13800 33.43900
H  42.72500 34.36400 28.43500
H  43.50900 35.37700 29.51700
H  44.43500 34.80000 28.17300
H  43.10500 33.53500 26.11600
H  44.78000 34.05000 26.15300
H  44.18800 33.31000 24.65300
H  41.19900 39.21400 21.85400
H  41.85600 41.93100 22.10400
H  43.11600 38.80700 21.29400
H  44.06900 39.67900 22.47000
H  43.15100 40.43100 20.95800
H  39.59100 41.35800 21.13500
H  39.54700 42.38500 22.47600
H  38.99600 39.52800 23.34100
H  38.46100 39.80000 21.70300
H  37.73200 40.73300 22.90100
H  40.37700 46.40300 26.30900
H  40.32500 45.54300 24.74100
H  41.84200 45.72500 25.55300
H  39.02800 43.55800 30.62400
H  41.63400 46.11300 33.20200
H  42.07500 44.58700 33.90900
H  40.68600 45.53300 34.43100
Mg 6.80600 54.55000 41.68000
C  5.76800 51.29200 41.23200
C  9.89900 53.67700 40.41400
C  7.53900 57.76200 41.48400
C  3.39200 55.45200 42.56600
N  7.63400 52.73900 40.82100
C  7.07000 51.44000 40.83200
C  8.06600 50.39300 40.17500
C  9.42200 51.17400 40.32900
C  8.95000 52.66100 40.52600
C  10.33100 50.59500 41.43800
C  7.71900 50.03600 38.62300
C  7.07600 51.08900 37.78600
H  6.67600 50.65400 36.35600
N  8.50300 55.57500 41.12300
C  9.66600 55.05300 40.50900
C  10.54600 56.11600 40.19100
C  9.94200 57.31500 40.57200
C  8.59100 56.93600 41.13100
C  11.93700 55.86600 39.57100
C  10.68600 58.72300 40.52600
O  11.86100 58.83000 40.09700
C  10.07900 59.92200 41.17500
N  5.61800 56.35000 42.09100
C  6.27200 57.56200 41.99300
C  5.26200 58.72700 42.13800
C  3.85400 57.98700 42.51000
C  4.24500 56.50100 42.39900
C  5.78600 59.78600 43.14200
C  2.62200 58.32800 41.53700
C  1.34700 58.77000 42.28200
N  4.99500 53.61500 42.03900
C  3.73100 54.07900 42.43900
C  2.87800 52.91400 42.61200
C  3.65400 51.80500 42.18200
C  4.90300 52.29900 41.71400
C  1.43000 52.80200 43.06400
C  3.63600 50.41500 42.08800
O  2.78800 49.62000 42.52500
C  4.98000 49.96700 41.39400
C  4.49500 49.39600 40.11000
O  3.76400 49.84400 39.25200
O  5.02300 48.12300 40.02300
C  4.43100 47.32900 38.92000
H  10.90800 53.35700 40.14800
H  7.86200 58.79200 41.32000
H  2.38100 55.70500 42.89400
H  7.97500 49.51200 40.81000
H  10.08800 51.16700 39.46700
H  11.27600 50.27000 41.00300
H  9.75800 49.75100 41.82300
H  10.41600 51.35200 42.21700
H  7.03600 49.19000 38.69900
H  8.56300 49.61200 38.07900
H  7.78900 51.91200 37.72200
H  6.15400 51.44100 38.25000
H  12.12300 56.72100 38.92100
H  12.04100 54.96700 38.96200
H  12.69600 55.78200 40.34800
H  9.16000 60.13100 40.62900
H  10.84500 60.69600 41.12700
H  9.91400 59.66900 42.22300
H  5.24900 59.21200 41.16200
H  3.51000 58.17200 43.52800
H  6.79500 59.64900 43.53000
H  5.00800 59.85300 43.90200
H  5.84600 60.73200 42.60400
H  2.34700 57.44400 40.96100
H  2.97100 59.15300 40.91700
H  0.53500 58.06800 42.09500
H  0.99000 59.72700 41.90200
H  1.48900 58.83100 43.36100
H  1.06400 53.82700 43.12200
H  1.37600 52.31100 44.03600
H  0.94700 52.18100 42.30900
H  5.54300 49.27000 42.01400
H  4.72800 46.30800 39.16000
H  5.22100 47.55100 38.20300
H  3.41500 47.62000 38.65300

