158

Mg -2.28800 17.39500 24.90800
C  -2.60800 15.07800 27.64900
C  -3.22400 19.82900 27.08600
C  -1.87700 19.38800 22.49400
C  -2.14900 14.53600 22.77700
N  -2.69100 17.44700 27.19300
C  -2.76200 16.43600 28.04800
C  -3.32200 16.93200 29.39700
C  -4.04200 18.35200 29.01200
C  -3.31400 18.57300 27.63300
C  -5.57200 18.32500 28.77800
C  -2.31900 16.99400 30.55600
C  -2.62100 16.17600 31.92100
H  -1.44900 15.88800 32.82800
N  -2.32700 19.31500 24.85300
C  -2.77100 20.21800 25.77000
C  -2.56800 21.59700 25.32000
C  -2.15200 21.45300 24.00500
C  -2.06700 20.04900 23.73000
C  -2.85500 22.78500 26.19900
C  -1.90400 22.53000 22.90800
O  -1.74800 22.17800 21.72200
C  -1.88400 23.95000 23.44400
N  -2.13500 16.97600 22.83500
C  -1.89300 18.08500 22.04400
C  -1.85700 17.68400 20.58100
C  -1.99600 16.11600 20.66400
C  -2.06400 15.84600 22.17100
C  -2.82200 18.30200 19.61500
C  -0.71300 15.42800 20.03500
C  0.49400 15.26800 20.95100
N  -2.29600 15.26600 25.12100
C  -2.21400 14.27400 24.14600
C  -2.25800 12.91600 24.83400
C  -2.35800 13.19600 26.18500
C  -2.33000 14.61300 26.32600
C  -2.25000 11.70800 24.16300
C  -2.49700 12.56600 27.44800
O  -2.53800 11.38300 27.66000
C  -2.67100 13.75300 28.47500
C  -1.65500 13.69200 29.49300
O  -0.50100 14.17600 29.48400
O  -2.22700 12.92400 30.47900
C  -1.35900 12.45700 31.56800
H  -3.67600 20.58200 27.73600
H  -1.82500 20.05300 21.62900
H  -1.98800 13.72500 22.06400
H  -4.07700 16.22800 29.74700
H  -3.87700 19.18100 29.70000
H  -6.08600 19.12000 29.31900
H  -5.97400 17.46000 29.30600
H  -5.84000 18.11700 27.74200
H  -1.99800 17.96100 30.94200
H  -1.43400 16.51900 30.13300
H  -3.11200 15.25900 31.59500
H  -3.34700 16.81700 32.42200
H  -2.12300 23.58500 26.08100
H  -2.93400 22.55000 27.26000
H  -3.82400 23.23700 25.99000
H  -1.52000 24.66200 22.70200
H  -1.14200 24.06200 24.23400
H  -2.86400 24.21300 23.84200
H  -0.87300 17.99300 20.22700
H  -2.97100 15.75400 20.33900
H  -3.38700 19.10600 20.08700
H  -3.52200 17.55200 19.24600
H  -2.34900 18.67700 18.70700
H  -0.45700 16.05300 19.17900
H  -1.13000 14.47000 19.72400
H  0.34500 15.80500 21.88800
H  1.32300 15.70000 20.39100
H  0.57200 14.20200 21.16200
H  -2.33400 11.94800 23.10300
H  -3.13400 11.17200 24.50900
H  -1.32400 11.18600 24.40100
H  -3.61800 13.62400 28.99900
H  -1.36900 11.36900 31.50200
H  -1.79400 12.87000 32.47800
H  -0.30900 12.73100 31.46300
Mg 9.46900 47.08200 27.28100
C  7.38800 46.74500 29.92400
C  12.09900 47.71800 29.50400
C  11.46600 47.93400 24.71900
C  6.77000 47.27600 25.20200
N  9.62900 47.49100 29.44900
C  8.72400 46.98800 30.31600
C  9.18900 47.10300 31.83900
C  10.58000 47.70000 31.65800
C  10.78300 47.67500 30.11700
C  10.65900 49.22800 32.10300
C  9.28000 45.72600 32.67200
C  10.24500 45.55200 33.84800
H  9.58300 44.78200 35.03600
N  11.53900 47.50200 27.10500
C  12.49500 47.65300 28.11900
C  13.83700 47.84300 27.65400
C  13.64900 47.91700 26.22700
C  12.17900 47.80300 25.97800
C  15.15600 47.92100 28.47400
C  14.67300 48.08700 25.15400
O  14.45300 48.09500 23.95200
C  16.17000 48.26500 25.60100
N  9.10200 47.80000 25.31400
C  10.13400 47.99000 24.39100
C  9.63300 48.32000 23.04600
C  8.08100 47.94300 23.19200
C  7.94300 47.56900 24.60100
C  9.86400 49.83200 22.61300
C  7.63400 46.70100 22.22800
C  6.74800 47.13800 21.05800
N  7.47900 47.04700 27.45500
C  6.46500 47.02200 26.57600
C  5.10800 46.73800 27.19200
C  5.52100 46.64500 28.47200
C  6.89600 46.82000 28.61600
C  3.75500 46.63300 26.51600
C  4.97100 46.47500 29.77800
O  3.76200 46.26400 29.99500
C  6.11200 46.61000 30.82600
C  6.14200 45.47900 31.69400
O  6.84900 44.45700 31.52400
O  5.13900 45.62800 32.63100
C  5.05500 44.51400 33.65200
H  13.00400 47.84000 30.10300
H  11.95900 48.15000 23.76800
H  5.90300 47.23500 24.54000
H  8.52800 47.77300 32.38900
H  11.39100 47.09400 32.06300
H  11.59100 49.46000 32.61800
H  9.83600 49.64200 32.68500
H  10.68500 49.78300 31.16500
H  9.36800 44.86700 32.00700
H  8.32500 45.66900 33.19400
H  10.61700 46.46700 34.30700
H  11.05100 44.85000 33.63700
H  15.05000 47.70300 29.53600
H  15.73500 48.84500 28.45500
H  15.79000 47.10700 28.12100
H  16.75600 48.51500 24.71600
H  16.59200 47.33400 25.97900
H  16.18300 48.98600 26.41800
H  9.97800 47.79100 22.15700
H  7.62000 48.88500 22.89700
H  9.09000 50.59700 22.56000
H  10.35600 49.80100 21.64100
H  10.56800 50.23400 23.34200
H  7.08100 45.96700 22.81400
H  8.53400 46.22800 21.83600
H  6.82000 48.19200 20.79100
H  5.75100 46.95700 21.46000
H  6.96900 46.42400 20.26400
H  3.96600 46.23500 25.52400
H  3.30700 47.61100 26.34000
H  3.01600 46.06900 27.08500
H  5.83100 47.42100 31.49900
H  4.59600 43.67700 33.12500
H  4.25100 44.80000 34.33000
H  6.02800 44.39600 34.13000

