158

Mg 6.43300 54.37600 39.68000
C  5.91300 50.95800 39.50900
C  9.67600 53.96400 39.04700
C  6.63600 57.60700 39.03400
C  2.91800 54.70700 39.95800
N  7.59400 52.66400 39.19600
C  7.26600 51.37800 39.25000
C  8.50000 50.53200 38.84100
C  9.66500 51.46700 39.09300
C  8.94700 52.81600 39.15800
C  10.30600 51.23400 40.53200
C  8.41000 50.04000 37.41400
C  8.48500 51.12300 36.37000
H  7.17300 51.51500 35.57400
N  7.95100 55.62000 39.06800
C  9.22600 55.29500 38.89800
C  10.09900 56.50200 38.64100
C  9.19200 57.59400 38.55700
C  7.82600 56.99600 38.92500
C  11.60400 56.60400 38.41400
C  9.58000 59.07400 38.38400
O  10.74700 59.39400 38.37400
C  8.51600 60.11300 38.35000
N  5.01800 55.98800 39.38100
C  5.42100 57.27000 39.38200
C  4.30700 58.24900 39.73500
C  3.12200 57.35100 39.99800
C  3.71500 55.90100 39.79000
C  4.66500 59.17000 40.93700
C  1.88700 57.50000 39.02700
C  0.72900 58.21800 39.68400
N  4.67700 53.14300 39.82600
C  3.33300 53.41700 39.98100
C  2.58000 52.09100 40.13700
C  3.58800 51.11200 39.99100
C  4.81900 51.79300 39.72000
C  1.03400 51.90700 40.48800
C  3.86800 49.68700 40.03800
O  3.13000 48.72900 40.15200
C  5.41100 49.55500 39.78800
C  5.41000 48.69900 38.61000
O  4.96400 48.86300 37.51000
O  6.09000 47.47800 38.86700
C  6.05200 46.46600 37.82000
H  10.74800 53.89000 38.85200
H  6.53900 58.66900 38.79800
H  1.86800 54.92900 40.15600
H  8.63200 49.64300 39.45800
H  10.43900 51.47000 38.32500
H  10.10800 50.23700 40.92400
H  9.98600 52.01100 41.22800
H  11.39500 51.20100 40.52400
H  7.51500 49.43500 37.27000
H  9.12400 49.23600 37.23600
H  9.11300 50.70500 35.58300
H  9.03900 52.01100 36.67400
H  11.84300 56.85000 37.38000
H  12.13900 55.67100 38.59200
H  12.10300 57.37400 39.00300
H  9.12500 61.00700 38.21900
H  7.89400 60.20600 39.24100
H  7.79000 59.89800 37.56600
H  4.06200 58.87300 38.87600
H  2.75200 57.39500 41.02300
H  5.74800 59.17900 41.06100
H  4.26100 58.70400 41.83600
H  4.30000 60.19200 40.83300
H  1.56400 56.64300 38.43500
H  2.20600 58.22500 38.27800
H  -0.02000 58.47600 38.93500
H  1.21000 59.02700 40.23400
H  0.31000 57.52000 40.40800
H  0.68800 52.92400 40.67300
H  0.93700 51.35000 41.42000
H  0.52000 51.46900 39.63300
H  6.04000 48.99300 40.47900
H  7.03400 46.00000 37.73900
H  5.87000 46.85400 36.81800
H  5.34700 45.65900 38.01900
Mg 17.39200 52.21200 25.15700
C  18.83900 50.95000 28.16600
C  14.84500 53.56400 27.11500
C  16.36300 53.47400 22.45600
C  19.92900 50.47200 23.39100
N  16.85600 52.11500 27.37200
C  17.67100 51.68700 28.35700
C  17.15100 52.14900 29.68800
C  15.76100 52.73300 29.36800
C  15.80300 52.84100 27.87400
C  14.57400 51.81500 29.88900
C  18.24100 53.07000 30.46500
C  18.53600 52.74900 31.97900
H  17.41700 52.02600 32.88200
N  15.75700 53.28200 24.79700
C  14.79800 53.70300 25.68000
C  13.83500 54.47700 24.97100
C  14.22300 54.47900 23.57300
C  15.47800 53.67000 23.52300
C  12.79400 55.26300 25.72100
C  13.52800 55.09700 22.43600
O  14.03100 55.17600 21.28800
C  12.11400 55.52200 22.69600
N  18.17200 52.07300 23.25100
C  17.54800 52.78600 22.29200
C  18.22800 52.56300 20.92400
C  19.44400 51.76700 21.30000
C  19.15600 51.34500 22.72300
C  17.23900 51.81200 19.90600
C  20.77700 52.65100 21.27800
C  21.56300 52.45000 19.99700
N  19.00500 50.82400 25.62500
C  19.90600 50.25100 24.75900
C  20.83700 49.47000 25.59400
C  20.39600 49.68100 26.94800
C  19.35400 50.53200 26.91900
C  22.10500 48.70700 25.12400
C  20.81200 49.38700 28.29800
O  21.79100 48.78100 28.76600
C  19.89400 50.33900 29.18700
C  19.27500 49.36400 30.15600
O  18.40000 48.49500 29.88400
O  19.98800 49.48900 31.28700
C  19.58900 48.62700 32.38900
H  14.03900 53.99700 27.71200
H  16.11800 54.04900 21.56100
H  20.63700 49.88200 22.80500
H  17.10700 51.26500 30.32300
H  15.47300 53.73000 29.70100
H  14.06800 51.55800 28.95800
H  13.92800 52.45600 30.49000
H  14.91600 50.99400 30.51800
H  18.00000 54.12700 30.35300
H  19.12200 53.00800 29.82600
H  18.68700 53.67000 32.54100
H  19.43900 52.13900 32.00100
H  12.85200 56.27900 25.33000
H  12.81500 55.32900 26.80800
H  11.84300 54.82600 25.41400
H  11.86000 56.48200 23.14400
H  11.53400 54.71400 23.14100
H  11.64900 55.59500 21.71200
H  18.44500 53.55300 20.52200
H  19.69800 50.95000 20.62500
H  17.34100 52.26100 18.91700
H  16.25100 51.78900 20.36700
H  17.49600 50.76200 19.76900
H  21.37500 52.22500 22.08500
H  20.59100 53.72300 21.34100
H  20.95300 52.56600 19.10100
H  21.88200 51.40800 19.96900
H  22.41600 53.12800 20.03300
H  22.62700 49.16700 24.28500
H  21.97100 47.66200 24.84500
H  22.77700 48.64900 25.98100
H  20.46300 51.02900 29.81100
H  18.50100 48.57600 32.33100
H  19.86100 49.16300 33.29800
H  20.00500 47.62100 32.33700

