158

Mg 25.73800 1.74700 29.55400
C  27.75300 1.15500 32.49100
C  23.14300 2.12800 31.53400
C  23.89100 1.66100 26.76300
C  28.58600 0.57300 27.63800
N  25.55900 1.65400 31.77300
C  26.42100 1.53500 32.82000
C  25.75300 1.70700 34.21200
C  24.31800 1.72300 33.79800
C  24.29900 1.86900 32.23800
C  23.36300 0.56900 34.40100
C  26.22500 3.00400 35.07400
C  26.65500 2.72700 36.41500
H  26.57600 3.73000 37.54000
N  23.74800 2.18000 29.18200
C  22.83200 2.32100 30.12900
C  21.53500 2.55200 29.49000
C  21.71500 2.35100 28.07800
C  23.15500 1.96900 27.99300
C  20.32500 2.96500 30.27100
C  20.74500 2.45900 26.91600
O  21.12300 2.27700 25.76500
C  19.32500 2.76000 27.14200
N  26.14300 1.02300 27.58200
C  25.21800 1.27200 26.56800
C  25.87100 1.23900 25.14500
C  27.40300 1.09600 25.47300
C  27.40900 0.79700 26.97000
C  25.23700 0.19600 24.10400
C  28.28900 2.29800 24.95500
C  28.82700 2.23000 23.58600
N  27.73000 0.98700 29.96600
C  28.75000 0.61300 29.07500
C  29.99800 0.47100 29.84400
C  29.61300 0.61800 31.14500
C  28.25400 0.87200 31.22500
C  31.33900 0.04700 29.23400
C  30.13100 0.50000 32.52200
O  31.24600 0.24900 32.99700
C  28.92300 0.96900 33.39800
C  28.72000 -0.05600 34.46800
O  27.90500 -0.92900 34.55200
O  29.64700 0.20100 35.45800
C  29.51200 -0.58700 36.66100
H  22.26600 1.86200 32.12800
H  23.31900 1.79600 25.84200
H  29.40900 0.36400 26.95100
H  25.94300 0.83800 34.84200
H  23.87700 2.63300 34.20400
H  23.96800 -0.30400 34.64900
H  22.56200 0.28800 33.71700
H  23.01900 0.96600 35.35600
H  25.47500 3.79500 35.06400
H  27.11500 3.19500 34.47400
H  27.72900 2.68000 36.23500
H  26.39100 1.72300 36.74800
H  19.98300 3.95600 29.97200
H  20.62800 2.90200 31.31600
H  19.42400 2.36800 30.12900
H  18.77800 2.52900 26.22800
H  19.06300 3.77700 27.43100
H  18.92500 2.01200 27.82800
H  25.61600 2.17900 24.65700
H  27.74000 0.23100 24.90300
H  24.22400 -0.07000 24.40600
H  25.87300 -0.68000 23.98200
H  25.13200 0.69100 23.13800
H  29.00800 2.69100 25.67400
H  27.50200 3.02900 24.76800
H  28.60300 1.28200 23.09700
H  29.89200 2.44100 23.68200
H  28.50000 3.14200 23.08600
H  31.35400 -0.74100 28.48100
H  31.87700 -0.39900 30.07100
H  31.99600 0.86900 28.95000
H  29.04000 1.89200 33.96600
H  28.45800 -0.62900 36.93400
H  30.19100 -0.14700 37.39200
H  29.87000 -1.58500 36.40900
Mg 35.48500 2.83200 30.51500
C  33.09200 3.83700 32.85100
C  37.85700 2.77300 32.97800
C  37.72000 1.97700 28.24200
C  33.08800 3.36900 27.93400
N  35.41300 3.20800 32.70900
C  34.31100 3.47700 33.44800
C  34.63100 3.12900 34.97000
C  36.24300 3.33900 34.94100
C  36.54300 3.05800 33.50300
C  36.76800 4.74700 35.39100
C  34.06600 1.73100 35.34700
C  33.99900 1.40000 36.83200
H  34.74400 2.17200 37.81700
N  37.51900 2.38700 30.59500
C  38.33900 2.41300 31.70200
C  39.65300 2.03100 31.34000
C  39.59700 1.75400 29.95400
C  38.27300 2.07000 29.50800
C  40.74000 1.94000 32.35700
C  40.73200 1.22800 29.00800
O  40.66900 1.09200 27.80000
C  41.92300 0.71100 29.58800
N  35.34000 2.52400 28.44300
C  36.44400 2.22200 27.71100
C  36.16400 2.23800 26.18700
C  34.62200 2.46600 26.19800
C  34.35000 2.89300 27.60300
C  37.02000 3.33800 25.43700
C  33.67900 1.26400 25.81500
C  32.55500 1.52100 24.75700
N  33.51000 3.56700 30.37200
C  32.68100 3.70700 29.26900
C  31.35900 4.25600 29.70900
C  31.51000 4.31800 31.11600
C  32.79600 3.81800 31.48900
C  30.18300 4.67900 28.90900
C  30.85600 4.68400 32.28900
O  29.76600 5.22500 32.49900
C  31.73600 4.12900 33.47000
C  31.95900 5.20000 34.45100
O  32.56600 6.25400 34.32700
O  31.08800 4.82900 35.49800
C  31.00800 5.77500 36.55900
H  38.64500 2.90300 33.72400
H  38.51600 1.86500 27.50200
H  32.42200 3.53300 27.08400
H  34.13700 3.86100 35.60900
H  36.70100 2.55000 35.53700
H  35.90000 5.17400 35.89300
H  37.11400 5.20800 34.46600
H  37.67000 4.61300 35.98900
H  34.59400 0.90000 34.87800
H  33.07000 1.78000 34.90700
H  34.13000 0.32700 36.97300
H  32.96300 1.59000 37.11400
H  40.57200 0.98200 32.85000
H  40.79700 2.73900 33.09600
H  41.71300 1.98000 31.86900
H  42.44800 0.07200 28.87900
H  41.69500 0.19400 30.52000
H  42.55800 1.55000 29.87300
H  36.30600 1.20400 25.87200
H  34.45800 3.31600 25.53500
H  36.40900 4.06900 24.90800
H  37.58600 2.91900 24.60500
H  37.59800 3.92300 26.15300
H  33.27100 0.68000 26.64000
H  34.24400 0.46500 25.33500
H  32.86400 1.19800 23.76300
H  32.35700 2.59300 24.77100
H  31.65700 0.99600 25.08200
H  29.55600 5.33400 29.51300
H  29.64500 3.75800 28.68600
H  30.49800 5.20200 28.00600
H  31.30400 3.25300 33.95500
H  30.45900 5.36200 37.40600
H  30.56400 6.74100 36.31900
H  32.04800 5.92700 36.84700

