158

Mg 46.25300 24.20200 28.73600
C  47.14000 26.28300 31.42200
C  45.25600 21.86800 30.97900
C  46.42200 21.84200 26.28000
C  47.84500 26.52000 26.60800
N  45.93500 24.25200 30.96200
C  46.36100 25.23300 31.86600
C  45.96000 24.83700 33.30600
C  45.55200 23.29400 33.15000
C  45.62200 23.06900 31.59500
C  46.44100 22.35200 33.95300
C  44.83500 25.76200 33.98000
C  45.13700 26.33000 35.40500
H  44.05200 26.26000 36.39700
N  45.76700 22.18700 28.60100
C  45.43100 21.43900 29.64900
C  45.06700 20.08700 29.19200
C  45.29800 20.10800 27.76900
C  45.84700 21.42300 27.48400
C  44.43300 19.02500 30.07400
C  45.01300 19.00500 26.73700
O  45.08000 19.20400 25.50700
C  44.59500 17.70900 27.30400
N  46.88000 24.30100 26.67900
C  46.85500 23.10500 25.94500
C  47.44900 23.35300 24.56000
C  47.79600 24.90100 24.59000
C  47.47200 25.32700 26.02600
C  48.53400 22.44400 24.04100
C  47.11500 25.75500 23.52000
C  47.79800 25.86600 22.11000
N  47.09100 26.04200 28.87400
C  47.66200 26.90300 27.94700
C  48.21200 28.10500 28.52700
C  48.05700 27.88300 29.89500
C  47.34300 26.62800 30.08400
C  48.83200 29.29500 27.79800
C  48.34500 28.44500 31.24200
O  48.88100 29.51900 31.59100
C  47.72600 27.39600 32.28300
C  48.74400 26.92700 33.22000
O  49.50600 26.00100 32.92600
O  48.60900 27.58300 34.42900
C  49.34000 27.07700 35.59400
H  45.01200 21.03800 31.64500
H  46.41300 21.12700 25.45500
H  48.30000 27.20800 25.89200
H  46.86700 24.99700 33.88900
H  44.50200 23.19700 33.42600
H  45.92800 22.31400 34.91400
H  47.49900 22.61400 33.96100
H  46.31400 21.36000 33.51800
H  43.87400 25.24900 34.00800
H  44.85300 26.66200 33.36500
H  45.36000 27.39700 35.40600
H  46.02100 25.81400 35.77900
H  43.41200 18.99900 29.69300
H  44.43200 19.29900 31.12900
H  45.02400 18.11000 30.06100
H  43.70300 17.83100 27.91800
H  45.46000 17.42600 27.90300
H  44.39000 17.04500 26.46400
H  46.64900 23.23000 23.83000
H  48.85600 25.01900 24.36200
H  49.47300 22.97200 23.87700
H  48.20300 21.99300 23.10500
H  48.64000 21.79000 24.90600
H  47.15900 26.77100 23.91200
H  46.09200 25.41200 23.36800
H  48.70000 25.26100 22.02200
H  48.10300 26.87800 21.84300
H  47.02500 25.44100 21.47000
H  48.41600 29.56900 26.82800
H  49.86800 28.99700 27.63800
H  48.81000 30.20400 28.39800
H  46.89100 27.89200 32.77800
H  50.27400 27.63700 35.60100
H  49.64800 26.03100 35.59300
H  48.74500 27.34000 36.46900
Mg 6.97500 56.80900 41.76800
C  5.62400 53.59700 41.04500
C  9.93200 55.79500 40.85900
C  7.83100 60.18600 41.62700
C  3.68100 57.87600 42.39700
N  7.60100 54.91500 40.91300
C  6.95000 53.67700 40.71800
C  8.00000 52.58200 40.32600
C  9.39300 53.31100 40.57900
C  8.93400 54.75300 40.96000
C  10.17300 52.57800 41.69000
C  7.64600 52.21500 38.82800
C  7.61800 50.73300 38.41000
H  7.41500 50.35000 36.84900
N  8.57800 57.87600 41.22300
C  9.74700 57.25900 40.88000
C  10.76900 58.21700 40.62200
C  10.18400 59.51000 40.72200
C  8.76600 59.24700 41.18200
C  12.16700 57.83600 40.26100
C  10.81700 60.81900 40.45400
O  12.00300 60.96700 40.14300
C  10.16400 62.13800 40.57700
N  5.81700 58.82300 41.91400
C  6.50200 60.02100 41.96200
C  5.51700 61.20300 42.29300
C  4.18800 60.36000 42.54800
C  4.54300 58.93800 42.25000
C  6.04600 62.04700 43.46800
C  2.88100 60.86300 41.81600
C  1.70300 61.47200 42.61300
N  5.04200 56.00300 41.76200
C  3.83700 56.50200 42.19000
C  2.84300 55.53200 42.30500
C  3.56500 54.32100 41.92100
C  4.85200 54.66400 41.55400
C  1.42100 55.58300 42.84100
C  3.47300 52.88300 41.79700
O  2.63700 52.09600 42.16800
C  4.69000 52.37700 41.23000
C  4.33300 51.74500 39.90300
O  4.14000 52.32200 38.84100
O  4.22300 50.41200 40.02300
C  3.64400 49.62600 38.88800
H  10.93500 55.54300 40.50700
H  8.24500 61.19400 41.69700
H  2.66000 58.22400 42.56700
H  7.69100 51.79200 41.01000
H  10.08900 53.22700 39.74400
H  11.17100 53.01100 41.75100
H  10.17800 51.50000 41.53200
H  9.60300 52.91100 42.55700
H  8.33500 52.62100 38.08700
H  6.72100 52.69600 38.51000
H  6.86900 50.29500 39.06900
H  8.58000 50.32200 38.71700
H  12.43700 58.35100 39.33900
H  12.42200 56.79800 40.04600
H  12.85700 58.16400 41.03800
H  10.39800 62.47000 41.58800
H  9.11400 62.22400 40.29900
H  10.62200 62.85700 39.89800
H  5.49000 61.70200 41.32400
H  4.00100 60.31100 43.62000
H  5.36600 61.97300 44.31700
H  6.10800 63.08800 43.15100
H  7.07100 61.81200 43.75400
H  2.38200 60.09900 41.22000
H  3.25800 61.62300 41.13100
H  1.98600 61.23900 43.64000
H  0.79800 60.95700 42.29200
H  1.59800 62.49600 42.25400
H  0.75100 55.22000 42.06100
H  1.12500 56.61300 43.03600
H  1.33400 55.05400 43.79000
H  5.23800 51.64200 41.82000
H  3.29300 48.77700 39.47400
H  4.38300 49.45000 38.10700
H  2.85900 50.21900 38.41800

