158

Mg 25.50600 1.24300 29.08800
C  27.47400 0.77000 32.00700
C  22.74300 1.74800 31.05700
C  23.70700 1.13100 26.29600
C  28.40500 0.18700 27.25700
N  25.14100 1.18600 31.29700
C  26.18900 1.32700 32.20400
C  25.60800 1.54500 33.60900
C  24.03100 1.46600 33.35800
C  23.94700 1.59000 31.80600
C  23.35400 0.22900 33.84800
C  26.05800 2.86400 34.29500
C  27.09100 2.66300 35.50300
H  26.71300 3.36000 36.85400
N  23.49700 1.42500 28.74100
C  22.53000 1.70400 29.70300
C  21.27300 1.73700 29.01600
C  21.53200 1.56000 27.63400
C  23.03000 1.46200 27.47300
C  19.96000 2.04700 29.70000
C  20.50300 1.51000 26.46100
O  20.83900 1.30400 25.26200
C  19.04300 1.75100 26.69900
N  25.97300 0.66300 27.11400
C  25.02800 0.85700 26.12600
C  25.59400 0.55700 24.75000
C  27.18600 0.49400 25.03900
C  27.17400 0.37200 26.55600
C  25.05400 -0.81400 24.04500
C  28.08600 1.69200 24.37900
C  29.25600 1.28300 23.49100
N  27.51100 0.47100 29.50200
C  28.56500 0.14200 28.63400
C  29.75100 -0.08100 29.40500
C  29.32200 0.05200 30.70700
C  27.94100 0.42500 30.72300
C  31.06700 -0.53800 28.77100
C  29.75500 0.20100 32.05400
O  30.91000 0.13400 32.46200
C  28.56900 0.60800 32.95600
C  28.32800 -0.51300 33.85600
O  27.95300 -1.62300 33.57700
O  28.58000 -0.10700 35.12700
C  28.36200 -1.09000 36.16200
H  21.87500 1.83100 31.71500
H  23.16900 1.12600 25.34600
H  29.26300 -0.14500 26.66800
H  25.95600 0.65800 34.13700
H  23.47900 2.33000 33.72900
H  23.21600 -0.50700 33.05500
H  22.36800 0.44800 34.25700
H  23.95400 -0.28200 34.60100
H  25.17700 3.43400 34.58900
H  26.55600 3.52100 33.58200
H  28.04500 3.05500 35.14900
H  27.31400 1.60900 35.66900
H  19.27800 1.23900 29.43900
H  19.61000 2.98500 29.26900
H  20.02200 2.13900 30.78500
H  18.59000 1.05700 27.40800
H  18.53700 1.72200 25.73400
H  18.92900 2.78600 27.02200
H  25.36100 1.43900 24.15400
H  27.55100 -0.45900 24.65600
H  25.75500 -1.64600 24.11600
H  24.90300 -0.51800 23.00700
H  24.11100 -1.16000 24.46900
H  28.46600 2.19000 25.27100
H  27.53400 2.41600 23.78000
H  29.03400 1.87800 22.60600
H  29.18900 0.22700 23.22700
H  30.27500 1.52800 23.79000
H  31.11100 -0.76600 27.70600
H  31.56200 -1.30100 29.37100
H  31.79300 0.27100 28.85000
H  28.66100 1.55400 33.48900
H  28.41800 -0.60600 37.13600
H  29.05500 -1.92900 36.09900
H  27.40600 -1.60300 36.05600
Mg 9.76400 47.98000 27.01800
C  8.01200 47.68900 29.95700
C  12.49600 48.98700 28.73100
C  11.51100 47.92500 24.05500
C  6.83100 47.14800 25.15700
N  10.15100 48.27200 29.14800
C  9.30500 48.12400 30.18000
C  10.05200 48.37400 31.52700
C  11.28700 49.17500 30.98800
C  11.36200 48.81900 29.53000
C  11.19000 50.74300 31.07100
C  10.39000 47.08900 32.36900
C  10.13400 47.24800 33.87100
H  10.12200 45.99400 34.69100
N  11.75000 48.49600 26.48600
C  12.70800 48.77900 27.35300
C  13.99700 48.82700 26.65700
C  13.75200 48.38500 25.31400
C  12.26700 48.25000 25.21100
C  15.25400 49.18100 27.29600
C  14.73400 48.17000 24.22600
O  14.28700 47.83100 23.14500
C  16.19900 48.31900 24.45900
N  9.21400 47.65500 24.90400
C  10.11700 47.73400 23.88600
C  9.51600 47.54000 22.52000
C  8.03900 47.13800 22.81900
C  7.98100 47.38300 24.37700
C  9.72100 48.81500 21.60200
C  7.66500 45.64100 22.45000
C  6.26000 45.29000 21.91400
N  7.78400 47.67700 27.44900
C  6.75000 47.27400 26.55500
C  5.60700 46.91300 27.36700
C  6.03800 47.20000 28.69900
C  7.40400 47.55500 28.70500
C  4.24800 46.67200 26.85200
C  5.57500 47.25100 30.05300
O  4.46300 47.07700 30.57900
C  6.92100 47.45500 30.91200
C  7.07700 46.19700 31.69500
O  7.52200 45.16300 31.24800
O  6.55700 46.39700 33.00600
C  6.66700 45.21600 33.82800
H  13.42600 49.25500 29.23600
H  12.05600 47.81700 23.11500
H  5.95400 46.81200 24.60000
H  9.45300 49.05500 32.13200
H  12.19400 48.86900 31.51000
H  11.17000 51.04900 30.02400
H  11.95900 51.33500 31.56700
H  10.25400 51.08100 31.51600
H  11.45300 46.88300 32.24100
H  9.89400 46.25400 31.87400
H  9.12300 47.65100 33.93800
H  10.99600 47.83300 34.19100
H  15.40300 49.20800 28.37600
H  15.70600 50.11500 26.96200
H  15.86700 48.28300 27.21400
H  16.79300 48.06000 23.58300
H  16.42000 47.54800 25.19600
H  16.43500 49.33100 24.78800
H  9.94600 46.73700 21.92100
H  7.30400 47.82900 22.40500
H  10.26500 49.57800 22.16000
H  8.78900 49.18300 21.17500
H  10.38900 48.53300 20.78900
H  7.87900 44.95100 23.26600
H  8.38100 45.26100 21.72100
H  5.56200 46.11800 21.79400
H  5.90200 44.63300 22.70700
H  6.30500 44.67900 21.01300
H  4.25900 45.72800 26.30800
H  4.07100 47.40700 26.06600
H  3.45800 46.63900 27.60300
H  6.86800 48.36300 31.51300
H  7.53800 44.63000 33.53800
H  5.82000 44.56400 33.61400
H  6.55900 45.49600 34.87600

