158

Mg 47.48300 16.80300 28.31300
C  45.25600 16.35700 31.06500
C  49.53600 18.52200 30.22700
C  49.25500 17.49500 25.54100
C  45.34200 14.85800 26.42200
N  47.27200 17.46300 30.39700
C  46.38100 17.08400 31.36500
C  46.91500 17.50800 32.77400
C  48.23400 18.27100 32.41100
C  48.41400 18.12200 30.94600
C  48.15000 19.81300 32.80500
C  47.03900 16.34100 33.85000
C  46.57300 16.53000 35.30500
H  46.23600 17.86900 35.86200
N  49.29300 17.77700 27.93900
C  49.97200 18.43700 28.86800
C  51.09700 19.06000 28.28600
C  51.09100 18.75100 26.87600
C  49.85300 17.99400 26.68900
C  52.09700 19.79900 29.14900
C  52.02600 19.07500 25.85900
O  51.93900 18.68000 24.71400
C  53.25400 19.89000 26.27500
N  47.27800 16.25200 26.28200
C  48.16000 16.60900 25.34900
C  47.68600 16.20900 23.99400
C  46.47800 15.28200 24.22500
C  46.39500 15.36000 25.74100
C  47.29000 17.42800 23.13100
C  46.66400 13.78000 23.70000
C  45.43700 12.99900 23.18700
N  45.67100 15.91900 28.55600
C  44.87400 15.21000 27.70100
C  43.60900 14.76100 28.30400
C  43.76200 15.25700 29.57600
C  44.95000 15.91300 29.70700
C  42.48000 13.92700 27.69900
C  43.07900 15.16800 30.84400
O  42.06900 14.58000 31.18100
C  44.09200 15.84700 31.89500
C  43.22700 16.80600 32.60700
O  42.78800 17.87100 32.19600
O  42.92300 16.32600 33.87200
C  42.04100 17.14100 34.76300
H  50.25100 18.96800 30.92200
H  49.70100 17.76500 24.58200
H  44.50600 14.31300 25.97700
H  46.17500 18.18200 33.20600
H  49.01000 17.71100 32.93300
H  48.65900 20.39800 32.03900
H  48.91400 19.94900 33.57000
H  47.17200 20.19400 33.09800
H  48.07800 16.05600 33.68400
H  46.41900 15.51700 33.49500
H  47.18400 16.07400 36.08400
H  45.68300 15.90200 35.30600
H  52.29000 19.26500 30.07900
H  51.78800 20.81800 29.38600
H  53.10400 19.66500 28.75400
H  53.57300 20.38300 25.35700
H  54.04400 19.29100 26.72700
H  52.90100 20.75400 26.83900
H  48.46500 15.63600 23.49200
H  45.54000 15.70800 23.86800
H  47.04100 18.29100 23.74700
H  46.43900 17.17800 22.49700
H  48.09700 17.54900 22.40800
H  47.04400 13.07900 24.44300
H  47.36000 13.78200 22.86100
H  45.66600 12.72300 22.15800
H  44.54100 13.61900 23.20700
H  45.24200 12.08600 23.75000
H  42.82400 13.40800 26.80500
H  41.61000 14.49600 27.37300
H  42.04700 13.26600 28.45000
H  44.54900 15.22600 32.66600
H  41.08400 16.69400 35.03300
H  41.88600 18.14000 34.35600
H  42.58300 17.24400 35.70200
Mg 48.24200 45.30200 42.66400
C  44.85100 45.89600 42.08100
C  47.72200 42.02300 42.03400
C  51.58600 44.92900 41.86300
C  48.75300 48.70800 42.79100
N  46.45400 44.14200 41.97300
C  45.19900 44.59000 41.79000
C  44.32500 43.41100 41.34100
C  45.14800 42.18900 41.83500
C  46.51600 42.77800 41.93900
C  44.55700 41.53800 43.12900
C  43.87100 43.41300 39.83800
C  44.75900 44.00200 38.72300
H  44.43100 43.81000 37.30100
N  49.52600 43.64700 42.14300
C  49.07800 42.35700 42.02700
C  50.22700 41.50700 41.99600
C  51.39700 42.31700 41.81800
C  50.88100 43.68800 42.00900
C  50.16400 40.01700 42.09600
C  52.82200 41.80400 41.60800
O  53.11100 40.64500 41.68400
C  53.99500 42.67400 41.30200
N  49.90200 46.62100 42.25500
C  51.14800 46.24300 41.94700
C  52.14600 47.38000 41.86800
C  51.34100 48.56400 42.49700
C  49.89900 47.95300 42.44100
C  53.55800 47.17500 42.49800
C  51.30300 49.99300 41.81400
C  51.55700 51.18500 42.73700
N  47.07100 46.93000 42.73300
C  47.39200 48.23000 42.99200
C  46.19800 49.01500 43.20200
C  45.18500 48.17600 42.79100
C  45.71600 46.92800 42.55100
C  46.07800 50.47600 43.75900
C  43.79100 48.09800 42.63000
O  42.86400 48.90700 42.82700
C  43.62000 46.68700 41.92900
C  42.37200 45.98700 42.58300
O  41.51400 45.34000 41.97200
O  42.32200 46.13300 43.91900
C  41.31500 45.31200 44.53600
H  47.45700 40.96800 42.13300
H  52.66500 44.78400 41.76700
H  48.73100 49.77100 43.03900
H  43.36000 43.50900 41.83700
H  45.13800 41.44000 41.04400
H  44.22100 40.58900 42.71200
H  43.76700 42.12700 43.59600
H  45.36900 41.29500 43.81500
H  42.89400 43.87800 39.70800
H  43.53100 42.40200 39.61300
H  45.74400 43.56000 38.87400
H  44.72400 45.08000 38.87800
H  49.18600 39.77300 41.68200
H  50.08800 39.76500 43.15400
H  50.85200 39.40400 41.51400
H  54.09700 43.42700 42.08400
H  53.87400 43.28200 40.40500
H  54.93200 42.18300 41.03800
H  52.23200 47.70200 40.83000
H  51.70700 48.69800 43.51500
H  53.59800 46.27100 43.10500
H  53.73700 47.91500 43.27800
H  54.36000 47.18000 41.76100
H  50.38500 50.25400 41.28700
H  52.05400 49.85400 41.03600
H  51.05800 51.02800 43.69200
H  51.11600 52.00600 42.17100
H  52.62900 51.38200 42.78200
H  46.56500 51.24400 43.15700
H  46.52700 50.46600 44.75200
H  45.00400 50.66300 43.76800
H  43.49800 46.91700 40.87000
H  41.47300 44.24500 44.37800
H  40.29200 45.51100 44.21700
H  41.41400 45.47200 45.61000

