158

Mg 34.41500 3.59000 30.30200
C  32.20700 4.53000 32.72800
C  36.99000 3.69400 32.68800
C  36.68100 2.90100 27.87900
C  31.93100 3.82400 27.84700
N  34.59700 4.05300 32.37800
C  33.49000 4.17700 33.21700
C  33.84800 4.25800 34.74600
C  35.46300 4.29800 34.63600
C  35.69600 3.92500 33.13400
C  36.12200 5.74200 34.94900
C  33.23200 3.10600 35.63800
C  32.81300 3.70100 36.99400
H  33.68500 4.76800 37.67300
N  36.51100 3.38100 30.30600
C  37.38400 3.43800 31.37400
C  38.72300 3.10200 30.95600
C  38.62800 2.80300 29.55300
C  37.22700 3.01700 29.18300
C  39.91500 3.23500 31.79800
C  39.65300 2.23400 28.61600
O  39.53700 2.08000 27.37500
C  40.91400 1.55200 29.12500
N  34.26100 3.36400 28.13100
C  35.34600 2.98300 27.36200
C  34.99300 2.77900 25.90300
C  33.44700 3.13600 25.99700
C  33.20900 3.49200 27.42700
C  35.77100 3.77800 24.96000
C  32.61600 2.00100 25.33900
C  32.10900 0.94400 26.29800
N  32.45300 4.08100 30.23000
C  31.55800 4.04500 29.21300
C  30.25200 4.37000 29.73300
C  30.40300 4.51300 31.13100
C  31.76100 4.37000 31.35500
C  28.95700 4.50900 28.98900
C  29.75800 4.77300 32.40900
O  28.60700 5.03000 32.69700
C  30.97100 4.90400 33.50200
C  31.06700 6.21100 34.13700
O  31.56600 7.27000 33.65300
O  30.51900 6.11800 35.33200
C  30.54100 7.27000 36.22500
H  37.85000 3.83900 33.34500
H  37.30700 2.61900 27.02900
H  31.16200 3.87300 27.07300
H  33.42800 5.20400 35.08900
H  35.95600 3.52000 35.22000
H  35.44500 6.39700 35.49900
H  36.47600 6.10600 33.98400
H  37.01500 5.71300 35.57300
H  33.99600 2.33900 35.76500
H  32.47400 2.65700 34.99500
H  32.74300 2.89900 37.72900
H  31.82400 4.14200 36.86500
H  39.88800 3.89300 32.66600
H  40.79700 3.53200 31.23000
H  40.32000 2.26700 32.09300
H  40.61700 0.62000 29.60500
H  41.32400 2.30500 29.79900
H  41.55700 1.44600 28.25200
H  35.16100 1.74400 25.60400
H  33.25800 4.03300 25.40700
H  35.16000 4.46700 24.37800
H  36.37500 3.24200 24.22700
H  36.28800 4.52200 25.56600
H  33.17000 1.48800 24.55200
H  31.82800 2.50700 24.78100
H  32.71800 1.05300 27.19600
H  32.12100 -0.09500 25.96800
H  31.08300 1.10500 26.62600
H  28.47400 3.54300 28.84400
H  29.10400 4.83600 27.96000
H  28.36000 5.18000 29.60700
H  30.85600 4.20700 34.33200
H  31.27800 8.03900 35.99600
H  30.79500 6.92900 37.22900
H  29.54400 7.69500 36.34000
Mg -1.73000 33.76300 27.53800
C  -3.32800 32.17700 30.03800
C  -0.15700 35.77100 29.87100
C  -0.33500 35.62700 25.01200
C  -3.50100 31.83700 25.23000
N  -1.98300 34.16600 29.73900
C  -2.52200 33.23600 30.55200
C  -2.09400 33.50200 31.97700
C  -1.20600 34.82000 31.94000
C  -1.10100 34.97500 30.44300
C  -1.77000 36.11300 32.72200
C  -1.35200 32.24000 32.56500
C  -1.81500 31.64600 33.86600
H  -1.02900 31.86200 35.16700
N  -0.42000 35.51500 27.51600
C  0.21200 36.09900 28.56100
C  1.18800 37.01400 28.08900
C  1.06200 37.11100 26.69100
C  0.11600 36.00200 26.33400
C  1.98100 37.89500 29.05000
C  1.74700 38.10400 25.73800
O  1.47000 38.11100 24.57000
C  2.88400 38.95700 26.30400
N  -1.82100 33.75900 25.47700
C  -1.17300 34.61600 24.67900
C  -1.41700 34.19400 23.21200
C  -2.42500 33.02400 23.23400
C  -2.59200 32.81800 24.75700
C  -1.88300 35.39100 22.20000
C  -1.86400 31.72700 22.51700
C  -0.67000 31.07800 23.16600
N  -3.14900 32.27000 27.57500
C  -3.72000 31.51400 26.61000
C  -4.58500 30.42400 27.24300
C  -4.47100 30.68900 28.57900
C  -3.63200 31.84900 28.74900
C  -5.41500 29.33600 26.45500
C  -4.99700 30.32800 29.81600
O  -5.82200 29.44300 30.08400
C  -4.28400 31.18500 30.79700
C  -5.28800 31.87700 31.65800
O  -5.80700 32.93200 31.34500
O  -5.50800 31.20800 32.80200
C  -6.60200 31.64700 33.61100
H  0.31100 36.31200 30.69500
H  0.15200 36.14200 24.18100
H  -4.00000 31.27600 24.43700
H  -2.87500 33.75800 32.69400
H  -0.20400 34.51400 32.24100
H  -2.38900 36.82000 32.17000
H  -0.95300 36.76500 33.03300
H  -2.27200 35.73300 33.61200
H  -0.32300 32.49400 32.82000
H  -1.34600 31.42600 31.84000
H  -1.96000 30.56900 33.78300
H  -2.82100 31.97000 34.13200
H  2.14600 37.46200 30.03700
H  1.56800 38.88600 29.24000
H  2.99400 38.02400 28.66700
H  2.64500 39.66600 27.09600
H  3.20300 39.48100 25.40300
H  3.59100 38.17500 26.58400
H  -0.44700 33.84700 22.85700
H  -3.37100 33.21400 22.72600
H  -2.97200 35.37100 22.24700
H  -1.42700 35.36000 21.21100
H  -1.65100 36.39700 22.55000
H  -1.50800 32.00700 21.52600
H  -2.64300 30.97500 22.39700
H  -0.35300 31.57500 24.08300
H  0.15900 31.13300 22.46000
H  -0.83400 30.02400 23.39100
H  -5.32500 28.46100 27.09900
H  -5.06100 29.19600 25.43400
H  -6.47000 29.60600 26.42400
H  -3.60900 30.48200 31.28600
H  -6.97100 32.61300 33.26500
H  -6.24800 31.85100 34.62100
H  -7.45900 30.98100 33.51300

