158

Mg 0.48200 7.26500 25.30400
C  1.11700 9.17800 28.08500
C  0.69000 4.40300 27.27300
C  0.17000 5.37200 22.50800
C  0.96600 10.06800 23.26000
N  0.64500 6.85000 27.45300
C  0.89000 7.84200 28.40500
C  1.00400 7.23000 29.84500
C  0.96400 5.68900 29.48100
C  0.81900 5.58300 27.97100
C  2.18200 4.86400 29.91100
C  -0.14900 7.76700 30.64600
C  -0.03000 7.78900 32.19900
H  1.12200 7.19100 33.00400
N  0.42400 5.20900 24.95100
C  0.46900 4.20400 25.91600
C  0.40600 2.93700 25.25300
C  0.16900 3.20700 23.87900
C  0.21600 4.63100 23.70000
C  0.55900 1.56500 25.95300
C  -0.15300 2.23900 22.75600
O  -0.18500 2.53100 21.56500
C  -0.30000 0.73000 23.09500
N  0.60900 7.66600 23.28200
C  0.23000 6.74300 22.32500
C  0.07900 7.34400 20.93900
C  0.15800 8.91100 21.22100
C  0.56300 8.89600 22.67600
C  1.04500 6.85100 19.92500
C  -1.18200 9.71700 20.96700
C  -1.23100 11.20600 20.60400
N  1.03000 9.23700 25.54400
C  1.15900 10.28400 24.64000
C  1.40400 11.51100 25.36500
C  1.46700 11.11800 26.70600
C  1.16900 9.76500 26.76600
C  1.44300 12.91400 24.75300
C  1.68400 11.56500 28.07700
O  1.86700 12.71200 28.57600
C  1.47700 10.32500 28.99200
C  2.73800 10.19500 29.75100
O  3.82000 10.05400 29.20300
O  2.39700 10.44600 31.06500
C  3.52800 10.67800 31.97900
H  0.65400 3.49800 27.88300
H  0.03400 4.82900 21.57000
H  1.00000 11.02400 22.73300
H  1.92100 7.53300 30.34900
H  0.02100 5.33000 29.89400
H  2.73400 4.49800 29.04500
H  1.78000 4.06200 30.52900
H  2.79100 5.42700 30.61900
H  -1.00300 7.10700 30.49100
H  -0.49900 8.73900 30.29900
H  -1.00300 7.40200 32.50100
H  -0.02600 8.83100 32.52100
H  1.33300 0.97600 25.46100
H  -0.41400 1.07500 25.90500
H  0.92000 1.71500 26.97100
H  -0.66300 0.29000 22.16600
H  -1.00800 0.63600 23.91900
H  0.68800 0.31600 23.29400
H  -0.91400 7.07900 20.57600
H  1.03200 9.37200 20.76100
H  1.88900 7.48700 19.65900
H  0.56000 6.66300 18.96800
H  1.49200 5.88800 20.17100
H  -1.80900 9.41800 21.80700
H  -1.55900 9.31400 20.02700
H  -1.82800 11.62800 21.41200
H  -1.56800 11.49400 19.60800
H  -0.29700 11.76800 20.62400
H  1.49800 13.73400 25.46900
H  0.58100 13.13900 24.12500
H  2.28900 12.89200 24.06600
H  0.69600 10.44200 29.74400
H  3.16900 11.40800 32.70400
H  4.47100 11.00800 31.54400
H  3.65800 9.74000 32.52000
Mg 25.97100 0.41300 29.80000
C  27.70300 0.18800 32.74900
C  23.04500 0.68700 31.43400
C  24.48900 0.48800 26.78800
C  29.08100 -0.30000 28.04500
N  25.49300 0.43500 31.83000
C  26.29500 0.39800 32.87200
C  25.51600 0.71000 34.22800
C  24.06300 0.54600 33.76400
C  24.17900 0.54300 32.25200
C  23.42100 -0.83500 34.22100
C  25.98500 2.12200 34.73500
C  26.68900 2.15700 36.05300
H  26.22000 3.28500 37.09200
N  24.07400 0.44200 29.18800
C  22.92600 0.57600 29.98700
C  21.70900 0.58700 29.22600
C  22.19200 0.41000 27.85500
C  23.66500 0.50500 27.87100
C  20.32800 0.65000 29.87400
C  21.30800 0.31800 26.55900
O  21.76700 0.21800 25.42100
C  19.79000 0.37400 26.77700
N  26.75900 0.17000 27.67200
C  25.82400 0.18800 26.65000
C  26.58300 0.19900 25.34000
C  28.08100 -0.06000 25.70500
C  28.04700 -0.01100 27.22300
C  26.04700 -0.99100 24.52800
C  29.16200 0.88300 25.21100
C  28.90600 1.57100 23.90800
N  27.93900 -0.01100 30.28000
C  29.05200 -0.34400 29.50200
C  30.24500 -0.40300 30.37100
C  29.76600 -0.10400 31.66500
C  28.36900 0.04100 31.55900
C  31.57800 -0.70000 29.86300
C  30.15300 0.11500 33.04400
O  31.27200 0.21800 33.53300
C  28.85800 0.29200 33.80400
C  28.91900 -0.67900 34.90200
O  28.57100 -1.82400 34.74000
O  29.29400 -0.16800 36.11800
C  29.18200 -0.91400 37.37400
H  22.15500 0.76300 32.06100
H  24.12000 0.64400 25.77200
H  30.01400 -0.52200 27.52300
H  25.80900 -0.04300 34.96000
H  23.45300 1.33600 34.20200
H  22.94300 -0.63000 35.17900
H  24.24000 -1.51900 34.44500
H  22.73600 -1.40100 33.59000
H  25.06700 2.69700 34.85600
H  26.64200 2.52400 33.96400
H  27.77200 2.23600 35.95100
H  26.47700 1.21300 36.55600
H  20.28500 0.10500 30.81700
H  19.55400 0.09300 29.34700
H  19.97800 1.67300 30.00700
H  19.40900 -0.41000 27.43100
H  19.33300 0.28400 25.79100
H  19.50800 1.35500 27.15800
H  26.26900 1.06200 24.75300
H  28.38900 -1.09500 25.55700
H  25.32800 -1.56100 25.11600
H  26.85600 -1.62400 24.16200
H  25.44700 -0.64800 23.68500
H  30.10900 0.34500 25.17000
H  29.33300 1.61300 26.00300
H  29.69800 1.18300 23.26600
H  29.10900 2.63800 24.00300
H  27.95000 1.47300 23.39400
H  31.67600 -1.63600 29.31300
H  32.23200 -0.83300 30.72500
H  31.76200 0.08300 29.12800
H  28.83800 1.28600 34.25200
H  28.83600 -1.92800 37.17600
H  28.58400 -0.31900 38.06400
H  30.11800 -1.07300 37.91100

