158

Mg 36.54200 48.64700 24.51400
C  36.82400 46.81300 27.47000
C  35.49100 51.42600 26.33400
C  36.01600 50.30300 21.67000
C  37.73000 45.98800 22.78800
N  36.04100 48.97300 26.61400
C  36.37400 48.16000 27.71400
C  36.17000 48.89400 29.05200
C  35.81100 50.32400 28.63000
C  35.78000 50.27200 27.08400
C  34.40700 50.82300 29.18200
C  37.36400 48.74400 30.00100
C  37.08600 48.14400 31.36600
H  35.76500 48.27200 32.08700
N  35.80100 50.60700 24.07000
C  35.43800 51.57500 24.91500
C  34.86800 52.67600 24.23600
C  35.07200 52.45100 22.85000
C  35.65300 51.09700 22.81700
C  34.46900 53.92500 24.94500
C  34.66200 53.28400 21.57100
O  34.92500 52.88900 20.42800
C  33.90100 54.60500 21.69700
N  36.70300 48.11300 22.54700
C  36.46700 48.95900 21.55400
C  36.90400 48.44100 20.19600
C  37.48200 47.07200 20.50300
C  37.28400 47.03300 22.04600
C  35.96100 48.33600 19.05700
C  38.92700 46.92000 19.97500
C  40.15500 47.14800 20.98500
N  37.21000 46.72900 25.01800
C  37.65000 45.74900 24.19200
C  37.95800 44.54200 24.92600
C  37.62300 44.91200 26.23400
C  37.21600 46.26500 26.20100
C  38.45100 43.13700 24.38100
C  37.58400 44.42700 27.58600
O  37.96700 43.38200 28.08900
C  37.14900 45.63400 28.47000
C  36.04800 45.26700 29.32900
O  34.92100 45.23700 28.86700
O  36.48900 44.89100 30.57900
C  35.48100 44.31700 31.49100
H  35.17300 52.18300 27.05400
H  35.95400 50.85100 20.72800
H  38.17200 45.19400 22.18200
H  35.28500 48.45700 29.51400
H  36.55600 51.06600 28.91500
H  34.65700 51.53600 29.96700
H  33.84200 50.03500 29.68000
H  33.76500 51.20700 28.38900
H  37.84300 49.68400 30.27600
H  38.06100 48.16400 29.39600
H  37.84700 48.66400 31.94900
H  37.43900 47.11300 31.37800
H  35.21200 54.66600 24.65100
H  34.32600 53.75300 26.01200
H  33.49400 54.25000 24.58100
H  34.39900 55.28900 22.38400
H  32.91700 54.42200 22.12700
H  33.71500 55.04600 20.71700
H  37.63300 49.21900 19.96800
H  36.97300 46.17500 20.14800
H  35.88900 49.31500 18.58300
H  35.00900 48.08000 19.52200
H  36.26800 47.59500 18.31900
H  39.05900 47.57800 19.11600
H  39.07100 45.87800 19.68800
H  40.42100 46.13900 21.30300
H  39.96500 47.85400 21.79400
H  40.98300 47.64800 20.48200
H  37.79900 42.33300 24.71900
H  39.49600 42.97700 24.64500
H  38.46200 43.12200 23.29100
H  37.94000 45.91000 29.16700
H  35.80600 44.47100 32.52000
H  35.36300 43.25900 31.25600
H  34.53300 44.84900 31.41900
Mg -12.85100 16.28500 40.72100
C  -9.99000 14.23900 40.28700
C  -11.07000 18.97600 39.54800
C  -15.76600 17.86200 40.64800
C  -14.63400 13.19200 41.35800
N  -10.78700 16.51300 40.06900
C  -9.78800 15.54800 39.99500
C  -8.42200 16.20100 39.49100
C  -8.71800 17.72500 39.42700
C  -10.27800 17.82000 39.73500
C  -7.81300 18.70300 40.29500
C  -8.02100 15.49600 38.07300
C  -6.55600 15.11600 38.08900
H  -5.60800 16.00800 37.23700
N  -13.32100 18.13200 40.23100
C  -12.49600 19.16100 39.82200
C  -13.24500 20.36000 39.76500
C  -14.61200 20.08700 40.04500
C  -14.61800 18.65900 40.33400
C  -12.65400 21.67700 39.36900
C  -15.81700 21.03200 39.93600
O  -15.64300 22.17700 39.58700
C  -17.17100 20.79000 40.54400
N  -14.92200 15.60100 40.67500
C  -15.89700 16.52400 40.86800
C  -17.27200 15.89600 40.93400
C  -16.78000 14.45500 41.44100
C  -15.33300 14.39900 41.18300
C  -18.40500 16.49000 41.78100
C  -17.56900 13.17000 40.87700
C  -18.26900 12.42600 42.06600
N  -12.42700 14.15700 40.90100
C  -13.26400 13.00100 41.19600
C  -12.44300 11.82500 41.21700
C  -11.10000 12.26800 40.85700
C  -11.22600 13.69100 40.69400
C  -13.00300 10.49900 41.51400
C  -9.71000 11.81600 40.74400
O  -9.17800 10.68700 40.79600
C  -8.90700 13.12400 40.40400
C  -7.96200 13.48000 41.53700
O  -8.15200 14.33500 42.38400
O  -6.69400 13.01700 41.20200
C  -5.52100 13.59400 41.84200
H  -10.54900 19.83300 39.11500
H  -16.64100 18.47800 40.43100
H  -15.07900 12.26700 41.73000
H  -7.70700 16.00700 40.29100
H  -8.51400 18.06800 38.41300
H  -7.19700 19.23400 39.56800
H  -7.02400 18.29800 40.92900
H  -8.43300 19.48400 40.73500
H  -8.18600 16.24800 37.30100
H  -8.57600 14.56700 37.93900
H  -6.60400 14.10100 37.69300
H  -6.20100 15.15100 39.11900
H  -12.68400 21.68300 38.27900
H  -11.58900 21.73900 39.59000
H  -13.15400 22.55200 39.78300
H  -17.88800 20.30200 39.88300
H  -17.75400 21.69400 40.72400
H  -17.11600 20.22500 41.47500
H  -17.52700 15.75300 39.88400
H  -16.80200 14.41900 42.53000
H  -19.37300 16.63300 41.30000
H  -18.11800 17.52200 41.97900
H  -18.57700 15.98300 42.73000
H  -17.05800 12.54300 40.14700
H  -18.33500 13.63500 40.25700
H  -18.32600 12.81500 43.08300
H  -17.66600 11.52500 42.17900
H  -19.29800 12.08000 41.97100
H  -14.07900 10.35500 41.61400
H  -12.47300 10.04200 42.35000
H  -12.71700 9.90600 40.64500
H  -8.40500 13.05000 39.43900
H  -5.16300 12.87100 42.57400
H  -5.62000 14.57900 42.29800
H  -4.72400 13.65200 41.10100

