158

Mg 48.19100 34.18600 26.33100
C  46.30500 32.80500 28.99500
C  48.74000 36.95900 28.11000
C  49.38300 35.57300 23.52000
C  47.13400 31.39300 24.48700
N  47.45800 34.79600 28.30500
C  46.87400 34.07600 29.30500
C  47.11500 34.66700 30.64200
C  47.66400 36.10000 30.24900
C  48.06500 35.97600 28.83100
C  46.62300 37.26700 30.44200
C  48.19700 33.83100 31.39600
C  48.10400 33.78700 32.95400
H  47.02500 34.64700 33.72000
N  48.99000 36.05100 25.88800
C  49.08300 37.08000 26.75800
C  49.82500 38.14700 26.16700
C  50.06400 37.74000 24.82000
C  49.46200 36.37100 24.68100
C  50.21000 39.37300 26.95400
C  50.83700 38.40400 23.76200
O  51.14400 37.88100 22.67400
C  51.19800 39.86600 24.05300
N  48.11600 33.69600 24.33900
C  48.71200 34.35900 23.35600
C  48.88300 33.59600 22.04700
C  48.31200 32.18600 22.45900
C  47.79200 32.40100 23.86800
C  48.30000 34.36700 20.75200
C  49.46200 31.10900 22.42800
C  49.56600 30.29400 21.16700
N  46.97000 32.40100 26.60400
C  46.66600 31.36300 25.80100
C  45.88100 30.31400 26.47700
C  45.66400 30.87700 27.69100
C  46.33100 32.11700 27.73900
C  45.47300 29.00400 25.95000
C  45.05500 30.78000 29.00800
O  44.30200 29.88300 29.41900
C  45.31500 32.03400 29.87500
C  45.75700 31.52100 31.23900
O  46.81900 30.85800 31.48200
O  44.75800 31.74700 32.20100
C  44.84600 31.10100 33.47100
H  49.07400 37.76200 28.77000
H  49.80500 35.83500 22.54700
H  46.98700 30.48800 23.89400
H  46.18100 34.77800 31.19300
H  48.58300 36.28800 30.80400
H  45.95600 37.28300 29.58000
H  47.20400 38.18000 30.57000
H  45.94600 37.12600 31.28400
H  49.19200 34.27200 31.32700
H  48.33000 32.84000 30.96200
H  49.01400 34.12100 33.45300
H  47.95700 32.75900 33.28600
H  49.97800 40.32700 26.48200
H  51.27600 39.25100 27.14700
H  49.75900 39.43500 27.94400
H  51.69900 40.26800 23.17200
H  51.95900 39.92200 24.83200
H  50.38200 40.55200 24.27700
H  49.95600 33.51000 21.87600
H  47.45100 31.98200 21.82200
H  47.57000 35.05900 21.17400
H  47.81800 33.73600 20.00500
H  49.15200 34.83200 20.25700
H  49.41700 30.48200 23.31800
H  50.47600 31.42200 22.67800
H  48.81000 30.59900 20.44300
H  49.18700 29.29700 21.38900
H  50.57400 30.29700 20.75400
H  44.76200 29.08000 25.12800
H  45.12600 28.43000 26.81000
H  46.29800 28.48700 25.46000
H  44.46000 32.70000 29.99000
H  44.17500 30.24300 33.49800
H  44.50500 31.85600 34.17900
H  45.79500 30.60800 33.68600
Mg -4.74300 25.68200 25.57400
C  -3.80900 26.91400 28.68500
C  -6.86600 23.46100 27.18100
C  -5.31000 24.20700 22.59300
C  -2.58800 27.92800 24.05000
N  -5.52300 25.47100 27.70400
C  -4.82800 25.90000 28.77100
C  -5.40500 25.32000 30.08400
C  -6.30900 24.12100 29.55600
C  -6.23100 24.35200 28.06700
C  -5.79800 22.72700 29.99000
C  -6.16600 26.38800 30.84000
C  -6.93900 26.00300 32.10700
H  -6.46400 24.76100 32.91500
N  -6.04100 24.11700 24.95200
C  -6.85800 23.33500 25.72100
C  -7.64700 22.44400 24.88400
C  -7.19300 22.70100 23.55700
C  -6.14400 23.70700 23.63000
C  -8.67400 21.55900 25.47300
C  -7.56200 21.91400 22.27700
O  -7.00600 22.14200 21.20300
C  -8.68200 20.96700 22.32600
N  -3.91000 25.91600 23.66400
C  -4.35300 25.19600 22.60200
C  -3.54400 25.59700 21.35300
C  -3.09000 27.00300 21.71100
C  -3.18400 26.95100 23.20500
C  -2.48900 24.55300 20.92500
C  -4.02600 28.12500 21.08100
C  -3.48100 28.71900 19.85800
N  -3.33800 27.06400 26.13700
C  -2.62700 28.03900 25.38600
C  -1.78200 28.77400 26.36900
C  -2.19200 28.36600 27.63700
C  -3.21400 27.36900 27.46600
C  -0.80300 29.84000 26.13100
C  -2.03500 28.51700 29.08300
O  -1.16800 29.19800 29.70200
C  -2.99700 27.65800 29.79500
C  -2.41400 26.80100 30.89200
O  -1.67000 25.87700 30.68700
O  -2.75100 27.28800 32.12000
C  -2.07300 26.83200 33.28600
H  -7.50800 22.78000 27.74400
H  -5.52400 23.90800 21.56500
H  -1.96600 28.66600 23.53900
H  -4.65000 24.98500 30.79500
H  -7.35300 24.27700 29.82600
H  -6.56000 22.11400 30.47100
H  -5.21500 22.75000 30.91000
H  -5.40800 22.19100 29.12500
H  -7.02900 26.52500 30.18800
H  -5.53200 27.27400 30.87500
H  -8.02400 25.97200 32.00800
H  -6.95000 26.83700 32.80800
H  -8.51000 20.50700 25.24000
H  -9.63400 21.84100 25.03800
H  -8.93700 21.68000 26.52400
H  -8.56100 20.16500 23.05400
H  -8.85500 20.58200 21.32100
H  -9.54200 21.51000 22.71700
H  -4.26300 25.65500 20.53500
H  -2.04000 27.11500 21.44200
H  -2.22300 23.94800 21.79200
H  -1.54000 25.00500 20.63800
H  -2.93200 23.93200 20.14600
H  -4.29600 28.93100 21.76300
H  -4.96400 27.62800 20.83500
H  -4.02000 28.45500 18.94800
H  -2.46800 28.35200 19.69300
H  -3.36300 29.79600 19.97800
H  -0.12300 29.48100 25.35800
H  -0.14800 30.10200 26.96200
H  -1.33800 30.72000 25.77400
H  -3.61800 28.33200 30.38400
H  -1.74000 25.79400 33.27200
H  -2.62200 26.99800 34.21400
H  -1.17800 27.45100 33.35500

