158

Mg 42.76600 42.04500 26.74100
C  42.10400 44.45600 29.15900
C  43.57700 39.84200 29.28800
C  44.01800 39.97100 24.34100
C  42.57500 44.63800 24.29500
N  42.89600 42.14600 28.93900
C  42.50700 43.24500 29.72100
C  42.24000 42.83000 31.17000
C  43.03300 41.49500 31.29900
C  43.14100 41.11700 29.78100
C  44.40500 41.62300 31.99600
C  40.76100 42.68600 31.53600
C  40.41400 43.22900 32.92500
H  41.50700 43.21500 34.04800
N  43.75600 40.22200 26.81200
C  43.98300 39.48100 27.95300
C  44.58200 38.22600 27.50000
C  44.41700 38.11700 26.07800
C  44.06800 39.46000 25.66600
C  45.00200 37.24500 28.51500
C  44.65500 36.92300 25.17100
O  44.58500 36.92400 23.94100
C  44.88700 35.57100 25.76300
N  43.34400 42.35700 24.66500
C  43.78900 41.30000 23.89300
C  43.84100 41.66100 22.42900
C  43.23300 43.11200 22.39300
C  42.97100 43.38300 23.92700
C  45.15700 41.56800 21.72700
C  41.96600 43.15600 21.47500
C  40.82900 42.10100 21.97700
N  42.30700 44.11600 26.62600
C  42.24200 45.07600 25.63800
C  41.71000 46.38100 26.17700
C  41.65600 46.15100 27.52700
C  42.11800 44.82700 27.77600
C  41.21600 47.47800 25.27800
C  41.32900 46.75700 28.84700
O  40.80200 47.82600 29.10600
C  41.56100 45.66200 29.92900
C  42.53700 46.20300 30.96300
O  43.71300 46.06100 30.76600
O  41.94100 46.91200 31.96600
C  42.79700 47.09300 33.14400
H  43.69600 39.01700 29.99400
H  43.98600 39.25500 23.51700
H  42.42400 45.45500 23.58700
H  42.75600 43.55200 31.80300
H  42.34500 40.77500 31.74200
H  45.15600 41.09300 31.41000
H  44.23300 41.14600 32.96100
H  44.78200 42.62200 32.21600
H  40.37900 41.66600 31.55600
H  40.14100 43.17000 30.78200
H  39.57900 42.62200 33.27200
H  40.03000 44.21700 32.66800
H  44.21600 36.53900 28.78200
H  45.35500 37.66500 29.45700
H  45.82800 36.59800 28.22000
H  45.84300 35.58900 26.28600
H  44.88900 34.74400 25.05300
H  44.04600 35.27500 26.39100
H  43.27400 40.96100 21.81600
H  43.92700 43.86500 22.01900
H  45.71800 41.20400 22.58700
H  45.50900 42.49500 21.27400
H  45.07500 40.84400 20.91700
H  42.14400 42.87600 20.43600
H  41.68700 44.20600 21.56300
H  40.62200 41.30800 21.25800
H  39.96600 42.61400 22.40200
H  41.07700 41.63100 22.92900
H  40.92600 47.17700 24.27200
H  41.93500 48.27400 25.08400
H  40.37700 47.97000 25.76900
H  40.58800 45.46900 30.37900
H  43.37400 48.01300 33.23900
H  43.43300 46.23000 33.34200
H  42.10700 47.19000 33.98300
Mg -2.50900 34.33900 26.64500
C  -3.96200 32.60100 29.24100
C  -0.85400 36.28000 29.02200
C  -1.06100 35.98700 24.21300
C  -4.37100 32.47700 24.36500
N  -2.55500 34.41400 28.95400
C  -3.22300 33.62700 29.78500
C  -2.86700 33.84000 31.21900
C  -2.02600 35.24800 31.15100
C  -1.74100 35.35900 29.62200
C  -2.60400 36.51700 31.76800
C  -2.06500 32.68900 31.87000
C  -2.65000 32.15900 33.18900
H  -1.76600 32.32300 34.45400
N  -1.12600 35.91300 26.65900
C  -0.54200 36.51100 27.70900
C  0.40500 37.53000 27.21100
C  0.34000 37.48900 25.81400
C  -0.69500 36.46600 25.48300
C  1.24700 38.39700 28.12700
C  1.03700 38.37300 24.79600
O  0.80700 38.36400 23.59500
C  2.18200 39.25200 25.17500
N  -2.77900 34.29600 24.54700
C  -2.00800 35.05100 23.76400
C  -2.32100 34.82900 22.33600
C  -3.44800 33.74700 22.31200
C  -3.45800 33.40700 23.82200
C  -2.58700 36.05700 21.49200
C  -3.24900 32.52000 21.37000
C  -4.33500 32.03200 20.45000
N  -3.96400 32.93500 26.69400
C  -4.65900 32.28200 25.68600
C  -5.45900 31.23400 26.29800
C  -5.15200 31.27900 27.65700
C  -4.23500 32.35000 27.86600
C  -6.36100 30.17700 25.61100
C  -5.47000 30.62300 28.86400
O  -6.23600 29.71200 29.05800
C  -4.70000 31.40700 29.98200
C  -5.75500 31.87700 30.88800
O  -6.50200 32.80700 30.64100
O  -5.77800 31.14100 32.02200
C  -6.64700 31.58800 33.15700
H  -0.35500 36.81000 29.83600
H  -0.59900 36.58900 23.42800
H  -4.87700 31.84400 23.63300
H  -3.79000 34.01900 31.77000
H  -1.06800 35.07700 31.64100
H  -3.68100 36.68600 31.77100
H  -2.14500 37.38200 31.28900
H  -2.22600 36.70900 32.77200
H  -1.04500 32.93300 32.16700
H  -2.07900 31.84600 31.17900
H  -2.68200 31.07100 33.12000
H  -3.65200 32.54800 33.37100
H  1.28900 37.90400 29.09800
H  0.77700 39.37100 28.26000
H  2.25300 38.52100 27.72800
H  2.45000 39.89200 24.33500
H  2.97700 38.56500 25.46700
H  1.92300 39.94900 25.97200
H  -1.48400 34.33600 21.84000
H  -4.41700 34.20800 22.11900
H  -2.36200 36.95500 22.06700
H  -3.56900 36.02600 21.02000
H  -1.94100 35.80400 20.65100
H  -3.04400 31.62500 21.95700
H  -2.37900 32.69000 20.73600
H  -4.10400 32.33000 19.42700
H  -5.30200 32.35000 20.84000
H  -4.33000 30.94300 20.41300
H  -5.87600 29.23900 25.34000
H  -6.78000 30.56200 24.68100
H  -7.13000 29.89600 26.32900
H  -4.13900 30.66500 30.55100
H  -7.39900 32.23400 32.70500
H  -6.11800 32.19500 33.89200
H  -7.04500 30.67300 33.59700

