158

Mg 8.94500 3.73200 27.07100
C  10.25700 2.16500 29.92700
C  7.00500 5.74300 29.07900
C  7.67200 5.29600 24.30600
C  10.43000 1.40500 25.09400
N  8.55700 3.80500 29.24900
C  9.34300 3.20700 30.24400
C  9.04600 3.74700 31.66300
C  8.11100 4.86600 31.35500
C  7.98000 4.92100 29.78700
C  6.68800 4.87000 32.09800
C  10.31500 4.22500 32.45400
C  9.96800 4.72900 33.85300
H  11.05100 4.47400 34.91600
N  7.46700 5.18500 26.73300
C  6.86200 5.92300 27.68600
C  5.96700 6.94900 27.07900
C  6.24800 6.93100 25.74200
C  7.16100 5.80400 25.48900
C  5.13800 7.94500 27.82200
C  5.81900 7.85600 24.61800
O  6.27000 7.74400 23.46500
C  4.90100 9.08200 24.92100
N  8.97400 3.36900 24.91000
C  8.46400 4.16600 24.01700
C  8.86400 3.74200 22.53900
C  9.61400 2.35300 22.86300
C  9.68200 2.37700 24.37700
C  7.87700 3.65100 21.34400
C  10.95500 2.14100 22.11900
C  10.84300 1.38000 20.76100
N  10.12400 2.15800 27.36100
C  10.67300 1.27500 26.47300
C  11.49200 0.30700 27.15300
C  11.45900 0.69000 28.50300
C  10.53200 1.75800 28.61500
C  12.10700 -0.86000 26.50300
C  11.92400 0.37000 29.86100
O  12.71100 -0.49300 30.24000
C  11.19500 1.30700 30.84300
C  10.50400 0.57100 31.85700
O  9.51700 -0.15000 31.74300
O  11.15900 0.84300 33.05700
C  10.53000 0.22100 34.25000
H  6.43800 6.41000 29.73300
H  7.46300 5.85800 23.39300
H  10.70000 0.54100 24.48400
H  8.58600 3.00600 32.31700
H  8.55900 5.81500 31.65300
H  5.95800 4.50500 31.37600
H  6.54600 5.89100 32.45100
H  6.52300 4.17400 32.92100
H  10.78300 5.00800 31.85700
H  11.09500 3.47000 32.36100
H  9.03000 4.26600 34.16100
H  9.75700 5.78300 33.67300
H  5.69500 8.88200 27.79600
H  4.96900 7.85000 28.89500
H  4.26400 8.14000 27.20100
H  5.28300 9.82300 25.62400
H  3.89400 8.80100 25.22700
H  4.87900 9.63200 23.98100
H  9.60200 4.47700 22.21700
H  8.90100 1.54500 22.70000
H  7.88800 2.61100 21.01600
H  8.17800 4.38300 20.59400
H  6.85700 3.92300 21.61500
H  11.67900 1.71300 22.81300
H  11.32800 3.15000 21.94300
H  11.59800 0.62900 20.52900
H  10.91300 2.18200 20.02600
H  9.82500 1.00200 20.67300
H  12.39500 -0.72300 25.46100
H  11.39200 -1.67800 26.41100
H  12.96700 -1.20600 27.07600
H  11.96300 1.95300 31.26800
H  9.49000 0.53100 34.35000
H  10.89700 0.75400 35.12700
H  10.66600 -0.84600 34.42300
Mg 42.29900 41.62200 25.76800
C  41.26200 43.90800 28.18400
C  43.51200 39.68900 28.34500
C  43.55100 39.50000 23.44100
C  41.64900 44.05100 23.25800
N  42.20900 41.67600 28.02900
C  41.72500 42.70500 28.81800
C  41.91300 42.44600 30.35000
C  42.95200 41.27000 30.23700
C  42.89800 40.84500 28.82500
C  44.38700 41.70800 30.68900
C  40.58500 42.18700 31.05600
C  40.33400 43.00400 32.35900
H  41.27600 42.74300 33.51100
N  43.21000 39.82600 25.89000
C  43.65000 39.21000 27.01400
C  44.41700 38.03700 26.63900
C  44.34600 37.85600 25.23100
C  43.68800 39.10500 24.78900
C  45.17000 37.18600 27.65700
C  44.84500 36.71500 24.34700
O  44.88000 36.82000 23.09900
C  45.21800 35.33700 24.98700
N  42.50900 41.72900 23.62100
C  43.02000 40.68600 22.93400
C  42.93600 40.96600 21.43800
C  42.31400 42.38600 21.39800
C  42.13600 42.79300 22.84800
C  44.21400 40.79400 20.66100
C  40.93100 42.34200 20.79800
C  39.80800 41.55600 21.42000
N  41.51500 43.51300 25.66300
C  41.31400 44.43700 24.61000
C  40.86000 45.64000 25.13500
C  40.64800 45.49900 26.51800
C  41.21100 44.17800 26.82200
C  40.67600 46.96000 24.37800
C  40.31000 46.15800 27.73700
O  39.85200 47.31100 27.90900
C  40.72900 45.13800 28.88000
C  41.66900 45.75600 29.85500
O  42.86700 45.68900 29.86500
O  40.87100 46.34000 30.82000
C  41.75600 46.86800 31.93200
H  44.06200 39.11600 29.09400
H  44.04400 38.92400 22.65500
H  41.51700 44.84800 22.52400
H  42.34600 43.26500 30.92400
H  42.61600 40.48800 30.91900
H  45.03800 41.70500 29.81400
H  44.67900 40.93700 31.40300
H  44.43900 42.68100 31.17700
H  40.48700 41.12600 31.28900
H  39.78200 42.55500 30.41700
H  39.31600 42.74000 32.64300
H  40.28300 44.08100 32.20000
H  44.45300 36.43900 27.99800
H  45.57800 37.80500 28.45500
H  46.01300 36.66100 27.20800
H  44.56300 35.12900 25.83400
H  46.28500 35.37800 25.20700
H  44.98700 34.53900 24.28200
H  42.29800 40.19400 21.00800
H  42.89700 43.21700 21.00000
H  44.93400 41.58600 20.86400
H  44.00900 40.83300 19.59100
H  44.60500 39.80900 20.91800
H  41.06500 42.04500 19.75800
H  40.46800 43.32800 20.77000
H  39.46000 40.77200 20.74800
H  38.94200 42.20400 21.55900
H  40.11300 41.16500 22.39100
H  40.45700 47.76300 25.08200
H  39.78000 47.01300 23.76000
H  41.55300 47.09500 23.74500
H  39.80100 44.88000 29.38900
H  41.99000 45.89500 32.36400
H  41.08100 47.36900 32.62600
H  42.49100 47.54700 31.49900

