158

Mg -2.50000 17.93600 26.78700
C  -2.64800 15.54000 29.52900
C  -2.52300 20.38900 29.13900
C  -2.56700 20.00000 24.27400
C  -2.90700 15.14600 24.59700
N  -2.45800 17.91300 29.13800
C  -2.49000 16.87500 30.00400
C  -2.36800 17.43100 31.45100
C  -2.28800 19.00000 31.18700
C  -2.51600 19.13700 29.73700
C  -3.32100 19.80800 32.12600
C  -1.15500 16.76100 32.24300
C  -0.17300 17.68400 33.02000
H  0.15400 17.13200 34.40200
N  -2.58600 19.93800 26.71300
C  -2.61700 20.80500 27.80700
C  -2.57900 22.16300 27.31000
C  -2.56700 22.08300 25.87600
C  -2.60900 20.63700 25.57300
C  -2.47200 23.36300 28.18000
C  -2.38600 23.16300 24.82100
O  -2.35200 22.91500 23.60400
C  -2.21900 24.54300 25.23900
N  -2.84900 17.60800 24.78700
C  -2.80300 18.65300 23.83600
C  -2.74700 18.11100 22.37400
C  -2.67000 16.54800 22.63500
C  -2.86000 16.42900 24.10000
C  -3.93600 18.48900 21.47500
C  -1.47200 15.86400 21.92300
C  -0.21300 15.67500 22.81000
N  -2.68800 15.84200 26.97000
C  -2.81400 14.89200 25.95300
C  -2.75900 13.62000 26.54400
C  -2.67300 13.76800 27.92300
C  -2.72000 15.19400 28.14000
C  -2.91400 12.28700 25.90100
C  -2.68900 13.04900 29.28400
O  -2.77600 11.86000 29.61400
C  -2.74200 14.20500 30.27400
C  -1.56000 13.81400 31.14200
O  -0.40800 13.74400 30.80500
O  -2.09000 13.35900 32.35200
C  -0.95500 12.96600 33.27700
H  -2.48800 21.21000 29.85800
H  -2.67200 20.73300 23.47200
H  -2.85200 14.24900 23.97700
H  -3.29600 17.02800 31.85600
H  -1.28900 19.41300 31.32400
H  -3.08200 19.49000 33.14000
H  -4.30900 19.56200 31.73600
H  -3.20700 20.88800 32.21900
H  -0.59900 16.39900 31.37800
H  -1.51000 15.95800 32.88900
H  -0.58900 18.68200 33.16000
H  0.78200 17.84600 32.52000
H  -1.70900 24.06000 27.83000
H  -2.40600 23.20600 29.25600
H  -3.43300 23.87300 28.10900
H  -3.12900 24.70900 25.81600
H  -2.09500 25.19400 24.37300
H  -1.26700 24.51100 25.77000
H  -1.89700 18.46800 21.79300
H  -3.60000 16.16200 22.21800
H  -4.74500 17.75900 21.50800
H  -3.59600 18.49400 20.44000
H  -4.25500 19.50800 21.69600
H  -1.04200 16.38400 21.06700
H  -1.72800 14.84200 21.64700
H  -0.32600 16.09700 23.80900
H  0.66000 16.12000 22.33300
H  0.19000 14.68200 23.00800
H  -2.51800 12.08600 24.90500
H  -3.96600 12.01000 25.82900
H  -2.39900 11.58900 26.56200
H  -3.60900 14.18300 30.93400
H  -1.35100 12.93500 34.29200
H  -0.10600 13.64700 33.22900
H  -0.65600 11.96700 32.96200
Mg 36.61800 1.18600 29.77100
C  34.17800 2.26200 32.12900
C  38.96600 1.50000 32.23700
C  38.82500 0.74300 27.32400
C  34.05400 1.15700 27.35600
N  36.47900 1.79200 31.97300
C  35.42500 2.19400 32.71400
C  35.79600 2.29200 34.16400
C  37.39600 2.40000 34.13800
C  37.64600 1.86200 32.69700
C  38.05700 3.84100 34.39200
C  35.21000 1.13100 35.00200
C  34.76200 1.54300 36.38300
H  35.18900 2.89900 36.95100
N  38.63200 1.25200 29.80500
C  39.42200 1.29700 30.89700
C  40.81600 0.97300 30.43800
C  40.80400 0.80000 28.97700
C  39.37500 0.95500 28.66800
C  41.98100 0.81000 31.46100
C  41.91000 0.50800 28.06200
O  41.78800 0.35100 26.86100
C  43.33500 0.32300 28.66500
N  36.51500 0.88200 27.68300
C  37.53600 0.76100 26.84800
C  37.14900 0.60000 25.37200
C  35.63300 0.63000 25.48200
C  35.37500 0.85300 26.96000
C  37.63900 1.69400 24.44600
C  34.86800 -0.66700 25.00000
C  34.34800 -0.64800 23.52900
N  34.52100 1.46600 29.77400
C  33.64100 1.46400 28.70100
C  32.28300 1.85900 29.13700
C  32.50900 2.14600 30.47700
C  33.88900 1.93200 30.80400
C  31.04600 2.06100 28.31400
C  31.90400 2.76300 31.65600
O  30.78500 3.25200 31.78400
C  32.91200 2.70900 32.81500
C  32.92900 4.04800 33.46900
O  33.60800 4.99200 33.08000
O  32.08500 4.00700 34.55600
C  31.91400 5.29100 35.23500
H  39.67200 1.42200 33.06600
H  39.57900 0.59100 26.54900
H  33.24400 1.31300 26.64100
H  35.37400 3.28000 34.34600
H  37.87000 1.76200 34.88500
H  38.83300 3.70500 35.14500
H  37.36700 4.62800 34.69700
H  38.51000 4.16700 33.45600
H  35.95700 0.34600 35.11800
H  34.43600 0.65400 34.40000
H  35.03100 0.83200 37.16500
H  33.69900 1.73600 36.24500
H  42.42400 -0.17200 31.29700
H  41.73800 1.02500 32.50100
H  42.57300 1.66500 31.13200
H  43.60900 1.13000 29.34500
H  43.98100 0.49400 27.80500
H  43.47100 -0.66400 29.10800
H  37.61200 -0.33500 25.05500
H  35.27600 1.51100 24.94800
H  38.46600 1.45000 23.78000
H  37.85600 2.67400 24.87100
H  36.92300 1.90100 23.65100
H  34.02500 -0.94500 25.63300
H  35.64100 -1.42500 25.12700
H  33.28900 -0.39200 23.54800
H  34.47600 -1.58100 22.98000
H  34.95200 0.08300 22.99200
H  30.15900 1.58300 28.73000
H  31.16600 1.77500 27.26900
H  30.95200 3.14600 28.30300
H  32.50300 1.96900 33.50300
H  31.39300 5.92100 34.51400
H  32.82900 5.82000 35.50200
H  31.33800 5.10900 36.14300

