158

Mg -11.24000 40.66500 43.32100
C  -10.80900 37.32100 42.11200
C  -8.28800 41.48800 41.67700
C  -12.10700 43.83400 43.62500
C  -14.55300 39.72000 44.07700
N  -9.74200 39.50200 41.94900
C  -9.83500 38.17500 41.56800
C  -8.53000 37.75400 40.75500
C  -7.55500 38.97700 41.11000
C  -8.57100 40.08600 41.63400
C  -6.27500 38.74100 41.92700
C  -8.73100 37.51400 39.27300
C  -7.98400 36.27400 38.61200
H  -6.95400 36.42300 37.47500
N  -10.31500 42.42700 42.74000
C  -9.07700 42.56300 42.17200
C  -8.69900 43.93000 42.13900
C  -9.84700 44.64000 42.67200
C  -10.80400 43.65100 43.03800
C  -7.54300 44.39600 41.49500
C  -10.01100 46.15600 42.74800
O  -9.01500 46.84700 42.57900
C  -11.16000 46.90000 43.21400
N  -13.10400 41.68400 43.82900
C  -13.13700 42.99400 43.94100
C  -14.57000 43.51100 44.31400
C  -15.34400 42.12600 44.51100
C  -14.30600 41.10500 44.08400
C  -14.76000 44.45100 45.50800
C  -16.71000 42.09600 43.75100
C  -17.95800 42.29400 44.60700
N  -12.42800 38.86900 43.32400
C  -13.68700 38.64800 43.73700
C  -14.03500 37.20900 43.61000
C  -12.83800 36.66700 43.04300
C  -11.92400 37.71800 42.84700
C  -15.39400 36.63400 43.90600
C  -12.23200 35.42300 42.61400
O  -12.65000 34.26800 42.65400
C  -10.97600 35.83100 41.83300
C  -9.88000 34.90800 42.21200
O  -9.21700 35.00900 43.26900
O  -9.63800 34.01400 41.22200
C  -8.42800 33.19800 41.45500
H  -7.31000 41.67400 41.22700
H  -12.31900 44.87700 43.86900
H  -15.52000 39.46100 44.51300
H  -8.07600 36.85800 41.17800
H  -7.19700 39.40700 40.17500
H  -6.19700 37.65400 41.93700
H  -6.34200 39.15900 42.93200
H  -5.48300 39.17900 41.31900
H  -8.28000 38.34000 38.72400
H  -9.77600 37.41900 38.98000
H  -8.76300 35.63900 38.19100
H  -7.36600 35.80300 39.37700
H  -7.67300 45.29000 40.88400
H  -7.05600 43.64000 40.87800
H  -6.73800 44.55900 42.21100
H  -12.03800 46.68600 42.60600
H  -10.83300 47.93800 43.14500
H  -11.14800 46.61000 44.26400
H  -14.97500 44.04000 43.45100
H  -15.47200 41.98100 45.58300
H  -15.18000 43.95700 46.38400
H  -15.20800 45.38300 45.16100
H  -13.75200 44.61800 45.88700
H  -16.77400 41.09000 43.33600
H  -16.74900 42.78300 42.90600
H  -18.65900 43.01900 44.19300
H  -17.70300 42.57000 45.63100
H  -18.43600 41.31700 44.66600
H  -16.05300 36.86900 43.07000
H  -15.88800 37.02700 44.79400
H  -15.42200 35.54900 43.99700
H  -11.33100 35.57300 40.83500
H  -7.57400 33.79200 41.12800
H  -8.52000 32.27400 40.88500
H  -8.20000 32.84200 42.46000
Mg -10.31700 17.67600 42.73100
C  -6.85300 17.77000 43.06800
C  -10.26600 21.11300 42.31100
C  -13.62200 17.52300 41.62200
C  -10.20300 14.14300 42.44300
N  -8.77100 19.17200 42.72800
C  -7.38300 18.99800 42.81400
C  -6.66300 20.29400 42.49800
C  -7.82100 21.30600 42.74400
C  -9.07700 20.51700 42.66700
C  -7.69200 21.95000 44.18500
C  -5.85500 20.25600 41.12800
C  -6.71100 19.63000 39.96600
H  -5.98200 19.46600 38.61700
N  -11.87100 19.15400 42.25300
C  -11.55600 20.46500 42.13800
C  -12.75300 21.18400 41.70900
C  -13.75200 20.21500 41.37000
C  -13.12900 18.87300 41.76800
C  -12.74600 22.73900 41.69800
C  -15.08000 20.39300 40.80200
O  -15.59500 21.49600 40.75900
C  -15.97800 19.30900 40.35100
N  -11.58700 16.10600 41.93200
C  -12.93300 16.31500 41.75100
C  -13.64100 15.02700 41.35000
C  -12.67400 13.92600 41.91100
C  -11.39400 14.76300 42.14800
C  -15.12800 14.78900 41.76000
C  -12.43200 12.68200 40.97100
C  -12.22800 11.32700 41.67900
N  -8.88900 16.26700 42.73800
C  -8.99700 14.86900 42.70500
C  -7.68900 14.28900 43.05000
C  -6.79100 15.42300 43.11700
C  -7.61500 16.56200 42.99100
C  -7.31500 12.86100 43.37000
C  -5.39500 15.80900 43.24500
O  -4.38500 15.11900 43.49500
C  -5.39100 17.35600 43.14800
C  -4.76500 17.79800 44.33000
O  -3.76800 18.54100 44.28900
O  -5.22900 17.19900 45.49400
C  -4.29100 17.33100 46.61000
H  -10.17400 22.19800 42.22700
H  -14.64300 17.35700 41.27100
H  -10.06300 13.06100 42.40800
H  -5.93300 20.33200 43.30600
H  -7.81900 22.13200 42.03300
H  -6.84900 21.57500 44.76500
H  -8.57500 21.66300 44.75600
H  -7.57900 23.01700 43.99100
H  -5.00000 19.66000 41.44600
H  -5.50200 21.25900 40.88500
H  -7.67500 20.12700 39.84900
H  -6.79700 18.58100 40.25000
H  -12.14800 23.13900 40.87900
H  -12.56900 23.23400 42.65300
H  -13.68700 23.27100 41.55900
H  -15.48300 18.52700 39.77400
H  -16.76100 19.78100 39.75700
H  -16.48200 18.88000 41.21700
H  -13.56600 14.88100 40.27200
H  -13.01000 13.65900 42.91300
H  -15.74000 15.08600 40.90800
H  -15.42300 15.44100 42.58200
H  -15.34100 13.74700 41.99800
H  -11.59700 12.83000 40.28600
H  -13.27700 12.50400 40.30500
H  -13.14100 10.80300 41.39500
H  -12.15300 11.47300 42.75600
H  -11.36800 10.76900 41.30900
H  -8.16600 12.20100 43.20400
H  -7.03900 12.70200 44.41300
H  -6.48800 12.53900 42.73700
H  -4.74000 17.61800 42.31400
H  -4.65300 16.76600 47.46800
H  -4.19800 18.32600 47.04600
H  -3.32300 16.91300 46.33100

