158

Mg 27.14800 49.91900 26.12900
C  25.21900 50.91400 28.84800
C  29.69000 48.91400 28.42400
C  29.14600 49.21700 23.46900
C  24.69300 50.94200 23.95700
N  27.41400 49.92700 28.36500
C  26.41400 50.35700 29.25600
C  26.89000 50.03500 30.71800
C  28.35600 49.41700 30.56000
C  28.51900 49.48100 28.99700
C  29.50800 50.20800 31.27700
C  25.81900 49.19200 31.49500
C  25.69700 49.74500 32.94000
H  25.74800 48.87200 34.14100
N  29.14500 49.18600 25.99600
C  30.03800 48.85400 27.03900
C  31.26500 48.36700 26.41600
C  31.16700 48.47000 24.98000
C  29.74400 48.96200 24.76300
C  32.42100 47.90200 27.36300
C  32.25400 48.28300 23.89200
O  32.07300 48.64100 22.71600
C  33.52300 47.64900 24.25500
N  26.94100 50.05600 24.06500
C  27.84700 49.59200 23.17100
C  27.22900 49.65100 21.74900
C  25.87000 50.22200 21.89000
C  25.80100 50.29300 23.41200
C  28.08400 50.31300 20.66500
C  24.76400 49.27800 21.33300
C  23.78200 49.98200 20.38100
N  25.30000 50.85600 26.29000
C  24.39900 51.10300 25.34800
C  23.25300 51.72700 25.99400
C  23.57200 51.77800 27.33000
C  24.78000 51.06700 27.47900
C  21.98900 52.17100 25.35900
C  23.06600 52.16800 28.66000
O  22.07200 52.81100 28.91800
C  24.08200 51.44800 29.68900
C  24.49000 52.57100 30.68800
O  25.19800 53.53800 30.46600
O  23.67500 52.45200 31.82900
C  24.11400 53.36200 32.86800
H  30.45900 48.46700 29.05700
H  29.73700 48.90500 22.60500
H  23.93800 51.31700 23.26200
H  26.91700 51.03400 31.15400
H  28.30200 48.41200 30.97900
H  29.08500 50.62600 32.19000
H  29.97100 50.95300 30.62900
H  30.28300 49.48500 31.53300
H  26.11300 48.14400 31.55000
H  24.84600 49.21000 31.00500
H  24.72000 50.19500 33.11900
H  26.43100 50.52300 33.14500
H  32.09900 47.04200 27.94900
H  32.63400 48.72700 28.04300
H  33.31400 47.65900 26.78700
H  34.13200 48.24900 24.93100
H  34.05400 47.57500 23.30600
H  33.44600 46.64300 24.67000
H  27.15500 48.59900 21.47300
H  25.93900 51.24400 21.51600
H  29.03800 50.56500 21.12800
H  27.68200 51.28300 20.37300
H  28.09800 49.74600 19.73400
H  24.25200 48.91100 22.22300
H  25.20200 48.48000 20.73400
H  24.27000 49.96700 19.40700
H  23.66700 51.01900 20.69600
H  22.83600 49.44800 20.29500
H  22.05300 53.20000 25.00800
H  21.21400 52.19300 26.12500
H  21.79100 51.47100 24.54700
H  23.52500 50.66800 30.20700
H  23.47600 53.29000 33.74800
H  23.91300 54.35100 32.45600
H  25.11400 53.20500 33.27300
Mg 7.42000 53.59500 41.78500
C  6.75300 50.02000 41.61900
C  10.67600 52.84100 40.92600
C  7.92200 56.85700 41.15700
C  4.04500 54.09000 42.23500
N  8.48600 51.68900 41.31200
C  8.08500 50.35000 41.36100
C  9.24700 49.45600 41.18900
C  10.54400 50.32900 41.23200
C  9.84500 51.71000 41.18000
C  11.45100 50.14600 42.44300
C  9.23200 48.41800 39.91500
C  9.37700 48.94200 38.47400
H  8.31300 48.56000 37.44700
N  8.99000 54.69600 40.96500
C  10.22500 54.24300 40.74500
C  11.10300 55.32800 40.39000
C  10.41100 56.50300 40.46300
C  9.02700 56.06300 40.92500
C  12.51300 55.15000 39.89900
C  10.99900 57.82000 40.15000
O  12.07800 58.00200 39.59700
C  10.11600 59.04200 40.24800
N  6.12700 55.19200 41.54300
C  6.62800 56.44800 41.53100
C  5.51700 57.47900 41.75600
C  4.27700 56.60500 41.91600
C  4.81700 55.21000 41.92200
C  5.78400 58.38800 42.99500
C  3.24200 56.83900 40.84000
C  1.77300 56.61900 41.30200
N  5.69800 52.33000 42.07200
C  4.38300 52.68800 42.21700
C  3.56200 51.45100 42.34000
C  4.47600 50.38900 42.15600
C  5.74300 50.99800 41.90300
C  2.10100 51.38500 42.59500
C  4.61900 48.93200 42.08400
O  3.78700 48.09000 42.23800
C  6.07200 48.63300 41.66500
C  5.89500 48.15700 40.32900
O  5.74100 48.81800 39.33100
O  5.85700 46.80000 40.45400
C  5.44500 46.02400 39.34700
H  11.75600 52.68300 40.96000
H  7.99300 57.94600 41.12700
H  3.02900 54.36400 42.52500
H  9.25100 48.81000 42.06700
H  11.11500 50.01700 40.35800
H  11.16000 49.29700 43.06100
H  11.41100 51.02300 43.09000
H  12.45000 50.01000 42.02900
H  8.71900 47.45600 39.90200
H  10.21100 47.97600 40.10300
H  10.32800 48.72000 37.98900
H  9.25900 50.02100 38.56900
H  12.68100 55.60600 38.92400
H  12.89500 54.13000 39.84200
H  13.26700 55.62600 40.52600
H  9.11500 58.97400 39.82000
H  10.49600 59.87500 39.65700
H  10.07400 59.44500 41.25900
H  5.55600 58.05500 40.83100
H  3.90400 56.73500 42.93200
H  6.55800 57.93400 43.61400
H  4.88800 58.56600 43.58900
H  6.18000 59.33600 42.63000
H  3.37000 56.06900 40.07900
H  3.11600 57.86200 40.48600
H  1.76700 56.57100 42.39100
H  1.33600 55.74000 40.82800
H  1.22000 57.44800 40.86000
H  1.83700 52.42700 42.77500
H  1.87900 50.81600 43.49700
H  1.52700 50.84200 41.84300
H  6.48800 47.88000 42.33400
H  6.33900 45.56900 38.92200
H  4.99500 46.62300 38.55500
H  4.73800 45.28800 39.73000

