158

Mg 23.91500 -5.53700 46.02300
C  26.18400 -3.23100 44.49000
C  21.54000 -4.35600 43.76100
C  22.01300 -8.10800 46.88600
C  26.72100 -6.97600 47.63600
N  23.86900 -3.94800 44.31800
C  24.92600 -3.16900 43.92500
C  24.51900 -2.26400 42.72500
C  22.96100 -2.43300 42.77500
C  22.72800 -3.62800 43.67000
C  22.14900 -1.21200 43.34900
C  25.02300 -2.88500 41.39200
C  25.88700 -1.96300 40.54000
H  25.61600 -2.09200 38.97800
N  21.96600 -6.11800 45.53400
C  21.18600 -5.47000 44.61100
C  20.00500 -6.20300 44.43000
C  20.13200 -7.37300 45.25700
C  21.39700 -7.23300 45.96500
C  18.94500 -5.88100 43.35100
C  19.12000 -8.56400 45.24700
O  18.03000 -8.45100 44.69700
C  19.56100 -9.85700 45.85500
N  24.33300 -7.28700 47.06000
C  23.31100 -8.16200 47.40200
C  23.84500 -9.34400 48.22800
C  25.22900 -8.86400 48.63300
C  25.49500 -7.64900 47.72700
C  22.98500 -9.75300 49.41600
C  26.33500 -9.99200 48.72200
C  26.97700 -10.20000 50.10200
N  26.05400 -5.10200 46.24400
C  27.05000 -5.75700 46.92800
C  28.34800 -5.04800 46.82200
C  28.00400 -4.03200 45.85300
C  26.66400 -4.22300 45.44400
C  29.59100 -5.46600 47.54900
C  28.54200 -2.89100 45.11000
O  29.67400 -2.48500 45.13600
C  27.40500 -2.39400 44.10200
C  27.32400 -0.95900 44.37300
O  26.48600 -0.49800 45.16100
O  28.14200 -0.10800 43.60400
C  28.26600 1.27200 44.06400
H  20.79300 -4.01200 43.04200
H  21.41000 -8.90100 47.33200
H  27.55000 -7.43500 48.17800
H  24.83800 -1.23000 42.85700
H  22.50400 -2.52300 41.78900
H  22.83300 -0.39100 43.56700
H  21.60600 -1.44900 44.26300
H  21.46600 -0.84000 42.58500
H  24.24400 -3.16100 40.68000
H  25.62800 -3.77500 41.56900
H  26.90600 -2.33700 40.63600
H  25.76900 -0.94300 40.90600
H  19.02500 -6.67000 42.60400
H  19.07000 -4.86800 42.96800
H  17.97100 -5.79100 43.83300
H  20.60500 -10.00200 45.57800
H  18.87300 -10.63400 45.52200
H  19.44900 -9.57800 46.90300
H  24.03500 -10.13600 47.50400
H  25.21000 -8.40300 49.62000
H  23.49100 -9.70200 50.37900
H  22.60400 -10.74900 49.19200
H  22.12200 -9.08800 49.39300
H  27.05000 -9.81100 47.92000
H  25.90300 -10.95100 48.43500
H  28.06300 -10.21300 50.00800
H  26.69700 -11.12100 50.61300
H  26.77100 -9.45200 50.86800
H  29.80500 -6.48800 47.24000
H  29.36800 -5.32800 48.60800
H  30.43600 -4.81900 47.31500
H  27.68000 -2.67700 43.08600
H  27.35600 1.85700 43.93400
H  29.01500 1.70900 43.40400
H  28.68600 1.37300 45.06500
Mg 36.74900 49.32400 24.93100
C  36.62500 47.29800 27.75600
C  34.94700 51.68600 26.68000
C  36.19100 50.87900 22.01300
C  38.03600 46.49500 23.12400
N  35.79800 49.39300 26.88700
C  36.13400 48.61000 27.98700
C  35.65600 49.15300 29.38200
C  34.88500 50.40500 28.86600
C  35.19100 50.50400 27.36900
C  33.43700 50.52100 29.29700
C  36.81100 49.33300 30.40400
C  36.39100 48.88500 31.86000
H  34.88700 48.85900 32.24500
N  35.88900 51.20000 24.45600
C  35.16300 52.00000 25.27700
C  34.80300 53.14200 24.52800
C  35.21000 52.94000 23.10500
C  35.84800 51.66800 23.19000
C  34.04100 54.22400 25.12500
C  35.13800 53.85100 21.93800
O  35.40600 53.53500 20.78900
C  34.61600 55.27700 22.04600
N  37.13900 48.85100 22.94300
C  36.70900 49.64100 21.89300
C  37.18900 49.02500 20.52800
C  38.08200 47.80300 20.99500
C  37.73300 47.65600 22.44000
C  35.97800 48.53100 19.65800
C  39.56700 47.88200 20.68500
C  40.34600 48.99400 21.38400
N  37.32100 47.33100 25.34500
C  37.83400 46.30800 24.53000
C  38.00500 45.07700 25.32400
C  37.55400 45.46100 26.61500
C  37.14200 46.81100 26.56700
C  38.36200 43.74000 24.77500
C  37.26300 44.96600 27.90500
O  37.33200 43.83300 28.35600
C  36.68200 46.17900 28.76900
C  35.34600 45.75300 29.19700
O  34.43600 45.62500 28.46500
O  35.33100 45.38400 30.50500
C  34.26400 44.45500 30.93100
H  34.34900 52.37200 27.28400
H  35.96700 51.32600 21.04200
H  38.44700 45.60500 22.64200
H  34.91600 48.42900 29.72500
H  35.40400 51.21200 29.38300
H  32.84100 50.97300 28.50400
H  33.42500 51.17700 30.16800
H  32.93600 49.64800 29.71600
H  37.09200 50.38600 30.42100
H  37.66100 48.75400 30.04200
H  36.90600 49.51400 32.58700
H  36.78900 47.88600 32.03500
H  33.86400 54.24800 26.20000
H  33.10800 54.31500 24.56800
H  34.65400 55.11500 24.98300
H  34.60100 55.86900 21.13000
H  35.33900 55.87800 22.59700
H  33.60700 55.39500 22.43900
H  37.77800 49.77900 20.00800
H  37.73000 46.90500 20.48700
H  36.06200 47.53400 19.22500
H  35.93600 49.28000 18.86700
H  35.12900 48.58900 20.33900
H  39.71900 47.97200 19.60900
H  40.00500 46.96000 21.06600
H  40.00800 49.17000 22.40500
H  40.06700 49.89900 20.84500
H  41.42600 48.86600 21.30700
H  37.91900 43.68200 23.78100
H  37.81800 42.93800 25.27300
H  39.43000 43.53100 24.70100
H  37.39200 46.41600 29.56200
H  33.52000 45.08800 31.41500
H  34.55300 43.92100 31.83500
H  33.90800 43.73500 30.19400

