158

Mg 26.46900 1.33400 29.48100
C  28.26000 1.07100 32.40500
C  23.54800 1.61100 31.35800
C  24.70400 1.56000 26.64800
C  29.39000 0.65900 27.67100
N  25.99900 1.39300 31.63900
C  26.85900 1.31100 32.65500
C  26.19300 1.56800 34.00000
C  24.66400 1.73900 33.63600
C  24.70300 1.55200 32.14700
C  23.65700 0.83000 34.46900
C  26.98600 2.65400 34.92900
C  26.13700 3.22700 36.09300
H  26.48300 2.73100 37.47700
N  24.42500 1.50000 29.03700
C  23.38800 1.62900 29.94500
C  22.08700 1.89400 29.23700
C  22.37300 1.84900 27.84100
C  23.91000 1.64300 27.80300
C  20.77200 2.08600 29.97800
C  21.46900 1.86400 26.61000
O  21.86800 1.57800 25.43900
C  19.99300 2.16000 26.78600
N  26.97200 1.06000 27.47300
C  26.06700 1.27800 26.47000
C  26.69000 1.16400 25.06100
C  28.22600 0.87000 25.37900
C  28.20900 0.81300 26.90300
C  25.98700 0.26300 24.06200
C  29.18400 1.95900 24.78400
C  29.36300 1.98000 23.25700
N  28.44500 0.86600 29.87400
C  29.55000 0.63600 29.04900
C  30.72300 0.45100 29.83400
C  30.25100 0.63200 31.14500
C  28.90100 0.92200 31.09900
C  31.95900 -0.13800 29.29000
C  30.63800 0.66300 32.50900
O  31.78600 0.63800 32.97500
C  29.42600 0.95100 33.36900
C  29.34000 -0.07500 34.38800
O  28.73200 -1.12300 34.23200
O  30.00000 0.33600 35.55300
C  29.54900 -0.50400 36.71300
H  22.63500 1.66200 31.95600
H  24.28300 1.85300 25.68400
H  30.29600 0.62500 27.06400
H  26.22800 0.62300 34.54200
H  24.37000 2.76500 33.85700
H  24.07900 0.28700 35.31500
H  23.19500 0.16100 33.74300
H  22.88800 1.54700 34.75500
H  27.46800 3.52300 34.48100
H  27.76000 2.08000 35.43900
H  25.07500 3.07900 35.89800
H  26.27600 4.30800 36.10500
H  20.16500 2.91600 29.61900
H  20.92000 2.02400 31.05700
H  20.23800 1.24900 29.52900
H  20.00700 3.22100 27.03800
H  19.54400 1.48300 27.51300
H  19.45600 1.99000 25.85300
H  26.63300 2.17700 24.66400
H  28.41600 -0.16500 25.09700
H  25.14800 -0.19900 24.58300
H  26.55400 -0.59800 23.70700
H  25.61600 0.90000 23.25900
H  30.17000 1.86400 25.23800
H  28.90800 2.98100 25.04200
H  28.94600 1.11500 22.74100
H  30.44300 1.98800 23.11700
H  28.92400 2.88200 22.83000
H  32.50400 -0.57600 30.12600
H  32.69000 0.58000 28.91800
H  31.77800 -0.90700 28.53800
H  29.66700 1.92200 33.80200
H  30.50200 -0.76900 37.17200
H  29.29600 -1.55100 36.54900
H  28.78300 0.00400 37.29800
Mg 48.44400 15.35200 27.89600
C  46.42700 15.45800 31.02000
C  50.95600 16.67900 29.69000
C  50.11100 15.43700 24.97400
C  45.52500 14.14900 26.35300
N  48.50900 16.34800 30.10100
C  47.73000 16.08100 31.13800
C  48.46900 16.43100 32.48500
C  49.84300 16.99500 31.95400
C  49.84300 16.58400 30.49300
C  50.14000 18.55100 32.18600
C  48.59500 15.26200 33.49900
C  47.83300 15.42500 34.85600
H  47.68600 16.84500 35.42500
N  50.28200 16.10600 27.40800
C  51.19500 16.52200 28.27800
C  52.37600 16.86900 27.50900
C  52.19900 16.40500 26.17400
C  50.77100 15.95900 26.11600
C  53.53000 17.63200 28.13900
C  53.17500 16.43700 25.02700
O  52.86100 15.91600 23.92000
C  54.59100 17.02600 25.18700
N  47.87100 14.89500 25.98700
C  48.68100 15.13500 24.90700
C  48.02700 14.80400 23.54000
C  46.74800 14.18100 23.97200
C  46.66800 14.45200 25.53800
C  48.01100 15.91100 22.42000
C  46.61000 12.69900 23.56800
C  47.45200 11.62200 24.33700
N  46.39000 14.85900 28.53800
C  45.38000 14.33700 27.73600
C  44.16900 14.08600 28.57200
C  44.61700 14.39000 29.88500
C  45.94200 14.95000 29.80000
C  42.92400 13.53300 28.10800
C  44.21200 14.34100 31.31800
O  43.12100 14.13100 31.77600
C  45.45300 14.99100 32.08100
C  44.87000 16.19500 32.81200
O  44.78600 17.36800 32.42300
O  44.34900 15.86100 34.04000
C  43.63400 16.79000 34.92100
H  51.79000 16.99700 30.31900
H  50.62200 15.60500 24.02400
H  44.65800 13.67600 25.88800
H  47.86200 17.22100 32.92600
H  50.73700 16.55100 32.39300
H  49.23000 18.95500 32.63100
H  50.24500 19.02300 31.21000
H  50.91700 18.75400 32.92300
H  49.64600 15.09900 33.73700
H  48.19600 14.38000 32.99800
H  48.43100 14.92600 35.61900
H  46.86000 14.93600 34.91000
H  53.39500 18.67000 27.83700
H  54.43400 17.10400 27.83600
H  53.46700 17.66200 29.22700
H  55.18900 16.41300 25.86100
H  54.58000 18.03900 25.58900
H  55.11400 17.07400 24.23100
H  48.60700 13.95700 23.17400
H  45.98600 14.79000 23.48600
H  48.68100 16.71600 22.72200
H  47.05300 16.43000 22.41200
H  48.47900 15.58100 21.49300
H  46.71200 12.63600 22.48500
H  45.58700 12.50700 23.89200
H  47.90600 10.97400 23.58700
H  46.74500 11.10800 24.98800
H  48.18000 12.20700 24.89800
H  42.04500 13.93900 28.60800
H  42.83300 12.51100 28.47600
H  42.89400 13.70000 27.03100
H  45.90100 14.28200 32.77600
H  44.35600 17.52800 35.27200
H  43.09100 16.29600 35.72600
H  42.86700 17.31400 34.35100

