158

Mg 2.06200 -2.26400 43.92300
C  5.41000 -1.57600 43.38500
C  1.14000 0.55200 42.26700
C  -1.25000 -3.29000 43.95400
C  3.04800 -5.39300 45.20800
N  3.22600 -0.75900 42.77400
C  4.58500 -0.59600 42.81000
C  5.05000 0.75700 42.15300
C  3.63800 1.45500 41.96100
C  2.57500 0.38500 42.34200
C  3.35400 2.81900 42.67900
C  5.94500 0.44800 40.89100
C  7.05300 1.51400 40.61900
H  6.79400 2.51200 39.54800
N  0.15000 -1.46600 43.27900
C  0.05500 -0.29400 42.59700
C  -1.32000 0.04400 42.40600
C  -2.06500 -0.90900 43.07500
C  -1.07400 -2.03800 43.33100
C  -1.79300 1.33900 41.75900
C  -3.58000 -0.98400 43.42500
O  -4.32900 -0.16700 42.93700
C  -4.11100 -1.98700 44.37400
N  1.01900 -4.20600 44.35600
C  -0.32000 -4.33100 44.28600
C  -0.76100 -5.70500 44.91800
C  0.63500 -6.33400 45.33400
C  1.65400 -5.26700 44.98700
C  -1.76500 -5.55300 46.18100
C  0.99100 -7.70300 44.83000
C  1.86000 -8.68900 45.66800
N  3.85100 -3.38300 44.22400
C  4.10100 -4.60900 44.77500
C  5.54300 -4.83500 44.78200
C  6.05600 -3.65800 44.30900
C  5.00700 -2.79700 43.94800
C  6.22100 -5.97500 45.37100
C  7.32900 -2.92300 44.10500
O  8.45900 -3.24500 44.35000
C  6.88800 -1.57700 43.46700
C  7.39800 -0.32400 44.22000
O  8.25600 0.41800 43.87000
O  6.72500 -0.02500 45.38000
C  6.96800 1.28800 46.08300
H  0.88500 1.41700 41.65200
H  -2.28800 -3.62500 44.01400
H  3.25300 -6.37800 45.63200
H  5.58700 1.30600 42.92700
H  3.49300 1.60400 40.89200
H  2.45000 2.84100 43.28700
H  3.23500 3.58000 41.90800
H  4.23500 2.97300 43.30200
H  5.25700 0.42500 40.04600
H  6.41200 -0.53200 40.99300
H  7.94200 1.00900 40.24100
H  7.29900 2.01400 41.55600
H  -0.99300 2.03100 41.49700
H  -2.57600 1.83400 42.33300
H  -2.14000 0.92200 40.81300
H  -3.29400 -2.20600 45.06200
H  -4.34700 -2.93100 43.88300
H  -5.06600 -1.66100 44.78700
H  -1.27300 -6.27600 44.14300
H  0.74700 -6.25200 46.41500
H  -1.40700 -5.91700 47.14400
H  -2.73900 -6.02000 46.03400
H  -1.93300 -4.49600 46.39100
H  1.42100 -7.44500 43.86200
H  0.01700 -8.18600 44.76100
H  2.61200 -9.11700 45.00400
H  1.32000 -9.59300 45.94600
H  2.44700 -8.13800 46.40300
H  6.36400 -6.79000 44.66200
H  5.63500 -6.26500 46.24300
H  7.21800 -5.70800 45.72200
H  7.51300 -1.39300 42.59300
H  6.52200 1.45600 47.06400
H  6.57900 2.03400 45.39000
H  8.01700 1.56300 46.18600
Mg 9.58200 47.19100 25.33600
C  7.48700 47.57900 28.24800
C  12.03500 48.57500 27.15000
C  11.27900 47.08700 22.45900
C  6.55800 46.60000 23.53100
N  9.70700 47.86600 27.41500
C  8.76900 48.03400 28.40400
C  9.41200 48.65800 29.67300
C  10.77700 49.27600 29.13900
C  10.81200 48.50200 27.81200
C  10.76600 50.86700 29.04400
C  9.66000 47.54800 30.75600
C  9.05200 47.70400 32.17300
H  9.16800 46.51800 33.13100
N  11.42900 47.54400 24.86200
C  12.32600 48.10200 25.84100
C  13.61200 47.90600 25.28200
C  13.47600 47.55700 23.86600
C  12.02200 47.41000 23.62300
C  14.88500 48.29300 26.11300
C  14.54400 47.43600 22.85700
O  14.31800 47.18900 21.68900
C  15.99500 47.50900 23.31200
N  9.01400 46.91100 23.30000
C  9.92900 46.85400 22.26500
C  9.29400 46.57300 20.94400
C  7.79300 46.29200 21.34700
C  7.77600 46.56200 22.80100
C  9.40400 47.57000 19.78200
C  7.26800 44.91500 20.96100
C  7.66600 43.76300 21.87400
N  7.39500 47.17200 25.71900
C  6.35900 46.88800 24.91500
C  5.08900 46.83700 25.72200
C  5.51400 47.01900 27.05900
C  6.93700 47.34700 26.98700
C  3.80000 46.51600 25.19400
C  5.12700 47.12500 28.48000
O  4.05700 46.92700 29.04200
C  6.44500 47.46100 29.31900
C  6.73700 46.19200 30.14600
O  7.47900 45.26800 29.90600
O  5.96500 46.31200 31.24500
C  5.95400 45.12900 32.14600
H  12.83500 49.13200 27.64200
H  11.88000 47.05700 21.54700
H  5.62800 46.39300 22.99600
H  8.73100 49.44300 30.00000
H  11.63100 49.03300 29.77100
H  11.69200 51.25700 29.46800
H  9.82000 51.15900 29.50000
H  10.63400 51.26800 28.03900
H  10.73700 47.42700 30.86800
H  9.46000 46.61200 30.23300
H  8.00100 47.94500 32.01300
H  9.45500 48.59800 32.64800
H  14.70000 48.30000 27.18800
H  15.44800 49.16400 25.78000
H  15.60500 47.47600 26.06800
H  16.12000 48.50000 23.74800
H  16.74300 47.38300 22.53000
H  16.08600 46.71700 24.05500
H  9.76300 45.65700 20.58600
H  7.17500 47.03200 20.83800
H  9.88100 48.49500 20.10700
H  8.45200 47.89400 19.36200
H  10.03700 47.01000 19.09400
H  7.62700 44.70000 19.95400
H  6.18400 45.02800 20.94000
H  8.34400 43.10100 21.33500
H  6.72900 43.22300 22.00900
H  8.15000 44.10300 22.78900
H  3.37700 47.44200 24.80400
H  3.19700 46.19600 26.04400
H  3.87300 45.77800 24.39600
H  6.31600 48.27300 30.03400
H  6.82100 45.20400 32.80300
H  5.83000 44.18100 31.62400
H  5.00900 45.11400 32.68900

