158

Mg 47.94700 15.91300 28.21100
C  45.36500 15.98600 30.69400
C  50.15700 17.13500 30.49300
C  50.12700 16.31600 25.69700
C  45.46700 15.08800 25.93600
N  47.69600 16.63100 30.33200
C  46.61500 16.38200 31.16900
C  46.96800 16.75700 32.60300
C  48.36000 17.56300 32.35500
C  48.79700 17.10500 30.97000
C  48.25600 19.10100 32.48200
C  47.04800 15.45100 33.46200
C  46.98000 15.52900 35.01300
H  46.62500 16.84700 35.66500
N  49.88700 16.49700 28.13100
C  50.63300 16.91000 29.18900
C  51.98800 17.08600 28.85300
C  52.06000 16.87300 27.39000
C  50.65200 16.53300 27.02000
C  53.08200 17.55400 29.85000
C  53.28200 16.95400 26.58700
O  53.29500 16.74500 25.38500
C  54.60900 17.31800 27.16800
N  47.80600 16.12000 26.05600
C  48.88100 16.14900 25.22700
C  48.47600 15.77000 23.76700
C  47.07200 15.12700 24.00100
C  46.74300 15.48200 25.43300
C  48.63600 16.92300 22.70600
C  46.88400 13.63900 23.64000
C  47.11700 12.62200 24.83700
N  45.87600 15.56500 28.24700
C  45.07400 15.13100 27.29000
C  43.74000 14.67600 27.83400
C  43.80800 15.08800 29.14600
C  45.15000 15.53500 29.41800
C  42.63500 14.00100 27.07100
C  43.02400 15.23400 30.31600
O  41.86700 15.05200 30.41800
C  44.06500 15.74100 31.44000
C  43.52900 16.85400 32.25300
O  43.56700 18.05500 31.99800
O  42.90600 16.38100 33.41700
C  42.48300 17.40600 34.47000
H  50.83300 17.36400 31.32000
H  50.83800 16.13100 24.88900
H  44.78800 14.69000 25.17900
H  46.30600 17.43600 33.14000
H  49.09600 17.27900 33.10700
H  47.23200 19.47400 32.46600
H  48.77100 19.47700 31.59800
H  48.88700 19.45100 33.29900
H  48.04800 15.03300 33.35100
H  46.25400 14.77800 33.13700
H  47.92500 15.16000 35.41200
H  46.24400 14.83800 35.42400
H  52.75800 17.73900 30.87400
H  53.23600 18.57500 29.50000
H  53.94800 16.89800 29.77500
H  54.55600 18.33500 27.55800
H  55.45000 17.26600 26.47700
H  54.95900 16.61300 27.92200
H  49.12000 14.94400 23.46400
H  46.31100 15.62300 23.39900
H  47.64800 17.04100 22.26200
H  49.42300 16.64200 22.00600
H  48.81800 17.87300 23.20800
H  47.42000 13.30200 22.75200
H  45.86000 13.52900 23.28400
H  47.37700 13.11300 25.77500
H  47.89500 11.92400 24.52400
H  46.17700 12.08500 24.96200
H  42.93300 13.81500 26.03900
H  41.76500 14.65200 27.15100
H  42.69900 13.06900 27.63200
H  44.18700 14.95500 32.18500
H  42.80700 17.01100 35.43300
H  41.40500 17.48900 34.60900
H  43.04700 18.33800 34.41900
Mg 42.17600 40.83900 27.10900
C  41.59700 43.09000 29.63200
C  42.77500 38.48600 29.48500
C  42.72000 38.60900 24.57500
C  41.98200 43.31900 24.71100
N  42.31800 40.87400 29.32700
C  41.92100 41.83700 30.16400
C  41.98100 41.41400 31.62200
C  42.76000 40.08500 31.52300
C  42.56000 39.73200 30.01200
C  44.23100 39.95100 32.12600
C  40.58200 41.34500 32.24700
C  40.27200 42.36000 33.40700
H  39.81000 41.85900 34.79100
N  42.56900 38.80700 27.05500
C  42.78100 38.00600 28.15700
C  43.10700 36.65000 27.67300
C  42.97700 36.61200 26.27200
C  42.68200 38.04900 25.91300
C  43.34000 35.42200 28.67300
C  43.11700 35.47800 25.30500
O  43.00800 35.70500 24.09900
C  43.40300 34.05700 25.81900
N  42.24500 40.93000 24.85400
C  42.56700 39.84500 24.10100
C  42.66900 40.28000 22.64100
C  42.55100 41.82000 22.67900
C  42.17400 42.05300 24.16800
C  43.86400 39.67700 21.85200
C  41.52000 42.43300 21.66400
C  40.09000 42.65000 22.18100
N  41.95700 42.84300 27.10000
C  41.81000 43.72200 26.06800
C  41.45900 45.02200 26.61200
C  41.24100 44.74600 27.97300
C  41.63800 43.47100 28.19800
C  41.22800 46.24900 25.85000
C  40.92700 45.46400 29.23700
O  40.59300 46.64600 29.51800
C  40.94000 44.32200 30.34700
C  41.97500 44.76800 31.30000
O  43.18400 44.67200 31.18100
O  41.41300 45.38700 32.35500
C  42.22500 46.00300 33.38800
H  43.02900 37.77500 30.27400
H  43.02400 37.95500 23.75500
H  42.01500 44.10500 23.95300
H  42.60000 42.01600 32.28700
H  42.16500 39.38000 32.10400
H  44.85600 39.60200 31.30400
H  44.11100 39.27400 32.97200
H  44.71000 40.86100 32.48900
H  40.42000 40.34500 32.65000
H  39.86300 41.46200 31.43700
H  39.40600 42.94400 33.09500
H  41.10300 43.05900 33.49000
H  43.42100 35.77800 29.70000
H  44.29500 34.91100 28.55800
H  42.52400 34.71600 28.51500
H  42.49000 33.71800 26.30800
H  44.25700 34.01200 26.49400
H  43.55300 33.40100 24.96100
H  41.77700 40.01700 22.07300
H  43.49700 42.34400 22.54700
H  44.42900 40.48200 21.38300
H  43.65700 38.99400 21.02800
H  44.60000 39.20600 22.50400
H  41.55300 41.69100 20.86600
H  42.03000 43.32500 21.30000
H  39.49900 42.24200 21.36100
H  39.94800 43.71400 22.37100
H  39.76000 42.10700 23.06700
H  41.97400 46.99300 26.12900
H  40.29400 46.70600 26.17600
H  41.22700 46.05800 24.77700
H  39.93600 44.10600 30.71300
H  42.30800 45.19400 34.11400
H  41.71600 46.84900 33.84900
H  43.19800 46.25300 32.96400

