158

Mg 8.84600 3.70100 27.39700
C  10.01000 2.20000 30.28500
C  6.53600 5.37300 29.26900
C  7.33200 4.74000 24.51400
C  10.53300 1.14600 25.51500
N  8.18900 3.59400 29.62300
C  9.02800 3.14000 30.60900
C  8.72900 3.80400 31.93500
C  7.52800 4.75800 31.48200
C  7.40300 4.59500 30.03500
C  6.18000 4.67800 32.25700
C  9.83200 4.65500 32.63400
C  10.17500 4.16200 34.07000
H  10.27600 5.21400 35.21500
N  7.30600 4.95200 26.94100
C  6.49700 5.58300 27.84500
C  5.61800 6.50000 27.11500
C  5.88700 6.41300 25.73800
C  6.88800 5.29400 25.70300
C  4.71400 7.51400 27.87800
C  5.42400 7.27300 24.57500
O  5.54000 6.98600 23.37200
C  4.70800 8.68800 24.84700
N  8.87900 3.04900 25.27900
C  8.29100 3.71600 24.29500
C  8.77300 3.12400 22.91500
C  9.83700 2.08800 23.24600
C  9.81100 2.13900 24.76000
C  7.59400 2.60400 22.03200
C  11.23700 2.47500 22.80100
C  11.37800 2.56300 21.30300
N  10.16400 2.10500 27.76100
C  10.70900 1.15300 26.94000
C  11.55400 0.29000 27.74200
C  11.34800 0.68500 29.07000
C  10.44600 1.76100 29.01500
C  12.35500 -0.92600 27.30700
C  11.66900 0.37300 30.43800
O  12.40700 -0.46300 30.93900
C  10.95000 1.50700 31.30300
C  10.22500 0.87200 32.36500
O  9.07600 0.43400 32.24500
O  10.93800 0.77100 33.49900
C  10.24200 0.04300 34.56100
H  6.04800 6.17800 29.82400
H  7.05600 5.13100 23.53200
H  11.03400 0.31200 25.02000
H  8.27000 3.08300 32.61200
H  7.68000 5.82500 31.64600
H  5.47500 4.16100 31.60700
H  5.84600 5.63100 32.66900
H  6.21200 3.95900 33.07600
H  9.48900 5.66600 32.85100
H  10.65500 4.86300 31.95000
H  11.14900 3.69000 33.93800
H  9.49400 3.39400 34.43800
H  3.80000 7.42100 27.29200
H  5.05700 8.54700 27.83300
H  4.49400 7.35000 28.93300
H  4.52200 9.03100 23.82900
H  5.38400 9.38600 25.34000
H  3.81200 8.54600 25.45200
H  9.09100 4.04100 22.41900
H  9.59400 1.07900 22.91200
H  7.70000 1.53100 21.87200
H  7.74800 3.00700 21.03100
H  6.62800 2.83400 22.48100
H  11.80500 1.59200 23.09600
H  11.76600 3.35700 23.16200
H  11.72400 3.50300 20.87300
H  10.37700 2.28200 20.97600
H  11.99300 1.73700 20.94400
H  12.42300 -0.89600 26.22000
H  11.83700 -1.84400 27.58500
H  13.38000 -0.97600 27.67700
H  11.69200 2.16400 31.75500
H  10.05000 -1.02100 34.42000
H  9.36600 0.61900 34.85900
H  10.90800 -0.04700 35.41900
Mg -12.74500 14.56300 42.50100
C  -9.43900 13.70100 41.65400
C  -12.22800 17.58500 40.89700
C  -15.99600 15.26200 43.00600
C  -13.42700 11.23700 43.32100
N  -11.04600 15.40700 41.30900
C  -9.71100 14.93500 41.24200
C  -8.76100 15.93000 40.54100
C  -9.67000 17.14300 40.35100
C  -11.09800 16.73900 40.84500
C  -9.05300 18.45700 40.86900
C  -8.02900 15.38800 39.25000
C  -6.52900 15.27600 39.27400
H  -5.72600 15.90300 38.21500
N  -14.00400 16.18500 41.95800
C  -13.56600 17.37600 41.33400
C  -14.79100 18.19000 41.34800
C  -15.83700 17.51000 41.92700
C  -15.31500 16.23900 42.27500
C  -14.67800 19.55100 40.74900
C  -17.29100 18.10200 42.10500
O  -17.52200 19.28200 41.82400
C  -18.48900 17.19300 42.57700
N  -14.53100 13.35600 43.05300
C  -15.68900 13.93800 43.41100
C  -16.57700 12.98600 44.17800
C  -15.88400 11.62000 44.06000
C  -14.54900 12.05300 43.44800
C  -16.82700 13.34600 45.61900
C  -16.66000 10.45300 43.32500
C  -16.84400 9.21900 44.23600
N  -11.71400 12.89900 42.62800
C  -12.14700 11.61500 42.84500
C  -10.94900 10.76200 42.77900
C  -9.93200 11.51800 42.22800
C  -10.40200 12.85700 42.22000
C  -10.92000 9.31100 43.27300
C  -8.58100 11.46700 41.70100
O  -7.80500 10.54800 41.63100
C  -8.17300 12.93800 41.45000
C  -7.07500 13.45400 42.32500
O  -7.29200 14.13100 43.31400
O  -5.87400 13.23300 41.76000
C  -4.64200 13.77100 42.41700
H  -12.03400 18.59400 40.52700
H  -17.00500 15.40500 43.40000
H  -13.61500 10.17100 43.46200
H  -7.97800 16.27100 41.21900
H  -9.85200 17.25000 39.28200
H  -9.50100 19.27700 40.30700
H  -7.99400 18.43500 40.61500
H  -9.16500 18.45500 41.95300
H  -8.28800 16.10800 38.47300
H  -8.49100 14.40700 39.14100
H  -6.14400 14.27100 39.44100
H  -6.25100 15.76000 40.21000
H  -14.93500 19.57500 39.69000
H  -13.64800 19.90700 40.76700
H  -15.27400 20.28400 41.29300
H  -18.54500 16.28900 41.97000
H  -19.38000 17.77200 42.33200
H  -18.46900 17.05000 43.65700
H  -17.50600 13.09300 43.61800
H  -15.63300 11.36100 45.08900
H  -17.09500 12.46700 46.20400
H  -17.64700 14.05200 45.74700
H  -15.97100 13.82500 46.09400
H  -16.20800 10.13500 42.38500
H  -17.65100 10.87900 43.16000
H  -17.35700 8.45700 43.64800
H  -17.59300 9.58300 44.94000
H  -15.97900 8.71400 44.66500
H  -11.05900 9.30200 44.35400
H  -9.91400 8.92800 43.10500
H  -11.56900 8.71200 42.63400
H  -7.88600 12.95600 40.39800
H  -3.78400 13.28800 41.94900
H  -4.75100 13.35400 43.41800
H  -4.73700 14.85500 42.35600

