158

Mg -1.98300 17.14900 27.32100
C  -2.58700 14.98900 29.94100
C  -2.54200 19.80600 29.37900
C  -1.98700 19.19900 24.56400
C  -1.94600 14.37300 25.07500
N  -2.53300 17.25800 29.42300
C  -2.67700 16.27800 30.32900
C  -2.99100 16.84400 31.73700
C  -3.11800 18.40200 31.41900
C  -2.69700 18.56000 29.94400
C  -4.45200 19.07600 31.79900
C  -2.11100 16.41400 32.96900
C  -2.71800 15.77900 34.27000
H  -1.90100 15.78100 35.51400
N  -2.00600 19.16900 27.00000
C  -2.23500 20.09300 27.99300
C  -2.16900 21.44800 27.45000
C  -1.89800 21.34300 26.04400
C  -1.97700 19.84700 25.81000
C  -2.36900 22.70700 28.26800
C  -1.66100 22.39800 25.02100
O  -1.55800 22.25600 23.82700
C  -1.36800 23.83200 25.57000
N  -2.17800 16.85500 25.11500
C  -2.05000 17.83100 24.20500
C  -1.73800 17.41500 22.80100
C  -1.53700 15.89100 23.01100
C  -1.97300 15.67000 24.48600
C  -2.82500 17.83200 21.73800
C  -0.05800 15.48300 22.68300
C  0.93100 15.11600 23.75100
N  -2.26900 15.16900 27.40100
C  -2.15700 14.15900 26.43900
C  -2.26900 12.87000 27.09100
C  -2.45700 13.16900 28.43700
C  -2.52400 14.60000 28.57600
C  -2.13400 11.53900 26.48200
C  -2.62100 12.51900 29.68800
O  -2.61200 11.32700 29.99300
C  -2.68000 13.66400 30.69600
C  -1.64700 13.35700 31.65900
O  -0.40600 13.53100 31.45400
O  -2.14900 12.73200 32.75100
C  -1.11900 12.16600 33.63500
H  -2.65100 20.66900 30.04000
H  -1.96600 19.89900 23.72700
H  -1.68000 13.55700 24.39900
H  -3.96500 16.38700 31.91200
H  -2.36300 18.94000 31.99200
H  -4.32500 19.79300 32.61000
H  -5.18800 18.29100 31.97100
H  -4.85300 19.55400 30.90500
H  -1.71000 17.31100 33.44100
H  -1.15800 15.98100 32.66700
H  -2.92600 14.75300 33.96800
H  -3.71000 16.17600 34.48600
H  -2.69700 22.48700 29.28400
H  -3.15500 23.22800 27.72100
H  -1.49100 23.34600 28.35600
H  -0.93400 24.43200 24.77000
H  -0.59900 23.63600 26.31700
H  -2.28000 24.27300 25.97200
H  -0.86500 17.98800 22.48700
H  -2.16000 15.26100 22.37600
H  -3.20100 16.95700 21.20900
H  -2.25900 18.46600 21.05600
H  -3.51300 18.52400 22.22600
H  0.41700 16.26000 22.08300
H  -0.18000 14.64700 21.99400
H  0.46700 14.71300 24.65100
H  1.70600 15.84700 23.98300
H  1.39600 14.27700 23.23200
H  -1.11100 11.16700 26.44400
H  -2.58500 11.53800 25.49000
H  -2.76100 10.91300 27.11600
H  -3.63300 13.47500 31.19100
H  -0.79500 12.97700 34.28800
H  -0.29000 11.76300 33.05400
H  -1.63800 11.45300 34.27500
Mg 45.98100 25.81300 27.78200
C  47.12800 28.11500 30.27600
C  45.32900 23.64700 30.17100
C  45.73300 23.51100 25.35300
C  47.55100 27.91100 25.38200
N  46.11000 25.96100 30.01900
C  46.42100 27.00200 30.77800
C  46.01300 26.75600 32.30400
C  45.52700 25.19300 32.25100
C  45.61100 24.92500 30.73400
C  46.41000 24.14400 33.03600
C  44.85700 27.65600 32.80300
C  45.28500 28.65000 33.89500
H  44.41600 28.77200 35.17100
N  45.39400 23.93100 27.82000
C  45.15400 23.17600 28.86900
C  44.57400 21.90600 28.51400
C  44.70200 21.84200 27.08600
C  45.26900 23.15700 26.67000
C  44.06100 20.86700 29.51500
C  44.18400 20.73800 26.15600
O  44.18400 20.85800 24.94500
C  43.74400 19.39400 26.71500
N  46.55800 25.80100 25.54900
C  46.33200 24.64000 24.80400
C  46.57300 24.99400 23.29200
C  47.10600 26.44700 23.34000
C  47.04200 26.76200 24.81500
C  47.45700 24.09200 22.56100
C  46.36200 27.46600 22.41400
C  47.33300 28.13400 21.40600
N  47.00700 27.72300 27.78000
C  47.57600 28.41500 26.74700
C  48.28200 29.51200 27.27800
C  48.14100 29.47400 28.65500
C  47.37200 28.32400 28.92600
C  49.13700 30.55200 26.50200
C  48.35200 30.16500 29.89700
O  48.90400 31.23500 30.13200
C  47.78000 29.24700 31.02500
C  48.85600 28.90800 31.95600
O  49.82300 28.17900 31.75800
O  48.61400 29.62400 33.11400
C  49.50700 29.30200 34.23400
H  45.32200 22.86300 30.93000
H  45.55800 22.80300 24.54000
H  48.07000 28.51700 24.63600
H  46.92500 26.91000 32.88100
H  44.49500 25.18900 32.60000
H  45.70600 23.73300 33.76000
H  47.22600 24.61200 33.58700
H  46.91700 23.40000 32.42200
H  44.08400 26.98300 33.17300
H  44.39700 28.21400 31.98700
H  45.30900 29.67600 33.52800
H  46.32200 28.45000 34.16200
H  44.71500 19.99500 29.54000
H  43.07500 20.53600 29.18800
H  43.88300 21.34300 30.47900
H  44.38400 19.03100 27.51800
H  43.79000 18.66400 25.90700
H  42.72500 19.42600 27.10200
H  45.55500 24.80900 22.94700
H  48.17000 26.31100 23.14800
H  48.18500 23.63200 23.23000
H  47.91300 24.66000 21.75000
H  46.89700 23.27900 22.09800
H  45.87900 28.16500 23.09800
H  45.57900 26.85900 21.95800
H  46.86800 28.15400 20.42000
H  48.24300 27.53800 21.47500
H  47.51800 29.19000 21.60100
H  48.79900 30.52000 25.46600
H  50.12600 30.09300 26.50200
H  49.12900 31.58100 26.86200
H  47.00200 29.81200 31.53800
H  50.54100 29.30100 33.88900
H  49.38800 28.35200 34.75600
H  49.43300 30.18100 34.87500

