158

Mg 25.72800 0.96400 28.58600
C  27.86700 1.03300 31.47200
C  23.10400 1.58200 30.82000
C  23.61300 0.30400 26.13800
C  28.50100 0.00900 26.78600
N  25.53600 1.19900 30.87300
C  26.57000 1.38300 31.79700
C  25.98100 1.60300 33.17600
C  24.42100 1.69800 32.96200
C  24.33300 1.47600 31.45400
C  23.65100 0.59600 33.71500
C  26.63800 2.95000 33.78500
C  25.82700 3.50500 35.05800
H  26.50300 3.93600 36.36300
N  23.60600 1.13600 28.47700
C  22.76200 1.37000 29.50200
C  21.42500 1.47700 28.92300
C  21.52300 1.13500 27.51900
C  22.91800 0.74400 27.32400
C  20.16600 1.91500 29.74900
C  20.49900 1.03200 26.47300
O  20.65300 0.54200 25.37400
C  19.24200 1.52800 26.79100
N  25.98500 0.21200 26.84700
C  24.97300 0.11800 25.90500
C  25.49300 -0.10700 24.44100
C  26.96800 0.15400 24.67700
C  27.15500 0.07000 26.16500
C  25.16000 -1.48100 23.80300
C  27.34800 1.59500 24.20700
C  27.72100 1.75000 22.70500
N  27.75400 0.44100 29.07100
C  28.68800 0.07200 28.18600
C  29.90400 -0.34200 28.87200
C  29.60300 0.14000 30.14700
C  28.26900 0.54100 30.24900
C  31.21100 -0.89300 28.32500
C  30.21300 0.33900 31.42300
O  31.35700 0.09800 31.78800
C  29.11600 0.94300 32.37700
C  29.04600 0.14700 33.61100
O  28.61600 -0.98800 33.76800
O  29.42000 0.96200 34.63700
C  29.54100 0.33200 35.99000
H  22.21500 1.77000 31.42600
H  22.98400 0.16900 25.25500
H  29.34100 -0.13900 26.10500
H  26.36200 0.79200 33.79700
H  24.22500 2.72400 33.27300
H  24.31300 -0.25100 33.89500
H  22.85700 0.32200 33.02100
H  23.18900 0.90900 34.65200
H  26.58900 3.69100 32.98800
H  27.67600 2.82600 34.09300
H  25.07400 2.76000 35.31600
H  25.34700 4.44000 34.76700
H  19.80700 2.91100 29.48800
H  20.31100 1.80500 30.82300
H  19.36400 1.20900 29.53500
H  18.71900 0.85200 27.46700
H  18.64800 1.57000 25.87800
H  19.32900 2.53400 27.20300
H  25.03700 0.61100 23.75800
H  27.65600 -0.54700 24.20600
H  26.10600 -2.01900 23.73000
H  24.61000 -1.43400 22.86300
H  24.58100 -2.00400 24.56400
H  28.23000 1.93700 24.74900
H  26.60800 2.32100 24.54300
H  27.21200 2.64800 22.35300
H  27.42500 0.91500 22.07000
H  28.80700 1.80800 22.63000
H  31.10500 -1.19800 27.28400
H  31.48000 -1.82200 28.82700
H  32.02300 -0.18000 28.47400
H  29.34200 1.97300 32.65400
H  28.54700 0.29500 36.43400
H  30.17800 1.04400 36.51500
H  29.95800 -0.66700 35.86800
Mg 54.43500 24.16200 44.45500
C  51.62000 26.31200 43.70700
C  52.27200 21.66600 43.25900
C  57.13600 22.40900 44.44800
C  56.00200 26.99700 45.68100
N  52.27200 24.02000 43.43400
C  51.29500 25.03000 43.36500
C  49.99000 24.53400 42.74000
C  50.07500 23.00000 43.15000
C  51.60600 22.87300 43.25000
C  49.41200 22.67500 44.52600
C  49.82500 24.76500 41.23100
C  51.11100 24.61600 40.26400
H  50.83700 25.02000 38.78800
N  54.65800 22.33300 44.01800
C  53.68300 21.45000 43.51200
C  54.35100 20.16400 43.42300
C  55.69800 20.29700 43.88000
C  55.87900 21.73700 44.09000
C  53.77600 18.84000 42.90500
C  56.74800 19.22400 44.01700
O  56.40400 18.04900 43.70000
C  58.09500 19.44500 44.55100
N  56.47500 24.78900 44.73700
C  57.37100 23.76400 44.84100
C  58.64400 24.33000 45.50300
C  58.14200 25.68100 46.23900
C  56.78400 25.78800 45.54800
C  59.55400 23.28800 46.34000
C  59.05700 26.96700 46.05900
C  59.28500 27.52300 44.60100
N  54.07000 26.26900 44.49300
C  54.74000 27.21400 45.11100
C  54.01500 28.44500 45.30500
C  52.74500 28.17600 44.61200
C  52.83300 26.77800 44.29900
C  54.46700 29.75300 45.82000
C  51.38600 28.69000 44.31000
O  50.81400 29.77900 44.52100
C  50.67300 27.50200 43.63700
C  50.23200 28.08300 42.25500
O  50.90600 28.15100 41.22700
O  48.86300 28.28100 42.38100
C  48.09400 28.31600 41.12600
H  51.63900 20.77700 43.25600
H  58.08200 21.88100 44.30900
H  56.36600 27.76900 46.36200
H  49.20600 25.06300 43.28200
H  49.63200 22.29100 42.45000
H  48.60400 21.96400 44.35700
H  48.96500 23.54000 45.01600
H  50.19200 22.21100 45.13100
H  49.46600 25.78800 41.11800
H  49.23500 23.98200 40.75400
H  51.59100 23.64400 40.37400
H  51.87200 25.30200 40.63700
H  54.50800 18.63800 42.12300
H  52.83700 18.93400 42.35800
H  53.72200 18.00900 43.60800
H  57.93900 19.96100 45.49700
H  58.70300 20.01400 43.84700
H  58.60300 18.52200 44.83200
H  59.29000 24.63700 44.68000
H  58.15400 25.48300 47.31000
H  59.33500 22.23600 46.15700
H  59.59000 23.49700 47.40900
H  60.58800 23.53000 46.09200
H  60.05700 26.72000 46.41700
H  58.68000 27.74300 46.72600
H  60.09100 26.98300 44.10400
H  59.39700 28.60400 44.67800
H  58.41100 27.30700 43.98600
H  55.35400 29.81400 46.45100
H  53.56400 30.12200 46.30700
H  54.65100 30.44400 44.99700
H  49.81300 27.27900 44.26900
H  47.37000 27.50100 41.13300
H  48.72700 28.30200 40.24000
H  47.43400 29.18300 41.09600

