158

Mg 47.20000 24.60200 27.17400
C  48.48500 26.85300 29.64000
C  46.27200 22.49800 29.72800
C  46.46000 22.24600 24.88200
C  48.48600 26.73700 24.63500
N  47.52000 24.66600 29.46600
C  47.83900 25.72900 30.20800
C  47.55900 25.45800 31.67800
C  47.23100 23.91100 31.61800
C  46.87700 23.75100 30.13900
C  48.48300 22.98700 32.03700
C  46.38600 26.36300 32.21800
C  45.88100 25.85100 33.63700
H  46.03300 26.84200 34.75000
N  46.38400 22.70800 27.24300
C  46.06600 22.05000 28.40300
C  45.51000 20.76200 28.09000
C  45.43900 20.70100 26.69200
C  46.17000 21.89500 26.16700
C  45.01000 19.74200 29.12400
C  44.90500 19.59200 25.76400
O  45.02800 19.75100 24.55700
C  44.31300 18.29400 26.32900
N  47.24800 24.60300 25.03700
C  46.99600 23.42400 24.39000
C  47.14500 23.71100 22.85700
C  47.64100 25.16700 22.79900
C  47.86200 25.52500 24.26500
C  47.91600 22.64800 22.15000
C  46.65600 26.14300 22.08700
C  47.29700 27.10200 21.09400
N  48.27100 26.35700 27.10100
C  48.77500 27.09900 26.00200
C  49.55600 28.30000 26.48900
C  49.40900 28.18800 27.86400
C  48.64100 27.03200 28.23900
C  50.21800 29.38800 25.71400
C  49.62900 28.94300 29.16900
O  50.23200 29.95200 29.35700
C  48.89500 28.17600 30.34200
C  49.84000 27.87700 31.44100
O  50.72100 27.06600 31.55200
O  49.29600 28.56500 32.51500
C  49.98200 28.42600 33.80700
H  46.02500 21.84000 30.56400
H  46.30400 21.67500 23.96400
H  48.69700 27.48200 23.86400
H  48.43400 25.65300 32.29800
H  46.35600 23.64400 32.21200
H  48.91100 22.51400 31.15300
H  48.21400 22.14300 32.67300
H  49.24600 23.56700 32.55600
H  45.52700 26.13900 31.58600
H  46.52800 27.44200 32.26600
H  46.51800 25.07200 34.05500
H  44.87600 25.42900 33.65100
H  45.00400 20.05900 30.16700
H  45.48300 18.77300 28.97100
H  43.95800 19.50900 28.95700
H  43.44600 18.48400 26.96200
H  45.08900 17.81800 26.92900
H  43.91300 17.70400 25.50400
H  46.16300 23.66200 22.38600
H  48.57100 25.25300 22.23600
H  47.28400 21.89600 21.67600
H  48.46100 22.12500 22.93600
H  48.63500 23.07700 21.45200
H  46.08700 26.80600 22.73900
H  45.81700 25.71200 21.54100
H  47.18400 28.11400 21.48100
H  46.95900 27.14900 20.05900
H  48.36300 26.90900 20.96900
H  50.33400 29.10100 24.66900
H  51.19600 29.51900 26.17600
H  49.78600 30.38700 25.78700
H  48.13300 28.91700 30.58600
H  51.06300 28.28600 33.80100
H  49.49800 27.66900 34.42300
H  49.92800 29.34300 34.39400
Mg 17.51900 52.04100 26.42300
C  19.22300 50.62600 28.99000
C  15.05300 53.27100 28.53900
C  15.71200 52.95400 23.73900
C  19.73700 50.37600 24.16300
N  17.21600 51.92800 28.55200
C  18.05900 51.30300 29.42600
C  17.46900 51.51400 30.86700
C  16.01200 52.01000 30.60000
C  16.02500 52.43700 29.15000
C  14.91400 50.92700 30.76800
C  18.19800 52.71000 31.55700
C  18.19300 52.75200 33.12300
H  17.08700 52.03700 33.93900
N  15.77300 53.22100 26.22600
C  14.98700 53.64600 27.17600
C  14.05800 54.62500 26.59300
C  14.08900 54.44100 25.17600
C  15.27100 53.53300 24.99400
C  13.16000 55.42900 27.52100
C  13.26600 55.04700 24.01500
O  13.55600 54.97700 22.82000
C  12.18000 55.99300 24.42400
N  17.61000 51.60800 24.33100
C  16.78400 52.15000 23.41000
C  17.17600 51.94700 21.93300
C  18.57600 51.23700 22.11400
C  18.64400 51.01000 23.57600
C  16.08700 51.25300 21.12600
C  19.81200 52.10900 21.62600
C  21.18300 51.41800 21.49000
N  19.13200 50.76700 26.54800
C  19.98200 50.29600 25.55000
C  20.98900 49.55400 26.20200
C  20.82600 49.77600 27.56400
C  19.64000 50.41000 27.73300
C  22.09100 48.78600 25.55800
C  21.40300 49.42300 28.85400
O  22.42000 48.84200 29.16000
C  20.34600 49.99300 29.91100
C  19.95200 49.00600 30.94300
O  19.63300 47.85200 30.67600
O  20.13600 49.51200 32.14200
C  19.81000 48.55300 33.25900
H  14.16900 53.51200 29.13300
H  15.24100 53.26200 22.80400
H  20.48000 49.87600 23.53900
H  17.24200 50.67600 31.52600
H  15.64700 52.81000 31.24400
H  13.97300 51.25500 31.21000
H  15.29400 50.08800 31.35200
H  14.78000 50.59800 29.73800
H  17.88100 53.68900 31.19800
H  19.21600 52.51300 31.22100
H  18.24200 53.79800 33.42300
H  19.07700 52.21700 33.47000
H  13.52600 55.41200 28.54800
H  12.15800 55.00600 27.59400
H  13.10000 56.48000 27.24100
H  12.62900 56.96300 24.63900
H  11.57800 55.68100 25.27600
H  11.53100 56.11500 23.55700
H  17.38300 52.94100 21.53900
H  18.61900 50.28500 21.58400
H  16.52300 50.36300 20.67100
H  15.66600 51.87100 20.33200
H  15.22800 50.96700 21.73300
H  19.96700 52.85600 22.40400
H  19.57000 52.63200 20.70100
H  21.77900 51.69600 22.35900
H  21.76300 51.80000 20.65000
H  21.16300 50.34300 21.31300
H  23.04600 49.09000 25.98700
H  22.01900 48.91600 24.47800
H  22.08900 47.70100 25.66000
H  20.80900 50.80500 30.47100
H  20.76000 48.36500 33.75800
H  19.21500 47.65600 33.08500
H  19.28600 49.07800 34.05800

