158

Mg 49.32700 46.58700 43.42700
C  45.96900 47.22600 42.35600
C  49.14800 43.51200 42.24000
C  52.66400 46.42600 43.74900
C  49.41900 50.00300 44.42500
N  47.71600 45.51400 42.40100
C  46.38900 45.91600 42.05200
C  45.64900 44.73300 41.54300
C  46.65100 43.47400 41.58400
C  47.93300 44.19800 42.11600
C  46.32500 42.20000 42.27800
C  44.96000 45.00700 40.17700
C  45.79400 45.65000 39.00000
H  45.92400 44.89800 37.62700
N  50.79400 45.11700 43.05300
C  50.45500 43.86400 42.59200
C  51.63700 43.07600 42.68800
C  52.68100 43.86500 43.16800
C  52.08900 45.21900 43.33200
C  51.69000 41.61000 42.21100
C  54.10400 43.39200 43.41000
O  54.42800 42.27500 43.18800
C  55.14000 44.24600 44.07000
N  50.83200 48.03300 43.91200
C  52.13100 47.71900 44.07900
C  52.97400 48.95000 44.31900
C  51.90900 50.08500 44.54300
C  50.68200 49.34100 44.34500
C  53.87600 48.65500 45.51300
C  52.01700 51.22400 43.48600
C  51.74300 52.67200 44.00900
N  48.03500 48.26500 43.39300
C  48.15000 49.60000 43.87800
C  46.90300 50.34700 43.86800
C  46.07100 49.41800 43.19300
C  46.75600 48.21100 42.96000
C  46.72900 51.77900 44.26500
C  44.75100 49.32900 42.63000
O  43.83600 50.16400 42.48400
C  44.57500 47.84700 42.21000
C  43.54000 47.10600 43.08800
O  43.53900 46.95700 44.30000
O  42.44500 46.58200 42.38400
C  41.71300 45.43500 43.01000
H  49.06900 42.43800 42.06400
H  53.74900 46.34100 43.83800
H  49.28500 51.02900 44.77500
H  44.87100 44.62300 42.29800
H  46.94200 43.19600 40.57100
H  46.31700 41.42300 41.51400
H  45.37000 42.35700 42.77900
H  47.07800 41.88900 43.00300
H  44.05200 45.58400 40.35200
H  44.54700 44.12400 39.69000
H  46.81800 45.73300 39.36500
H  45.31700 46.59700 38.74900
H  52.25500 41.50800 41.28500
H  50.73200 41.26900 41.81800
H  52.01900 40.91500 42.98300
H  54.66700 44.67200 44.95500
H  55.52600 45.00600 43.39100
H  55.97400 43.58600 44.30700
H  53.64500 49.10400 43.47400
H  51.96900 50.48900 45.55400
H  54.87000 49.04600 45.29400
H  54.18000 47.63300 45.73900
H  53.51200 49.17100 46.40100
H  51.25300 51.04500 42.72900
H  52.96300 51.05900 42.97000
H  51.09200 53.14000 43.27100
H  52.62500 53.31000 43.95100
H  51.42400 52.74300 45.04900
H  45.68600 52.09200 44.21100
H  47.30000 52.33000 43.51700
H  46.83400 52.07400 45.30900
H  44.13200 47.77700 41.21700
H  42.22700 45.01600 43.87500
H  41.47300 44.71100 42.23200
H  40.72800 45.73200 43.37100
Mg 10.12200 46.95200 25.20300
C  7.52800 47.31300 27.51600
C  12.30200 48.32100 27.28900
C  12.32300 46.85700 22.64300
C  7.52000 46.11800 22.71800
N  9.91200 47.68600 27.23000
C  8.81200 47.69100 28.04300
C  9.22000 48.04200 29.47300
C  10.67600 48.60900 29.26700
C  10.97100 48.29500 27.80000
C  10.86700 50.13500 29.53400
C  9.00100 46.95300 30.63600
C  9.61000 47.21400 32.01300
H  8.79200 46.55200 33.16400
N  12.02600 47.42300 25.01600
C  12.79700 47.90700 26.02000
C  14.24800 47.82300 25.55600
C  14.17200 47.26200 24.27600
C  12.77500 47.17300 23.94300
C  15.35900 48.18500 26.53500
C  15.38800 46.76100 23.40400
O  15.25600 46.30700 22.29800
C  16.78000 46.77600 24.01100
N  9.88400 46.45700 22.99700
C  11.04900 46.56900 22.22500
C  10.58400 46.30600 20.75400
C  9.14400 45.64400 20.86400
C  8.80700 46.05700 22.25900
C  10.80400 47.55400 19.85500
C  9.14500 44.06700 20.62400
C  9.01600 43.24300 21.93100
N  7.99500 46.71200 25.07400
C  7.15500 46.33700 24.07900
C  5.84600 46.21000 24.54900
C  5.95700 46.50800 25.91800
C  7.28000 46.94100 26.15500
C  4.60500 45.79800 23.68500
C  5.15000 46.55400 27.11700
O  3.99700 46.27800 27.34500
C  6.18100 47.07800 28.18700
C  6.24100 46.00500 29.19000
O  6.95400 45.00400 29.10500
O  5.34000 46.27400 30.19500
C  5.05600 45.22900 31.11700
H  13.08200 48.60600 27.99800
H  12.97600 46.92400 21.77100
H  6.78600 45.69000 22.03300
H  8.55000 48.88300 29.65100
H  11.35500 48.10200 29.95200
H  11.59500 50.23500 30.33900
H  9.93900 50.58700 29.88400
H  11.26100 50.52200 28.59500
H  9.26900 45.99800 30.18600
H  7.92300 47.01000 30.78700
H  9.81500 48.28000 32.10500
H  10.53300 46.63300 32.01600
H  15.04800 48.51100 27.52800
H  16.00500 48.97600 26.15300
H  15.97800 47.31000 26.73500
H  16.77000 46.13000 24.88900
H  17.06300 47.80800 24.21900
H  17.50600 46.35800 23.31400
H  11.29700 45.56500 20.39300
H  8.41800 46.02300 20.14400
H  9.83100 47.92500 19.53200
H  11.49900 47.39900 19.02900
H  11.29900 48.40000 20.33200
H  10.05200 43.81700 20.07400
H  8.25100 43.86900 20.03300
H  9.14800 43.80800 22.85400
H  9.66100 42.36400 21.93300
H  8.00600 42.83200 21.95200
H  5.04500 44.99300 23.09700
H  4.23000 46.65600 23.12700
H  3.80300 45.38000 24.29300
H  5.86500 47.99300 28.68800
H  4.52500 44.33600 30.78500
H  4.41000 45.76600 31.81100
H  5.88800 44.90200 31.74000

