158

Mg 44.16200 4.78000 46.53500
C  42.37600 7.81300 46.46200
C  41.17100 3.24900 45.47900
C  45.89500 2.01100 45.52300
C  47.09100 6.56400 46.64400
N  42.05400 5.46200 46.14500
C  41.61400 6.72800 46.11000
C  40.26300 6.83100 45.42400
C  39.75700 5.35700 45.65400
C  41.06700 4.60600 45.81200
C  38.51700 5.01400 46.68200
C  40.32200 7.47000 43.90800
C  39.39700 6.90300 42.84000
H  39.03700 7.83700 41.62800
N  43.62300 2.87800 45.73500
C  42.35600 2.41600 45.42400
C  42.48500 1.01900 45.02200
C  43.82800 0.66600 45.06200
C  44.54500 1.84300 45.45800
C  41.26500 0.20800 44.59000
C  44.38500 -0.74400 44.76400
O  43.52800 -1.62600 44.50500
C  45.78200 -1.11600 44.60600
N  46.18400 4.33800 46.04500
C  46.67700 3.09100 45.90000
C  48.20500 3.00400 45.80400
C  48.56500 4.48100 46.12000
C  47.23500 5.19500 46.31600
C  48.75200 1.91100 46.71400
C  49.43500 5.14900 45.06600
C  50.89700 5.32400 45.49600
N  44.68200 6.70900 46.82500
C  45.88400 7.29800 46.81700
C  45.67500 8.73300 47.15100
C  44.33000 8.90600 47.05800
C  43.76000 7.69000 46.75100
C  46.68500 9.81100 47.11400
C  43.35500 9.97100 46.94100
O  43.47300 11.21800 47.10800
C  42.03100 9.32200 46.58900
C  41.07700 9.53100 47.76500
O  40.67600 8.62700 48.49600
O  40.68500 10.82900 47.75900
C  39.33300 11.07200 48.28500
H  40.20300 2.81300 45.22400
H  46.56800 1.16500 45.37100
H  48.03000 7.11100 46.75200
H  39.55600 7.38600 46.04200
H  39.38400 4.95400 44.71300
H  37.66000 4.75000 46.06200
H  38.36600 5.95400 47.21300
H  38.69900 4.14000 47.30700
H  41.36300 7.35500 43.60500
H  40.01400 8.51600 43.88100
H  38.54200 6.36700 43.25300
H  39.89800 6.12200 42.26800
H  41.39900 -0.04600 43.53900
H  40.29900 0.70300 44.68600
H  41.21600 -0.66600 45.24000
H  45.73400 -2.14000 44.23500
H  46.30600 -1.09500 45.56200
H  46.15800 -0.43700 43.84100
H  48.50400 2.77200 44.78100
H  49.14300 4.44700 47.04400
H  48.96300 2.26700 47.72200
H  49.58800 1.39200 46.24600
H  47.96300 1.20300 46.96800
H  49.02100 6.13700 44.86700
H  49.40700 4.51500 44.17900
H  51.13600 4.83200 46.43900
H  50.98700 6.40900 45.55300
H  51.64200 5.01900 44.76100
H  47.70500 9.42900 47.09200
H  46.51600 10.55600 47.89100
H  46.56900 10.28300 46.13900
H  41.47300 9.74400 45.75300
H  39.19000 12.09300 48.63700
H  39.17400 10.44600 49.16300
H  38.67900 10.66500 47.51400
Mg 50.20700 45.10100 43.47600
C  46.76900 45.23500 42.42500
C  50.18700 41.77800 42.89900
C  53.61600 45.27100 43.56200
C  50.10900 48.58300 43.53400
N  48.71000 43.70200 42.46900
C  47.29700 43.92700 42.38100
C  46.58200 42.58400 42.17500
C  47.60600 41.47300 42.68100
C  48.92900 42.34800 42.75500
C  47.44500 40.95700 44.14700
C  46.14300 42.31400 40.69000
C  46.73300 43.34100 39.63300
H  46.74800 42.81000 38.22000
N  51.71600 43.65700 43.29000
C  51.46800 42.33100 43.03800
C  52.71500 41.68700 43.08700
C  53.76600 42.67100 43.25300
C  53.10200 43.97400 43.37400
C  52.87700 40.18800 42.95400
C  55.32400 42.44300 43.21500
O  55.73900 41.30500 43.11100
C  56.36500 43.46700 43.15900
N  51.67600 46.67500 43.55200
C  52.99800 46.52500 43.68300
C  53.77800 47.86200 43.77700
C  52.59400 48.89800 43.70800
C  51.42900 47.99400 43.56600
C  54.59600 47.95700 45.04500
C  52.67100 49.90400 42.47900
C  52.39700 51.40200 42.90700
N  48.72600 46.61500 43.25900
C  48.90900 47.97000 43.22500
C  47.72600 48.63200 42.90000
C  46.81000 47.65300 42.61800
C  47.51500 46.44400 42.73200
C  47.47800 50.14500 42.86300
C  45.50500 47.30600 42.27800
O  44.56600 48.01800 42.01300
C  45.34500 45.74400 42.12100
C  44.38500 45.25800 43.13100
O  44.62200 45.16100 44.32500
O  43.17400 44.88100 42.56000
C  42.14500 44.57600 43.51900
H  50.20500 40.68900 42.97500
H  54.69400 45.38100 43.69700
H  49.98700 49.66600 43.60800
H  45.72200 42.75400 42.82300
H  47.64600 40.69700 41.91600
H  46.42400 41.10400 44.49900
H  48.00100 41.61400 44.81600
H  47.78000 39.92500 44.25300
H  45.06200 42.43200 40.61400
H  46.37400 41.28900 40.39800
H  47.75900 43.61100 39.88400
H  46.05100 44.19000 39.58500
H  53.89700 39.90900 42.68900
H  52.13500 39.83500 42.23700
H  52.60500 39.67700 43.87700
H  56.27400 43.97800 44.11700
H  56.14900 44.22700 42.40800
H  57.35700 43.10300 42.89200
H  54.47500 48.03300 42.95700
H  52.52000 49.43000 44.65700
H  55.62600 47.84000 44.70900
H  54.48400 47.16800 45.78800
H  54.44500 48.94600 45.47900
H  51.81300 49.66600 41.85000
H  53.63600 49.73000 42.00400
H  51.66900 51.79200 42.19500
H  53.37800 51.81500 42.67100
H  52.17500 51.66300 43.94100
H  47.70700 50.70700 43.76800
H  46.50300 50.46800 42.50000
H  48.11000 50.70300 42.17200
H  44.79900 45.50200 41.21000
H  42.46800 43.90400 44.31400
H  41.28400 44.20100 42.96500
H  41.87300 45.53900 43.95100

