158

Mg 46.85900 24.64900 28.71500
C  47.86600 26.74000 31.19500
C  45.95100 22.31500 31.06800
C  46.53700 22.32900 26.14000
C  48.11500 26.92800 26.32300
N  47.01800 24.51400 30.84100
C  47.33200 25.53200 31.68300
C  46.89600 25.33700 33.14900
C  46.36900 23.82200 33.06000
C  46.47900 23.52600 31.55200
C  47.06000 22.85500 34.00400
C  45.73400 26.23200 33.64700
C  45.48200 26.13400 35.12400
H  45.72100 27.34400 36.10100
N  46.17700 22.63100 28.58400
C  46.02500 21.84200 29.72500
C  45.61100 20.54300 29.23800
C  45.68700 20.52000 27.79600
C  46.13700 21.86100 27.41900
C  45.11400 19.41800 30.29400
C  45.44400 19.32800 26.83300
O  45.44700 19.50800 25.63600
C  45.07100 17.96800 27.37300
N  47.45600 24.59400 26.49600
C  47.04700 23.59500 25.69200
C  47.11400 23.97100 24.25500
C  47.45900 25.52200 24.30600
C  47.74500 25.67400 25.76300
C  48.05800 23.09100 23.36900
C  46.32600 26.39500 23.89800
C  46.63400 27.69600 23.19600
N  47.84600 26.45100 28.70600
C  48.21600 27.31800 27.73100
C  48.69500 28.59000 28.27300
C  48.59300 28.35700 29.61200
C  48.08900 27.10200 29.84600
C  49.39900 29.68300 27.51700
C  48.85500 28.99800 30.87100
O  49.23200 30.14200 31.14600
C  48.27700 27.99400 31.97600
C  49.37700 27.76400 32.93800
O  50.51700 27.50900 32.59000
O  48.90700 28.08000 34.18000
C  49.82100 28.30700 35.31000
H  45.58900 21.67700 31.87700
H  46.56500 21.61300 25.31600
H  48.36900 27.70200 25.59700
H  47.71300 25.34100 33.87000
H  45.30300 23.78300 33.28400
H  47.73500 23.38900 34.67300
H  47.69400 22.20900 33.39600
H  46.36400 22.32700 34.65700
H  44.86900 25.86400 33.09400
H  45.81100 27.25400 33.27800
H  46.13200 25.35300 35.51900
H  44.44900 25.81400 35.25600
H  44.07500 19.14900 30.10800
H  45.35300 19.80100 31.28600
H  45.63500 18.46300 30.22700
H  45.68700 17.85200 28.26500
H  45.40900 17.25500 26.62200
H  43.99000 18.02000 27.50500
H  46.09900 23.71100 23.95500
H  48.36100 25.79500 23.75800
H  48.91900 23.66800 23.03300
H  47.43800 22.59400 22.62300
H  48.40900 22.29500 24.02700
H  45.57800 26.43200 24.69000
H  45.75300 25.85100 23.14700
H  46.33200 27.57600 22.15600
H  47.70100 27.91500 23.24500
H  45.97500 28.51400 23.48700
H  48.81900 29.90900 26.62300
H  50.39000 29.31200 27.25400
H  49.35000 30.65600 28.00600
H  47.38700 28.49000 32.36400
H  50.85100 28.16500 34.98300
H  49.68800 27.58000 36.11200
H  49.76600 29.35900 35.59100
Mg 35.64300 48.99900 25.72900
C  35.96700 47.05200 28.62700
C  34.42100 51.54400 27.82500
C  35.15300 50.92000 23.18200
C  36.15100 46.21300 23.80100
N  35.03600 49.22500 27.91700
C  35.36000 48.23900 28.86200
C  35.24300 48.90200 30.31000
C  34.43300 50.23200 30.07100
C  34.61100 50.34400 28.52800
C  32.94100 50.28200 30.60300
C  36.71400 49.12800 30.91100
C  36.93100 48.67400 32.35900
H  35.66100 48.49700 33.25200
N  35.08000 50.96900 25.53000
C  34.65700 51.89100 26.50100
C  34.56300 53.17600 25.94100
C  34.80600 53.09900 24.57300
C  35.07400 51.62400 24.33000
C  34.14900 54.41900 26.70900
C  34.74300 54.13800 23.34700
O  34.96400 53.81100 22.18900
C  34.41500 55.60900 23.65000
N  35.40300 48.55500 23.75100
C  35.21400 49.51500 22.90900
C  35.19300 49.00400 21.42300
C  35.66900 47.48100 21.60000
C  35.82800 47.41300 23.18500
C  33.82300 49.09600 20.66800
C  37.00400 47.01500 20.92600
C  36.90000 45.76300 20.04600
N  36.11500 47.02600 26.12400
C  36.26700 46.00900 25.21000
C  36.73000 44.85400 25.97800
C  36.60700 45.18700 27.34500
C  36.19400 46.52000 27.37400
C  37.03200 43.52500 25.36600
C  36.68300 44.63200 28.70100
O  37.04200 43.54600 29.14200
C  36.23100 45.85300 29.59500
C  35.07700 45.45000 30.43700
O  33.89000 45.41400 30.03700
O  35.41800 45.13700 31.69100
C  34.37900 44.54800 32.49300
H  34.11400 52.29100 28.56000
H  34.86400 51.37900 22.23400
H  36.38800 45.35200 23.17200
H  34.61400 48.24900 30.91600
H  34.91200 51.08000 30.55900
H  32.31900 50.63500 29.78000
H  32.80100 50.83800 31.53000
H  32.58100 49.29000 30.87500
H  36.74100 50.21400 30.99300
H  37.42300 48.69800 30.20300
H  37.50600 49.37000 32.96900
H  37.30400 47.65000 32.39300
H  33.10000 54.58600 26.46700
H  34.80000 55.23300 26.38900
H  34.20800 54.25700 27.78500
H  33.38500 55.81000 23.94400
H  34.48300 56.18900 22.73000
H  35.07200 55.91300 24.46400
H  36.03200 49.48000 20.91500
H  34.86700 46.79400 21.32800
H  33.65900 48.20400 20.06200
H  33.82900 49.87600 19.90600
H  33.03600 49.20700 21.41300
H  37.68600 46.61000 21.67400
H  37.37100 47.76100 20.22100
H  37.41200 44.90900 20.48800
H  37.48700 45.92600 19.14200
H  35.83800 45.53100 19.96400
H  36.51700 42.74400 25.92500
H  38.11000 43.40400 25.26400
H  36.71800 43.55700 24.32300
H  37.03000 46.03300 30.31400
H  33.78300 43.85500 31.90000
H  33.67000 45.30300 32.83400
H  34.71100 44.05900 33.40800

