158

Mg 47.63500 45.15500 42.71600
C  44.17300 45.10000 42.74200
C  47.65700 41.76600 42.31200
C  51.02700 45.25100 42.22200
C  47.48100 48.63800 42.12100
N  46.10800 43.65700 42.66300
C  44.74900 43.81900 42.64600
C  44.02200 42.54800 42.63000
C  45.09900 41.44200 42.55800
C  46.42600 42.34900 42.41900
C  45.17800 40.34300 43.77100
C  42.88800 42.45500 41.51200
C  43.06600 43.35500 40.21700
H  43.69800 42.66400 38.98500
N  49.16300 43.73700 42.53200
C  48.92500 42.37200 42.32200
C  50.18300 41.65300 42.16100
C  51.20100 42.59200 42.22100
C  50.52900 43.94700 42.35100
C  50.33100 40.24200 41.76900
C  52.68600 42.38500 41.96000
O  53.06100 41.29400 41.64500
C  53.71400 43.48600 42.14200
N  49.07900 46.78500 42.21700
C  50.37200 46.54000 42.25000
C  51.13100 47.85600 42.35000
C  50.08200 48.97600 41.92700
C  48.78200 48.11300 42.12900
C  51.94100 48.11100 43.70200
C  50.08100 49.48400 40.48400
C  50.64900 50.89100 40.25100
N  46.18900 46.60100 42.58800
C  46.28200 47.97700 42.35000
C  44.92700 48.50100 42.31700
C  44.08900 47.39400 42.59900
C  44.93400 46.28400 42.69700
C  44.47400 49.97100 42.13400
C  42.69600 47.02800 42.72700
O  41.67600 47.71000 42.57700
C  42.68600 45.45200 42.89400
C  42.03300 45.06100 44.12700
O  40.94600 44.53100 44.14500
O  42.81800 45.24000 45.23800
C  42.22800 44.50700 46.41000
H  47.54800 40.68700 42.18800
H  52.10100 45.35800 42.05200
H  47.49900 49.72500 42.01600
H  43.62700 42.55000 43.64600
H  44.92900 40.79900 41.69400
H  46.10700 40.54900 44.30200
H  45.17400 39.37200 43.27500
H  44.35000 40.53900 44.45200
H  41.92400 42.76500 41.91500
H  42.74900 41.39800 41.28400
H  43.74000 44.20900 40.29000
H  42.05100 43.66600 39.96800
H  49.43500 40.01300 41.19200
H  50.47300 39.48400 42.54000
H  51.16500 40.04400 41.09600
H  53.71500 44.16100 41.28600
H  54.69400 43.01500 42.22800
H  53.47000 44.00700 43.06800
H  51.84500 47.87600 41.52600
H  49.93200 49.78800 42.63800
H  51.64700 49.00600 44.25000
H  52.99200 48.28100 43.46500
H  51.90600 47.33000 44.46200
H  49.14300 49.47000 39.92900
H  50.77700 48.80000 39.99800
H  51.08400 51.28700 41.16800
H  49.83300 51.47400 39.82200
H  51.40500 50.78300 39.47300
H  45.29200 50.63200 41.84700
H  44.11800 50.26000 43.12200
H  43.71700 50.12000 41.36400
H  42.09200 45.01800 42.08900
H  42.36000 43.43200 46.29000
H  41.20000 44.80700 46.61000
H  42.74000 44.82500 47.31800
Mg 0.08700 43.10000 25.90800
C  2.17100 42.57500 28.59200
C  -2.60200 42.05200 28.01900
C  -1.98900 43.33300 23.22800
C  2.79600 43.91400 23.94400
N  -0.16800 42.37400 28.10400
C  0.85600 42.48100 29.02200
C  0.28200 42.37400 30.50600
C  -1.19100 41.91900 30.17700
C  -1.33100 42.19100 28.68900
C  -1.55500 40.45000 30.56400
C  0.53900 43.75600 31.33800
C  0.65300 43.70200 32.85800
H  0.58300 42.35500 33.55500
N  -2.06900 42.79200 25.71900
C  -2.94400 42.41500 26.68600
C  -4.29500 42.50000 26.10100
C  -4.14600 42.79100 24.69100
C  -2.68600 42.98200 24.49600
C  -5.55800 42.22600 26.99700
C  -5.15900 42.89100 23.61500
O  -4.84700 43.09500 22.47900
C  -6.62800 42.86900 23.82300
N  0.39900 43.39700 23.82300
C  -0.63000 43.57000 22.90800
C  -0.08700 44.11500 21.56100
C  1.38700 44.52800 22.00100
C  1.56600 43.88300 23.33000
C  -0.15200 43.06000 20.44700
C  1.55000 46.05800 22.01400
C  0.60400 46.78100 22.90900
N  2.04100 43.16200 26.15100
C  3.06200 43.46200 25.24000
C  4.37600 43.28800 25.87000
C  4.05300 42.92600 27.18500
C  2.61500 42.92100 27.28700
C  5.70400 43.46300 25.27200
C  4.65800 42.52200 28.52800
O  5.81800 42.19900 28.83300
C  3.43000 42.37900 29.53200
C  3.59100 41.04500 30.19900
O  3.07300 40.00300 29.86800
O  4.43600 41.17800 31.25200
C  4.59700 39.98600 32.13200
H  -3.42100 41.81700 28.70200
H  -2.60600 43.63300 22.37800
H  3.63500 44.25600 23.33500
H  0.76200 41.53600 31.01200
H  -1.95200 42.51500 30.68000
H  -1.29800 40.38000 31.62100
H  -0.94800 39.80300 29.93000
H  -2.60900 40.23600 30.38800
H  -0.33900 44.39600 31.24400
H  1.45700 44.19100 30.94300
H  -0.12200 44.34300 33.27800
H  1.63300 44.15800 32.99900
H  -6.41800 41.97600 26.37600
H  -5.76700 43.12900 27.57000
H  -5.16600 41.39000 27.57700
H  -6.96800 43.78400 24.30800
H  -6.96400 42.06200 24.47400
H  -7.28300 42.73200 22.96300
H  -0.66700 45.01300 21.34800
H  2.15600 44.06800 21.38000
H  -0.52100 43.50200 19.52100
H  -0.73200 42.16000 20.64700
H  0.84700 42.85200 20.06300
H  1.57600 46.48400 21.01000
H  2.50000 46.22200 22.52300
H  1.03000 47.24200 23.80100
H  -0.22000 46.11900 23.17300
H  0.17000 47.58600 22.31800
H  6.44600 42.87900 25.81600
H  6.11300 44.46700 25.15800
H  5.41600 43.03000 24.31400
H  3.40500 43.05100 30.39000
H  3.79200 40.02600 32.86600
H  5.51600 40.10200 32.70800
H  4.54000 39.08000 31.52800

