158

Mg 9.28000 4.57200 26.97000
C  10.21300 3.17500 30.13500
C  6.73400 6.19300 28.69000
C  8.07800 5.59800 24.07500
C  11.36700 2.30000 25.44200
N  8.56200 4.58900 29.22300
C  9.06300 4.03500 30.32400
C  8.44400 4.65400 31.61000
C  7.10900 5.25800 31.11900
C  7.49400 5.40300 29.62800
C  5.84200 4.29800 31.09700
C  9.36000 5.66500 32.39200
C  9.36100 5.46700 33.90200
H  10.64700 5.55200 34.72200
N  7.75000 5.90200 26.47200
C  6.86000 6.43900 27.29600
C  5.99100 7.36600 26.54900
C  6.52800 7.34600 25.22500
C  7.51500 6.27600 25.20300
C  4.90000 8.22300 27.21700
C  6.17600 8.20100 24.11400
O  6.83500 8.22900 23.08100
C  5.08400 9.24500 24.18700
N  9.62400 3.94200 24.98400
C  9.01700 4.58700 23.99200
C  9.58600 4.09300 22.58900
C  10.69700 3.07100 23.04900
C  10.57400 3.04200 24.61200
C  8.46400 3.55500 21.63300
C  12.14900 3.40000 22.49000
C  12.77000 2.71800 21.20100
N  10.62500 3.14900 27.62000
C  11.38400 2.32200 26.83800
C  12.11500 1.41500 27.76000
C  11.83500 1.90700 28.98800
C  10.79100 2.85800 28.91900
C  13.04300 0.27200 27.37800
C  12.14000 1.70000 30.40100
O  12.89200 0.88800 30.93900
C  11.20600 2.59400 31.21700
C  10.45000 1.70600 32.15300
O  9.57700 0.97300 31.79700
O  10.79300 1.96400 33.47400
C  9.81800 1.49600 34.47600
H  5.92900 6.71100 29.21600
H  7.71100 5.91300 23.09600
H  12.12500 1.62300 25.04300
H  8.20600 3.75900 32.18400
H  6.76600 6.12000 31.69200
H  5.46800 4.03200 30.10800
H  5.01700 4.84900 31.54900
H  6.19700 3.36800 31.54100
H  9.07200 6.61800 31.94800
H  10.38500 5.44300 32.09600
H  8.75700 4.58600 34.12300
H  8.92700 6.40500 34.24900
H  4.74100 8.03100 28.27800
H  3.94700 7.96900 26.75400
H  4.95400 9.29900 27.04900
H  5.44700 10.11100 24.74100
H  4.30100 8.84600 24.83100
H  4.78400 9.54100 23.18200
H  10.10400 4.99700 22.27000
H  10.35600 2.07200 22.77700
H  8.68500 2.57500 21.20900
H  8.39200 4.22900 20.77900
H  7.51300 3.51400 22.16300
H  12.89100 3.51400 23.28000
H  12.15600 4.43200 22.14000
H  12.03700 2.13800 20.64000
H  13.53200 1.98600 21.47100
H  13.12200 3.50100 20.53100
H  13.12800 0.12100 26.30200
H  12.73400 -0.68400 27.80300
H  14.05200 0.45300 27.74800
H  11.61800 3.35700 31.87800
H  9.28700 2.31200 34.96500
H  10.26600 0.88600 35.26100
H  9.08500 0.83200 34.01800
Mg 55.84300 24.69900 44.64200
C  52.93300 26.44600 43.48400
C  54.41800 21.92100 43.30700
C  58.94300 23.28100 44.78700
C  57.09600 27.68500 45.68600
N  54.03400 24.32700 43.28800
C  53.01600 25.17100 42.96200
C  51.99800 24.49700 42.04400
C  52.23000 23.05600 42.57100
C  53.67600 23.05500 43.07400
C  51.15700 22.48900 43.52000
C  52.43000 24.67500 40.48400
C  51.37600 25.21200 39.44500
H  51.12600 24.33600 38.25100
N  56.53300 22.86400 44.25700
C  55.80900 21.81500 43.84800
C  56.59100 20.62500 43.81900
C  57.93100 20.94300 44.33900
C  57.84100 22.41500 44.40800
C  56.03800 19.30100 43.44400
C  59.11400 19.96500 44.67200
O  58.89700 18.80600 44.42200
C  60.47600 20.33400 45.09200
N  57.76600 25.39100 45.10700
C  58.95000 24.65100 45.01700
C  60.19200 25.55700 45.21200
C  59.53200 26.91500 45.68700
C  58.05700 26.69900 45.49900
C  61.32400 24.97300 46.15200
C  60.04100 28.16500 44.96300
C  60.28600 29.44800 45.81700
N  55.19900 26.60300 44.71100
C  55.75000 27.68100 45.38300
C  54.81900 28.78000 45.42600
C  53.71600 28.37600 44.68400
C  54.00600 27.03100 44.28000
C  55.07600 30.09900 46.13500
C  52.36900 28.66200 44.22500
O  51.67800 29.62400 44.48400
C  51.85700 27.42100 43.42800
C  51.62000 27.86000 42.04700
O  52.51500 28.21500 41.24700
O  50.30900 27.70400 41.81400
C  49.87600 28.25500 40.59000
H  53.90900 20.96700 43.15700
H  59.93200 22.82400 44.70600
H  57.45900 28.64600 46.05700
H  50.97500 24.81400 42.24700
H  52.30100 22.42200 41.68800
H  51.67200 22.42400 44.47900
H  50.88200 21.49200 43.17500
H  50.25900 23.10700 43.51900
H  52.97600 23.80100 40.12900
H  53.21500 25.43200 40.47000
H  51.73500 26.21100 39.19500
H  50.44200 25.16400 40.00400
H  56.04300 19.16000 42.36300
H  55.00500 19.40000 43.77600
H  56.54900 18.51900 44.00600
H  61.07700 19.46700 45.36600
H  60.42800 21.04500 45.91700
H  61.00900 20.88200 44.31500
H  60.57100 25.66200 44.19600
H  59.64800 26.98700 46.76800
H  61.68500 25.69500 46.88400
H  62.13200 24.57600 45.53700
H  60.83300 24.18500 46.72200
H  59.35100 28.47700 44.17900
H  60.98400 27.80100 44.55600
H  59.58000 29.65800 46.61900
H  60.39400 30.38800 45.27500
H  61.20600 29.22100 46.35600
H  55.32000 30.80000 45.33600
H  55.93700 29.97700 46.79200
H  54.20600 30.35500 46.74000
H  50.88200 27.18500 43.85400
H  48.84200 27.92800 40.48900
H  50.38500 27.96000 39.67200
H  49.75100 29.33000 40.71800

