158

Mg 17.78700 -1.88800 27.91000
C  16.65900 0.11400 30.59100
C  19.90400 -3.51600 29.88800
C  19.19800 -3.17000 25.07100
C  16.18500 0.60500 25.72600
N  18.20200 -1.67200 29.94000
C  17.65600 -0.87800 30.92300
C  18.20400 -1.23600 32.31800
C  19.39900 -2.15800 31.98600
C  19.12400 -2.53800 30.49900
C  20.85700 -1.62200 32.31400
C  17.11800 -2.03000 33.20100
C  17.24200 -1.71700 34.73300
H  18.46200 -0.94800 35.37800
N  19.18500 -3.32600 27.61600
C  19.93900 -3.94300 28.54200
C  20.74700 -4.99600 27.97700
C  20.45200 -4.95800 26.59600
C  19.57900 -3.80000 26.35600
C  21.49800 -5.98100 28.77800
C  21.01500 -5.91300 25.55300
O  20.64000 -5.95800 24.35900
C  22.07100 -6.93300 25.82700
N  17.75600 -1.34100 25.76900
C  18.42000 -2.03600 24.81600
C  18.25300 -1.42400 23.44000
C  17.17700 -0.40500 23.67100
C  16.97500 -0.35500 25.12900
C  19.57600 -0.95000 22.75100
C  15.80200 -0.59600 23.03300
C  15.82300 -0.38000 21.52500
N  16.53300 -0.09900 28.05900
C  15.93700 0.70600 27.11300
C  15.11000 1.73000 27.78700
C  15.35900 1.55400 29.12500
C  16.25300 0.43500 29.27800
C  14.18600 2.79100 27.09900
C  15.14900 2.06100 30.43500
O  14.48500 3.00700 30.79000
C  15.88600 1.11900 31.43100
C  16.84900 1.95100 32.23300
O  17.98700 2.34200 31.96700
O  16.13400 2.28100 33.38700
C  16.83800 3.15300 34.34600
H  20.70600 -3.95100 30.48800
H  19.68200 -3.62000 24.20100
H  15.63600 1.38800 25.19900
H  18.63000 -0.33500 32.75900
H  19.30100 -3.03900 32.62100
H  20.97400 -0.62900 32.74800
H  21.50400 -1.67400 31.43800
H  21.31700 -2.22700 33.09500
H  17.30500 -3.08300 32.99200
H  16.16000 -1.78900 32.74000
H  17.02000 -2.62100 35.30100
H  16.34200 -1.12900 34.91500
H  21.41700 -7.02800 28.48500
H  21.21800 -6.12300 29.82100
H  22.52900 -5.62800 28.79800
H  22.58000 -7.25600 24.91900
H  21.62400 -7.88600 26.11100
H  22.67300 -6.52000 26.63600
H  17.92800 -2.29600 22.87200
H  17.53000 0.55100 23.28500
H  19.63400 0.13700 22.81800
H  19.64500 -1.20500 21.69400
H  20.46700 -1.27700 23.28700
H  15.05700 0.13000 23.35800
H  15.42600 -1.58100 23.30700
H  16.81000 -0.01500 21.24100
H  15.06200 0.34200 21.23000
H  15.69800 -1.32700 20.99900
H  14.26500 2.88100 26.01500
H  14.56000 3.71900 27.52900
H  13.12900 2.78100 27.36700
H  15.16200 0.59900 32.05800
H  16.62000 3.02800 35.40700
H  16.55100 4.19100 34.18100
H  17.91200 3.17800 34.16300
Mg 26.90000 50.75200 25.93200
C  25.09400 51.97400 28.84400
C  29.40900 49.80100 27.98700
C  28.55800 49.62400 23.24400
C  24.56400 52.28500 23.83400
N  27.11400 50.72900 28.21600
C  26.27700 51.22600 29.18100
C  26.90500 51.17900 30.54100
C  28.37600 50.70800 30.20800
C  28.36300 50.41700 28.66700
C  29.53400 51.59000 30.71500
C  26.06200 50.40400 31.64000
C  25.74700 51.16500 32.94900
H  26.72400 51.07800 34.13500
N  28.65200 49.69500 25.68800
C  29.57800 49.38700 26.67300
C  30.67100 48.62700 26.04300
C  30.28100 48.41700 24.70400
C  29.13200 49.33800 24.49100
C  31.83800 48.09200 26.79000
C  30.88400 47.50500 23.65300
O  30.41700 47.50100 22.49300
C  31.95000 46.48800 23.98200
N  26.64300 51.03400 23.81100
C  27.42400 50.37800 22.89300
C  27.01400 50.61000 21.41100
C  25.63700 51.27400 21.68200
C  25.58200 51.56900 23.22000
C  28.11100 51.41100 20.69400
C  24.40500 50.42100 21.50400
C  23.35400 50.89400 20.36000
N  25.18400 51.85400 26.19300
C  24.31300 52.38000 25.23600
C  23.20000 52.96900 25.95300
C  23.47900 52.84500 27.32300
C  24.70300 52.17600 27.43900
C  21.97000 53.58300 25.33400
C  22.94200 53.04900 28.66600
O  21.81200 53.44000 29.00500
C  24.02300 52.56300 29.67700
C  24.45300 53.68200 30.59200
O  25.36200 54.45100 30.40000
O  23.60600 53.79500 31.68000
C  23.97900 55.04600 32.41400
H  30.22900 49.52700 28.65500
H  29.11000 49.25000 22.38000
H  23.75200 52.74500 23.26700
H  26.98400 52.22400 30.83900
H  28.57800 49.74600 30.67800
H  30.22900 51.84300 29.91400
H  30.02200 51.11700 31.56800
H  29.08400 52.53300 31.02300
H  26.70600 49.54200 31.81400
H  25.14300 49.98100 31.23400
H  24.76500 50.85000 33.30100
H  25.50700 52.20100 32.71000
H  31.76100 48.29600 27.85800
H  32.62400 48.74600 26.41200
H  32.17800 47.08700 26.54200
H  31.68300 45.75100 24.73900
H  32.71900 47.17100 24.34000
H  32.17400 46.06100 23.00400
H  26.91800 49.80200 20.68600
H  25.51800 52.19100 21.10600
H  28.76400 51.95400 21.37800
H  27.51100 52.17600 20.20100
H  28.64800 50.78600 19.98000
H  23.70900 50.37000 22.34100
H  24.69200 49.38100 21.34700
H  23.73100 51.53700 19.56400
H  22.51500 51.35200 20.88400
H  22.90000 50.06900 19.81200
H  22.04600 54.66900 25.38900
H  21.08700 53.27200 25.89100
H  21.76600 53.25300 24.31500
H  23.45300 51.80900 30.22000
H  25.03600 55.14500 32.66100
H  23.55300 54.92300 33.41000
H  23.58200 55.89500 31.85800

