158

Mg 9.04300 48.16200 25.56700
C  6.87000 48.79000 28.19800
C  11.67600 48.64800 27.65100
C  10.94200 47.64100 23.02000
C  6.13700 47.97900 23.54900
N  9.23000 48.77200 27.66100
C  8.24100 48.88700 28.59900
C  8.82500 48.99900 30.03900
C  10.31800 49.33800 29.72300
C  10.43300 48.94500 28.24900
C  10.72300 50.82000 29.97600
C  8.66100 47.70100 30.92200
C  9.46300 47.58200 32.20300
H  8.71700 46.75100 33.33800
N  11.04800 48.20000 25.31600
C  12.01400 48.33000 26.34700
C  13.34000 48.18600 25.80400
C  13.11900 47.71400 24.47800
C  11.68800 47.93800 24.17000
C  14.60500 48.35200 26.57800
C  14.12400 47.13200 23.48800
O  13.72900 46.63400 22.43400
C  15.60700 47.00200 23.67000
N  8.60400 48.09700 23.51900
C  9.63100 47.81100 22.65000
C  9.01200 47.39500 21.34000
C  7.46900 47.81600 21.47200
C  7.35100 47.94400 22.94000
C  9.73700 47.99500 20.11500
C  6.46200 46.86700 20.84900
C  5.35800 47.49300 20.06700
N  6.93800 48.27700 25.84600
C  5.93000 48.13100 24.92800
C  4.59900 48.38200 25.57900
C  4.98000 48.52100 26.90900
C  6.35900 48.52800 26.96100
C  3.21000 48.15600 24.93500
C  4.40900 48.73000 28.21900
O  3.24500 48.73500 28.59300
C  5.65400 48.75500 29.13000
C  5.52000 47.48900 29.88700
O  5.70000 46.34500 29.46800
O  5.13900 47.79600 31.18900
C  4.91500 46.68500 32.18800
H  12.41500 48.79100 28.44200
H  11.53100 47.17400 22.22800
H  5.15500 47.92900 23.07300
H  8.32100 49.82300 30.54400
H  11.00200 48.83300 30.40600
H  10.24500 51.41400 29.19700
H  11.79700 51.00400 29.93300
H  10.32500 51.20400 30.91500
H  8.69200 46.83400 30.26200
H  7.62400 47.68100 31.25900
H  9.69100 48.56100 32.62400
H  10.41100 47.09300 31.97600
H  15.23700 47.47200 26.69500
H  14.30700 48.58900 27.59900
H  15.18200 49.23900 26.31600
H  16.05000 47.28700 22.71600
H  15.91100 46.02600 24.04700
H  15.89500 47.79300 24.36300
H  9.08600 46.30800 21.35200
H  7.36500 48.80100 21.01700
H  10.40300 48.76700 20.50000
H  9.09200 48.38200 19.32600
H  10.34200 47.19800 19.68400
H  5.94500 46.26400 21.59500
H  7.01400 46.16600 20.22300
H  5.29900 48.56300 20.26500
H  4.39300 47.00200 20.18800
H  5.59500 47.36300 19.01100
H  2.90500 47.14600 25.20800
H  3.23400 48.05300 23.85000
H  2.45300 48.91800 25.11900
H  5.60800 49.58000 29.84100
H  3.83500 46.55000 32.24900
H  5.26900 46.98100 33.17600
H  5.36500 45.73600 31.89800
Mg -13.02500 15.90700 41.93400
C  -9.83500 14.63800 41.39900
C  -12.19500 18.89900 40.46700
C  -16.25300 17.00100 42.21500
C  -14.07400 12.73200 42.70500
N  -11.24900 16.58600 40.81000
C  -10.05900 15.97200 40.90000
C  -9.00200 16.90900 40.26600
C  -9.69800 18.34500 40.12400
C  -11.14600 17.96800 40.51000
C  -9.13400 19.39700 41.10300
C  -8.42200 16.39300 38.88100
C  -6.87000 16.11300 38.82300
H  -5.98900 16.82000 37.73100
N  -14.10800 17.76700 41.43200
C  -13.55900 18.86800 40.89900
C  -14.50200 19.86000 40.69900
C  -15.70200 19.44400 41.33700
C  -15.40900 18.00700 41.66400
C  -14.30500 21.17600 40.13900
C  -17.01200 20.18300 41.38900
O  -17.15200 21.30300 40.81500
C  -18.15700 19.66500 42.18900
N  -14.87200 14.92800 42.20200
C  -16.06000 15.60400 42.41000
C  -17.16500 14.71500 43.01300
C  -16.51000 13.33000 42.84500
C  -15.04500 13.68900 42.56100
C  -17.68600 15.05900 44.52300
C  -17.13400 12.35900 41.72900
C  -17.44400 10.93800 42.24100
N  -12.08200 14.06300 42.26000
C  -12.67900 12.85300 42.58400
C  -11.61400 11.85400 42.78800
C  -10.47100 12.53100 42.28500
C  -10.83600 13.80500 41.90400
C  -11.83800 10.50900 43.34400
C  -9.03600 12.37000 41.98600
O  -8.24500 11.41900 42.12300
C  -8.60700 13.76700 41.41100
C  -7.49200 14.27800 42.38000
O  -7.56100 14.51000 43.55600
O  -6.30800 14.49200 41.70100
C  -5.17300 15.18900 42.42300
H  -11.80000 19.76500 39.93200
H  -17.19200 17.40600 42.59900
H  -14.48500 11.74500 42.92900
H  -8.21900 17.08400 41.00400
H  -9.69700 18.78300 39.12500
H  -8.80400 20.25800 40.52200
H  -8.37100 18.98400 41.76400
H  -9.85100 19.74300 41.84700
H  -8.71800 16.98300 38.01400
H  -8.92800 15.43500 38.76600
H  -6.67900 15.05200 38.66500
H  -6.48600 16.48100 39.77400
H  -15.06600 21.31900 39.37200
H  -13.35200 21.24800 39.61400
H  -14.40500 22.01000 40.83300
H  -18.64100 18.79500 41.74500
H  -18.88400 20.45200 42.38800
H  -17.79600 19.35200 43.16900
H  -18.00900 14.81700 42.33100
H  -16.58300 12.76800 43.77600
H  -18.28900 14.25300 44.94100
H  -18.34200 15.91700 44.38100
H  -16.75200 15.23900 45.05500
H  -16.36600 12.24600 40.96300
H  -18.09500 12.82400 41.51300
H  -18.47700 10.71400 41.97400
H  -17.40200 10.87200 43.32800
H  -16.74700 10.19600 41.85200
H  -12.77900 10.44600 43.89100
H  -10.98500 10.26200 43.97600
H  -11.86800 9.78000 42.53400
H  -8.21000 13.62500 40.40600
H  -5.06100 14.75400 43.41600
H  -5.22500 16.27800 42.42300
H  -4.26100 14.91200 41.89400

