158

Mg 35.96900 2.60400 30.20300
C  33.42900 3.62400 32.46900
C  37.94400 2.05100 32.92300
C  37.85100 1.01200 28.16200
C  33.45100 2.85600 27.59200
N  35.79300 2.91800 32.40000
C  34.65400 3.28100 33.08500
C  34.93500 3.29300 34.66200
C  36.46200 3.19900 34.70800
C  36.77700 2.75300 33.22400
C  37.24000 4.44200 35.24000
C  34.03800 2.22100 35.39500
C  33.70100 2.56500 36.86100
H  34.72400 3.47900 37.67300
N  37.73600 1.79200 30.50400
C  38.43100 1.62500 31.66100
C  39.58500 0.84100 31.36900
C  39.62700 0.61700 29.97700
C  38.38700 1.19600 29.48700
C  40.59100 0.28600 32.48000
C  40.62600 -0.18100 29.16700
O  40.63000 -0.33100 27.97800
C  41.70500 -0.81100 29.91000
N  35.73700 2.25000 28.09100
C  36.69300 1.37800 27.58600
C  36.35300 0.89300 26.16400
C  34.87600 1.37800 26.00800
C  34.64600 2.22700 27.28700
C  37.37800 1.45600 25.14800
C  33.94100 0.12600 25.78000
C  33.06200 0.08600 24.49800
N  33.88100 3.23900 29.94500
C  33.06000 3.26600 28.87400
C  31.70900 3.50200 29.31100
C  31.78200 3.70100 30.67000
C  33.18300 3.55800 31.02100
C  30.49500 3.48500 28.40900
C  31.05000 3.98400 31.88500
O  29.89200 4.29000 32.04100
C  32.06600 3.94400 33.06500
C  32.04800 5.23900 33.81400
O  32.06300 6.32000 33.32400
O  32.00400 4.99300 35.15000
C  31.69700 6.14200 36.00300
H  38.49800 1.89100 33.85100
H  38.55200 0.44200 27.54800
H  32.66700 2.78300 26.83500
H  34.68300 4.25600 35.10700
H  36.66800 2.31000 35.30500
H  36.54100 5.18600 35.62100
H  37.83900 4.81000 34.40700
H  37.83400 4.18900 36.11800
H  34.74000 1.38800 35.35700
H  33.15000 1.93800 34.83100
H  33.63300 1.59700 37.35600
H  32.69300 2.98100 36.86200
H  40.84100 -0.77000 32.38000
H  40.18500 0.50500 33.46800
H  41.50500 0.86000 32.32900
H  42.49900 -1.00200 29.18700
H  41.39200 -1.72800 30.40900
H  42.09900 -0.09600 30.63200
H  36.40200 -0.19200 26.07900
H  34.71300 1.97800 25.11300
H  37.84700 0.59400 24.67400
H  38.15900 1.95800 25.71800
H  36.76300 2.01900 24.44500
H  33.27400 0.13000 26.64200
H  34.40600 -0.85800 25.82400
H  33.22900 1.00000 23.92800
H  32.00200 0.08800 24.75200
H  33.28500 -0.80200 23.90700
H  30.53900 2.52200 27.90100
H  30.35400 4.32300 27.72600
H  29.58700 3.47300 29.01200
H  31.76900 3.18500 33.79000
H  31.69100 7.10500 35.49200
H  32.47700 6.19500 36.76200
H  30.77200 6.09200 36.57700
Mg 6.32800 53.50000 41.66200
C  5.59000 49.97400 41.18400
C  9.53400 52.76400 40.52000
C  6.76000 56.65900 41.20200
C  2.84700 53.99500 41.99100
N  7.40500 51.61500 40.84500
C  6.85900 50.27800 40.73500
C  7.94300 49.32600 40.27700
C  9.27700 50.18100 40.60500
C  8.73200 51.62200 40.65800
C  10.06200 49.64400 41.85100
C  7.82200 49.00700 38.76500
C  7.24900 50.12000 37.81400
H  6.70500 49.86000 36.39400
N  7.97700 54.63600 41.13000
C  9.16900 54.14700 40.72600
C  10.06300 55.29100 40.49700
C  9.24000 56.48600 40.62300
C  7.93900 55.97200 41.02000
C  11.53700 55.05400 40.09000
C  9.74000 57.96300 40.37000
O  10.88300 58.17700 39.97000
C  8.81600 59.13600 40.47300
N  4.94100 55.09100 41.58800
C  5.39200 56.35400 41.36300
C  4.38500 57.46200 41.60300
C  3.12100 56.57600 41.63600
C  3.60000 55.15200 41.86800
C  4.67700 58.35300 42.89100
C  2.25400 56.71500 40.32300
C  1.02200 57.66700 40.54900
N  4.55700 52.32100 41.71800
C  3.25100 52.62400 41.93100
C  2.43200 51.39100 42.22300
C  3.36700 50.39800 41.88300
C  4.65200 50.92800 41.54900
C  0.96800 51.37200 42.71800
C  3.49900 48.91100 41.77500
O  2.65100 48.01500 41.89300
C  4.95400 48.55900 41.24200
C  4.84500 47.82600 39.93900
O  4.27400 48.24900 38.89500
O  5.58100 46.67700 40.01800
C  5.43800 45.75100 38.89600
H  10.56500 52.51400 40.25800
H  6.89700 57.74000 41.27600
H  1.76300 54.10300 42.06000
H  7.96800 48.38200 40.82200
H  10.10500 50.08000 39.90300
H  11.07200 49.37500 41.54100
H  9.51200 48.80600 42.27800
H  10.03400 50.49600 42.53100
H  7.24200 48.08600 38.69900
H  8.85700 48.95500 38.42500
H  8.09900 50.75100 37.55500
H  6.50200 50.78400 38.25000
H  11.66700 55.16100 39.01300
H  11.88700 54.13000 40.55200
H  12.04800 55.82400 40.66800
H  9.38500 60.02500 40.20100
H  8.25600 59.23600 41.40200
H  8.09600 58.96200 39.67400
H  4.35700 58.15700 40.76400
H  2.44000 56.77500 42.46300
H  5.02500 59.27700 42.43000
H  5.44400 57.87800 43.50300
H  3.73800 58.49900 43.42500
H  1.83300 55.74100 40.07500
H  2.82000 56.84000 39.40100
H  0.98900 58.44000 39.78100
H  1.12700 58.11700 41.53600
H  0.10100 57.08400 40.59200
H  0.52800 52.36900 42.76100
H  0.88500 50.89900 43.69700
H  0.43600 50.75900 41.99100
H  5.45400 47.82300 41.87100
H  4.44900 45.29700 38.95600
H  6.21700 44.99300 38.81900
H  5.42300 46.37100 38.00000

