158

Mg -12.21100 37.49500 41.84900
C  -10.32200 34.80800 40.45500
C  -10.11900 39.61100 40.36500
C  -14.46300 39.89400 42.66500
C  -14.55900 35.01000 42.86800
N  -10.48600 37.22600 40.64100
C  -9.85600 36.06300 40.07800
C  -8.66100 36.40000 39.12500
C  -8.52000 37.91800 39.33400
C  -9.79100 38.26000 40.23200
C  -7.15900 38.47600 39.84500
C  -8.71600 35.81300 37.68600
C  -7.41200 35.18000 37.00700
H  -6.71500 35.93600 35.96900
N  -12.23500 39.49900 41.62100
C  -11.23800 40.17000 41.03200
C  -11.58000 41.58300 41.11900
C  -12.73600 41.71500 41.85300
C  -13.22500 40.36700 42.07000
C  -10.75800 42.67100 40.50200
C  -13.53900 43.03900 42.18300
O  -13.18000 44.17400 41.74800
C  -14.71800 43.00200 43.07900
N  -14.34000 37.49500 42.35000
C  -15.02700 38.57100 42.85500
C  -16.34200 38.25200 43.45800
C  -16.26100 36.72200 43.62200
C  -15.02400 36.37200 42.78800
C  -16.74700 39.07700 44.71500
C  -17.50700 35.99200 43.09800
C  -18.19600 34.85700 43.98600
N  -12.42300 35.37300 41.71600
C  -13.36300 34.47100 42.32900
C  -12.87100 33.08000 42.31500
C  -11.72300 33.20500 41.48500
C  -11.46000 34.62000 41.22100
C  -13.45800 31.77300 42.84700
C  -10.65500 32.42200 40.93600
O  -10.52600 31.23100 40.99400
C  -9.72100 33.39600 40.16500
C  -8.23600 33.27200 40.47300
O  -7.44900 32.50900 39.89900
O  -8.05800 33.99800 41.65200
C  -6.80200 33.81200 42.41800
H  -9.38300 40.28400 39.92100
H  -15.22400 40.60300 43.00000
H  -15.24200 34.33600 43.38900
H  -7.76300 36.02200 39.61400
H  -8.66100 38.43300 38.38400
H  -6.50900 37.67000 39.50500
H  -7.26300 38.71400 40.90300
H  -6.99200 39.48500 39.46900
H  -9.11300 36.55900 36.99800
H  -9.34200 34.92000 37.68000
H  -7.58800 34.18200 36.60500
H  -6.65000 35.07200 37.78000
H  -10.63400 43.46900 41.23400
H  -11.21600 42.95400 39.55400
H  -9.74000 42.34700 40.28400
H  -15.57400 42.62300 42.52200
H  -14.85300 43.95800 43.58400
H  -14.53900 42.30800 43.90100
H  -17.18000 38.48200 42.80000
H  -15.97400 36.50400 44.65100
H  -16.11100 39.87800 45.09200
H  -16.89900 38.44300 45.58800
H  -17.76400 39.46200 44.64000
H  -17.14400 35.50100 42.19500
H  -18.25900 36.75800 42.90900
H  -19.27400 34.87700 43.82200
H  -17.97800 35.05600 45.03500
H  -17.71600 33.90300 43.76700
H  -14.49900 31.77300 42.52400
H  -13.37900 31.82800 43.93300
H  -12.91000 30.88800 42.52400
H  -10.02400 32.89100 39.24700
H  -6.78400 34.64500 43.12000
H  -6.03700 33.95500 41.65500
H  -6.62400 32.93000 43.03400
Mg -1.80200 34.84600 27.23600
C  -3.65500 32.68900 29.48000
C  -0.70500 36.47900 29.92000
C  -0.31400 36.91400 25.16900
C  -3.31900 33.24100 24.58800
N  -2.38900 34.77600 29.43400
C  -2.95000 33.70000 30.08800
C  -2.73400 33.85700 31.62300
C  -1.88900 35.16500 31.74300
C  -1.66800 35.56000 30.27100
C  -2.49300 36.20800 32.66700
C  -1.95600 32.58100 32.16800
C  -2.66000 31.76300 33.34700
H  -1.96200 31.75800 34.65300
N  -0.48000 36.36600 27.53200
C  -0.13900 36.90200 28.70900
C  0.94700 37.83500 28.49700
C  1.02800 38.06400 27.09600
C  0.08200 37.10100 26.51500
C  1.69400 38.44900 29.63000
C  1.84100 39.02800 26.31700
O  1.80700 39.03900 25.12500
C  2.75700 40.04100 27.07900
N  -2.00200 35.17000 25.22000
C  -1.23500 36.08100 24.56100
C  -1.44900 36.02800 23.01500
C  -2.25600 34.68700 22.85300
C  -2.55700 34.31400 24.33800
C  -1.90300 37.35600 22.29700
C  -1.51500 33.56100 22.01900
C  -0.48200 32.75100 22.77400
N  -3.32000 33.36200 27.02700
C  -3.73300 32.73900 25.84600
C  -4.37300 31.54800 26.17400
C  -4.48200 31.50100 27.58500
C  -3.77600 32.61200 28.07500
C  -5.00000 30.60000 25.16100
C  -4.97200 30.79300 28.73000
O  -5.68000 29.76800 28.79500
C  -4.46300 31.53200 29.98600
C  -5.55900 31.99800 30.78600
O  -6.20000 33.06300 30.62800
O  -5.79500 31.11100 31.73800
C  -6.74800 31.56600 32.73800
H  -0.16700 36.90400 30.77000
H  0.16500 37.55800 24.42900
H  -3.48400 32.57900 23.73500
H  -3.74100 34.03800 31.99900
H  -0.84300 34.99200 31.99900
H  -3.46300 35.95100 33.09400
H  -2.74200 36.99400 31.95400
H  -1.76900 36.59900 33.38100
H  -1.06100 32.95700 32.66400
H  -1.64900 31.91900 31.35800
H  -2.86800 30.77000 32.94900
H  -3.63800 32.20400 33.54100
H  1.67600 37.79900 30.50400
H  1.20700 39.38500 29.90600
H  2.70300 38.75000 29.34800
H  3.56600 39.54800 27.61900
H  2.18000 40.49900 27.88200
H  3.21900 40.73900 26.38200
H  -0.48600 35.81300 22.55100
H  -3.22200 34.86600 22.38200
H  -1.15900 37.61300 21.54300
H  -1.88700 38.27100 22.88900
H  -2.93400 37.28000 21.95200
H  -0.95700 34.16600 21.30500
H  -2.24000 32.89500 21.55100
H  0.32300 32.76800 22.03900
H  -0.75300 31.70900 22.94500
H  -0.12900 33.20500 23.70000
H  -4.27000 30.04000 24.57600
H  -5.73300 31.22400 24.65000
H  -5.60600 29.95400 25.79700
H  -3.85400 30.80000 30.51500
H  -6.45100 32.44700 33.30700
H  -6.95900 30.73900 33.41600
H  -7.71400 31.92000 32.37900

