158

Mg 29.69600 58.78600 41.47000
C  27.23600 56.82800 39.92300
C  32.13900 56.47900 40.13700
C  32.32200 60.93300 41.90600
C  27.32400 61.16400 42.25100
N  29.61700 56.88700 40.10800
C  28.50800 56.29000 39.68200
C  28.85800 55.06400 38.80300
C  30.24700 54.74300 39.38900
C  30.79200 56.11100 39.92400
C  30.38100 53.61300 40.42300
C  28.78600 55.34700 37.25300
C  28.08200 54.34500 36.39700
H  27.27900 54.88400 35.21100
N  31.89000 58.70800 41.14200
C  32.60500 57.75400 40.56700
C  33.95600 58.05100 40.43500
C  34.12600 59.27500 41.06500
C  32.73900 59.67300 41.55100
C  35.00900 57.14200 39.77200
C  35.39200 60.03800 41.10300
O  36.47500 59.55700 40.74600
C  35.40800 61.37100 41.66500
N  29.78400 60.79300 41.99000
C  30.99900 61.39400 42.25400
C  30.73200 62.83800 42.70800
C  29.13000 62.94200 42.88900
C  28.66700 61.54500 42.39100
C  31.56800 63.20000 43.97800
C  28.35200 64.15300 42.12600
C  27.14600 64.66800 43.07100
N  27.71600 58.93300 41.26900
C  26.88600 59.94600 41.67900
C  25.47500 59.57000 41.43300
C  25.55100 58.36900 40.67500
C  26.94600 58.02100 40.62900
C  24.20200 60.31900 41.69200
C  24.84200 57.38700 39.98700
O  23.60200 57.28900 39.75900
C  25.86900 56.30600 39.48600
C  25.51100 54.95500 40.09000
O  25.19100 54.72700 41.24900
O  25.53800 54.02400 39.06500
C  25.13400 52.67400 39.53000
H  32.78100 55.64100 39.85900
H  33.00100 61.78300 41.81000
H  26.55600 61.85000 42.61500
H  28.26700 54.21400 39.14300
H  30.93700 54.49200 38.58400
H  29.41400 53.48000 40.90900
H  31.07100 54.09200 41.11800
H  30.76600 52.70700 39.95500
H  29.75900 55.44100 36.77100
H  28.33600 56.34000 37.22900
H  27.41400 53.75100 37.02200
H  28.83300 53.64800 36.02500
H  35.86000 57.61600 39.28300
H  34.54800 56.55400 38.97900
H  35.37000 56.34100 40.41700
H  36.46400 61.60800 41.78600
H  34.78600 61.34000 42.56000
H  34.89200 61.91800 40.87600
H  31.02500 63.52800 41.91700
H  28.95400 62.89000 43.96300
H  32.15100 62.31400 44.23100
H  30.96200 63.53800 44.81800
H  32.25400 64.04000 43.86700
H  28.03000 63.77200 41.15700
H  29.07600 64.95000 41.95400
H  26.27600 64.31700 42.51600
H  26.95400 65.73700 43.15100
H  27.10200 64.14700 44.02800
H  23.60300 59.92900 42.51500
H  23.65200 60.12800 40.77000
H  24.40400 61.39000 41.72200
H  25.88100 56.23300 38.39900
H  24.09100 52.64500 39.84600
H  25.69600 52.48200 40.44400
H  25.18100 51.97700 38.69300
Mg 36.31700 49.79400 25.90800
C  36.83100 47.93800 28.81800
C  35.14600 52.27100 27.73400
C  35.94000 51.41000 23.01400
C  37.19300 46.89600 23.96300
N  35.95100 50.00300 28.04800
C  36.42400 49.22100 29.03700
C  36.19800 49.91900 30.39800
C  35.45200 51.25500 30.05700
C  35.44100 51.21100 28.48300
C  34.00000 51.32300 30.54200
C  37.49100 50.08400 31.21300
C  37.49200 49.61300 32.60600
H  36.22900 49.71400 33.40300
N  35.70500 51.63000 25.39200
C  35.26300 52.53000 26.33500
C  35.00500 53.81800 25.70600
C  35.17200 53.62800 24.30200
C  35.56700 52.20300 24.17700
C  34.55900 54.91100 26.52500
C  35.04700 54.61700 23.19600
O  35.08300 54.32000 21.99100
C  34.83100 56.11000 23.48500
N  36.36600 49.14300 23.90800
C  36.26300 50.05700 22.92700
C  36.40800 49.40600 21.52000
C  36.99800 48.01200 21.80200
C  36.79400 48.00200 23.30300
C  35.05500 49.33700 20.64500
C  38.53200 47.88000 21.38100
C  38.84200 47.08600 20.02300
N  36.75000 47.76000 26.27200
C  37.06400 46.70600 25.39700
C  37.48400 45.54900 26.14800
C  37.40000 45.97900 27.51900
C  36.98800 47.31900 27.55300
C  38.05900 44.29400 25.60500
C  37.62900 45.56900 28.91700
O  37.95500 44.46400 29.33700
C  37.20100 46.82100 29.79800
C  36.08800 46.37000 30.63200
O  34.91600 46.39100 30.38000
O  36.56700 45.99100 31.94200
C  35.57200 45.56300 32.96000
H  34.77900 53.13900 28.28600
H  35.89600 51.98000 22.08300
H  37.36500 46.04400 23.30200
H  35.45200 49.21900 30.77600
H  36.04800 52.09100 30.42300
H  33.37500 51.78300 29.77700
H  34.03300 51.97500 31.41500
H  33.70900 50.31800 30.84800
H  37.78400 51.12800 31.09600
H  38.23800 49.57100 30.60800
H  38.16000 50.22700 33.20900
H  37.85400 48.58900 32.69300
H  35.42500 55.57000 26.59400
H  34.10800 54.75300 27.50400
H  33.82800 55.50600 25.97800
H  35.51100 56.29900 24.31700
H  33.74900 56.18000 23.59600
H  35.12700 56.64100 22.58100
H  37.11100 50.00700 20.94300
H  36.39800 47.18100 21.43000
H  35.28900 49.08500 19.61100
H  34.40300 50.20800 20.71200
H  34.53300 48.47300 21.05500
H  39.02400 47.38800 22.22000
H  38.94900 48.88700 21.37400
H  37.87600 46.63500 19.79500
H  39.64600 46.38000 20.22800
H  39.06700 47.67200 19.13100
H  38.46100 44.45200 24.60400
H  37.22600 43.59600 25.52200
H  38.85400 44.03200 26.30200
H  38.03900 47.19800 30.38400
H  36.08000 45.13700 33.82500
H  35.03400 44.82500 32.36500
H  34.90200 46.39500 33.17900

