158

Mg -2.75500 16.70700 26.59500
C  -3.03500 14.61800 29.39700
C  -2.80800 19.40800 28.78000
C  -2.82900 18.70700 23.96800
C  -3.50200 14.01400 24.53700
N  -2.90800 17.00300 28.83400
C  -2.91600 15.98400 29.79600
C  -3.07500 16.53400 31.19300
C  -3.31300 18.03600 31.00900
C  -3.01800 18.19900 29.47800
C  -4.62200 18.66800 31.49100
C  -1.89800 16.03800 32.20000
C  -1.39700 17.01300 33.33300
H  -0.72100 16.39800 34.54400
N  -2.68600 18.74100 26.39700
C  -2.72400 19.67300 27.37300
C  -2.67100 21.02300 26.80400
C  -2.61800 20.88000 25.35100
C  -2.77100 19.37700 25.19700
C  -2.87900 22.28700 27.68300
C  -2.37600 21.82100 24.25300
O  -2.20400 21.58700 23.09600
C  -2.23300 23.26400 24.57100
N  -2.91700 16.31500 24.44300
C  -2.97400 17.36300 23.62100
C  -3.35500 16.87000 22.27200
C  -3.67400 15.35300 22.43300
C  -3.27300 15.17600 23.86300
C  -4.45700 17.71900 21.48700
C  -2.97400 14.43100 21.45500
C  -1.50800 13.98800 21.69800
N  -3.05200 14.73300 26.79000
C  -3.38800 13.73900 25.89800
C  -3.66800 12.50800 26.64800
C  -3.44400 12.74400 28.00300
C  -3.16100 14.13300 28.08200
C  -4.19600 11.22100 26.06200
C  -3.40000 12.18700 29.29700
O  -3.53600 11.01400 29.67400
C  -3.24300 13.38600 30.25200
C  -2.07600 13.16500 31.17300
O  -0.93300 13.49200 30.86100
O  -2.48600 12.57000 32.32400
C  -1.33400 12.31600 33.24200
H  -2.78100 20.25900 29.46500
H  -2.92300 19.32500 23.07200
H  -3.86000 13.29600 23.79600
H  -3.96000 16.13100 31.68600
H  -2.57800 18.64400 31.53800
H  -5.19000 18.84600 30.57800
H  -4.49200 19.59600 32.04700
H  -5.27100 17.99000 32.04600
H  -1.11100 15.69600 31.52800
H  -2.36800 15.21100 32.73100
H  -2.14700 17.69600 33.73000
H  -0.56000 17.56700 32.90700
H  -3.42800 22.09900 28.60500
H  -3.38500 22.99600 27.02600
H  -1.91000 22.67400 27.99600
H  -1.28200 23.42700 25.07800
H  -3.09900 23.66600 25.09600
H  -2.25100 23.90900 23.69200
H  -2.45600 17.01300 21.67300
H  -4.73100 15.27200 22.18000
H  -4.85400 18.45200 22.18900
H  -5.35100 17.12100 21.30800
H  -4.05700 18.26400 20.63200
H  -2.98800 14.99200 20.52100
H  -3.48500 13.49600 21.22400
H  -1.37900 12.91800 21.86300
H  -1.08300 14.64600 22.45700
H  -0.89400 14.35700 20.87600
H  -3.28500 10.66700 25.83600
H  -4.64400 11.52200 25.11400
H  -4.92800 10.82700 26.76700
H  -3.97800 13.39700 31.05700
H  -1.48400 12.96300 34.10700
H  -0.32600 12.33200 32.82700
H  -1.28200 11.28800 33.59900
Mg 47.24600 16.47400 29.49200
C  45.39800 15.97800 32.48100
C  49.37800 18.41500 31.40500
C  48.88000 17.30800 26.72500
C  44.50200 15.13600 27.64900
N  47.50100 16.97000 31.77000
C  46.63300 16.65000 32.72100
C  47.11500 17.11700 34.15500
C  48.34900 18.03200 33.71800
C  48.41800 17.82800 32.16400
C  48.14200 19.54200 34.11500
C  47.62800 15.97800 34.97700
C  47.03700 15.77600 36.36100
H  47.27200 16.95400 37.32400
N  49.00300 17.43900 29.16900
C  49.66800 18.25400 30.07900
C  50.85500 18.68200 29.47000
C  50.84900 18.32900 28.05800
C  49.53300 17.65600 27.89800
C  51.90400 19.43800 30.22600
C  51.90000 18.56300 26.91900
O  51.68200 18.15300 25.75500
C  53.18300 19.26400 27.16400
N  46.60900 16.48100 27.50200
C  47.59000 16.75200 26.51000
C  47.06600 16.48400 25.07500
C  45.75900 15.66200 25.45900
C  45.62800 15.66700 26.94200
C  46.81900 17.74700 24.24500
C  45.68400 14.22200 24.87100
C  46.35200 13.11400 25.72500
N  45.29800 15.68200 29.91700
C  44.35200 15.09700 29.06600
C  43.33400 14.59800 29.88400
C  43.65400 14.90200 31.18400
C  44.89500 15.55100 31.13800
C  42.07900 13.96200 29.40100
C  43.23600 14.74800 32.54800
O  42.23000 14.29100 33.06200
C  44.35900 15.44300 33.41700
C  43.66200 16.53600 34.18800
O  43.37100 17.65900 33.71900
O  43.63900 16.16100 35.51700
C  43.25500 17.21400 36.51200
H  49.93100 19.13700 32.01000
H  49.43700 17.35400 25.78600
H  43.73900 14.58900 27.09100
H  46.32400 17.53400 34.77800
H  49.30500 17.73600 34.15000
H  49.04300 19.94900 34.57300
H  47.32400 19.72200 34.81300
H  47.90300 19.97000 33.14200
H  48.71600 15.90900 34.99800
H  47.41000 15.01500 34.51600
H  47.23400 14.76700 36.72300
H  45.95200 15.67900 36.32400
H  52.80300 18.82300 30.26700
H  51.64200 19.63200 31.26600
H  52.17800 20.34900 29.69500
H  53.81500 19.22500 26.27600
H  53.57800 18.86800 28.09900
H  52.88400 20.31000 27.23100
H  47.75700 15.82400 24.55000
H  44.92600 16.19600 25.00100
H  45.93600 18.26200 24.62400
H  46.68700 17.55000 23.18100
H  47.69300 18.35600 24.47600
H  46.14100 14.19400 23.88200
H  44.64600 13.95100 24.67800
H  46.70600 13.44900 26.70100
H  47.28900 12.76800 25.28800
H  45.70100 12.24600 25.81900
H  41.88400 14.32800 28.39300
H  41.22800 14.24800 30.01800
H  42.22600 12.88300 29.43200
H  44.68500 14.71300 34.15700
H  43.86400 18.09500 36.30700
H  43.48900 16.86500 37.51700
H  42.18200 17.37100 36.39800

