158

Mg 5.83200 54.51500 41.88800
C  5.31900 51.02700 41.57400
C  8.75200 54.13900 40.37500
C  5.79600 57.84300 41.49500
C  2.44500 54.60500 42.90600
N  6.82600 52.80500 40.93900
C  6.47900 51.46200 40.95400
C  7.52600 50.56800 40.17100
C  8.67900 51.59000 40.15800
C  8.07500 52.92500 40.49700
C  9.66200 51.28600 41.31800
C  7.15400 49.99600 38.71400
C  6.13400 50.68200 37.87000
H  6.68900 51.47600 36.68800
N  7.19100 55.88800 41.12000
C  8.40800 55.46600 40.65700
C  9.21000 56.69600 40.43100
C  8.31400 57.80700 40.64800
C  7.02800 57.24500 41.09600
C  10.70200 56.71100 39.99100
C  8.62300 59.25000 40.52200
O  9.79500 59.53700 40.17800
C  7.69100 60.30500 40.93000
N  4.28300 55.92700 42.05400
C  4.54700 57.29800 41.85100
C  3.35900 58.18300 42.22900
C  2.28800 57.07700 42.59200
C  3.05600 55.77100 42.46100
C  3.66800 59.13800 43.41200
C  0.98700 57.11500 41.73500
C  -0.32400 57.29100 42.56900
N  4.22200 53.08600 42.25300
C  2.99900 53.32200 42.78800
C  2.31200 52.08400 43.03300
C  3.26000 51.18600 42.61000
C  4.37400 51.85600 42.17100
C  1.00900 51.83800 43.56700
C  3.47400 49.75400 42.43700
O  2.79600 48.78000 42.74200
C  4.92500 49.61400 41.89300
C  4.80500 48.77900 40.74900
O  4.37600 49.19800 39.68000
O  5.11500 47.50700 41.08600
C  4.99700 46.55000 39.92900
H  9.76700 54.07600 39.97800
H  5.85200 58.93300 41.48900
H  1.39800 54.67000 43.21100
H  7.66000 49.67600 40.78200
H  9.13000 51.68600 39.17100
H  9.30400 50.54900 42.03700
H  9.95300 52.19100 41.85100
H  10.58900 50.87700 40.91600
H  6.79500 48.97700 38.86200
H  8.12600 49.86900 38.23900
H  5.66900 51.43000 38.51300
H  5.38100 50.01100 37.45800
H  10.83100 57.10200 38.98100
H  10.97900 55.65800 39.94100
H  11.29300 57.22900 40.74600
H  6.86900 60.18600 40.22300
H  8.18700 61.23000 40.63600
H  7.37900 60.24400 41.97200
H  3.17100 58.74700 41.31500
H  1.96300 57.08600 43.63200
H  3.07000 59.07600 44.32100
H  3.53700 60.12400 42.96600
H  4.69100 59.12500 43.78700
H  0.88800 56.25000 41.07800
H  1.13900 57.97700 41.08500
H  -0.68200 56.26800 42.68300
H  -1.03400 57.87500 41.98300
H  -0.01700 57.74800 43.50900
H  0.20200 52.38600 43.08000
H  0.95300 52.25600 44.57300
H  0.76900 50.78000 43.66500
H  5.67600 49.11500 42.50600
H  5.56500 45.63100 40.07100
H  5.35500 47.05800 39.03300
H  3.96800 46.34500 39.63400
Mg 16.54300 52.12300 26.47500
C  18.07000 50.82400 29.36800
C  13.70800 52.75200 28.51400
C  14.85700 53.13400 23.78800
C  19.10900 50.86300 24.62600
N  15.81800 51.51800 28.63500
C  16.82200 51.37300 29.57500
C  16.22900 51.67700 31.00700
C  14.67200 51.78400 30.72100
C  14.73000 52.07800 29.18200
C  13.83700 50.56500 31.04100
C  17.00000 52.91400 31.69100
C  17.69100 52.52200 33.07800
H  16.90300 53.09200 34.30200
N  14.58400 52.94500 26.22300
C  13.54500 53.04300 27.12900
C  12.37200 53.63000 26.49500
C  12.69000 53.79000 25.11000
C  14.06100 53.30700 24.99600
C  11.16200 53.94000 27.22700
C  11.84300 54.35500 23.90100
O  12.25100 54.50000 22.75500
C  10.43500 54.73000 24.16200
N  16.83600 51.86100 24.43300
C  16.07900 52.43900 23.49600
C  16.86700 52.45000 22.19300
C  18.29200 52.00800 22.56500
C  18.02700 51.44600 23.94400
C  16.12400 51.78800 21.05400
C  19.33500 53.23700 22.57100
C  19.46200 53.96800 21.22700
N  18.21500 51.04000 26.83800
C  19.21800 50.60700 25.96200
C  20.26300 49.95200 26.69500
C  19.87500 50.10100 28.00700
C  18.62200 50.66900 28.06000
C  21.49400 49.33300 26.06000
C  20.38200 49.87900 29.31300
O  21.45900 49.42700 29.68100
C  19.21900 50.46800 30.36200
C  18.73900 49.36300 31.28500
O  17.97300 48.43300 30.94000
O  19.36400 49.52100 32.51000
C  19.04300 48.52600 33.52200
H  12.92900 53.21100 29.12500
H  14.37200 53.44400 22.86000
H  20.00600 50.65100 24.04100
H  16.33700 50.78400 31.62300
H  14.42300 52.68500 31.28100
H  13.00300 50.49300 30.34300
H  13.44200 50.58100 32.05700
H  14.38800 49.63300 30.90800
H  16.40600 53.81700 31.83000
H  17.90500 53.09500 31.11100
H  18.74300 52.80000 33.14700
H  17.69500 51.43200 33.06300
H  10.29100 53.43700 26.80600
H  11.08200 55.02400 27.15500
H  11.12200 53.70000 28.29000
H  10.33500 55.34500 25.05600
H  9.91000 53.77900 24.24300
H  9.92900 55.34200 23.41500
H  16.84600 53.52900 22.03900
H  18.71300 51.18300 21.99100
H  16.64200 50.94100 20.60500
H  15.97300 52.60800 20.35100
H  15.14000 51.50100 21.42300
H  20.35300 53.02900 22.89800
H  19.01600 54.00400 23.27700
H  19.45600 55.05600 21.28400
H  18.60400 53.67400 20.62100
H  20.31200 53.59800 20.65400
H  21.74900 48.35300 26.46200
H  22.37900 49.88200 26.38300
H  21.45800 49.31500 24.97100
H  19.60100 51.22900 31.04200
H  19.48800 48.85100 34.46300
H  19.39000 47.50200 33.38600
H  17.95700 48.56200 33.60400

