158

Mg 35.91600 1.94300 29.59500
C  33.68400 3.33300 32.13900
C  38.32900 1.96600 31.85200
C  38.05100 1.31700 27.13500
C  33.28300 2.41400 27.27900
N  35.96000 2.75000 31.72800
C  34.99000 3.06900 32.58900
C  35.36200 3.01300 34.11800
C  36.94500 2.69800 33.96800
C  37.15300 2.52300 32.39000
C  37.95100 3.75100 34.59700
C  34.56900 1.89900 34.95100
C  34.10600 2.41400 36.30600
H  35.13900 3.28300 37.07500
N  37.84700 1.64300 29.54600
C  38.67200 1.64300 30.53300
C  39.99000 1.05400 30.10500
C  39.91500 0.94100 28.71600
C  38.54100 1.28800 28.43300
C  41.07000 0.70400 31.03600
C  40.97500 0.42700 27.71500
O  40.73700 0.22800 26.50000
C  42.29300 0.12900 28.21700
N  35.69700 1.81500 27.51700
C  36.73500 1.52900 26.67100
C  36.36400 1.49400 25.17100
C  34.92200 1.95700 25.23000
C  34.55300 2.03700 26.74500
C  37.29200 2.40200 24.34600
C  33.89500 1.08300 24.46300
C  33.38700 -0.20500 25.05300
N  33.84300 2.67000 29.65800
C  32.88300 2.68900 28.65000
C  31.65700 3.18700 29.18900
C  31.89700 3.44700 30.58300
C  33.25500 3.18100 30.81700
C  30.32600 3.43100 28.50300
C  31.35200 3.94500 31.81000
O  30.24600 4.40500 32.08900
C  32.46400 3.78100 32.89400
C  32.52200 5.01500 33.82900
O  32.93700 6.11800 33.49700
O  31.88300 4.74900 35.03200
C  31.63400 5.78700 36.01600
H  39.14800 1.88400 32.57000
H  38.70500 1.19800 26.26900
H  32.40600 2.51000 26.63600
H  35.44100 3.99000 34.59400
H  37.28000 1.85000 34.56600
H  37.56100 4.71000 34.93800
H  38.72900 4.08300 33.91100
H  38.41800 3.34200 35.49400
H  35.24500 1.05300 35.07700
H  33.69300 1.54900 34.40400
H  33.82800 1.54100 36.89700
H  33.18600 2.99600 36.34200
H  41.96000 1.33400 31.03200
H  41.29300 -0.36200 31.00100
H  40.72100 0.78700 32.06500
H  42.81100 1.04800 28.49100
H  42.75000 -0.50700 27.45900
H  42.17300 -0.48700 29.10800
H  36.25100 0.46100 24.84100
H  34.68700 2.95800 24.86900
H  37.93600 1.67700 23.84800
H  37.84700 3.04200 25.03200
H  36.75400 2.92300 23.55400
H  34.38800 0.72400 23.56000
H  33.04100 1.65200 24.09400
H  33.97400 -0.41500 25.94800
H  33.56500 -0.99600 24.32500
H  32.31800 -0.09500 25.23200
H  29.48600 3.80400 29.09000
H  29.91400 2.52000 28.06900
H  30.44300 4.08300 27.63700
H  32.08400 2.94800 33.48600
H  31.19900 6.66200 35.53300
H  32.52100 6.26300 36.43400
H  30.98800 5.58500 36.87000
Mg 6.47200 54.34800 41.59300
C  5.92000 51.04100 41.04200
C  9.74000 53.89600 40.56500
C  6.68500 57.65100 41.20300
C  2.93600 54.83500 41.97300
N  7.57300 52.62700 40.52900
C  7.19000 51.39100 40.61800
C  8.34600 50.39600 40.25500
C  9.68100 51.24000 40.43700
C  8.97900 52.71300 40.54400
C  10.65400 50.98400 41.63200
C  8.21400 49.71500 38.90400
C  7.92800 50.55400 37.60800
H  6.95600 50.04200 36.54800
N  8.03700 55.58100 41.17700
C  9.29400 55.19200 40.74800
C  10.14100 56.34900 40.59400
C  9.31800 57.47000 40.75900
C  7.91600 56.92200 41.05100
C  11.58300 56.26000 40.24000
C  9.73400 58.97000 40.55300
O  10.90200 59.24100 40.26100
C  8.85100 60.09200 40.97100
N  5.02200 56.02100 41.55400
C  5.37400 57.28400 41.47300
C  4.18100 58.29700 41.61500
C  2.97300 57.35300 41.88100
C  3.73200 56.00400 41.95500
C  4.35000 59.22500 42.86800
C  1.82200 57.48900 40.84300
C  0.68200 58.51800 41.11800
N  4.76500 53.19000 41.68800
C  3.43400 53.49500 41.88000
C  2.76500 52.26800 41.98500
C  3.68200 51.24900 41.62100
C  4.86400 51.89800 41.43900
C  1.34500 52.16500 42.32200
C  3.82400 49.87100 41.53000
O  3.01700 48.96700 41.86400
C  5.29900 49.62400 41.05000
C  5.14000 48.92600 39.71900
O  4.82900 49.45700 38.64400
O  5.45500 47.62000 39.97900
C  5.16600 46.69400 38.95200
H  10.77700 53.64900 40.32700
H  6.70800 58.70200 40.90700
H  1.86900 54.86000 42.20300
H  8.21900 49.64800 41.03900
H  10.31900 51.11100 39.56300
H  10.44000 51.83100 42.28300
H  11.66000 50.97500 41.21300
H  10.51500 50.01800 42.11600
H  7.55700 48.85200 39.02100
H  9.20800 49.33900 38.66000
H  8.87200 50.61600 37.06600
H  7.54300 51.54200 37.86000
H  12.09300 57.16800 40.56300
H  11.68600 56.07900 39.17000
H  12.01000 55.47300 40.86100
H  8.29700 60.37200 40.07500
H  9.51800 60.93300 41.15800
H  8.26800 59.89000 41.86900
H  4.23900 58.96600 40.75600
H  2.51200 57.52400 42.85300
H  5.27400 59.79800 42.78900
H  4.38200 58.60700 43.76500
H  3.52100 59.93200 42.86200
H  1.36700 56.55200 40.52100
H  2.24100 57.79900 39.88500
H  -0.28900 58.04300 40.97400
H  0.86400 59.45900 40.59800
H  0.82500 58.86300 42.14200
H  0.69100 52.47000 41.50500
H  1.26800 52.79300 43.20900
H  1.00300 51.16200 42.57700
H  5.74400 48.86500 41.69300
H  5.89700 45.89200 39.05400
H  5.24400 47.06200 37.92900
H  4.28900 46.10800 39.22700

