158

Mg 47.46700 24.37500 28.12800
C  48.33500 26.66700 30.70500
C  46.93800 22.06400 30.63600
C  46.80500 22.16200 25.74500
C  48.47300 26.77300 25.69400
N  47.58600 24.48400 30.45600
C  47.98600 25.45700 31.29200
C  47.85400 25.03100 32.73800
C  47.60900 23.50700 32.61700
C  47.39600 23.29000 31.12400
C  48.64100 22.51600 33.20900
C  46.78600 25.90400 33.46100
C  46.45400 25.42700 34.89800
H  46.55700 26.54100 35.95400
N  46.97300 22.43400 28.14000
C  46.70800 21.62200 29.25500
C  46.22700 20.30600 28.87100
C  46.31300 20.29400 27.44400
C  46.67700 21.66200 27.05800
C  45.86300 19.22800 29.92900
C  46.02700 19.07700 26.54600
O  46.06500 19.17100 25.31200
C  45.57400 17.69400 27.17800
N  47.87900 24.38600 25.95400
C  47.35800 23.39200 25.23300
C  47.24100 23.77700 23.71600
C  47.70400 25.26800 23.70600
C  47.99900 25.50600 25.18600
C  47.93400 22.81600 22.76000
C  46.70700 26.28100 23.11000
C  47.31900 27.36500 22.20200
N  48.21300 26.30400 28.13600
C  48.61400 27.10700 27.05300
C  49.03300 28.43400 27.59300
C  48.92400 28.30900 29.02700
C  48.38300 26.97300 29.32000
C  49.71200 29.49600 26.80300
C  49.22300 28.95300 30.29700
O  49.72900 30.04200 30.52700
C  48.71200 27.93100 31.41100
C  49.68900 27.78200 32.52900
O  50.64300 27.06800 32.50000
O  49.35600 28.52000 33.63600
C  50.21900 28.12200 34.81500
H  46.70900 21.35100 31.43100
H  46.51000 21.46500 24.95700
H  48.70700 27.62800 25.05600
H  48.85500 25.22900 33.12100
H  46.68600 23.27200 33.14800
H  49.41800 23.03800 33.76800
H  49.03400 21.74400 32.54700
H  48.08800 21.88500 33.90400
H  45.94400 25.68200 32.80500
H  47.23500 26.89400 33.54100
H  47.11900 24.61400 35.18800
H  45.40000 25.15800 34.83100
H  44.83800 18.96700 29.66700
H  45.74700 19.59100 30.95000
H  46.47900 18.33400 29.83400
H  46.50600 17.37800 27.64700
H  45.24900 16.94300 26.45800
H  44.76400 17.78100 27.90200
H  46.17200 23.66600 23.53300
H  48.60800 25.21600 23.09900
H  48.55000 22.07200 23.26600
H  48.55100 23.31500 22.01300
H  47.16000 22.25800 22.23400
H  46.17900 26.73200 23.95000
H  45.89400 25.72800 22.64000
H  48.40200 27.26300 22.13100
H  47.18300 28.40300 22.50600
H  46.84100 27.24200 21.23100
H  50.60600 28.98000 26.45400
H  50.04600 30.26300 27.50200
H  49.16500 29.74400 25.89400
H  47.91900 28.55600 31.82200
H  49.92700 28.87500 35.54700
H  51.25700 28.23900 34.50400
H  49.98900 27.08000 35.03600
Mg 35.63800 48.42800 26.38400
C  35.74300 46.63300 29.45400
C  34.49100 51.12500 28.22700
C  35.46400 50.23000 23.53900
C  36.39800 45.56100 24.64200
N  35.08100 48.80000 28.63400
C  35.33200 47.97000 29.70300
C  35.12300 48.72700 31.04400
C  34.57100 50.09300 30.56700
C  34.70000 50.00400 29.08800
C  33.14400 50.40100 31.19900
C  36.40700 48.57000 32.05100
C  36.01900 48.28900 33.54200
H  36.15200 49.41300 34.55100
N  34.88200 50.41700 25.90200
C  34.64400 51.43800 26.87400
C  34.41300 52.65100 26.19600
C  34.82600 52.47900 24.82400
C  35.06900 51.02400 24.67100
C  33.90400 53.92800 26.82400
C  35.06700 53.55200 23.68100
O  35.51100 53.20300 22.60300
C  34.62100 54.99100 23.92600
N  35.66600 47.92100 24.31400
C  35.74400 48.88000 23.38800
C  35.98300 48.18800 22.04500
C  36.44600 46.77300 22.39600
C  36.24000 46.77100 23.92100
C  34.81400 48.33300 21.08300
C  37.95200 46.47700 22.06300
C  38.25900 45.32300 21.14200
N  35.97200 46.42500 26.86600
C  36.25600 45.37000 26.02800
C  36.35600 44.13100 26.82400
C  36.14600 44.61100 28.12000
C  35.92100 45.97900 28.14200
C  36.64600 42.82300 26.27000
C  36.05900 44.16800 29.46600
O  36.22300 43.03700 29.89400
C  35.85700 45.49700 30.34400
C  34.65000 45.29400 31.21700
O  33.50600 45.64500 30.91400
O  35.08800 44.85500 32.45100
C  34.08600 44.42900 33.44700
H  34.15900 51.90600 28.91500
H  35.35000 50.76800 22.59600
H  36.55300 44.68500 24.01000
H  34.27500 48.27200 31.55500
H  35.30600 50.80400 30.94200
H  32.72800 51.24800 30.65200
H  33.04000 50.65200 32.25500
H  32.47900 49.56300 30.99500
H  36.92000 49.53200 32.03500
H  37.07700 47.78600 31.70000
H  36.55800 47.43000 33.94100
H  35.02100 47.86800 33.41500
H  34.69400 54.67900 26.85500
H  33.59900 53.67600 27.83900
H  32.97400 54.28900 26.38500
H  34.54400 55.39400 22.91600
H  35.36900 55.61900 24.41100
H  33.60400 55.10200 24.30200
H  36.84100 48.75300 21.68000
H  35.81000 46.06500 21.86400
H  35.07400 48.97600 20.24300
H  33.96000 48.88400 21.47800
H  34.51100 47.36900 20.67500
H  38.58900 46.45300 22.94700
H  38.37400 47.34600 21.55700
H  37.52000 44.56500 20.88200
H  39.05200 44.80200 21.67700
H  38.72300 45.70600 20.23300
H  35.99000 42.80000 25.40000
H  36.45300 42.01200 26.97300
H  37.68000 42.85500 25.92800
H  36.82500 45.57800 30.83800
H  34.32400 43.45900 33.88200
H  33.14900 44.23900 32.92300
H  34.03100 45.03700 34.35000

