158

Mg -1.97100 17.35800 25.84300
C  -2.45300 15.02200 28.44900
C  -2.51000 19.79500 28.19000
C  -1.95400 19.51800 23.22000
C  -2.49800 14.74300 23.52700
N  -2.53600 17.34300 28.15500
C  -2.45600 16.29100 29.00200
C  -2.52800 16.77000 30.54200
C  -2.69500 18.33100 30.38900
C  -2.51100 18.54400 28.84000
C  -4.02300 18.90800 30.97700
C  -1.35300 16.26800 31.42700
C  -1.07300 16.95600 32.77400
H  -0.92000 16.04300 34.02500
N  -1.99300 19.36400 25.71100
C  -2.20100 20.15200 26.82100
C  -2.29100 21.51400 26.29800
C  -2.04000 21.52200 24.92200
C  -1.93600 20.06000 24.56600
C  -2.56800 22.68300 27.14600
C  -1.89000 22.63200 23.91400
O  -1.73200 22.41100 22.74600
C  -1.83900 24.07500 24.36700
N  -2.03000 17.09900 23.61400
C  -2.00700 18.18600 22.78800
C  -1.99500 17.77800 21.33400
C  -2.25600 16.20100 21.43400
C  -2.32300 15.95700 22.93400
C  -2.86700 18.58100 20.43400
C  -1.22300 15.28200 20.70200
C  -1.93500 14.28300 19.77400
N  -2.23600 15.28100 25.87400
C  -2.43300 14.36100 24.87600
C  -2.59900 13.11800 25.49700
C  -2.47200 13.24100 26.87500
C  -2.43200 14.65200 27.08000
C  -3.11600 11.89200 24.73000
C  -2.61200 12.54500 28.14600
O  -2.91200 11.41600 28.37900
C  -2.49500 13.64300 29.16600
C  -1.23800 13.29900 29.90700
O  -0.12200 13.79100 29.63100
O  -1.48800 12.38000 30.86000
C  -0.46700 12.33500 31.91100
H  -2.40100 20.65600 28.85300
H  -1.77800 20.12200 22.32700
H  -2.66900 14.01900 22.72800
H  -3.46200 16.33900 30.90400
H  -1.88100 18.76300 30.97200
H  -4.91600 18.30000 30.83200
H  -4.33100 19.84100 30.50500
H  -3.82400 19.18800 32.01100
H  -0.45500 16.19200 30.81400
H  -1.51600 15.25400 31.79400
H  -1.88900 17.62600 33.04400
H  -0.10200 17.42900 32.62900
H  -2.96000 22.47800 28.14200
H  -3.35900 23.14600 26.55500
H  -1.67000 23.29300 27.24400
H  -2.81700 24.39300 24.72700
H  -1.62000 24.77400 23.56000
H  -1.11600 24.18000 25.17500
H  -0.99200 17.97000 20.95300
H  -3.29400 15.91100 21.26600
H  -3.66400 19.04100 21.01900
H  -3.29700 17.94700 19.65900
H  -2.24200 19.35400 19.98700
H  -0.59400 14.84300 21.47600
H  -0.49000 15.85200 20.12900
H  -1.24600 13.62900 19.23900
H  -2.55000 14.89900 19.11800
H  -2.67100 13.69900 20.32700
H  -4.19000 11.74900 24.61100
H  -2.79800 11.03300 25.32000
H  -2.53100 11.85900 23.81000
H  -3.33200 13.52700 29.85500
H  0.20500 11.47700 31.92200
H  -0.90000 12.24600 32.90700
H  0.16100 13.21800 32.02700
Mg 26.39500 49.61500 26.74700
C  24.15900 50.77400 29.21100
C  28.77600 48.94500 29.10000
C  28.70100 48.91500 24.15300
C  24.21700 50.65300 24.44100
N  26.44900 49.78400 28.88800
C  25.39900 50.21900 29.69600
C  25.76400 50.16300 31.20200
C  27.27700 49.73400 31.17600
C  27.52300 49.35500 29.64200
C  28.26700 50.83200 31.64400
C  24.92600 49.20200 32.09700
C  24.60600 49.73600 33.52900
H  24.58000 48.73700 34.69300
N  28.40100 48.98200 26.65500
C  29.22300 48.85200 27.74300
C  30.47900 48.47000 27.34900
C  30.58800 48.63900 25.96300
C  29.16500 48.83500 25.53400
C  31.73500 48.24700 28.25700
C  31.79400 48.55000 25.00900
O  31.58100 48.87700 23.81400
C  33.20800 48.39100 25.36000
N  26.50900 49.87000 24.62000
C  27.44300 49.38800 23.77800
C  26.93400 49.34100 22.28000
C  25.47600 49.98300 22.44900
C  25.35800 50.13000 23.92200
C  27.87800 49.87500 21.25200
C  24.39300 49.00600 21.80600
C  23.25800 49.62600 20.92800
N  24.66600 50.67500 26.81300
C  23.79400 50.91000 25.73600
C  22.59900 51.58700 26.15500
C  22.66700 51.57300 27.57600
C  23.90400 50.98400 27.89400
C  21.51000 52.16200 25.21800
C  21.99300 51.91500 28.86800
O  20.98600 52.56500 29.16500
C  22.98600 51.32600 29.98300
C  23.31800 52.50200 30.90200
O  24.17500 53.38200 30.75300
O  22.73400 52.29200 32.07100
C  22.84300 53.35200 33.12800
H  29.58600 48.84400 29.82500
H  29.43800 48.55100 23.43400
H  23.40400 50.80100 23.72700
H  25.62800 51.19600 31.52100
H  27.56500 48.92400 31.84600
H  28.99300 50.38800 32.32600
H  27.87300 51.69000 32.19000
H  28.88300 51.08900 30.78300
H  25.49300 48.27700 32.20300
H  23.96400 49.03000 31.61500
H  23.64600 50.22300 33.35700
H  25.38900 50.46500 33.73300
H  32.06900 47.20900 28.26300
H  31.42500 48.60700 29.23800
H  32.56900 48.86300 27.91800
H  33.38800 47.82600 26.27500
H  33.62300 49.39600 25.43800
H  33.78700 47.82700 24.62900
H  26.75700 48.30400 21.99400
H  25.47200 50.97300 21.99300
H  28.75700 50.44400 21.55600
H  27.27500 50.55500 20.65000
H  28.16600 49.12300 20.51700
H  23.86500 48.48800 22.60700
H  24.87500 48.25200 21.18400
H  23.61700 50.55700 20.49100
H  22.45800 49.92300 21.60600
H  22.81300 48.96300 20.18600
H  21.33600 51.42800 24.43100
H  21.83900 53.06200 24.69800
H  20.60300 52.21900 25.81800
H  22.59800 50.49700 30.57400
H  23.81600 53.31100 33.61700
H  22.05700 53.20800 33.86900
H  22.67200 54.36300 32.75600

