158

Mg 25.35800 -6.30900 46.83200
C  27.08500 -3.53800 45.76200
C  22.74300 -5.54200 44.73200
C  24.09400 -9.41300 47.46400
C  28.37300 -7.27900 48.59000
N  25.02000 -4.84500 45.24200
C  25.85600 -3.74500 45.06000
C  25.12100 -2.64300 44.15800
C  23.76900 -3.42400 43.85500
C  23.81200 -4.64200 44.66000
C  22.50700 -2.48300 44.12400
C  25.99000 -2.46100 42.80200
C  26.61700 -1.09400 42.51300
H  26.56400 -0.60400 41.06400
N  23.58400 -7.21000 46.35100
C  22.71300 -6.79100 45.42200
C  21.60500 -7.73100 45.34100
C  21.83400 -8.75100 46.30200
C  23.20400 -8.49200 46.75800
C  20.44800 -7.64500 44.29800
C  20.85200 -9.87300 46.64600
O  19.72300 -9.95100 46.17300
C  21.16500 -10.73400 47.79000
N  26.15900 -8.16900 47.82000
C  25.42900 -9.25400 47.92000
C  26.28600 -10.41000 48.50700
C  27.42800 -9.58900 49.21700
C  27.35200 -8.22200 48.48900
C  25.46600 -11.21100 49.57400
C  28.83700 -10.27700 49.24200
C  29.48900 -10.34600 50.58700
N  27.38700 -5.66900 47.12600
C  28.40100 -6.12900 47.88200
C  29.49700 -5.10800 47.92000
C  28.96000 -3.98900 47.18900
C  27.72300 -4.47300 46.59100
C  30.84100 -5.19700 48.68100
C  29.17000 -2.64500 46.74600
O  30.05800 -1.85400 46.99200
C  28.01100 -2.30900 45.77500
C  27.34500 -1.03200 46.31100
O  27.13200 -0.04900 45.62700
O  26.95600 -1.18900 47.67200
C  26.28400 -0.01700 48.31200
H  21.95100 -5.24500 44.04100
H  23.76300 -10.45200 47.52800
H  29.24400 -7.54100 49.19400
H  24.88700 -1.74700 44.73300
H  23.67300 -3.81400 42.84200
H  22.67600 -1.47400 43.74800
H  22.22700 -2.50800 45.17700
H  21.76700 -2.89200 43.43600
H  25.35400 -2.50800 41.91900
H  26.81100 -3.16100 42.64800
H  27.65500 -1.23000 42.81600
H  26.19300 -0.35500 43.19300
H  20.74500 -8.02700 43.32200
H  20.02200 -6.64200 44.28600
H  19.60900 -8.33700 44.36900
H  20.30300 -11.27800 48.17500
H  21.50600 -10.17600 48.66200
H  21.89600 -11.40900 47.34500
H  26.49300 -11.12600 47.71300
H  27.02800 -9.59200 50.23100
H  25.98400 -11.47800 50.49500
H  25.22200 -12.21300 49.22100
H  24.50300 -10.73100 49.74500
H  29.53700 -9.64800 48.69200
H  28.86200 -11.24300 48.73800
H  29.90800 -11.35200 50.54400
H  28.80500 -10.28800 51.43300
H  30.28800 -9.60700 50.65500
H  31.62700 -4.67300 48.13700
H  31.08500 -6.25200 48.81100
H  30.84500 -4.65900 49.62800
H  28.51400 -2.13800 44.82400
H  25.29100 -0.26900 48.68500
H  26.24000 0.86800 47.67700
H  26.90500 0.18700 49.18400
Mg -2.47400 35.14300 26.40100
C  -4.13300 33.36200 28.81200
C  -1.24400 37.26200 28.81900
C  -1.55700 37.34700 23.94300
C  -4.17100 33.27100 24.00600
N  -2.62800 35.21300 28.54600
C  -3.18300 34.29200 29.37400
C  -2.89800 34.63900 30.91500
C  -2.12700 36.00300 30.87100
C  -1.97000 36.21400 29.29000
C  -2.61800 37.19700 31.69800
C  -2.00700 33.53300 31.61200
C  -2.75700 32.62200 32.66200
H  -2.22200 32.50200 34.12400
N  -1.36700 37.01000 26.33200
C  -0.92800 37.67900 27.47000
C  0.08900 38.70300 26.99800
C  -0.10600 38.74200 25.53900
C  -1.05000 37.69100 25.17000
C  0.95700 39.45000 28.03100
C  0.54000 39.65000 24.51500
O  0.39800 39.66600 23.30400
C  1.46900 40.60800 24.98100
N  -2.94300 35.39600 24.34900
C  -2.43800 36.33500 23.51800
C  -2.99000 36.27000 22.08400
C  -3.71900 34.85300 22.15700
C  -3.47000 34.43400 23.59000
C  -3.96800 37.45500 21.74400
C  -2.99700 33.85200 21.11900
C  -1.70200 32.99800 21.45600
N  -3.75700 33.51000 26.34800
C  -4.31000 32.80400 25.31900
C  -5.05900 31.74900 25.88500
C  -4.97300 31.92300 27.23200
C  -4.23400 33.03500 27.49100
C  -5.86700 30.76300 25.12700
C  -5.44900 31.31800 28.48000
O  -6.14800 30.32600 28.65600
C  -4.78100 32.19500 29.62800
C  -5.85300 32.62400 30.58900
O  -6.60400 33.62300 30.45800
O  -6.02900 31.69200 31.59700
C  -6.91800 32.16800 32.67200
H  -0.81500 37.97300 29.52800
H  -1.33800 38.09500 23.17800
H  -4.74600 32.76100 23.23100
H  -3.86100 34.72600 31.41800
H  -1.11000 35.82100 31.21800
H  -1.83900 37.37900 32.43900
H  -3.51700 36.88700 32.23000
H  -2.85700 38.05700 31.07400
H  -1.12500 33.94400 32.10300
H  -1.66100 32.83700 30.84600
H  -2.82600 31.59600 32.30200
H  -3.78200 32.96800 32.79800
H  0.64400 40.49300 28.06900
H  1.98500 39.56600 27.68800
H  0.83600 39.12000 29.06300
H  2.32200 40.00000 25.28400
H  1.11100 41.08000 25.89600
H  1.77300 41.28100 24.17900
H  -2.18000 36.40900 21.36800
H  -4.78500 34.97800 21.96500
H  -4.26700 38.05600 22.60300
H  -4.89200 37.23900 21.20700
H  -3.42500 38.18800 21.14700
H  -2.87600 34.44200 20.21000
H  -3.82500 33.18700 20.87400
H  -1.00300 32.83800 20.63500
H  -2.05300 31.97700 21.60400
H  -1.28200 33.39700 22.38000
H  -5.20600 30.31500 24.38500
H  -6.62200 31.27800 24.53300
H  -6.38300 30.02000 25.73400
H  -3.95200 31.77300 30.19500
H  -6.17300 32.71300 33.25100
H  -7.30600 31.33700 33.26100
H  -7.71300 32.87200 32.42300

