158

Mg 24.47100 -6.58700 47.78800
C  27.01100 -4.21200 46.88500
C  22.35900 -4.88900 45.67700
C  22.39600 -9.08500 48.27800
C  26.97300 -8.28800 49.62300
N  24.77100 -4.86600 46.21900
C  25.84800 -4.05700 46.15400
C  25.58600 -2.90600 45.13100
C  23.91500 -2.86500 45.27500
C  23.58300 -4.30100 45.74500
C  23.28300 -1.71500 46.09600
C  26.23600 -3.26400 43.72500
C  27.26500 -2.24100 43.11600
H  27.36900 -2.32200 41.61200
N  22.60200 -6.94600 47.06000
C  21.87800 -6.14800 46.12400
C  20.63700 -6.80900 45.84000
C  20.53000 -8.00400 46.67200
C  21.90300 -8.07900 47.43300
C  19.71100 -6.41800 44.78300
C  19.39400 -8.94100 46.76400
O  18.41500 -8.67900 46.07700
C  19.37300 -10.23700 47.58300
N  24.74600 -8.50700 48.70300
C  23.67500 -9.27000 48.85200
C  23.94200 -10.50900 49.62800
C  25.35800 -10.18400 50.34200
C  25.74300 -8.95800 49.55500
C  22.85600 -11.02100 50.64400
C  26.42100 -11.34900 50.40200
C  27.06500 -11.36300 51.79500
N  26.52100 -6.33000 48.29100
C  27.44100 -7.11700 49.00900
C  28.75100 -6.46200 49.02700
C  28.56700 -5.36700 48.18300
C  27.28100 -5.36500 47.73000
C  29.95700 -6.96900 49.80000
C  29.25300 -4.10700 47.75300
O  30.31100 -3.61500 48.10200
C  28.30800 -3.34600 46.78600
C  28.17600 -1.88300 47.21100
O  27.74600 -1.40500 48.28400
O  28.43400 -1.12100 46.11000
C  27.98100 0.22000 46.25600
H  21.63300 -4.25300 45.16500
H  21.77400 -9.92900 48.58300
H  27.73000 -8.91500 50.09800
H  26.01300 -2.04300 45.64100
H  23.53400 -2.80200 44.25600
H  24.01200 -0.91100 46.20300
H  23.03200 -2.11900 47.07600
H  22.36200 -1.33800 45.65200
H  25.41300 -3.10000 43.03000
H  26.60500 -4.28600 43.63700
H  28.26400 -2.41400 43.51500
H  27.02100 -1.23200 43.44900
H  19.38200 -7.24100 44.14900
H  20.22000 -5.67500 44.17100
H  18.86600 -5.93500 45.27400
H  19.62800 -9.95600 48.60500
H  19.93700 -11.02700 47.08700
H  18.35100 -10.60900 47.65500
H  24.06600 -11.31600 48.90600
H  25.19400 -9.72700 51.31800
H  23.44500 -11.36300 51.49500
H  22.37300 -11.90200 50.22300
H  22.13100 -10.23100 50.83800
H  27.21100 -11.03600 49.72000
H  26.09500 -12.28300 49.94500
H  27.19700 -12.40600 52.08300
H  26.43800 -10.93400 52.57600
H  28.00400 -10.81700 51.69900
H  29.56300 -7.32300 50.75200
H  30.74600 -6.22100 49.87900
H  30.40300 -7.84400 49.32800
H  28.72000 -3.39100 45.77700
H  28.41500 0.65500 45.35500
H  28.44600 0.77900 47.06800
H  26.90200 0.36100 46.30400
Mg 25.81500 0.15000 29.41200
C  27.57800 0.14300 32.34600
C  22.88800 0.43000 31.16400
C  24.17600 0.03600 26.51500
C  28.85300 -0.47800 27.75000
N  25.37100 0.33100 31.46800
C  26.27400 0.43300 32.55700
C  25.57700 0.91700 33.89300
C  24.04300 0.98700 33.41200
C  24.08500 0.48000 31.96500
C  22.94000 0.29400 34.34700
C  26.14100 2.26100 34.43900
C  25.32800 2.81500 35.63800
H  26.03600 2.79300 36.98200
N  23.77100 0.23500 28.94800
C  22.68200 0.33500 29.74200
C  21.45600 0.40200 29.01600
C  21.88100 0.49600 27.68800
C  23.35500 0.21900 27.67200
C  20.07600 0.54800 29.53800
C  21.03800 0.80600 26.44700
O  21.45500 0.87100 25.25900
C  19.60300 1.06200 26.62100
N  26.44200 -0.30200 27.37000
C  25.51400 -0.20300 26.36300
C  26.28600 -0.34700 25.07100
C  27.75300 -0.25400 25.42900
C  27.69600 -0.44500 26.93600
C  25.83600 -1.66700 24.47200
C  28.33500 1.22000 24.95500
C  29.88700 1.28100 24.75700
N  27.74900 -0.32900 29.93300
C  28.85100 -0.54600 29.12600
C  30.03400 -0.75600 29.95200
C  29.57700 -0.48000 31.25300
C  28.22000 -0.13200 31.17000
C  31.36300 -1.16300 29.47600
C  29.91900 -0.33000 32.67100
O  30.93400 -0.60100 33.29600
C  28.66500 0.09200 33.38300
C  28.39700 -0.99300 34.33100
O  27.63300 -1.92400 34.11600
O  29.09700 -0.76800 35.46000
C  28.91200 -1.66700 36.60100
H  21.96400 0.60900 31.71800
H  23.68200 -0.05600 25.54500
H  29.81400 -0.51100 27.23300
H  25.51500 0.16700 34.68100
H  23.81900 2.05100 33.33200
H  22.30300 1.08500 34.74200
H  23.34400 -0.30000 35.16700
H  22.37200 -0.43400 33.76800
H  26.31400 2.91100 33.58100
H  27.13100 2.00300 34.81600
H  24.35900 2.32300 35.72500
H  25.09200 3.86100 35.44200
H  19.37900 -0.22600 29.22000
H  19.59500 1.50900 29.35400
H  20.16800 0.47000 30.62200
H  18.98800 1.13200 25.72500
H  19.55600 2.06300 27.05000
H  19.14400 0.27100 27.21500
H  25.93900 0.55500 24.56600
H  28.39100 -1.05300 25.05100
H  26.60500 -2.41900 24.30000
H  25.26400 -1.47400 23.56400
H  25.09600 -2.13200 25.12300
H  27.98400 2.06700 25.54400
H  27.85500 1.49000 24.01500
H  30.13300 1.32900 23.69700
H  30.39300 0.42400 25.20200
H  30.35700 2.13700 25.24200
H  31.65400 -2.20900 29.57700
H  32.07100 -0.69600 30.16100
H  31.62800 -0.81000 28.48000
H  28.74500 1.07800 33.84000
H  29.16400 -1.13700 37.52000
H  29.62500 -2.49200 36.60400
H  27.90600 -2.07800 36.67800

