158

Mg 45.37800 5.58200 47.15600
C  43.39200 8.45300 46.38200
C  42.82100 3.76700 46.08400
C  47.49100 3.03200 46.89000
C  48.02000 7.91700 47.57600
N  43.40900 6.04300 46.23300
C  42.80700 7.25100 46.05300
C  41.40000 7.12900 45.46300
C  41.09600 5.64700 45.92500
C  42.49900 5.08100 46.12600
C  40.22200 5.61800 47.21400
C  41.46700 7.18100 43.89700
C  40.48400 8.03600 43.11400
H  40.85400 8.73200 41.73100
N  45.18200 3.54500 46.75700
C  43.99900 2.97900 46.39800
C  44.12300 1.57900 46.20400
C  45.51100 1.29300 46.44700
C  46.15500 2.61500 46.70500
C  43.11500 0.61700 45.71900
C  46.19000 -0.01600 46.34300
O  45.54100 -1.02100 46.01700
C  47.65100 -0.25700 46.52600
N  47.34900 5.58000 47.16200
C  48.01400 4.35000 47.17800
C  49.48000 4.47700 47.55000
C  49.64600 6.04800 47.68800
C  48.25900 6.55600 47.48100
C  49.89400 3.62100 48.81200
C  50.62300 6.66800 46.58100
C  51.98600 7.12100 47.07400
N  45.70600 7.81200 47.07800
C  46.80200 8.57600 47.32600
C  46.40800 9.95700 47.32200
C  45.09300 9.92200 46.98500
C  44.72100 8.59800 46.84900
C  47.28400 11.17100 47.41500
C  43.89200 10.76200 46.78900
O  43.79200 11.93100 46.95000
C  42.73400 9.81400 46.28200
C  41.64300 9.89600 47.28400
O  41.69500 9.49900 48.44300
O  40.66900 10.68100 46.79300
C  39.66900 11.03900 47.83000
H  41.93200 3.17800 45.84800
H  48.23700 2.24000 46.79300
H  48.89700 8.52000 47.81900
H  40.67600 7.85500 45.83300
H  40.44200 5.14100 45.21500
H  39.78600 6.58900 47.45000
H  40.72300 5.41100 48.15900
H  39.41200 4.89500 47.11400
H  41.38100 6.17900 43.47600
H  42.43900 7.60500 43.64400
H  40.35400 8.84400 43.83400
H  39.44100 7.72800 43.05100
H  42.13400 1.05600 45.90300
H  43.32500 -0.28700 46.29000
H  43.26200 0.51800 44.64400
H  47.84800 -0.04000 47.57600
H  48.27300 0.22500 45.77200
H  47.77600 -1.33100 46.38800
H  50.09500 4.11600 46.72500
H  49.89000 6.29600 48.72000
H  48.91700 3.28700 49.16100
H  50.59800 3.97700 49.56400
H  50.32000 2.73500 48.34100
H  50.12800 7.57700 46.23800
H  50.77800 6.03100 45.71100
H  52.13000 6.51000 47.96500
H  51.99800 8.20700 47.16800
H  52.77400 6.97400 46.33500
H  46.68200 12.07900 47.41600
H  47.97100 11.11300 46.57100
H  47.83800 11.09600 48.35100
H  42.41000 10.17300 45.30500
H  39.04500 11.68200 47.20900
H  40.13600 11.52300 48.68800
H  39.09100 10.16800 48.13800
Mg 6.21600 54.11800 40.93300
C  3.93500 51.38700 40.97600
C  8.61400 51.84900 40.03500
C  8.22600 56.67700 40.57700
C  3.37500 56.38900 41.32700
N  6.17700 51.96600 40.42300
C  5.13300 51.11100 40.36200
C  5.57000 49.75500 39.71800
C  7.14700 49.84400 39.69700
C  7.32400 51.31100 40.19900
C  7.84400 48.81000 40.51700
C  4.86300 49.52400 38.29500
C  4.30400 48.10600 38.03500
H  4.97500 47.37000 36.87200
N  8.17800 54.22700 40.31100
C  8.96700 53.19900 39.96100
C  10.29600 53.79600 39.70000
C  10.16300 55.21100 39.85600
C  8.77400 55.44100 40.20100
C  11.49300 52.95900 39.36500
C  11.40400 56.19700 39.60600
O  12.49800 55.72200 39.37400
C  11.20400 57.61400 39.66500
N  5.73900 56.28800 40.73500
C  6.83600 57.11000 40.75000
C  6.41000 58.54800 40.96700
C  4.87000 58.40300 41.26700
C  4.63000 56.93000 41.05300
C  7.15800 59.25500 42.07900
C  3.95900 59.35200 40.47100
C  2.99900 60.16100 41.25200
N  4.06500 54.03100 41.19000
C  3.13400 54.98500 41.42300
C  1.88500 54.36400 41.66700
C  2.07500 52.89100 41.57200
C  3.47900 52.75400 41.18100
C  0.53600 55.10800 41.91800
C  1.49100 51.60100 41.70000
O  0.39100 51.27300 42.13300
C  2.65300 50.55100 41.35300
C  2.25900 49.43800 40.35600
O  1.67900 49.66900 39.29400
O  2.57800 48.18800 40.78200
C  1.87600 46.98000 40.17400
H  9.34000 51.05300 39.85900
H  8.98300 57.46300 40.52700
H  2.53700 57.08900 41.36600
H  5.36300 48.92300 40.39100
H  7.58600 49.73100 38.70700
H  8.15900 49.07400 41.52600
H  8.69700 48.37400 39.99800
H  7.26200 47.90100 40.66500
H  5.63800 49.68200 37.54500
H  4.07000 50.25600 38.14200
H  3.22100 48.22500 37.98100
H  4.58200 47.55500 38.93400
H  12.06100 53.46500 38.58500
H  11.28800 51.95200 39.00000
H  12.14300 52.71500 40.20500
H  10.35800 57.87700 39.02900
H  12.12800 58.02500 39.26000
H  11.09200 57.91400 40.70700
H  6.67300 59.08300 40.05600
H  4.64100 58.55300 42.32200
H  7.86600 59.98700 41.69000
H  7.79900 58.54300 42.60000
H  6.57500 59.73400 42.86500
H  3.46900 58.78000 39.68300
H  4.59900 60.07900 39.97200
H  3.18700 61.20300 40.99200
H  3.06400 60.03500 42.33200
H  1.96900 60.02600 40.92200
H  -0.29200 54.55600 41.47400
H  0.49000 56.14700 41.59300
H  0.26500 55.09500 42.97400
H  2.87700 50.19500 42.35800
H  1.00300 47.15300 39.54500
H  1.45000 46.41100 41.00000
H  2.53300 46.33300 39.59300

