158

Mg 35.02100 2.24800 30.19800
C  32.64400 3.30200 32.45500
C  37.44800 2.60500 32.55800
C  37.17400 1.63900 27.72600
C  32.41300 2.24900 27.81700
N  35.02500 2.87700 32.22700
C  33.94200 3.10200 32.99900
C  34.26400 3.36700 34.40900
C  35.83600 3.31900 34.47600
C  36.16000 3.00300 32.93000
C  36.49100 4.62100 35.03900
C  33.54200 2.47300 35.50800
C  33.02200 3.22100 36.75500
H  33.83800 4.33000 37.43100
N  37.00200 2.04500 30.13500
C  37.86400 2.12900 31.26600
C  39.22900 1.87800 30.85400
C  39.19900 1.59700 29.47400
C  37.75400 1.76800 29.01800
C  40.37600 1.76900 31.81800
C  40.37100 1.32600 28.48800
O  40.22800 1.26900 27.29400
C  41.71500 1.42200 28.98800
N  34.85300 2.15500 27.99200
C  35.89200 1.73800 27.25900
C  35.41500 1.36500 25.72400
C  33.88800 1.43700 25.91700
C  33.73200 1.96500 27.34600
C  35.83700 2.21800 24.45700
C  33.16700 0.07200 25.67400
C  33.07200 -0.23200 24.15500
N  32.92300 2.57700 30.08300
C  32.00700 2.58200 28.99500
C  30.74200 2.99200 29.49900
C  30.95800 3.34200 30.84500
C  32.26900 3.00200 31.17600
C  29.57300 3.17900 28.69500
C  30.36700 4.00100 31.95800
O  29.25900 4.52300 32.11800
C  31.45000 3.80900 33.15900
C  31.52100 5.09800 33.92900
O  32.28500 6.03900 33.64100
O  30.62200 5.13900 34.97400
C  30.57400 6.36000 35.81500
H  38.15500 2.67200 33.38800
H  37.82300 1.21300 26.95800
H  31.57700 2.14900 27.12200
H  34.06800 4.42300 34.59400
H  36.10800 2.46100 35.09000
H  36.09700 5.57200 34.68000
H  37.53500 4.64600 34.72800
H  36.48700 4.58600 36.12800
H  34.23600 1.74600 35.93100
H  32.70700 2.02500 34.96900
H  32.69200 2.42700 37.42500
H  32.14100 3.66400 36.29000
H  39.91300 1.82200 32.80400
H  41.12800 2.52800 31.60000
H  40.79100 0.78500 31.59800
H  41.85100 2.46300 29.28200
H  42.54300 1.17200 28.32500
H  41.80400 0.76500 29.85300
H  35.70700 0.32400 25.58500
H  33.35000 2.17100 25.31700
H  36.61400 1.67000 23.92300
H  36.17100 3.08400 25.02800
H  34.99200 2.59300 23.88000
H  32.13500 0.19000 26.00600
H  33.68600 -0.72600 26.20500
H  33.42000 0.60000 23.54300
H  32.12600 -0.67800 23.84600
H  33.82500 -1.00200 23.98900
H  29.04600 4.05200 29.07900
H  28.93400 2.31900 28.89400
H  29.79300 3.29600 27.63400
H  31.08800 3.00600 33.80200
H  29.60500 6.79500 35.56800
H  31.31300 7.12900 35.59000
H  30.72500 6.04800 36.84900
Mg 46.14900 25.05200 29.44100
C  46.96700 27.36700 31.94500
C  45.05700 22.87700 31.75000
C  45.77600 22.90000 26.98800
C  47.84400 27.26700 27.18500
N  45.89800 25.17000 31.52200
C  46.34300 26.21600 32.40300
C  46.04900 25.91100 33.86000
C  45.49000 24.44100 33.79300
C  45.44900 24.11100 32.24100
C  46.10500 23.33300 34.72500
C  44.97900 26.94000 34.48100
C  45.26000 27.54200 35.82500
H  45.74100 26.67200 36.99100
N  45.29100 23.19500 29.33500
C  44.89200 22.44000 30.39700
C  44.30500 21.25800 29.88500
C  44.35400 21.22500 28.50000
C  45.16700 22.45700 28.18500
C  43.64400 20.27400 30.83500
C  43.80300 20.16300 27.48100
O  43.98100 20.24500 26.25800
C  42.94200 18.99900 28.01600
N  46.75800 25.13900 27.38800
C  46.44600 24.05600 26.63400
C  46.93700 24.30100 25.18100
C  47.53400 25.70000 25.20500
C  47.37100 26.12600 26.66200
C  47.85800 23.20600 24.51600
C  46.81600 26.68300 24.29100
C  47.04100 26.49300 22.79600
N  47.10300 26.92600 29.44600
C  47.76400 27.63200 28.47800
C  48.32400 28.84500 28.96400
C  48.00500 28.84300 30.34900
C  47.24200 27.63200 30.60000
C  49.00400 29.86600 28.08500
C  48.23600 29.53500 31.59900
O  48.78900 30.62400 31.81600
C  47.54600 28.59100 32.64000
C  48.65100 28.41100 33.61400
O  49.73300 28.00300 33.42100
O  48.27700 28.87400 34.82400
C  49.17000 28.71000 35.97400
H  44.65100 22.23500 32.53500
H  45.61700 22.31000 26.08200
H  48.56900 27.69900 26.49200
H  47.01600 25.88200 34.36300
H  44.42100 24.51100 33.99500
H  45.34400 22.64500 35.09300
H  46.59600 23.90400 35.51400
H  46.97400 23.03300 34.14000
H  44.09000 26.31000 34.46900
H  44.72600 27.69000 33.73100
H  44.28000 27.88100 36.16100
H  45.95800 28.34900 35.60300
H  42.55400 20.29700 30.83400
H  43.97000 20.49100 31.85200
H  43.97500 19.27000 30.57200
H  43.45300 18.40900 28.77700
H  42.64200 18.34900 27.19400
H  42.01900 19.15400 28.57500
H  46.02800 24.35900 24.58200
H  48.55600 25.63700 24.82900
H  48.31300 22.52900 25.23900
H  48.69300 23.62300 23.95300
H  47.21000 22.67200 23.82100
H  47.09700 27.71300 24.50900
H  45.74800 26.52700 24.44300
H  47.77600 25.69700 22.67900
H  47.51600 27.37400 22.36400
H  46.12700 26.15300 22.30900
H  48.25600 30.28600 27.41200
H  49.91900 29.52300 27.60200
H  49.32000 30.71200 28.69500
H  46.67700 29.14300 32.99800
H  49.63600 27.73600 35.82200
H  48.56300 28.58100 36.87100
H  49.99600 29.41500 36.06200

