158

Mg 25.81700 -0.39300 29.98000
C  27.57900 -0.32700 32.84400
C  22.89300 0.25800 31.63400
C  24.12700 -0.41900 26.90200
C  28.81400 -1.12200 28.09700
N  25.31300 -0.02300 31.96300
C  26.21600 -0.05400 33.08000
C  25.60900 0.31400 34.38700
C  24.12400 0.54400 33.97300
C  24.07600 0.18700 32.41200
C  23.02100 -0.18900 34.79700
C  26.30500 1.56200 35.12900
C  26.82700 1.25600 36.56800
H  26.55200 2.39800 37.57300
N  23.72300 -0.19000 29.36000
C  22.68500 0.17000 30.19800
C  21.48800 0.32000 29.43100
C  21.81500 -0.04300 28.09900
C  23.26300 -0.30000 28.06700
C  20.12400 0.75700 30.04900
C  20.87400 -0.02900 26.78200
O  21.31300 -0.17200 25.68400
C  19.44100 0.27600 26.89900
N  26.39000 -0.74800 27.84600
C  25.53600 -0.54100 26.81000
C  26.21600 -0.50800 25.43500
C  27.72300 -0.59400 25.80500
C  27.65000 -0.89400 27.33900
C  25.68700 -1.61600 24.46000
C  28.56900 0.59400 25.38500
C  27.95100 1.96400 25.07700
N  27.72400 -0.71000 30.34700
C  28.86800 -1.05300 29.50900
C  30.06300 -1.08500 30.44600
C  29.57100 -0.79400 31.68400
C  28.16900 -0.60500 31.57900
C  31.50200 -1.41000 30.10200
C  30.03700 -0.67200 33.09900
O  31.19100 -0.72700 33.48600
C  28.75900 -0.36600 33.89400
C  28.62000 -1.46300 34.87500
O  27.71300 -2.25400 34.93300
O  29.62700 -1.35200 35.81100
C  29.45000 -1.99700 37.11400
H  22.01000 0.53800 32.21300
H  23.61600 -0.16200 25.97200
H  29.84200 -1.21900 27.74300
H  25.70000 -0.52900 35.07100
H  23.89500 1.60700 34.03600
H  23.40500 -0.35900 35.80300
H  22.80500 -1.15300 34.33600
H  22.09700 0.37100 34.93900
H  25.59000 2.37500 35.25700
H  27.09100 2.02400 34.53000
H  27.91600 1.21100 36.58500
H  26.53400 0.25200 36.87700
H  19.24200 0.18100 29.76900
H  19.89300 1.77300 29.72700
H  20.18500 0.84400 31.13400
H  18.89500 -0.46100 27.48700
H  19.12300 0.55600 25.89500
H  19.37700 1.21200 27.45400
H  25.97200 0.41700 24.91200
H  28.22200 -1.45500 25.36000
H  25.50600 -2.59600 24.90200
H  26.47300 -1.68100 23.70800
H  24.79300 -1.22400 23.97500
H  29.04300 0.32900 24.44000
H  29.38500 0.75900 26.08900
H  28.20000 2.36500 24.09500
H  28.41700 2.69600 25.73700
H  26.86800 2.05000 25.15500
H  31.52400 -1.90200 29.13000
H  31.91700 -2.21400 30.71000
H  32.07600 -0.48400 30.06600
H  28.94100 0.55100 34.45400
H  29.48700 -3.08600 37.07800
H  28.60800 -1.64900 37.71200
H  30.27800 -1.76200 37.78300
Mg 29.81900 58.65000 39.04000
C  27.02900 56.70100 38.14800
C  31.85600 56.01500 38.50900
C  32.38300 60.81100 39.13500
C  27.61700 61.35000 39.30200
N  29.46200 56.66000 38.02300
C  28.18700 56.03800 37.92000
C  28.40800 54.57500 37.51500
C  29.83100 54.25500 38.20400
C  30.46300 55.72700 38.25000
C  29.77300 53.57800 39.59100
C  28.41700 54.44700 35.96000
C  27.23300 53.67100 35.30200
H  26.21700 54.48700 34.43700
N  31.97000 58.40600 39.01700
C  32.59600 57.25900 38.73100
C  34.01500 57.46200 38.75700
C  34.26200 58.82400 39.05700
C  32.86800 59.42000 39.01900
C  34.96500 56.34700 38.67700
C  35.51000 59.52600 39.17500
O  36.59500 59.01800 38.99900
C  35.56000 60.92000 39.51100
N  30.02300 60.76300 39.45200
C  31.18200 61.43700 39.29300
C  30.95700 62.96400 39.45200
C  29.48000 63.11600 39.61400
C  29.01400 61.64300 39.45600
C  31.83700 63.58900 40.61200
C  28.75100 64.08000 38.64600
C  28.15300 65.29000 39.18800
N  27.73900 59.05700 38.82400
C  26.98800 60.15100 38.98600
C  25.64700 59.86200 38.85200
C  25.55000 58.56700 38.51900
C  26.87900 58.07300 38.51800
C  24.50900 60.74700 39.22100
C  24.69300 57.47200 38.28000
O  23.47200 57.41900 38.19300
C  25.58300 56.21300 38.01500
C  25.17400 55.10900 38.94400
O  25.32000 55.10700 40.15400
O  24.57700 54.12200 38.19100
C  23.89100 52.95100 38.78400
H  32.44600 55.09700 38.46400
H  33.17100 61.55100 39.28900
H  26.93600 62.16000 39.57400
H  27.57500 53.93100 37.79900
H  30.45000 53.53600 37.66800
H  30.47200 52.74500 39.66800
H  28.78500 53.11900 39.57100
H  29.90000 54.23200 40.45400
H  29.28500 53.84300 35.69700
H  28.55300 55.45500 35.56800
H  26.66300 53.11200 36.04500
H  27.66700 52.88100 34.68800
H  35.92100 56.65500 39.10000
H  35.16300 56.16400 37.62100
H  34.53800 55.47800 39.17800
H  36.57500 61.22700 39.76500
H  34.85800 61.27200 40.26700
H  35.38700 61.48000 38.59200
H  31.26400 63.40200 38.50300
H  29.18900 63.32200 40.64400
H  31.94100 64.66900 40.50300
H  32.82100 63.14000 40.48200
H  31.27300 63.34100 41.51100
H  27.94800 63.61900 38.07100
H  29.51400 64.40800 37.94000
H  28.64200 66.09000 38.63300
H  28.51800 65.42500 40.20700
H  27.07200 65.31900 39.05300
H  24.88700 61.44300 39.97000
H  23.61300 60.17900 39.47200
H  24.24400 61.45900 38.43900
H  25.47900 55.90900 36.97400
H  23.15500 52.46500 38.14300
H  23.31900 53.12500 39.69500
H  24.66500 52.23400 39.06100

