158

Mg 1.58700 8.56200 27.68800
C  2.00100 10.89100 30.37500
C  1.28700 6.02200 30.19900
C  0.94600 6.57600 25.27200
C  1.38400 11.29600 25.58100
N  1.84500 8.50800 30.01200
C  1.89900 9.57900 30.96800
C  1.68200 9.10100 32.37900
C  1.77400 7.51500 32.25500
C  1.57200 7.32000 30.73000
C  3.03200 6.81300 32.71100
C  0.29500 9.76600 32.87800
C  0.01700 9.60100 34.42900
H  1.05000 8.92700 35.23500
N  1.31100 6.56400 27.67900
C  1.17700 5.70700 28.82000
C  0.83200 4.35500 28.29100
C  0.74100 4.46300 26.89100
C  0.98400 5.91100 26.50900
C  0.71900 3.12000 29.18000
C  0.51300 3.29100 25.87300
O  0.67300 3.49200 24.65000
C  0.09900 2.00200 26.26400
N  1.30100 8.91200 25.68100
C  1.03500 7.87500 24.87300
C  1.04000 8.29600 23.38300
C  0.77900 9.84600 23.54500
C  1.18900 10.03500 24.98900
C  2.32400 7.89500 22.59100
C  -0.65300 10.29700 23.27900
C  -0.80600 11.45000 22.32900
N  1.88000 10.64800 27.85900
C  1.75500 11.62200 26.88500
C  2.05700 12.92300 27.41200
C  2.13700 12.67200 28.80700
C  2.01800 11.23500 29.02300
C  1.80000 14.22700 26.72200
C  2.32700 13.34100 30.02800
O  2.57700 14.48700 30.32000
C  2.05400 12.20700 31.13300
C  3.01900 12.21700 32.27700
O  4.21100 11.98500 32.27200
O  2.38500 12.52700 33.38300
C  3.19600 12.40600 34.62200
H  1.20900 5.21000 30.92500
H  0.83400 5.91900 24.40700
H  1.20700 12.21000 25.01200
H  2.63000 9.50700 32.73100
H  0.89100 7.04500 32.68800
H  2.96000 5.95400 33.37900
H  3.65600 7.42300 33.36500
H  3.67900 6.42800 31.92300
H  -0.58400 9.38100 32.36200
H  0.27500 10.84000 32.69000
H  -0.90200 9.01600 34.47100
H  -0.26800 10.60200 34.75200
H  1.10100 3.32600 30.18000
H  1.28000 2.21900 28.93600
H  -0.30600 2.74900 29.19300
H  0.97500 1.36900 26.40600
H  -0.40700 1.63500 25.37200
H  -0.63100 1.96800 27.07200
H  0.22800 7.85400 22.80500
H  1.46500 10.29900 22.82900
H  2.54600 8.71100 21.90500
H  2.16500 6.94500 22.08100
H  3.11300 7.76300 23.33200
H  -0.95500 10.60300 24.28100
H  -1.35400 9.53300 22.94300
H  -1.06400 11.09700 21.33000
H  0.08700 12.07300 22.30000
H  -1.69800 11.94800 22.71000
H  0.96800 14.24900 26.01800
H  2.72100 14.43800 26.17800
H  1.56000 14.92200 27.52600
H  1.05900 12.41600 31.52500
H  3.83600 13.28700 34.67600
H  3.83100 11.52900 34.74300
H  2.45400 12.46100 35.41900
Mg -10.70400 17.20600 40.95400
C  -7.16900 17.16300 41.04600
C  -10.57800 20.56500 40.48500
C  -14.04500 17.14500 40.29600
C  -10.56000 13.71300 41.11800
N  -9.03800 18.65000 40.59000
C  -7.68900 18.42900 40.71000
C  -6.85600 19.65600 40.48900
C  -7.99300 20.75600 40.70900
C  -9.30900 19.96600 40.61700
C  -7.93000 21.63400 42.03600
C  -6.34300 19.67100 39.01700
C  -4.84100 19.46900 38.88000
H  -4.35000 18.48500 37.80900
N  -12.11400 18.66000 40.53800
C  -11.83800 19.93700 40.32300
C  -12.97000 20.66200 39.99800
C  -14.11200 19.80500 39.93300
C  -13.49700 18.46300 40.30700
C  -12.92000 22.21800 39.58200
C  -15.58500 20.16800 39.67600
O  -15.90600 21.32300 39.53500
C  -16.63600 19.20400 39.62800
N  -12.08500 15.66300 40.62700
C  -13.36500 15.87200 40.44800
C  -14.17300 14.55500 40.47600
C  -13.07200 13.49200 40.64800
C  -11.79200 14.34300 40.74100
C  -15.35700 14.53000 41.48400
C  -13.06000 12.33500 39.55700
C  -12.78900 12.74200 38.09000
N  -9.17400 15.67500 41.02300
C  -9.30400 14.32900 41.23700
C  -8.06900 13.75500 41.60400
C  -7.20200 14.86900 41.50800
C  -7.96400 15.98900 41.12700
C  -7.73100 12.30700 41.88400
C  -5.79800 15.27500 41.68400
O  -4.78000 14.67000 41.93800
C  -5.75400 16.78400 41.38100
C  -5.06100 17.50900 42.53400
O  -3.88000 17.83600 42.53600
O  -5.97100 17.74100 43.49900
C  -5.33300 18.05900 44.79400
H  -10.51600 21.65200 40.56800
H  -15.07400 17.05000 39.94200
H  -10.63200 12.64600 41.33800
H  -6.14600 19.79900 41.30400
H  -8.06300 21.47900 39.89600
H  -7.98800 22.68200 41.74100
H  -6.97400 21.49700 42.54200
H  -8.75400 21.44400 42.72400
H  -6.61500 20.64100 38.60000
H  -6.77800 18.97100 38.30400
H  -4.44000 19.21300 39.86000
H  -4.46400 20.42900 38.52800
H  -12.65600 22.23200 38.52400
H  -12.19200 22.71700 40.22100
H  -13.88700 22.70900 39.69400
H  -16.48000 18.43200 38.87500
H  -17.57800 19.71300 39.42100
H  -16.69600 18.72200 40.60400
H  -14.64200 14.33400 39.51700
H  -13.16900 13.19200 41.69200
H  -15.26700 15.25200 42.29600
H  -15.58800 13.47300 41.61700
H  -16.13000 14.81500 40.76900
H  -14.07600 11.95800 39.43600
H  -12.34900 11.65000 40.01800
H  -11.76100 12.45200 37.87000
H  -12.86700 13.82700 38.02700
H  -13.43600 12.27700 37.34700
H  -8.38100 11.89600 42.65600
H  -6.65800 12.31200 42.07500
H  -7.99400 11.74300 40.98900
H  -5.10200 16.89300 40.51300
H  -6.03100 18.48900 45.51300
H  -4.53900 18.80500 44.73600
H  -4.93900 17.15400 45.25600

