158

Mg 1.56500 -1.78000 43.43600
C  4.75100 -0.55900 42.91700
C  0.28500 1.04700 41.69100
C  -1.51900 -3.27200 43.36000
C  2.97700 -4.83300 44.48700
N  2.44900 0.08400 42.55800
C  3.78100 0.32100 42.41200
C  4.02600 1.65800 41.64100
C  2.57700 2.26300 41.51000
C  1.68000 1.01000 41.85400
C  2.25700 3.46900 42.49300
C  4.80800 1.52800 40.36200
C  5.89300 2.61000 40.11000
H  5.67100 3.51000 38.88200
N  -0.30000 -1.21500 42.65900
C  -0.61000 -0.01300 41.99300
C  -2.00400 -0.02700 41.62600
C  -2.54800 -1.22300 42.10800
C  -1.45000 -1.99800 42.71000
C  -2.78400 0.99700 40.84900
C  -4.05200 -1.50000 41.92400
O  -4.88600 -0.79600 41.37400
C  -4.66100 -2.81300 42.41300
N  0.87800 -3.79400 43.81500
C  -0.47400 -4.05600 43.88500
C  -0.80800 -5.34600 44.62600
C  0.63500 -5.94000 44.86400
C  1.55400 -4.82700 44.31500
C  -1.61200 -5.20900 45.94700
C  0.83300 -7.40000 44.27100
C  0.61100 -8.52100 45.34000
N  3.46600 -2.56300 43.79700
C  3.93200 -3.76700 44.27200
C  5.33500 -3.71700 44.45900
C  5.72900 -2.49400 43.94000
C  4.52900 -1.85000 43.54600
C  6.24500 -4.79600 44.99400
C  6.84900 -1.65000 43.56600
O  8.01800 -1.85000 43.65900
C  6.25100 -0.39600 42.89100
C  6.63300 0.78800 43.70700
O  6.20800 1.01100 44.84100
O  7.61000 1.52600 43.05300
C  8.22800 2.62800 43.70600
H  -0.10800 1.94600 41.21200
H  -2.56800 -3.50500 43.55200
H  3.43600 -5.69600 44.97300
H  4.64700 2.28600 42.28000
H  2.34200 2.67600 40.52900
H  3.20700 3.63500 43.00200
H  1.51100 3.17800 43.23200
H  1.95000 4.33600 41.90600
H  4.06500 1.80400 39.61400
H  5.08500 0.47700 40.27600
H  6.77200 2.00300 39.89200
H  5.99600 3.26300 40.97700
H  -3.17800 0.36900 40.05000
H  -2.18500 1.81900 40.45800
H  -3.63300 1.36900 41.42300
H  -4.12300 -3.66300 41.99300
H  -5.55100 -2.94900 41.79800
H  -4.75600 -2.85700 43.49800
H  -1.38500 -5.90800 43.89100
H  0.79600 -5.95000 45.94200
H  -0.88300 -4.89000 46.69200
H  -2.00600 -6.14400 46.34400
H  -2.38500 -4.44700 45.84100
H  1.78600 -7.70900 43.84300
H  0.02100 -7.56100 43.56200
H  -0.30600 -8.29200 45.88300
H  1.50300 -8.50200 45.96600
H  0.64400 -9.50100 44.86300
H  5.96700 -5.81200 44.71300
H  6.24300 -4.53800 46.05300
H  7.29500 -4.63300 44.74800
H  6.70500 -0.33300 41.90200
H  8.60400 2.00900 44.52000
H  7.45900 3.29900 44.08800
H  8.98900 3.21900 43.19800
Mg 24.14600 -4.64300 45.99700
C  26.10700 -2.18400 44.64500
C  21.58500 -3.78200 43.95700
C  22.58500 -7.48600 46.85300
C  27.19600 -5.94500 47.57200
N  23.92700 -3.17700 44.62400
C  24.85300 -2.33300 44.12600
C  24.18400 -1.36200 43.11400
C  22.63800 -1.60700 43.20300
C  22.72800 -2.96000 43.91500
C  21.79200 -0.49100 43.88600
C  24.78600 -1.67600 41.70600
C  25.32100 -0.55400 40.82100
H  25.08700 -0.76200 39.32900
N  22.26200 -5.47300 45.53300
C  21.33100 -4.91900 44.66600
C  20.23800 -5.79200 44.50900
C  20.38800 -6.89900 45.41700
C  21.80800 -6.73100 45.95100
C  19.07800 -5.48500 43.64200
C  19.38600 -8.04600 45.74400
O  18.37000 -8.18900 45.10300
C  19.67700 -9.04800 46.76600
N  24.89500 -6.52200 46.94500
C  23.92500 -7.34200 47.41000
C  24.51900 -8.52100 48.21700
C  26.01800 -8.07500 48.38000
C  26.08400 -6.71500 47.62900
C  23.77000 -8.81500 49.54300
C  27.14100 -9.08000 47.81900
C  28.49100 -9.18300 48.64400
N  26.25900 -4.16200 46.20400
C  27.28900 -4.72400 46.88600
C  28.42400 -3.87600 46.73300
C  28.03800 -2.91700 45.83600
C  26.70000 -3.06800 45.55500
C  29.73400 -4.24700 47.31800
C  28.55500 -1.86600 44.92800
O  29.63700 -1.39900 44.79600
C  27.25500 -1.34300 44.16300
C  27.17000 0.17500 44.55600
O  26.47100 0.71400 45.43800
O  28.16600 0.82700 43.87200
C  28.39200 2.22700 44.15600
H  20.79400 -3.43700 43.28800
H  22.24200 -8.51800 46.95500
H  28.10600 -6.19700 48.12000
H  24.26000 -0.30000 43.34900
H  22.16400 -1.77700 42.23600
H  20.88700 -0.22000 43.34200
H  22.35100 0.43200 44.04000
H  21.62100 -0.88700 44.88600
H  23.96000 -2.21200 41.24100
H  25.57800 -2.42400 41.74000
H  26.36500 -0.52200 41.13300
H  24.68200 0.28200 41.10600
H  18.71200 -6.43200 43.24600
H  19.46700 -4.98200 42.75700
H  18.38400 -4.75700 44.06100
H  20.27900 -9.81800 46.28300
H  18.72100 -9.51900 46.99400
H  20.07000 -8.60100 47.67900
H  24.45100 -9.44900 47.64900
H  26.33500 -7.66900 49.34000
H  24.01700 -9.72400 50.09200
H  22.72400 -8.61300 49.31300
H  24.21100 -8.04400 50.17500
H  27.24600 -8.73100 46.79200
H  26.72700 -10.06700 47.61300
H  28.56700 -10.25100 48.84900
H  28.51200 -8.55800 49.53600
H  29.36900 -8.88400 48.07200
H  29.71500 -4.06700 48.39200
H  30.43800 -3.65400 46.73400
H  30.05200 -5.28000 47.17300
H  27.48900 -1.32000 43.09900
H  29.46000 2.28100 44.36700
H  27.79800 2.62900 44.97600
H  28.26000 2.68500 43.17500

