158

Mg 2.41600 -1.01500 44.42000
C  5.64500 -0.09200 43.37500
C  1.17300 1.61900 42.65500
C  -0.68500 -2.34400 44.68400
C  3.89000 -3.87000 45.80700
N  3.34100 0.57500 43.26800
C  4.65200 0.76900 42.92500
C  4.81100 2.05300 42.14900
C  3.48500 2.78800 42.33700
C  2.56300 1.50800 42.69500
C  3.51500 3.90600 43.36800
C  5.10700 1.81700 40.59600
C  6.51100 2.16500 40.10100
H  6.58600 2.89000 38.74000
N  0.46400 -0.42000 43.76800
C  0.18700 0.79200 43.16800
C  -1.29400 0.95200 43.12700
C  -1.85700 -0.22600 43.72800
C  -0.68100 -1.03600 44.08900
C  -1.91200 2.11500 42.49000
C  -3.33100 -0.52600 43.82900
O  -4.18600 0.25000 43.40800
C  -3.90000 -1.72500 44.53900
N  1.72900 -2.85900 45.24600
C  0.43200 -3.15800 45.19100
C  0.21200 -4.53000 45.81700
C  1.60100 -4.98700 46.33600
C  2.48000 -3.87100 45.76500
C  -1.00900 -4.71000 46.77700
C  2.04900 -6.50900 46.10200
C  2.50400 -7.42100 47.24300
N  4.29700 -1.85300 44.59300
C  4.73800 -2.93800 45.29200
C  6.17300 -2.97300 45.35700
C  6.57100 -1.89000 44.57400
C  5.42300 -1.26800 44.07400
C  7.07900 -4.03900 45.98700
C  7.68900 -1.24200 44.07800
O  8.89100 -1.51300 44.14800
C  7.14500 0.04800 43.36600
C  7.63700 1.31700 43.96000
O  7.45600 1.69800 45.11700
O  8.45500 1.89300 43.10400
C  9.24500 3.05500 43.58600
H  0.73900 2.55400 42.29500
H  -1.64800 -2.84700 44.79000
H  4.37000 -4.78300 46.16500
H  5.54500 2.70400 42.62400
H  2.99600 3.28700 41.49900
H  4.51200 4.31200 43.54000
H  3.19800 3.47500 44.31800
H  2.99900 4.78000 42.97300
H  4.35100 2.36200 40.03100
H  5.01300 0.74900 40.39900
H  7.10400 1.25500 40.00800
H  7.06700 2.76200 40.82400
H  -2.34400 2.86200 43.15500
H  -2.74100 1.76900 41.87200
H  -1.18700 2.74900 41.98000
H  -3.63000 -2.58200 43.92100
H  -4.97700 -1.67300 44.70100
H  -3.52000 -1.74900 45.56100
H  -0.00200 -5.20800 44.99200
H  1.66900 -4.82600 47.41200
H  -1.69900 -3.86600 46.79500
H  -0.68800 -4.81100 47.81300
H  -1.62300 -5.53800 46.42100
H  2.94600 -6.44100 45.48700
H  1.13700 -6.85000 45.61200
H  2.66200 -6.91400 48.19400
H  3.46200 -7.90000 47.04100
H  1.80800 -8.25900 47.23100
H  6.43800 -4.51200 46.73100
H  7.89300 -3.51100 46.48300
H  7.57100 -4.62000 45.20700
H  7.59700 -0.05900 42.38000
H  8.60100 3.93400 43.56700
H  10.10900 3.10500 42.92300
H  9.54400 2.97100 44.63100
Mg 16.32400 52.28900 24.83200
C  17.89500 51.28600 27.76900
C  13.46300 52.86100 26.66700
C  14.54400 52.74700 22.03200
C  19.04200 50.94600 23.06700
N  15.72000 52.03000 27.04200
C  16.57100 51.77100 28.02700
C  15.83700 52.06100 29.41200
C  14.42400 52.47400 28.99900
C  14.50300 52.38100 27.45700
C  13.33900 51.49800 29.59200
C  16.56300 53.26700 30.03900
C  16.83500 53.28900 31.53100
H  16.00100 52.36400 32.45100
N  14.25800 52.81500 24.33000
C  13.30000 53.10500 25.23200
C  12.05200 53.50700 24.55600
C  12.35900 53.48100 23.23300
C  13.79100 52.94200 23.11900
C  10.86000 53.87200 25.41800
C  11.47600 53.79700 22.10700
O  11.92100 53.77300 20.92300
C  10.02200 54.17300 22.23800
N  16.72700 51.80600 22.76100
C  15.85200 52.14800 21.76400
C  16.40300 51.88800 20.34700
C  17.81000 51.50400 20.68100
C  17.91200 51.37900 22.27500
C  15.64000 50.80800 19.57200
C  18.88600 52.44900 20.03500
C  19.21300 53.69800 20.88500
N  18.27900 51.36700 25.29900
C  19.17900 50.81100 24.43500
C  20.25000 50.29400 25.23300
C  19.80800 50.46500 26.52100
C  18.53900 51.02700 26.54200
C  21.54200 49.75900 24.81900
C  20.12800 50.37200 27.95300
O  21.10100 49.85400 28.48600
C  18.93700 50.98000 28.80800
C  18.46800 49.88500 29.65900
O  17.59400 49.03200 29.38500
O  19.16600 49.90000 30.79900
C  18.87300 48.84800 31.79300
H  12.58700 53.02200 27.29900
H  14.06700 53.19400 21.15700
H  19.74800 50.48900 22.37000
H  15.89000 51.13400 29.98300
H  14.20300 53.49400 29.31500
H  13.78200 50.54700 29.88700
H  12.53800 51.27600 28.88600
H  12.96000 51.96100 30.50300
H  16.24900 54.25600 29.70600
H  17.55100 53.23500 29.57900
H  16.56100 54.30400 31.82300
H  17.87500 53.06300 31.76500
H  10.11800 53.07500 25.37700
H  10.27400 54.72300 25.07100
H  11.03800 54.12000 26.46400
H  9.82300 55.20000 22.54700
H  9.45800 53.55000 22.93200
H  9.49000 54.25200 21.28900
H  16.41400 52.89700 19.93600
H  18.04300 50.52100 20.27100
H  15.16000 51.25600 18.70300
H  14.79600 50.47900 20.17900
H  16.18700 50.00500 19.07700
H  18.67900 52.74100 19.00500
H  19.85200 51.96100 19.90200
H  18.40400 53.85900 21.59700
H  19.18600 54.47400 20.11900
H  20.17100 53.66200 21.40400
H  21.97200 50.58500 24.25200
H  21.26900 48.87400 24.24600
H  22.16000 49.60400 25.70400
H  19.36200 51.74800 29.45600
H  17.80300 48.87000 32.00100
H  19.29500 49.06000 32.77500
H  19.27200 47.90800 31.41100

