158

Mg 43.28400 3.54500 46.77400
C  41.60700 6.63300 47.14900
C  40.23400 2.06300 46.69400
C  44.81800 0.71600 45.72600
C  46.27400 5.22200 46.64900
N  41.17500 4.25300 46.92100
C  40.72100 5.52100 47.19500
C  39.19800 5.55400 47.32500
C  38.88400 4.08000 47.48400
C  40.17500 3.37300 46.99700
C  38.38100 3.68300 48.87100
C  38.40600 6.16600 46.14600
C  39.05000 6.12300 44.73300
H  38.20000 5.85400 43.47400
N  42.66700 1.64900 46.40600
C  41.30300 1.25200 46.39300
C  41.22700 -0.13200 46.07200
C  42.55000 -0.59100 45.74600
C  43.41500 0.61800 45.99300
C  39.93000 -0.80500 45.94100
C  42.84000 -1.97500 45.30000
O  42.04300 -2.91000 45.14700
C  44.29000 -2.24500 44.88900
N  45.33400 3.03000 46.40300
C  45.71100 1.74200 46.01700
C  47.24300 1.65300 45.82200
C  47.73800 3.07500 46.23800
C  46.39900 3.84800 46.45500
C  47.89400 0.40500 46.63600
C  48.68900 3.67300 45.21200
C  50.00100 4.06800 45.93000
N  43.85900 5.52000 46.77000
C  45.15700 6.00300 46.76400
C  45.02100 7.50500 46.88200
C  43.69000 7.75800 46.97600
C  42.99000 6.52800 46.93800
C  46.20000 8.40600 47.00000
C  42.70400 8.81300 47.09700
O  42.81600 10.08600 47.13000
C  41.37100 8.10600 47.24900
C  40.67600 8.56800 48.53100
O  40.98000 8.16300 49.65500
O  39.57700 9.36500 48.20700
C  38.63000 9.48400 49.33000
H  39.30200 1.49500 46.64200
H  45.32400 -0.22000 45.48000
H  47.19100 5.81500 46.62300
H  38.98000 6.05800 48.26600
H  38.10100 3.73800 46.80700
H  38.03300 4.49100 49.51300
H  39.23400 3.30100 49.43200
H  37.51500 3.02900 48.77100
H  38.29100 7.21300 46.42400
H  37.40700 5.76300 45.97900
H  39.78000 5.32900 44.57600
H  39.56200 7.08500 44.70400
H  40.10700 -1.85300 46.18300
H  39.52400 -0.49900 44.97700
H  39.31200 -0.59000 46.81300
H  44.88300 -2.42300 45.78600
H  44.71000 -1.50800 44.20300
H  44.21200 -3.09800 44.21500
H  47.36300 1.46300 44.75600
H  48.23900 2.93800 47.19600
H  47.50400 0.19800 47.63200
H  48.96200 0.28400 46.81600
H  47.62900 -0.51100 46.10800
H  48.39300 4.53700 44.61700
H  48.91600 2.93600 44.44100
H  49.84100 5.14300 46.01400
H  50.78300 3.84500 45.20500
H  50.20400 3.70400 46.93700
H  46.78500 8.36300 46.08100
H  46.84800 8.04200 47.79700
H  45.93900 9.46300 47.03800
H  40.75300 8.44600 46.41800
H  39.02400 10.12800 50.11600
H  38.16600 8.58000 49.72200
H  37.86500 10.16400 48.95600
Mg 6.80600 54.55000 41.68000
C  5.76800 51.29200 41.23200
C  9.89900 53.67700 40.41400
C  7.53900 57.76200 41.48400
C  3.39200 55.45200 42.56600
N  7.63400 52.73900 40.82100
C  7.07000 51.44000 40.83200
C  8.06600 50.39300 40.17500
C  9.42200 51.17400 40.32900
C  8.95000 52.66100 40.52600
C  10.33100 50.59500 41.43800
C  7.71900 50.03600 38.62300
C  7.07600 51.08900 37.78600
H  6.67600 50.65400 36.35600
N  8.50300 55.57500 41.12300
C  9.66600 55.05300 40.50900
C  10.54600 56.11600 40.19100
C  9.94200 57.31500 40.57200
C  8.59100 56.93600 41.13100
C  11.93700 55.86600 39.57100
C  10.68600 58.72300 40.52600
O  11.86100 58.83000 40.09700
C  10.07900 59.92200 41.17500
N  5.61800 56.35000 42.09100
C  6.27200 57.56200 41.99300
C  5.26200 58.72700 42.13800
C  3.85400 57.98700 42.51000
C  4.24500 56.50100 42.39900
C  5.78600 59.78600 43.14200
C  2.62200 58.32800 41.53700
C  1.34700 58.77000 42.28200
N  4.99500 53.61500 42.03900
C  3.73100 54.07900 42.43900
C  2.87800 52.91400 42.61200
C  3.65400 51.80500 42.18200
C  4.90300 52.29900 41.71400
C  1.43000 52.80200 43.06400
C  3.63600 50.41500 42.08800
O  2.78800 49.62000 42.52500
C  4.98000 49.96700 41.39400
C  4.49500 49.39600 40.11000
O  3.76400 49.84400 39.25200
O  5.02300 48.12300 40.02300
C  4.43100 47.32900 38.92000
H  10.90800 53.35700 40.14800
H  7.86200 58.79200 41.32000
H  2.38100 55.70500 42.89400
H  7.97500 49.51200 40.81000
H  10.08800 51.16700 39.46700
H  11.27600 50.27000 41.00300
H  9.75800 49.75100 41.82300
H  10.41600 51.35200 42.21700
H  7.03600 49.19000 38.69900
H  8.56300 49.61200 38.07900
H  7.78900 51.91200 37.72200
H  6.15400 51.44100 38.25000
H  12.12300 56.72100 38.92100
H  12.04100 54.96700 38.96200
H  12.69600 55.78200 40.34800
H  9.16000 60.13100 40.62900
H  10.84500 60.69600 41.12700
H  9.91400 59.66900 42.22300
H  5.24900 59.21200 41.16200
H  3.51000 58.17200 43.52800
H  6.79500 59.64900 43.53000
H  5.00800 59.85300 43.90200
H  5.84600 60.73200 42.60400
H  2.34700 57.44400 40.96100
H  2.97100 59.15300 40.91700
H  0.53500 58.06800 42.09500
H  0.99000 59.72700 41.90200
H  1.48900 58.83100 43.36100
H  1.06400 53.82700 43.12200
H  1.37600 52.31100 44.03600
H  0.94700 52.18100 42.30900
H  5.54300 49.27000 42.01400
H  4.72800 46.30800 39.16000
H  5.22100 47.55100 38.20300
H  3.41500 47.62000 38.65300

