158

Mg 1.46600 7.99800 24.85300
C  2.10700 9.72300 28.00400
C  1.30500 5.10100 26.76600
C  1.35700 6.32000 21.97300
C  1.81900 10.99900 23.28200
N  2.01700 7.45700 27.13000
C  1.99000 8.29600 28.16000
C  1.84300 7.60000 29.52800
C  1.78100 6.14000 29.07200
C  1.67100 6.19100 27.53600
C  2.89400 5.21100 29.71100
C  0.57600 8.08800 30.42500
C  0.91900 8.43700 31.86200
H  1.97900 7.75300 32.64800
N  1.40700 5.93100 24.39500
C  1.24200 4.95200 25.31500
C  1.01100 3.69400 24.60100
C  0.99500 3.98400 23.22000
C  1.31200 5.44300 23.12700
C  0.69400 2.45900 25.39300
C  0.73200 3.02900 21.99500
O  0.47800 3.56700 20.89300
C  0.46300 1.55700 22.09400
N  1.73100 8.54000 22.94500
C  1.48300 7.65900 21.93100
C  1.38000 8.36600 20.56400
C  1.27400 9.87300 20.99800
C  1.64000 9.82500 22.44200
C  2.67200 8.12400 19.74100
C  -0.09200 10.54300 20.64000
C  -0.22100 11.06500 19.17400
N  1.89300 9.95800 25.45700
C  1.99600 11.06000 24.68800
C  2.11900 12.25200 25.50900
C  2.18300 11.77800 26.82600
C  2.07900 10.34600 26.71300
C  2.15900 13.71500 25.06400
C  2.26700 12.13100 28.18100
O  2.30400 13.25000 28.69900
C  2.09600 10.87700 28.96000
C  3.26500 10.72800 29.89300
O  4.15500 9.89400 29.79900
O  3.13100 11.50700 31.03900
C  4.13900 11.31600 32.04200
H  0.99000 4.25100 27.37500
H  1.43800 5.74500 21.04800
H  1.82000 11.97800 22.79800
H  2.70600 7.80600 30.16100
H  0.88000 5.66000 29.45500
H  2.46200 4.54000 30.45300
H  3.54100 5.94500 30.19200
H  3.53100 4.71300 28.98000
H  -0.15100 7.27600 30.44800
H  0.18600 8.99100 29.95700
H  -0.04800 8.28600 32.34200
H  1.08600 9.51400 31.83200
H  0.15200 1.67300 24.86800
H  0.02300 2.68100 26.22300
H  1.59000 1.89200 25.64600
H  0.52400 1.20300 21.06500
H  -0.53100 1.43900 22.52600
H  1.19300 1.00200 22.68300
H  0.53500 8.00100 19.98100
H  2.04000 10.40900 20.43800
H  2.66000 8.42700 18.69400
H  2.91700 7.06200 19.74500
H  3.53100 8.62400 20.19000
H  -0.33200 11.40500 21.26300
H  -0.82400 9.76700 20.85900
H  0.60600 10.73800 18.54400
H  -0.25000 12.15300 19.12900
H  -1.01400 10.50400 18.67700
H  2.66900 14.32600 25.80800
H  1.13400 13.98700 24.81100
H  2.67500 13.81600 24.11000
H  1.18800 10.91300 29.56200
H  5.15300 11.27100 31.64400
H  3.87800 10.39500 32.56300
H  4.24000 12.01900 32.87000
Mg -9.92100 17.55800 42.03100
C  -6.49600 16.88100 41.63800
C  -9.36000 20.73900 40.86500
C  -13.22600 17.95100 41.77700
C  -10.44800 14.05300 42.35700
N  -8.13200 18.63200 41.21900
C  -6.83600 18.17200 41.19300
C  -5.90200 19.32900 40.88500
C  -6.80300 20.58000 40.81800
C  -8.18100 19.97600 41.05800
C  -6.30200 21.73300 41.77400
C  -4.91300 19.07100 39.67700
C  -5.33100 18.22900 38.39800
H  -4.92000 18.85800 37.07300
N  -11.13300 19.16400 41.43700
C  -10.73800 20.40500 41.02700
C  -11.86600 21.27200 40.92600
C  -13.01200 20.49700 41.12500
C  -12.48400 19.15600 41.47400
C  -11.71200 22.78500 40.62000
C  -14.52100 21.02500 41.07100
O  -14.80300 22.08000 40.52500
C  -15.62800 20.21400 41.71700
N  -11.59800 16.14900 42.02000
C  -12.88800 16.60700 42.10700
C  -13.89300 15.46900 42.15900
C  -12.90200 14.28000 42.49300
C  -11.57300 14.85800 42.24300
C  -14.99500 15.77500 43.25300
C  -13.40400 13.07800 41.59100
C  -13.39500 11.71200 42.28100
N  -8.76200 15.78300 41.99800
C  -9.10700 14.47000 42.22000
C  -7.88800 13.66100 42.21600
C  -6.85100 14.58800 42.12500
C  -7.42200 15.84900 41.97300
C  -7.76100 12.17000 42.34700
C  -5.45900 14.69300 42.02500
O  -4.55800 13.83900 42.05900
C  -5.16300 16.21900 41.86000
C  -4.35600 16.59400 43.09900
O  -3.19600 16.33600 43.29300
O  -5.17400 17.18800 44.06200
C  -4.65800 17.32000 45.45300
H  -9.19500 21.78100 40.58500
H  -14.31500 17.98500 41.70300
H  -10.58000 12.99000 42.56700
H  -5.28500 19.37300 41.78200
H  -6.77700 21.04000 39.83000
H  -6.06200 22.57900 41.12900
H  -5.53100 21.35300 42.44400
H  -7.14700 22.07700 42.36900
H  -4.06700 18.57000 40.14700
H  -4.46200 19.99000 39.30300
H  -6.35400 17.86200 38.31800
H  -4.68500 17.35300 38.44600
H  -12.66300 23.27700 40.41700
H  -11.15700 22.86100 39.68500
H  -11.05100 23.19500 41.38300
H  -15.85100 19.40900 41.01700
H  -16.53300 20.81000 41.84100
H  -15.33500 19.73200 42.65000
H  -14.36100 15.33400 41.18400
H  -13.01400 14.19100 43.57300
H  -15.05300 15.01600 44.03300
H  -15.95200 15.80400 42.73200
H  -14.70700 16.73700 43.67600
H  -12.73100 13.17300 40.73800
H  -14.36400 13.27800 41.11500
H  -14.26100 11.10000 42.02800
H  -13.33400 11.60500 43.36400
H  -12.55600 11.10700 41.93900
H  -8.68300 11.69500 42.68200
H  -6.93100 11.90600 43.00200
H  -7.51100 11.72800 41.38300
H  -4.39600 16.28500 41.08800
H  -5.45100 17.33600 46.20100
H  -4.05300 18.22300 45.53500
H  -4.14900 16.43500 45.83700

