158

Mg 44.25800 4.00800 47.60200
C  42.19300 6.73800 47.10400
C  41.65700 1.94800 46.77900
C  46.35400 1.36400 47.43400
C  47.02200 6.22700 47.75900
N  42.21700 4.35500 47.00300
C  41.63100 5.50700 46.80600
C  40.20400 5.36300 46.35200
C  39.92400 3.84200 46.47000
C  41.39400 3.31600 46.73400
C  39.17500 3.38800 47.76400
C  40.07200 5.88900 44.89300
C  38.70500 6.56600 44.43100
H  38.16400 5.98400 43.06700
N  43.99300 1.91100 47.38000
C  42.86200 1.27900 47.11100
C  42.98400 -0.06700 47.13200
C  44.35700 -0.29600 47.36600
C  44.95200 1.01900 47.50800
C  41.89900 -1.09200 46.86100
C  45.00700 -1.61900 47.28000
O  44.21500 -2.58100 47.05900
C  46.42900 -1.96700 47.42600
N  46.36100 3.85800 47.29900
C  46.96600 2.62800 47.43600
C  48.51300 2.84000 47.86600
C  48.75900 4.34200 47.94200
C  47.30600 4.83200 47.60400
C  48.91300 2.07500 49.14900
C  49.87000 4.92700 47.02700
C  51.17100 5.38000 47.81500
N  44.60800 6.03300 47.36400
C  45.80200 6.79100 47.51000
C  45.43100 8.19700 47.48400
C  44.04500 8.22400 47.39600
C  43.57300 6.91000 47.34900
C  46.24500 9.38800 47.64100
C  42.89600 9.08800 47.28900
O  42.83900 10.34300 47.15200
C  41.60900 8.17300 47.13200
C  40.71700 8.54800 48.31400
O  40.63800 7.96600 49.38800
O  39.80900 9.55300 47.89100
C  38.70900 9.74900 48.85600
H  40.72600 1.39000 46.65700
H  46.97400 0.46600 47.47100
H  47.83500 6.91700 47.99600
H  39.63300 5.97700 47.04900
H  39.42100 3.31600 45.65900
H  38.50300 2.54200 47.61500
H  38.58300 4.22100 48.14300
H  39.93400 3.22100 48.52900
H  40.29100 5.11900 44.15300
H  40.85100 6.64600 44.80800
H  38.79400 7.64800 44.33700
H  37.93300 6.32800 45.16300
H  42.04100 -2.02500 47.40600
H  41.74000 -1.28000 45.79900
H  40.94000 -0.70700 47.20800
H  47.00100 -1.50500 46.62100
H  46.50900 -3.04000 47.24500
H  46.83300 -1.90100 48.43600
H  49.20300 2.37800 47.16000
H  48.99800 4.58900 48.97600
H  48.91200 1.03200 48.83300
H  48.15400 2.17500 49.92600
H  49.87200 2.39900 49.55400
H  49.42900 5.73000 46.43600
H  50.10600 4.15400 46.29500
H  52.05200 4.85200 47.44900
H  50.99200 5.30000 48.88800
H  51.34600 6.40900 47.50300
H  45.85800 10.05100 48.41500
H  46.22600 9.78400 46.62600
H  47.24300 9.10200 47.97100
H  41.10700 8.55100 46.24200
H  38.05900 8.87600 48.81300
H  38.12300 10.63000 48.59700
H  39.16600 10.00200 49.81300
Mg -10.60100 16.17600 42.94100
C  -7.16000 16.89100 43.10700
C  -11.20500 19.38500 42.22000
C  -13.78500 15.30700 42.61500
C  -9.69100 12.77200 43.16100
N  -9.21900 17.95300 42.41700
C  -7.89000 18.03100 42.69800
C  -7.38400 19.46500 42.75000
C  -8.75800 20.26500 42.42300
C  -9.82000 19.17100 42.38400
C  -9.06500 21.48100 43.39600
C  -6.11100 19.68200 41.77400
C  -5.81300 21.09300 41.31200
H  -6.01100 21.50300 39.86800
N  -12.24600 17.15400 42.22300
C  -12.30700 18.50500 42.04100
C  -13.64000 18.84200 41.66600
C  -14.42500 17.67700 41.57900
C  -13.50400 16.66000 42.20800
C  -14.06300 20.33900 41.48100
C  -15.86200 17.53200 41.04900
O  -16.46800 18.40700 40.47300
C  -16.47000 16.14900 41.09400
N  -11.61800 14.22900 42.73800
C  -12.98100 14.17900 42.93500
C  -13.47400 12.79400 43.36800
C  -12.17500 12.01800 43.46600
C  -11.06500 13.05400 43.13200
C  -14.35200 12.75900 44.64600
C  -12.12400 10.72600 42.58000
C  -12.59500 9.50200 43.28800
N  -8.81900 15.03400 43.17000
C  -8.63800 13.68300 43.19500
C  -7.28200 13.33600 43.41600
C  -6.67400 14.56700 43.41200
C  -7.63200 15.58400 43.22400
C  -6.72400 12.00800 43.68900
C  -5.34500 15.22000 43.70800
O  -4.30500 14.70300 43.94400
C  -5.67500 16.76800 43.57000
C  -5.34700 17.37900 44.88200
O  -5.82100 17.11800 45.90800
O  -4.42500 18.44200 44.68100
C  -3.91600 19.10200 45.88900
H  -11.28700 20.45600 42.01900
H  -14.84900 15.07700 42.53200
H  -9.34200 11.76300 43.39100
H  -7.11600 19.73700 43.77100
H  -8.60500 20.65500 41.41600
H  -8.14400 21.83500 43.86000
H  -9.74100 21.21400 44.20800
H  -9.61000 22.23100 42.82300
H  -6.46400 19.09600 40.92600
H  -5.17100 19.33500 42.20300
H  -4.81100 21.45900 41.53800
H  -6.46400 21.82700 41.78500
H  -13.87500 20.78100 40.50300
H  -13.54600 21.02500 42.15100
H  -15.09200 20.45300 41.82400
H  -15.93300 15.33400 40.60900
H  -17.31500 16.32400 40.42800
H  -16.99300 15.91600 42.02200
H  -14.11200 12.47700 42.54300
H  -12.03100 11.77000 44.51700
H  -13.90100 12.12600 45.41100
H  -15.37000 12.53600 44.32900
H  -14.25100 13.80100 44.94800
H  -11.15300 10.48000 42.15000
H  -12.77300 10.90800 41.72400
H  -12.83900 9.76600 44.31800
H  -11.87900 8.68100 43.28900
H  -13.53500 9.17900 42.84200
H  -7.05500 11.32000 42.91100
H  -6.97900 11.63900 44.68200
H  -5.63900 11.97100 43.59600
H  -4.94900 17.18600 42.87400
H  -2.83700 19.24500 45.82100
H  -4.13200 18.57800 46.82000
H  -4.28000 20.12800 45.93200

