158

Mg 9.90000 47.27200 26.22700
C  7.63600 47.27100 28.80300
C  12.59700 47.77500 28.24500
C  12.13200 47.35500 23.45200
C  7.33100 46.87100 23.86800
N  10.04700 47.38200 28.32800
C  9.00900 47.41900 29.25600
C  9.61400 47.55700 30.67500
C  11.17300 47.93400 30.37900
C  11.32000 47.67800 28.90600
C  11.70800 49.27700 30.87600
C  9.39800 46.33500 31.62000
C  8.95700 46.63600 33.05100
H  9.16200 45.63700 34.15000
N  12.01100 47.58500 25.85600
C  12.93900 47.80800 26.89400
C  14.26700 47.98600 26.33400
C  14.18000 47.57200 25.01200
C  12.71800 47.48300 24.71800
C  15.42200 48.41000 27.14600
C  15.23400 47.22100 24.03500
O  14.98000 46.72600 22.92900
C  16.69000 47.35500 24.56600
N  9.78300 47.24500 24.01800
C  10.79200 47.17400 23.10600
C  10.41200 47.06400 21.64800
C  8.84000 46.86000 21.79300
C  8.62300 47.03100 23.33600
C  10.81900 48.35000 20.82200
C  8.26900 45.43500 21.29500
C  6.92900 45.61100 20.44700
N  7.94000 47.21100 26.23900
C  6.96800 47.00100 25.24500
C  5.65300 46.99300 25.87600
C  5.89600 47.04500 27.26200
C  7.30100 47.26200 27.44400
C  4.30200 46.77000 25.20200
C  5.21400 46.95100 28.58000
O  4.02600 46.84000 28.88100
C  6.36800 47.12100 29.61500
C  6.37200 45.88500 30.34300
O  6.91000 44.84400 30.00400
O  5.65800 46.03900 31.54200
C  5.68400 44.92000 32.42500
H  13.32100 47.97100 29.03900
H  12.80200 47.37800 22.59100
H  6.51900 46.90400 23.13900
H  9.12400 48.45100 31.06000
H  11.83500 47.16800 30.78300
H  12.03300 49.88800 30.03400
H  12.56400 49.15500 31.54000
H  10.87300 49.80800 31.33300
H  10.33800 45.81900 31.81600
H  8.72100 45.54800 31.28800
H  7.89100 46.86000 33.03000
H  9.52100 47.52900 33.32300
H  15.17300 48.69600 28.16800
H  15.80900 49.28900 26.63100
H  16.25800 47.71100 27.15300
H  17.33400 47.32500 23.68700
H  16.91600 46.47600 25.16900
H  16.75300 48.31900 25.07300
H  10.82800 46.13600 21.25500
H  8.28700 47.67400 21.32500
H  11.20500 49.07300 21.54200
H  9.96700 48.86700 20.38000
H  11.57300 48.14500 20.06200
H  7.99100 44.85200 22.17300
H  8.95600 44.80200 20.73300
H  6.48500 46.57500 20.69200
H  6.20800 44.92800 20.89600
H  6.97500 45.39800 19.37900
H  4.54900 46.59000 24.15600
H  3.62000 47.61500 25.29600
H  3.95900 45.82900 25.63100
H  6.04400 47.93800 30.25900
H  6.22500 45.19000 33.33200
H  5.99500 43.96100 32.01200
H  4.61000 44.95600 32.60800
Mg -12.59100 16.80400 41.34200
C  -9.76800 14.81400 40.81600
C  -10.91000 19.43700 39.97600
C  -15.34000 18.50000 41.26100
C  -14.32100 13.75600 42.13600
N  -10.51500 17.15400 40.46200
C  -9.58900 16.11700 40.37300
C  -8.32300 16.69000 39.78200
C  -8.59000 18.25500 39.52600
C  -10.09500 18.32500 39.99000
C  -7.78000 19.29000 40.32100
C  -7.92400 15.93700 38.46100
C  -6.51800 15.28600 38.38100
H  -5.69100 15.64200 37.12200
N  -13.07200 18.75900 40.79700
C  -12.20000 19.68300 40.29000
C  -12.91300 20.95300 39.97500
C  -14.27800 20.75400 40.40500
C  -14.30800 19.30200 40.83700
C  -12.24900 22.08300 39.35300
C  -15.43000 21.69900 40.49900
O  -15.37300 22.83600 40.08000
C  -16.69200 21.35200 41.15000
N  -14.61200 16.09900 41.47000
C  -15.59300 17.14700 41.55000
C  -16.96900 16.58900 41.91200
C  -16.49000 15.11400 42.37400
C  -15.09500 14.93500 41.90500
C  -17.70800 17.44700 42.95800
C  -17.48000 14.00600 41.90200
C  -18.36200 13.23900 42.93700
N  -12.18900 14.73500 41.48900
C  -12.98400 13.62500 41.76300
C  -12.19300 12.46300 41.69300
C  -10.89100 12.83400 41.30700
C  -10.95800 14.21100 41.19800
C  -12.54200 11.07000 41.99300
C  -9.54200 12.29700 41.07200
O  -8.99500 11.18200 41.32000
C  -8.76100 13.65800 40.73800
C  -7.62500 13.83500 41.79900
O  -7.72900 13.77000 43.02500
O  -6.41200 14.17000 41.19100
C  -5.18300 14.28900 42.06000
H  -10.36700 20.30500 39.59400
H  -16.29400 19.02800 41.19800
H  -14.77500 12.82100 42.47000
H  -7.59200 16.74200 40.58900
H  -8.53500 18.46600 38.45800
H  -7.26000 19.87400 39.56100
H  -7.04400 18.86400 41.00200
H  -8.36000 20.00000 40.91000
H  -8.07600 16.62100 37.62700
H  -8.68600 15.19900 38.21000
H  -6.55700 14.19700 38.38800
H  -5.91100 15.55500 39.24500
H  -11.63300 21.85100 38.48400
H  -11.41100 22.37800 39.98400
H  -12.78300 23.01400 39.16500
H  -16.57300 20.87400 42.12300
H  -17.28600 20.69700 40.51300
H  -17.25700 22.27500 41.28400
H  -17.49200 16.52700 40.95700
H  -16.73400 15.17900 43.43400
H  -18.01500 16.79900 43.77900
H  -18.60500 17.87700 42.51300
H  -17.02100 18.22200 43.29700
H  -16.82700 13.37800 41.29600
H  -18.20000 14.49100 41.24400
H  -18.20200 12.19100 42.68600
H  -19.37500 13.63300 42.86200
H  -17.96700 13.44000 43.93300
H  -13.29600 10.81500 41.24800
H  -13.01700 11.08200 42.97300
H  -11.77300 10.30300 41.89800
H  -8.23100 13.50900 39.79800
H  -4.63900 13.35100 42.17600
H  -5.40700 14.68600 43.05000
H  -4.48100 15.01800 41.65600

