158

Mg -2.03100 16.22900 26.06700
C  -2.48000 14.24400 28.84300
C  -2.76500 19.02100 27.97700
C  -1.60500 18.26900 23.29800
C  -1.89700 13.49500 23.99500
N  -2.48800 16.55700 28.08200
C  -2.67500 15.62000 29.08500
C  -2.96500 16.22200 30.52100
C  -3.34500 17.67100 30.06000
C  -2.77400 17.76300 28.64300
C  -4.91900 17.86700 30.00000
C  -1.78300 16.15400 31.54000
C  -2.08500 15.27400 32.80000
H  -2.74400 15.98600 33.92200
N  -2.10500 18.32900 25.72000
C  -2.45100 19.28700 26.71700
C  -2.24400 20.62700 26.07600
C  -2.00900 20.39900 24.71100
C  -1.85600 18.93200 24.55000
C  -2.38800 21.91100 26.87300
C  -1.91500 21.38000 23.58000
O  -1.86800 21.05300 22.38800
C  -1.79000 22.87700 23.96500
N  -2.11500 15.95200 23.87200
C  -1.72200 16.95100 22.98400
C  -1.49900 16.33000 21.60100
C  -1.34800 14.78100 21.94000
C  -1.72800 14.73900 23.33800
C  -2.65000 16.59600 20.58900
C  0.13900 14.28600 21.70600
C  1.21700 14.99600 22.46500
N  -2.19900 14.25400 26.30500
C  -2.10200 13.23200 25.38300
C  -2.23700 12.05100 26.08200
C  -2.26400 12.33000 27.47400
C  -2.28000 13.70600 27.56000
C  -2.07600 10.68800 25.34700
C  -2.39100 11.77600 28.78400
O  -2.46700 10.62600 29.15400
C  -2.44200 12.99500 29.77800
C  -1.29000 12.94400 30.77900
O  -0.20500 13.48300 30.52800
O  -1.55700 12.17200 31.85600
C  -0.55500 11.83900 32.76400
H  -3.07300 19.85800 28.60800
H  -1.52900 18.86300 22.38400
H  -1.76200 12.66200 23.30200
H  -3.72500 15.62100 31.02100
H  -2.84600 18.43000 30.66200
H  -5.51400 17.01100 30.31800
H  -5.18900 18.21000 29.00100
H  -5.13900 18.74700 30.60400
H  -1.56800 17.17300 31.85900
H  -0.83100 15.89800 31.07400
H  -1.12400 14.86900 33.11700
H  -2.77500 14.47800 32.52100
H  -2.40000 21.75700 27.95200
H  -3.29600 22.50100 26.75300
H  -1.55900 22.58100 26.64700
H  -1.86200 23.60600 23.15800
H  -0.90500 23.08600 24.56600
H  -2.57000 23.19600 24.65600
H  -0.60900 16.83100 21.21900
H  -1.99300 14.29400 21.20700
H  -2.18900 16.99100 19.68400
H  -3.40000 17.20400 21.09400
H  -3.14300 15.71700 20.17400
H  0.37600 14.41400 20.64900
H  0.29600 13.24900 22.00100
H  1.90400 14.25500 22.87400
H  0.76800 15.62300 23.23500
H  1.71200 15.68600 21.78200
H  -1.57000 10.79900 24.38900
H  -3.03500 10.17500 25.27400
H  -1.49900 10.10800 26.06700
H  -3.41500 12.91500 30.26300
H  0.18700 11.29100 32.18400
H  -1.02000 11.16900 33.48800
H  -0.12800 12.67100 33.32500
Mg 30.04400 59.85200 40.05800
C  27.14000 58.25800 39.17300
C  31.84400 56.93500 39.79500
C  32.81600 61.73200 40.32500
C  28.17800 62.79600 40.61900
N  29.53500 57.80700 39.50900
C  28.28600 57.39200 39.07800
C  28.42600 55.95500 38.52400
C  29.76900 55.48200 39.13200
C  30.45800 56.81700 39.58700
C  29.74300 54.52100 40.44700
C  28.35900 56.06100 36.87900
C  27.25300 55.29900 36.19600
H  26.58300 55.99400 35.03800
N  32.08600 59.37800 39.98600
C  32.60700 58.09200 39.98400
C  34.03400 58.19600 40.02600
C  34.39200 59.56600 40.29200
C  33.08000 60.30300 40.22300
C  34.93000 57.04700 39.71200
C  35.79000 60.09500 40.47700
O  36.75400 59.32400 40.60800
C  36.09500 61.51200 40.57500
N  30.46300 62.04600 40.16300
C  31.71200 62.53700 40.31600
C  31.69600 64.05400 40.66900
C  30.21000 64.37000 40.95400
C  29.53700 62.98200 40.53100
C  32.68700 64.60400 41.68500
C  29.72700 65.64300 40.17000
C  28.84300 66.58200 40.97600
N  28.09700 60.44300 39.98700
C  27.47600 61.63100 40.28200
C  26.06000 61.41200 40.22400
C  25.88100 60.08300 39.75600
C  27.15500 59.57500 39.65800
C  24.97400 62.40600 40.50600
C  24.89700 59.10300 39.21600
O  23.69200 59.03800 39.11500
C  25.73100 57.77300 38.82600
C  25.10700 56.62200 39.59700
O  25.34300 56.28500 40.74800
O  24.29000 55.99600 38.71600
C  23.37900 54.99400 39.30600
H  32.26700 55.93400 39.69000
H  33.75100 62.26500 40.51000
H  27.69400 63.72700 40.92200
H  27.53700 55.37200 38.76600
H  30.42700 55.06400 38.37100
H  30.57800 53.98200 40.89400
H  28.97300 53.75500 40.36100
H  29.37300 55.08400 41.30400
H  29.29600 55.66100 36.49300
H  28.25600 57.10700 36.59000
H  26.43200 55.18600 36.90400
H  27.51300 54.28700 35.88400
H  34.41500 56.12600 39.43900
H  35.56100 56.75500 40.55100
H  35.63500 57.31100 38.92300
H  37.14200 61.63300 40.85500
H  35.56900 62.03500 41.37300
H  35.93900 61.99300 39.60900
H  32.02700 64.59100 39.78100
H  29.97100 64.48800 42.01000
H  32.14000 65.12800 42.46900
H  33.38100 65.29700 41.20900
H  33.14800 63.74400 42.17100
H  29.26300 65.28300 39.25200
H  30.59700 66.14200 39.74300
H  28.58800 66.27600 41.99100
H  27.86100 66.66600 40.51100
H  29.26700 67.57900 40.85200
H  25.21500 62.82700 41.48200
H  23.99400 61.92900 40.51500
H  24.94600 63.12500 39.68800
H  25.62400 57.51200 37.77300
H  22.71000 55.36800 40.08100
H  23.95000 54.22200 39.82100
H  22.87700 54.64800 38.40200

