158

Mg 16.51500 -2.31200 27.46600
C  15.11900 -0.32300 30.11000
C  18.78100 -3.51700 29.78900
C  17.79000 -3.85700 24.95400
C  14.46400 -0.46200 25.26600
N  16.98100 -1.86300 29.75800
C  16.21600 -1.11200 30.62800
C  16.79000 -1.19200 32.13200
C  18.06500 -2.15200 31.89200
C  17.96500 -2.52800 30.40000
C  19.42300 -1.49100 32.40700
C  15.74600 -1.66400 33.17400
C  15.75600 -0.92500 34.46900
H  16.98200 -0.18500 34.84500
N  18.04900 -3.54700 27.40100
C  18.73900 -4.08200 28.44200
C  19.46100 -5.17600 27.99700
C  19.23000 -5.34800 26.58400
C  18.32600 -4.27300 26.27600
C  20.29200 -5.92900 29.02500
C  19.77600 -6.44300 25.64600
O  19.41200 -6.51700 24.49300
C  20.68300 -7.57600 26.21200
N  16.43200 -1.95600 25.41300
C  16.98800 -2.85500 24.54000
C  16.66700 -2.52700 23.07300
C  15.38700 -1.70600 23.19900
C  15.36200 -1.39300 24.76200
C  17.81300 -1.82300 22.28300
C  14.06900 -2.45900 22.91900
C  13.36900 -2.18300 21.55100
N  15.00100 -0.80000 27.60500
C  14.31900 -0.18000 26.60300
C  13.43200 0.81900 27.17000
C  13.66800 0.77900 28.54000
C  14.66300 -0.24800 28.77100
C  12.63200 1.79800 26.48500
C  13.36300 1.41600 29.76700
O  12.55600 2.30600 29.97600
C  14.29100 0.68500 30.88500
C  15.06100 1.64300 31.71900
O  16.21800 1.86300 31.57900
O  14.25700 2.28500 32.67600
C  14.89200 3.42500 33.39200
H  19.45200 -3.94300 30.53700
H  18.18200 -4.42600 24.10900
H  13.80900 -0.04400 24.49900
H  17.15200 -0.19300 32.37200
H  18.02300 -3.08600 32.45200
H  19.68800 -2.06900 33.29300
H  19.28200 -0.45100 32.70200
H  20.18300 -1.49700 31.62700
H  15.83800 -2.72800 33.39100
H  14.79500 -1.62300 32.64300
H  15.64400 -1.63600 35.28700
H  14.95900 -0.21300 34.25200
H  21.08000 -5.35700 29.51500
H  20.66300 -6.88300 28.65100
H  19.73900 -6.31600 29.88100
H  21.02600 -8.21500 25.39700
H  20.03900 -8.20800 26.82300
H  21.53300 -7.16700 26.75800
H  16.52900 -3.43300 22.48300
H  15.41800 -0.81700 22.57000
H  17.67800 -0.90500 21.71100
H  18.13700 -2.43200 21.43900
H  18.63900 -1.62200 22.96500
H  13.32700 -2.28400 23.69800
H  14.22200 -3.53500 23.01000
H  12.40800 -1.70800 21.74800
H  13.22900 -3.08200 20.95000
H  13.97400 -1.52500 20.92700
H  11.70400 2.11500 26.95900
H  12.28500 1.36700 25.54600
H  13.22300 2.70000 26.32500
H  13.59200 0.31000 31.63300
H  15.70300 3.93300 32.87000
H  15.44200 3.07700 34.26600
H  14.20600 4.18900 33.75900
Mg -0.67200 33.91000 27.22500
C  -2.56900 32.17600 29.68700
C  0.78400 35.69300 29.67700
C  0.78500 35.64100 24.76300
C  -2.69400 32.19800 24.77000
N  -1.03600 34.03900 29.36400
C  -1.68800 33.17200 30.18500
C  -1.44500 33.37700 31.64300
C  -0.39600 34.57800 31.64500
C  -0.21600 34.82600 30.10000
C  -0.81500 35.90600 32.34500
C  -0.92800 32.14300 32.39000
C  -1.97400 31.53000 33.42100
H  -1.28200 31.13900 34.73600
N  0.55500 35.46600 27.15900
C  1.07700 36.10600 28.28700
C  1.98400 37.20000 27.93500
C  1.86900 37.23800 26.50400
C  1.06300 36.02600 26.11100
C  2.72800 38.00800 29.02900
C  2.45900 38.23800 25.55100
O  2.35500 38.27900 24.29300
C  3.30400 39.27800 26.17300
N  -0.91300 33.87100 25.02500
C  -0.07300 34.64500 24.26900
C  -0.15300 34.23600 22.77900
C  -1.45700 33.27400 22.75200
C  -1.74700 33.06900 24.28500
C  -0.18900 35.45500 21.75800
C  -1.17300 31.90600 21.97900
C  -0.14600 30.92200 22.53500
N  -2.26900 32.48200 27.18100
C  -2.98900 31.85300 26.11700
C  -3.84600 30.90400 26.69000
C  -3.79600 31.06100 28.10000
C  -2.75900 31.96800 28.32900
C  -4.75800 30.03200 25.95400
C  -4.33700 30.54000 29.33300
O  -5.28200 29.77000 29.45600
C  -3.57600 31.26800 30.43400
C  -4.50000 31.99500 31.36600
O  -5.12500 33.02000 31.10600
O  -4.87900 31.09300 32.29200
C  -5.77900 31.60000 33.32100
H  1.35200 36.08400 30.52400
H  1.28800 36.26600 24.02200
H  -3.13500 31.65800 23.93000
H  -2.39700 33.68300 32.07600
H  0.53000 34.27600 32.13600
H  -1.77200 35.80800 32.85800
H  -0.89200 36.71500 31.61800
H  0.04600 36.13700 32.97200
H  0.02200 32.41100 32.85200
H  -0.75000 31.33900 31.67600
H  -2.46600 30.63400 33.04200
H  -2.78400 32.22700 33.63500
H  2.99200 37.37300 29.87400
H  2.11400 38.85900 29.32500
H  3.67700 38.39200 28.65500
H  2.83900 39.86900 26.96200
H  3.61000 39.93000 25.35400
H  4.19700 38.80600 26.58400
H  0.62000 33.58200 22.37600
H  -2.32400 33.80100 22.35200
H  0.78800 35.47400 21.27500
H  -0.52800 36.37400 22.23500
H  -0.97000 35.21700 21.03500
H  -0.68900 32.22300 21.05500
H  -2.09700 31.34900 21.82300
H  0.11800 31.23200 23.54600
H  0.78400 31.01200 21.97300
H  -0.68400 29.97400 22.50200
H  -4.67600 29.01600 26.33900
H  -4.61500 30.07300 24.87400
H  -5.77100 30.38600 26.14500
H  -3.06500 30.44600 30.93600
H  -6.67100 31.81200 32.73100
H  -5.24700 32.45600 33.73600
H  -5.96900 30.88800 34.12400

