158

Mg -2.73800 17.68800 26.99700
C  -3.23200 15.50700 29.58700
C  -3.35500 20.25200 29.20700
C  -2.25700 19.85100 24.51700
C  -2.39700 15.00600 24.78800
N  -3.08400 17.86800 29.15900
C  -3.25700 16.78600 30.01000
C  -3.63900 17.30300 31.44500
C  -4.05100 18.77000 31.23800
C  -3.48700 18.98800 29.79000
C  -5.57600 19.06800 31.39600
C  -2.67300 16.92700 32.52800
C  -2.35700 17.79000 33.69500
H  -1.89600 17.19700 34.94000
N  -2.69300 19.77600 26.94500
C  -2.97600 20.70000 27.91700
C  -2.57600 22.05000 27.43000
C  -2.19200 21.91000 26.07400
C  -2.37600 20.46100 25.76900
C  -2.58100 23.26700 28.36000
C  -1.64300 22.95000 25.15300
O  -1.39600 22.77000 23.96000
C  -1.48200 24.29200 25.65100
N  -2.61200 17.46700 24.86800
C  -2.23900 18.53000 24.13400
C  -1.97300 18.17000 22.66400
C  -1.89000 16.62100 22.83600
C  -2.37800 16.32800 24.22600
C  -3.11900 18.64100 21.66000
C  -0.44800 16.06800 22.64000
C  0.54200 16.27400 23.80000
N  -2.98700 15.68700 27.03100
C  -2.79400 14.70900 26.09500
C  -3.01600 13.42800 26.69300
C  -3.18700 13.70600 28.00500
C  -3.11200 15.06700 28.19800
C  -3.11100 12.08700 26.03100
C  -3.46100 13.03400 29.25500
O  -3.66500 11.87600 29.50900
C  -3.46800 14.18000 30.35900
C  -2.35300 13.85800 31.31500
O  -1.23900 14.30200 31.15300
O  -2.88400 13.16100 32.39200
C  -2.00900 13.09700 33.55100
H  -3.51000 21.09000 29.89000
H  -2.02900 20.55200 23.71100
H  -2.35700 14.11400 24.16000
H  -4.45100 16.63200 31.72400
H  -3.45700 19.41900 31.88100
H  -5.79000 19.39400 32.41400
H  -6.03500 18.09100 31.24700
H  -5.96600 19.70600 30.60400
H  -1.66500 16.80900 32.12900
H  -3.10800 16.07200 33.04400
H  -3.25800 18.38800 33.83300
H  -1.59200 18.53100 33.46700
H  -3.21300 24.09800 28.04600
H  -1.57900 23.68700 28.26400
H  -2.91900 23.00100 29.36100
H  -0.68800 24.18400 26.39000
H  -2.42900 24.64400 26.06000
H  -1.03000 24.92800 24.89000
H  -0.99100 18.62200 22.52100
H  -2.45700 16.16000 22.02800
H  -2.80900 19.49200 21.05400
H  -3.97100 19.05500 22.20000
H  -3.54000 17.83000 21.06600
H  0.01300 16.72100 21.89900
H  -0.44400 15.05500 22.23800
H  0.07800 16.29200 24.78600
H  0.87100 17.29200 23.59300
H  1.30300 15.51100 23.63400
H  -2.40700 12.04400 25.19900
H  -4.06800 11.91700 25.53900
H  -3.06300 11.24500 26.72100
H  -4.35000 14.16200 30.99900
H  -1.03200 12.68500 33.29700
H  -2.49000 12.38500 34.22200
H  -1.73100 14.08500 33.91800
Mg 0.53100 43.52000 25.97200
C  2.50300 43.32400 28.66600
C  -2.26000 42.92900 27.84800
C  -1.45400 43.16100 23.11600
C  3.35400 43.72500 23.89500
N  0.23800 42.96400 27.95400
C  1.15400 43.22500 28.95900
C  0.52800 43.25700 30.37700
C  -0.92500 42.76500 30.13400
C  -1.00100 42.92500 28.53800
C  -1.30600 41.30900 30.53600
C  0.52700 44.65600 31.03200
C  0.76100 44.72400 32.58900
H  0.44100 43.42200 33.38600
N  -1.65400 43.24000 25.53900
C  -2.59300 43.03200 26.50300
C  -3.90900 42.92600 25.93200
C  -3.65500 43.00900 24.53800
C  -2.21900 43.17300 24.31400
C  -5.23200 42.71300 26.64500
C  -4.72800 42.99300 23.34400
O  -4.51100 42.85000 22.15300
C  -6.14100 43.04000 23.65600
N  0.89500 43.30000 23.72700
C  -0.04000 43.18200 22.79200
C  0.54200 42.87200 21.42500
C  2.02500 43.33500 21.67400
C  2.12000 43.53700 23.22900
C  0.29700 41.41400 20.95500
C  2.34000 44.60000 20.81400
C  1.65400 45.93400 21.19000
N  2.68300 43.52800 26.15800
C  3.67800 43.68100 25.24300
C  4.89800 43.67700 25.93700
C  4.49200 43.58600 27.33100
C  3.13600 43.44000 27.37900
C  6.34300 43.80900 25.49700
C  4.94900 43.57100 28.71600
O  6.03100 43.48700 29.16000
C  3.65700 43.54900 29.56000
C  3.91800 42.48200 30.51500
O  3.64200 41.28500 30.34000
O  4.50800 42.96300 31.67000
C  4.72600 42.06400 32.81200
H  -3.06500 42.84600 28.58100
H  -2.16100 43.01600 22.29700
H  4.18800 44.04900 23.27000
H  1.03900 42.55400 31.03500
H  -1.67300 43.47900 30.47700
H  -2.11200 41.47200 31.25200
H  -0.45400 40.80400 30.99100
H  -1.74200 40.76100 29.70100
H  -0.35300 45.21500 30.71500
H  1.42200 45.13900 30.64100
H  0.08000 45.44800 33.03600
H  1.76400 45.07100 32.83800
H  -4.99400 42.74900 27.70800
H  -5.52400 41.75800 26.20800
H  -5.87400 43.55300 26.37600
H  -6.45400 42.17700 24.24300
H  -6.61300 42.93200 22.68000
H  -6.49100 43.95000 24.14300
H  -0.06500 43.51400 20.78600
H  2.74700 42.58400 21.35100
H  -0.23200 41.28000 20.01100
H  -0.44100 40.96600 21.62000
H  1.22300 40.84500 20.87400
H  1.97500 44.39400 19.80800
H  3.40400 44.77900 20.65900
H  2.31500 46.71200 20.80800
H  1.65800 45.97200 22.27900
H  0.61700 45.95500 20.85400
H  6.53900 43.22700 24.59600
H  6.89600 43.38400 26.33400
H  6.51500 44.85800 25.25600
H  3.51000 44.44900 30.15600
H  5.77500 42.06900 33.10800
H  4.32000 41.06400 32.66000
H  4.11400 42.46900 33.61900

