158

Mg 54.20000 24.46500 44.80900
C  51.68800 26.72400 43.65200
C  52.43400 21.85900 43.51800
C  57.10800 22.79100 44.85100
C  56.00200 27.46900 45.78400
N  52.33200 24.30000 43.67900
C  51.49000 25.38100 43.28900
C  50.21000 24.73200 42.64200
C  50.31800 23.18500 43.11900
C  51.78300 23.08400 43.41300
C  49.54400 22.74300 44.34200
C  50.06800 24.86400 41.07300
C  51.27400 25.06500 40.23700
H  52.30300 23.97300 40.05300
N  54.66500 22.55300 44.42700
C  53.80000 21.61000 43.89000
C  54.46900 20.36800 43.79400
C  55.83000 20.56100 44.29300
C  55.93400 22.03100 44.58100
C  53.82600 19.18800 43.24900
C  56.96000 19.55400 44.46100
O  56.78900 18.34800 44.20200
C  58.34800 19.93600 44.99000
N  56.23600 25.02400 45.32200
C  57.23300 24.12300 45.22200
C  58.58600 24.76100 45.28500
C  58.26000 26.22400 45.52100
C  56.78300 26.28000 45.58900
C  59.60600 24.19000 46.31600
C  58.80600 27.17200 44.31400
C  59.78100 28.37600 44.75800
N  53.93400 26.66400 44.84900
C  54.65800 27.68300 45.38900
C  53.84900 28.90100 45.52200
C  52.62900 28.55000 44.87800
C  52.74800 27.17100 44.46600
C  54.26600 30.25400 46.14200
C  51.35700 29.03100 44.43100
O  50.80600 30.09500 44.55200
C  50.73700 27.91900 43.49200
C  50.60200 28.41500 42.07300
O  51.46300 28.91000 41.32800
O  49.31500 28.15300 41.77200
C  48.89200 28.54200 40.36000
H  51.77600 20.98900 43.45900
H  58.03600 22.22400 44.76000
H  56.50600 28.40600 46.03300
H  49.29200 25.13700 43.06700
H  49.98900 22.45800 42.37700
H  50.23300 22.13500 44.92700
H  48.67600 22.16400 44.02800
H  49.27600 23.55400 45.02000
H  49.38800 25.69300 40.87800
H  49.55000 24.05400 40.56000
H  51.69300 25.89800 40.80200
H  50.98300 25.15100 39.19000
H  53.47600 19.50200 42.26600
H  52.99800 18.91300 43.90200
H  54.54800 18.38600 43.09800
H  58.91800 19.05600 45.28700
H  58.30700 20.56100 45.88200
H  59.05100 20.45100 44.33500
H  59.05700 24.57600 44.32000
H  58.52900 26.54100 46.52900
H  59.09500 23.62200 47.09300
H  60.23300 24.93000 46.81300
H  60.36800 23.60800 45.79800
H  57.98500 27.65600 43.78500
H  59.28500 26.69100 43.46100
H  60.82500 28.27600 44.46400
H  59.82200 28.54800 45.83400
H  59.19800 29.21600 44.37900
H  55.20700 30.62400 45.73500
H  54.27800 30.04300 47.21100
H  53.50300 31.03200 46.14100
H  49.75500 27.61800 43.85600
H  49.66400 28.93900 39.70200
H  48.04000 29.22000 40.32100
H  48.46500 27.64600 39.91000
Mg 10.34900 47.45500 25.31700
C  8.65100 47.74700 28.46000
C  13.11000 48.70200 26.87400
C  11.81500 47.45900 22.28600
C  7.22200 46.95800 23.89700
N  10.77400 48.07800 27.50000
C  10.02100 48.07100 28.61400
C  10.76300 48.53700 29.81100
C  12.07700 49.11300 29.19600
C  12.04900 48.51100 27.78400
C  12.17100 50.70300 29.15000
C  10.98400 47.37800 30.86600
C  10.42100 47.56000 32.32800
H  10.42300 46.29000 33.20500
N  12.26900 47.68900 24.73500
C  13.21500 48.20900 25.54800
C  14.46400 48.35000 24.83100
C  14.14800 47.91600 23.49000
C  12.73500 47.65400 23.42400
C  15.70200 48.81000 25.48900
C  15.04200 47.85700 22.30600
O  14.62200 47.45200 21.25500
C  16.46100 48.32500 22.34000
N  9.64600 47.38000 23.48200
C  10.43400 47.27300 22.35300
C  9.63800 47.07000 21.03900
C  8.30000 46.60700 21.60400
C  8.39200 46.99400 23.09900
C  9.62400 48.34100 20.11900
C  8.01100 45.06600 21.31500
C  8.26200 43.98600 22.43000
N  8.30000 47.44700 25.97700
C  7.09300 47.14700 25.29200
C  6.00500 47.16800 26.21900
C  6.62400 47.46600 27.42900
C  7.95400 47.57200 27.24000
C  4.66600 46.65100 25.80100
C  6.21700 47.51000 28.81300
O  5.10100 47.45100 29.35100
C  7.55700 47.68700 29.55400
C  7.69100 46.45900 30.52000
O  8.32900 45.46500 30.16300
O  6.85800 46.54600 31.59500
C  6.72200 45.29500 32.37200
H  13.94200 49.10300 27.45700
H  12.21700 47.44100 21.27100
H  6.28000 46.63600 23.44900
H  10.06700 49.28200 30.19500
H  12.83300 48.76200 29.89800
H  11.19100 51.16200 29.01500
H  12.79200 51.08900 28.34300
H  12.57100 51.03600 30.10800
H  12.06000 47.40400 31.03700
H  10.77200 46.40400 30.42700
H  9.38500 47.84300 32.14200
H  10.87500 48.29300 32.99500
H  16.15500 49.62600 24.92600
H  16.35300 47.97800 25.75700
H  15.58700 49.24300 26.48300
H  17.02100 47.79900 21.56700
H  16.90700 48.12800 23.31400
H  16.44900 49.40900 22.22600
H  10.12800 46.25300 20.50900
H  7.47200 47.26000 21.32600
H  8.57200 48.62800 20.12300
H  9.86600 48.10800 19.08200
H  10.33300 49.05100 20.54400
H  8.67700 44.72400 20.52300
H  7.04700 44.88500 20.83900
H  8.15400 44.39000 23.43600
H  9.20400 43.44600 22.34400
H  7.47500 43.23900 22.32800
H  3.97000 47.28000 26.35600
H  4.45700 45.59500 25.97000
H  4.48400 46.75600 24.73100
H  7.69100 48.54500 30.21200
H  7.64700 44.71800 32.40400
H  6.02500 44.61400 31.88400
H  6.46600 45.40200 33.42600

