158

Mg 25.75800 0.34100 29.24500
C  27.36100 0.27500 32.43800
C  22.81000 0.56300 30.90600
C  24.27400 -0.32500 26.40200
C  28.87500 -0.71100 27.96700
N  25.14400 0.47900 31.55100
C  26.02500 0.52100 32.61600
C  25.29300 0.79600 33.87800
C  23.78300 0.76000 33.34000
C  23.85600 0.62000 31.88300
C  22.88200 -0.30800 34.06400
C  25.68800 2.16300 34.52700
C  26.02000 2.04300 36.02600
H  25.60100 3.10500 37.10900
N  23.87800 0.22000 28.69300
C  22.77700 0.34400 29.54400
C  21.57500 0.13500 28.79800
C  21.92600 -0.00300 27.46200
C  23.39600 0.04400 27.46400
C  20.17900 0.14700 29.44700
C  21.06800 -0.29000 26.23800
O  21.55700 -0.42500 25.11700
C  19.60700 -0.47400 26.35400
N  26.48900 -0.46700 27.42000
C  25.69200 -0.48000 26.34200
C  26.54900 -0.58400 25.04600
C  28.01400 -0.37500 25.57300
C  27.82200 -0.52800 27.08300
C  26.37700 -2.02300 24.45800
C  28.75200 0.94400 25.16600
C  28.05300 2.24400 25.13600
N  27.79300 -0.13000 30.02000
C  28.88100 -0.45700 29.35800
C  30.03300 -0.44100 30.28800
C  29.44600 -0.25700 31.50400
C  28.05300 -0.06100 31.26000
C  31.34500 -0.90400 29.92200
C  29.70600 -0.09000 32.90500
O  30.77300 -0.00100 33.48300
C  28.38400 0.28000 33.59200
C  28.17400 -0.81400 34.58800
O  27.55900 -1.83800 34.40700
O  28.82700 -0.45100 35.77500
C  28.86600 -1.51900 36.82800
H  21.86600 0.70600 31.43600
H  23.84000 -0.72000 25.48200
H  29.88200 -0.70100 27.54500
H  25.43200 -0.00800 34.60000
H  23.23200 1.68000 33.53500
H  22.03800 -0.59200 33.43600
H  22.46900 0.16000 34.95700
H  23.49800 -1.14000 34.40600
H  24.92200 2.92500 34.37700
H  26.53500 2.52500 33.94500
H  27.10600 2.12600 36.05300
H  25.75300 1.10000 36.50400
H  19.74900 1.14500 29.36500
H  20.23500 -0.09700 30.50800
H  19.58700 -0.68700 29.07300
H  19.42600 -1.47500 26.74600
H  19.32000 -0.22100 25.33400
H  19.33000 0.30300 27.06600
H  26.38300 0.15100 24.25900
H  28.61100 -1.19000 25.16300
H  26.47500 -1.97500 23.37300
H  25.46700 -2.51600 24.79700
H  27.20800 -2.67600 24.72400
H  29.25700 0.87800 24.20200
H  29.55200 1.01600 25.90300
H  28.12800 2.71100 24.15400
H  28.16300 3.01500 25.89800
H  26.98700 2.05300 25.26100
H  31.92400 -0.23500 29.28600
H  31.51900 -1.95100 29.67500
H  31.83900 -0.86400 30.89200
H  28.33900 1.32000 33.91600
H  29.40200 -2.40100 36.47700
H  27.93300 -1.68200 37.36700
H  29.47400 -1.20100 37.67500
Mg 43.79200 4.51400 47.85600
C  41.62900 7.20000 47.23100
C  41.26000 2.36900 47.52600
C  46.05000 2.11600 47.65100
C  46.54100 6.91200 47.82400
N  41.68300 4.70100 47.36000
C  41.01800 5.90200 47.23400
C  39.48700 5.65500 47.10600
C  39.31200 4.11000 47.40100
C  40.77800 3.71300 47.61600
C  38.36300 3.70300 48.58400
C  39.05500 6.06700 45.64300
C  37.82900 6.93600 45.45900
H  37.10900 6.85000 44.11800
N  43.64900 2.51000 47.58100
C  42.51800 1.82400 47.53900
C  42.83100 0.38900 47.55300
C  44.26600 0.27300 47.41800
C  44.74000 1.67600 47.54700
C  41.70400 -0.63200 47.62200
C  45.01800 -1.04500 47.30900
O  44.45000 -2.12400 47.31100
C  46.50400 -1.00800 47.08600
N  45.94200 4.49600 47.66500
C  46.58000 3.34000 47.76800
C  48.14600 3.54300 47.84100
C  48.31100 5.11300 47.75000
C  46.81800 5.55400 47.74700
C  48.81900 2.87300 49.10100
C  49.01000 5.62900 46.47000
C  50.42200 6.07500 46.63000
N  44.07900 6.65400 47.73600
C  45.24000 7.47100 47.66500
C  44.78100 8.86800 47.53300
C  43.38600 8.86100 47.49200
C  42.98900 7.46800 47.44200
C  45.67200 10.04700 47.29900
C  42.16900 9.61700 47.31300
O  42.07000 10.84900 47.33000
C  40.96600 8.52800 47.06900
C  39.92100 8.81400 48.05900
O  39.89900 8.40400 49.18100
O  38.84000 9.49500 47.46000
C  37.72500 9.82800 48.38400
H  40.42300 1.66900 47.49000
H  46.86400 1.39300 47.73300
H  47.33400 7.66200 47.85000
H  38.99400 6.26500 47.86300
H  38.92900 3.62200 46.50400
H  37.61900 2.96000 48.29700
H  37.73900 4.53700 48.90500
H  38.94500 3.37400 49.44500
H  38.75100 5.15200 45.13600
H  39.88300 6.52400 45.10200
H  38.19200 7.96300 45.41700
H  37.12400 6.78000 46.27500
H  40.83200 -0.31300 48.19300
H  42.21000 -1.40300 48.20400
H  41.35200 -1.10400 46.70500
H  46.86800 -0.40100 46.25800
H  46.85500 -1.99000 46.76900
H  47.09000 -0.78300 47.97800
H  48.58400 3.17200 46.91400
H  48.63600 5.64600 48.64300
H  49.59100 2.13200 48.89400
H  48.03100 2.51400 49.76300
H  49.29500 3.70900 49.61400
H  48.42900 6.40900 45.97700
H  49.03700 4.86500 45.69200
H  50.83800 5.78200 45.66500
H  50.97900 5.55000 47.40600
H  50.60600 7.13700 46.79100
H  46.37500 9.83100 46.49400
H  46.16900 10.34600 48.22200
H  44.95000 10.83100 47.07100
H  40.41100 8.74500 46.15700
H  37.61300 9.02800 49.11600
H  36.80300 10.18100 47.92200
H  38.10500 10.70000 48.91500

