158

Mg 9.37200 48.17900 26.72000
C  7.39400 48.13400 29.57700
C  11.99200 49.27900 28.63200
C  11.21300 48.29500 23.90600
C  6.60300 47.68600 24.78900
N  9.62000 48.69500 28.97100
C  8.65600 48.56000 29.91500
C  9.29400 48.84100 31.32900
C  10.84100 49.16800 30.96100
C  10.86700 49.07000 29.39400
C  11.49900 50.44800 31.57800
C  8.97000 47.71200 32.27700
C  10.02000 47.45200 33.23400
H  9.50900 46.94100 34.63400
N  11.36000 48.62400 26.35900
C  12.24800 49.07300 27.23800
C  13.56100 49.29600 26.61100
C  13.38600 48.92900 25.24100
C  11.92200 48.62100 25.09900
C  14.80100 49.80400 27.31100
C  14.36500 48.73500 24.09400
O  14.05400 48.42800 22.93300
C  15.79500 48.79800 24.39800
N  8.99900 47.88500 24.65800
C  9.90200 48.06300 23.70900
C  9.29400 47.90800 22.27400
C  7.80900 47.54000 22.56200
C  7.77300 47.63300 24.09800
C  9.47300 49.20700 21.41600
C  7.28800 46.18500 21.87600
C  6.76400 46.33000 20.51200
N  7.45300 47.85500 27.08700
C  6.43300 47.73100 26.14400
C  5.20200 47.50900 26.86600
C  5.56800 47.54400 28.22600
C  6.94200 47.79200 28.29800
C  3.88900 47.20000 26.23500
C  5.07400 47.58700 29.58600
O  3.89600 47.52900 29.99600
C  6.20300 47.85200 30.53500
C  6.29300 46.62400 31.26400
O  6.70100 45.57400 30.87400
O  5.58800 46.81200 32.48400
C  5.28600 45.55500 33.17100
H  12.87400 49.55600 29.21400
H  11.70100 48.31600 22.93000
H  5.77400 47.64000 24.08000
H  8.80800 49.77600 31.60900
H  11.39400 48.26900 31.23500
H  11.01800 50.78800 32.49500
H  11.46000 51.25500 30.84600
H  12.53900 50.21600 31.80700
H  8.86000 46.88100 31.58100
H  8.02900 47.96600 32.76500
H  10.58600 48.35900 33.44600
H  10.69800 46.68800 32.85100
H  15.16200 50.57500 26.63000
H  15.49900 49.04600 27.66500
H  14.54800 50.34800 28.22100
H  16.41000 48.57900 23.52500
H  15.98100 48.23200 25.31000
H  16.03700 49.84800 24.56000
H  9.83000 47.11600 21.75200
H  7.18600 48.34300 22.16800
H  9.80900 48.79400 20.46500
H  10.29700 49.79300 21.82400
H  8.58900 49.83800 21.33200
H  6.50900 45.73800 22.49400
H  8.22300 45.62800 21.80200
H  6.26000 47.29500 20.44900
H  6.09200 45.51400 20.24800
H  7.62200 46.28200 19.84100
H  3.74900 46.17900 25.87900
H  3.60800 47.85400 25.40900
H  3.15200 47.41700 27.00700
H  5.90900 48.64900 31.21800
H  4.97200 45.70600 34.20400
H  6.18700 44.94600 33.24700
H  4.45200 44.97600 32.77500
Mg -5.13200 25.45200 25.69500
C  -3.71500 26.99100 28.46300
C  -6.68200 23.20000 27.78000
C  -6.65900 24.20400 22.94600
C  -3.31600 27.63300 23.52000
N  -5.03500 25.03000 27.90400
C  -4.49900 25.86900 28.83300
C  -4.84000 25.46400 30.26000
C  -5.67300 24.16200 30.02700
C  -5.77700 24.05600 28.51300
C  -5.11300 22.83600 30.63300
C  -5.56600 26.66800 31.00100
C  -5.56500 26.81300 32.52200
H  -4.82000 25.80800 33.36900
N  -6.40700 23.84200 25.40400
C  -6.89700 22.99000 26.38700
C  -7.87300 22.03600 25.72800
C  -7.87100 22.34600 24.31400
C  -6.90900 23.51600 24.14800
C  -8.56100 20.99900 26.49400
C  -8.76100 21.75000 23.22500
O  -8.56800 21.99000 22.04300
C  -9.86900 20.84700 23.47500
N  -4.99600 25.87400 23.46700
C  -5.85100 25.26200 22.64900
C  -5.52300 25.64500 21.19200
C  -4.39200 26.79500 21.32100
C  -4.17200 26.73300 22.84900
C  -5.02900 24.42800 20.31600
C  -4.89600 28.18900 20.81100
C  -3.89000 29.00100 20.01100
N  -3.79000 26.99100 25.85500
C  -3.11300 27.77100 24.94900
C  -2.31000 28.72300 25.66400
C  -2.48400 28.42300 27.02300
C  -3.46600 27.40900 27.14400
C  -1.46300 29.88000 25.20100
C  -2.06700 28.74800 28.30100
O  -1.14800 29.48800 28.68600
C  -2.86000 27.91000 29.34700
C  -1.85200 27.12400 30.11500
O  -1.32400 26.06100 29.73400
O  -1.51400 27.76600 31.23300
C  -0.46300 27.24800 32.11000
H  -7.15500 22.48200 28.45300
H  -7.21800 23.97700 22.03600
H  -2.75200 28.43300 23.03500
H  -3.91900 25.25700 30.80500
H  -6.68400 24.35100 30.38600
H  -4.77800 22.11500 29.88700
H  -5.90800 22.34900 31.19800
H  -4.27300 23.08000 31.28300
H  -6.63500 26.62800 30.79300
H  -5.26400 27.64000 30.61300
H  -6.59400 26.60400 32.81600
H  -5.24400 27.82000 32.78800
H  -9.52400 20.73700 26.05500
H  -8.77200 21.49300 27.44300
H  -7.91800 20.12300 26.41900
H  -9.58700 20.08000 24.19600
H  -10.20300 20.33700 22.57200
H  -10.75100 21.31500 23.91200
H  -6.33500 26.10600 20.63000
H  -3.44000 26.49400 20.88400
H  -4.11000 24.61100 19.75900
H  -5.84400 24.16600 19.64100
H  -4.90300 23.53100 20.92200
H  -5.24200 28.65100 21.73500
H  -5.78700 28.20100 20.18300
H  -4.22300 29.27500 19.01000
H  -2.89800 28.56200 19.90400
H  -3.69800 29.88500 20.62000
H  -0.45200 29.49800 25.06100
H  -1.58600 30.72700 25.87500
H  -1.84800 30.23700 24.24600
H  -3.39100 28.55300 30.04800
H  0.34500 27.96900 31.98400
H  -0.02000 26.31600 31.75900
H  -0.91700 27.13600 33.09400

