158

Mg 40.47800 9.23400 29.31600
C  42.25800 10.65000 31.83200
C  38.05600 8.13800 31.56000
C  38.66200 8.04300 26.70100
C  43.06500 10.28400 27.01300
N  40.21800 9.44200 31.44600
C  41.10300 10.02000 32.28500
C  40.54100 10.03100 33.69200
C  39.43200 9.01700 33.52900
C  39.16400 8.86100 32.06400
C  39.48600 7.66300 34.34900
C  40.06200 11.41900 34.25800
C  40.75400 11.79100 35.61100
H  39.94500 12.27200 36.81200
N  38.66000 8.11100 29.17100
C  37.79800 7.85300 30.19300
C  36.57500 7.24000 29.62000
C  36.76200 7.18900 28.21800
C  38.08200 7.79900 27.95500
C  35.45400 6.68400 30.47200
C  35.95500 6.45400 27.24300
O  36.16700 6.45000 26.02600
C  34.79500 5.62100 27.62900
N  40.88200 9.21200 27.20300
C  39.94100 8.64900 26.35100
C  40.35100 8.81600 24.86500
C  41.77000 9.45700 24.95500
C  41.93200 9.68200 26.49200
C  40.14500 7.59300 23.96800
C  41.91200 10.70400 23.97700
C  41.45200 12.10100 24.57500
N  42.25000 10.15700 29.37100
C  43.23500 10.51700 28.41100
C  44.30900 11.23800 29.00100
C  44.02500 11.33000 30.38800
C  42.73800 10.67400 30.52700
C  45.55100 11.63000 28.24900
C  44.45600 11.77100 31.61900
O  45.51600 12.32500 31.99500
C  43.33100 11.34200 32.70800
C  43.95500 10.42700 33.60700
O  44.16300 9.21700 33.45800
O  44.13000 11.06700 34.78000
C  44.78100 10.28900 35.86600
H  37.22900 7.91300 32.23700
H  38.11700 7.68900 25.82300
H  43.76400 10.75300 26.31800
H  41.25500 9.56400 34.37100
H  38.54500 9.57900 33.82000
H  40.33700 7.67900 35.03000
H  39.68900 6.80600 33.70700
H  38.63400 7.52200 35.01500
H  38.99500 11.41800 34.47800
H  40.28200 12.10300 33.43800
H  41.40700 12.65200 35.46700
H  41.33800 10.90700 35.86700
H  35.29200 5.62000 30.30000
H  34.56200 7.18900 30.10200
H  35.78300 6.94500 31.47800
H  35.05700 4.76500 28.25100
H  34.35200 5.11600 26.77000
H  34.03500 6.17900 28.17600
H  39.64000 9.58200 24.55200
H  42.53200 8.72400 24.69000
H  39.10200 7.51900 23.66100
H  40.48600 6.72400 24.53100
H  40.66100 7.66500 23.01100
H  41.23300 10.47000 23.15800
H  42.96400 10.70000 23.69400
H  41.10000 11.92900 25.59200
H  40.59300 12.54400 24.07000
H  42.31500 12.76600 24.59800
H  46.08700 12.07000 29.09000
H  45.45800 12.42800 27.51300
H  46.04700 10.73900 27.86300
H  42.86500 12.22600 33.14400
H  45.13700 9.30500 35.56100
H  44.06400 10.01000 36.63900
H  45.49600 10.96000 36.34200
Mg 9.48000 48.03300 26.01900
C  7.44700 48.43900 28.87600
C  12.15700 49.20700 27.95100
C  11.39800 48.10900 23.24900
C  6.57300 47.69900 24.14100
N  9.67300 48.83400 28.12500
C  8.79000 48.74700 29.17700
C  9.49800 49.00500 30.55900
C  10.93900 49.58200 30.19500
C  10.95800 49.18300 28.66000
C  11.20400 51.15700 30.30200
C  9.55700 47.71900 31.42900
C  10.38800 47.77100 32.68000
H  9.83300 46.99200 33.86900
N  11.55700 48.35000 25.71000
C  12.45400 48.81800 26.60600
C  13.78100 48.83900 25.95900
C  13.59800 48.42400 24.60800
C  12.14600 48.31000 24.47200
C  15.07600 49.12100 26.68400
C  14.64900 48.15600 23.58300
O  14.30600 47.77800 22.46900
C  16.20000 48.24800 23.85900
N  9.10500 47.61300 24.09800
C  10.02500 47.80500 23.05300
C  9.38600 47.63000 21.62700
C  7.91400 47.33500 21.98700
C  7.84300 47.57100 23.52800
C  9.67400 48.60000 20.43600
C  7.38200 46.00300 21.47900
C  6.54300 46.07600 20.20300
N  7.42700 47.95200 26.38800
C  6.35800 47.78600 25.48000
C  5.07900 47.84900 26.19100
C  5.49000 48.07900 27.60000
C  6.88500 48.20400 27.58600
C  3.69800 47.61000 25.64700
C  5.00500 48.29100 28.91300
O  3.87300 48.22100 29.37400
C  6.29500 48.43300 29.88700
C  6.22700 47.21200 30.71100
O  6.51900 46.14100 30.30300
O  5.73200 47.40500 31.98700
C  5.22200 46.29300 32.78500
H  13.02400 49.60400 28.48400
H  11.87200 48.00200 22.27100
H  5.72600 47.54900 23.46800
H  8.89200 49.79200 31.00600
H  11.86400 49.17000 30.59800
H  11.54700 51.33100 31.32200
H  10.20700 51.56000 30.12200
H  11.85400 51.59800 29.54600
H  9.88000 46.98800 30.68800
H  8.54300 47.51000 31.77000
H  10.54500 48.82600 32.90100
H  11.32900 47.32200 32.36000
H  15.00900 49.69600 27.60800
H  15.63300 49.75100 25.99000
H  15.70100 48.27700 26.97500
H  16.36400 47.61400 24.73000
H  16.50700 49.27200 24.07200
H  16.85600 47.91700 23.05400
H  9.85400 46.67000 21.40800
H  7.35000 48.19400 21.62400
H  10.33300 48.18100 19.67600
H  10.17300 49.44900 20.90300
H  8.75300 48.99600 20.00900
H  6.64700 45.63200 22.19400
H  8.13000 45.21600 21.37800
H  6.75600 47.00600 19.67400
H  5.48300 46.03200 20.45200
H  6.85000 45.15500 19.70800
H  2.92200 47.75200 26.39900
H  3.78000 46.54100 25.45000
H  3.47500 48.03600 24.66900
H  6.33500 49.27500 30.57700
H  4.83500 46.74000 33.70100
H  6.07600 45.64600 32.98700
H  4.50000 45.62200 32.32000

