158

Mg 47.59400 25.33200 29.51600
C  48.37400 27.74800 31.90200
C  46.07800 23.46700 32.05800
C  47.15500 22.90900 27.26900
C  49.34300 27.22500 27.05000
N  47.28100 25.54000 31.79200
C  47.73400 26.65400 32.48400
C  47.33000 26.45400 34.05500
C  46.87600 24.88500 34.04000
C  46.75000 24.59400 32.56600
C  47.88500 23.90000 34.69800
C  46.37800 27.52500 34.48000
C  46.35800 27.91800 35.93200
H  47.21500 27.18500 36.97100
N  46.71400 23.50800 29.63500
C  46.06800 22.91400 30.71300
C  45.49700 21.65600 30.30900
C  45.79500 21.52200 28.86600
C  46.64100 22.64000 28.54600
C  44.70600 20.74700 31.13300
C  45.28600 20.52900 27.82800
O  45.35200 20.66300 26.58900
C  44.59400 19.29900 28.42600
N  48.10800 25.15000 27.45900
C  47.78300 24.05800 26.74500
C  48.35200 24.09600 25.33200
C  48.81600 25.60700 25.23000
C  48.74900 26.05900 26.65500
C  49.51100 23.18200 25.11200
C  47.94000 26.49100 24.25400
C  48.65200 26.96400 22.95300
N  48.61500 27.05800 29.36800
C  49.24800 27.71300 28.34400
C  49.62900 29.05600 28.78500
C  49.28700 29.16400 30.16300
C  48.74500 27.87400 30.48200
C  50.22500 30.09000 27.81200
C  49.29300 30.04200 31.32500
O  49.65000 31.17400 31.50800
C  48.83300 29.09300 32.44200
C  49.96100 28.89800 33.40700
O  51.07300 28.63300 33.01900
O  49.48300 29.01500 34.69600
C  50.52300 28.68400 35.63000
H  45.57300 22.91100 32.85100
H  47.22100 22.06600 26.57900
H  49.87700 27.83600 26.32000
H  48.29000 26.67000 34.52400
H  45.86400 24.72900 34.41400
H  48.31100 23.27000 33.91700
H  47.33500 23.22000 35.34900
H  48.57100 24.54500 35.24700
H  45.45600 26.94500 34.43700
H  46.13700 28.34500 33.80400
H  45.30200 27.94400 36.19900
H  46.62000 28.97600 35.90200
H  45.01400 19.70200 31.15200
H  43.63100 20.74800 30.95500
H  44.76600 21.15500 32.14200
H  45.14500 18.76300 29.19800
H  44.33500 18.63000 27.60500
H  43.68600 19.74600 28.83200
H  47.54600 23.72500 24.69800
H  49.85000 25.71700 24.90400
H  50.24700 23.49700 24.37300
H  48.98700 22.36900 24.60900
H  49.94800 22.76200 26.01800
H  47.59200 27.39600 24.75100
H  47.08600 25.91200 23.90400
H  48.18600 26.39000 22.15200
H  49.72000 26.74900 22.95000
H  48.37000 28.00100 22.77000
H  51.31400 30.10400 27.77400
H  49.96100 31.07700 28.19300
H  49.83400 29.88600 26.81500
H  47.97900 29.50600 32.98000
H  50.82400 27.65500 35.43100
H  50.19300 28.69900 36.66900
H  51.37600 29.36300 35.63700
Mg 48.42100 35.31500 27.42800
C  46.49700 33.81800 30.06600
C  48.59300 38.16000 29.22200
C  49.70400 36.77100 24.65000
C  47.53400 32.44100 25.49000
N  47.70700 35.87000 29.35800
C  47.07800 35.07400 30.28500
C  47.23800 35.69300 31.69600
C  47.33400 37.23200 31.34000
C  47.90300 37.11100 29.90300
C  46.04700 38.09800 31.55400
C  48.52900 35.07700 32.36900
C  48.53200 35.07700 33.85700
H  47.69600 36.07200 34.57000
N  49.22900 37.14500 27.05800
C  49.29800 38.15400 27.98600
C  50.04400 39.29700 27.39900
C  50.26300 38.94600 26.05600
C  49.69700 37.61500 25.85100
C  50.35700 40.59400 28.13300
C  50.87800 39.81000 24.94800
O  51.07800 39.31000 23.87700
C  51.40700 41.16600 25.16400
N  48.42000 34.74100 25.32400
C  49.07300 35.50700 24.42000
C  49.10900 34.83700 22.98600
C  48.70400 33.36100 23.36700
C  48.14300 33.50800 24.79500
C  48.02400 35.42900 21.98800
C  49.95400 32.41100 23.35400
C  49.74000 31.00000 22.71100
N  47.27900 33.44800 27.65500
C  47.08000 32.36500 26.82500
C  46.26000 31.36000 27.54500
C  46.06500 31.86100 28.82900
C  46.66200 33.15500 28.84500
C  45.81000 30.05200 27.05300
C  45.37800 31.65400 30.06200
O  44.74100 30.68300 30.48400
C  45.52800 33.00100 30.88100
C  45.85300 32.67200 32.31200
O  46.90800 32.16300 32.71600
O  44.79800 33.07300 33.12800
C  45.15100 32.94900 34.55900
H  48.69400 39.05600 29.83900
H  50.12100 37.28100 23.78000
H  47.38100 31.58200 24.83300
H  46.35200 35.43200 32.27500
H  48.07100 37.66000 32.02000
H  45.19700 37.58900 32.00900
H  45.70600 38.62800 30.66400
H  46.15800 38.96500 32.20500
H  49.29600 35.69500 31.90100
H  48.49800 34.06900 31.95700
H  49.58000 35.32300 34.02700
H  48.46500 34.04100 34.19000
H  50.20200 41.43000 27.45100
H  51.43300 40.67200 28.29200
H  49.69900 40.67500 28.99900
H  52.07800 41.40200 24.33900
H  51.92200 41.19400 26.12400
H  50.70600 42.00000 25.19100
H  50.12600 34.76800 22.60000
H  47.89100 32.84600 22.85400
H  47.47600 36.23900 22.47100
H  47.24800 34.69400 21.77700
H  48.45000 35.79200 21.05300
H  50.32300 32.34000 24.37700
H  50.78300 32.74800 22.73000
H  50.43500 30.94800 21.87200
H  48.80100 30.69700 22.24700
H  50.06500 30.27200 23.45400
H  46.08000 29.29000 27.78400
H  46.28400 29.73600 26.12300
H  44.74300 30.14500 26.85100
H  44.58000 33.53600 30.94800
H  45.35800 31.91000 34.81400
H  44.31100 33.23800 35.19000
H  45.98000 33.64800 34.67500

