158

Mg 16.56500 -2.59300 27.81000
C  15.49100 -0.35500 30.44500
C  18.65500 -4.03800 30.00500
C  18.25900 -3.94900 25.06200
C  14.62400 -0.69700 25.65400
N  16.99300 -2.19300 29.95800
C  16.41500 -1.35600 30.83700
C  16.98700 -1.51200 32.23800
C  18.18800 -2.55100 31.98000
C  17.91800 -2.97700 30.55700
C  19.63000 -2.11800 32.32400
C  15.93100 -1.98800 33.25100
C  16.17900 -1.70300 34.73100
H  17.51500 -1.20500 35.26200
N  18.17200 -3.93600 27.55400
C  18.84500 -4.45600 28.65200
C  19.66600 -5.58200 28.20200
C  19.59300 -5.49500 26.78800
C  18.59900 -4.47100 26.39500
C  20.33500 -6.57900 29.15800
C  20.45100 -6.24700 25.76600
O  20.42300 -6.04600 24.51400
C  21.29000 -7.52500 26.30500
N  16.47500 -2.34800 25.75900
C  17.27600 -2.98200 24.77100
C  16.92600 -2.56200 23.31800
C  15.66000 -1.58700 23.54000
C  15.56000 -1.54900 25.08700
C  18.04500 -1.89100 22.53700
C  14.31800 -2.01200 22.81000
C  13.68000 -0.96500 21.82700
N  15.30500 -0.90700 27.95700
C  14.56800 -0.27100 26.95800
C  13.77000 0.89200 27.56200
C  14.02700 0.82000 28.88400
C  14.98700 -0.21600 29.08300
C  13.01500 1.88100 26.85500
C  13.75200 1.47900 30.14300
O  13.00400 2.41900 30.45800
C  14.67500 0.73900 31.22100
C  15.67100 1.68900 31.81600
O  16.18100 2.62600 31.23100
O  15.90400 1.41000 33.18500
C  16.72600 2.48200 33.81000
H  19.12900 -4.61900 30.79900
H  18.62900 -4.31000 24.10000
H  13.89100 -0.16000 25.04800
H  17.42800 -0.55100 32.50200
H  18.01000 -3.46600 32.54500
H  19.73300 -1.03400 32.27200
H  20.33800 -2.67200 31.70800
H  19.96500 -2.40500 33.32100
H  15.89800 -3.07100 33.12900
H  14.96400 -1.56500 32.97900
H  15.97100 -2.68800 35.15000
H  15.28900 -1.19700 35.10700
H  21.40200 -6.36000 29.12000
H  20.27900 -7.60100 28.78300
H  20.02900 -6.53700 30.20300
H  20.54600 -8.19100 26.74300
H  22.12000 -7.20400 26.93300
H  21.71400 -8.15600 25.52400
H  16.58700 -3.48100 22.84200
H  15.96800 -0.54600 23.44300
H  18.27300 -2.54600 21.69600
H  18.92000 -1.76900 23.17600
H  17.80700 -0.87000 22.23800
H  13.58700 -2.15600 23.60600
H  14.39300 -3.02100 22.40300
H  13.64400 -1.48900 20.87200
H  14.42700 -0.19300 21.63900
H  12.71100 -0.54200 22.09100
H  13.41900 2.11200 25.86900
H  12.92200 2.80000 27.43500
H  12.03200 1.41200 26.81200
H  14.11100 0.29100 32.03900
H  16.59600 3.47600 33.38200
H  17.81200 2.39900 33.77500
H  16.47100 2.69200 34.84800
Mg 47.44000 34.81900 27.89600
C  45.37700 33.06800 30.22900
C  47.84300 37.33100 30.33200
C  48.30700 37.03400 25.61700
C  46.35500 32.56400 25.51700
N  46.75100 35.05600 30.02400
C  45.91400 34.23100 30.79500
C  46.08300 34.58000 32.31400
C  46.58300 36.07600 32.18200
C  47.06700 36.18800 30.72500
C  45.46600 37.02400 32.49900
C  47.20900 33.76800 32.96600
C  47.06800 33.56000 34.48300
H  46.26300 34.55800 35.31900
N  48.29600 36.74000 27.99600
C  48.46000 37.58700 29.12400
C  49.13500 38.79100 28.77900
C  49.25300 38.70700 27.34100
C  48.55200 37.45300 26.91000
C  49.45000 39.85900 29.83000
C  49.66100 39.75600 26.30600
O  49.68000 39.59900 25.10100
C  50.24100 41.03900 26.94700
N  47.24800 34.82600 25.80500
C  47.72800 35.83900 25.03900
C  47.40300 35.68700 23.52400
C  46.92300 34.15900 23.53800
C  46.86900 33.78600 25.04300
C  46.32200 36.70000 23.09700
C  47.83300 33.20500 22.75800
C  47.13500 32.36900 21.70800
N  46.32100 33.10900 27.82600
C  46.01900 32.21100 26.78200
C  45.19700 31.10900 27.21000
C  44.94900 31.41500 28.60800
C  45.61500 32.60600 28.90100
C  44.79300 29.78400 26.56600
C  44.30200 30.88900 29.82700
O  43.70900 29.88000 30.09200
C  44.30100 32.18800 30.81900
C  44.48600 31.83800 32.26000
O  45.44300 31.27000 32.68100
O  43.36600 32.22600 32.93600
C  43.33000 32.00700 34.39900
H  48.01100 38.00300 31.17600
H  48.37400 37.75500 24.79900
H  45.98100 31.96900 24.68200
H  45.14500 34.54400 32.86700
H  47.36800 36.22700 32.92400
H  45.82200 37.57700 33.36800
H  44.49200 36.58400 32.71300
H  45.25600 37.81500 31.77900
H  48.21700 34.17600 32.88400
H  47.27600 32.83400 32.40800
H  48.06000 33.56000 34.93400
H  46.57200 32.60000 34.62600
H  50.53100 39.98000 29.89800
H  49.09000 39.59900 30.82500
H  49.03700 40.80300 29.47600
H  49.34700 41.52100 27.34300
H  50.52300 41.53300 26.01800
H  51.03000 40.86300 27.67900
H  48.31300 35.81000 22.93600
H  45.93200 34.04400 23.10000
H  45.76200 36.29400 22.25500
H  46.77400 37.67100 22.89400
H  45.56600 36.91100 23.85400
H  48.37800 32.56900 23.45700
H  48.58900 33.78400 22.22800
H  46.04900 32.40600 21.62500
H  47.20900 31.35200 22.09100
H  47.72200 32.36600 20.79000
H  43.90000 29.90200 25.95300
H  44.73300 29.02800 27.35000
H  45.60500 29.49000 25.90000
H  43.26700 32.53200 30.77900
H  43.29000 32.97800 34.89300
H  44.16500 31.39600 34.74100
H  42.36700 31.54400 34.61600

