158

Mg 16.20100 -1.83600 27.96200
C  15.01700 0.22700 30.44600
C  18.11100 -3.52400 30.31800
C  17.54600 -3.70200 25.44400
C  14.54700 0.15200 25.60400
N  16.66200 -1.50000 30.04400
C  15.91700 -0.69100 30.90800
C  16.32500 -0.95700 32.38000
C  17.46200 -1.98500 32.26800
C  17.38100 -2.39700 30.79500
C  18.89200 -1.41200 32.56300
C  15.17000 -1.44000 33.25100
C  15.31800 -1.21300 34.75400
H  16.47100 -0.39000 35.31900
N  17.60900 -3.47200 27.88400
C  18.24500 -4.08400 28.97300
C  19.16700 -5.16100 28.45500
C  18.92100 -5.25400 27.07300
C  18.04000 -4.14400 26.70300
C  20.20200 -5.76700 29.30300
C  19.41300 -6.26500 26.01800
O  19.02900 -6.19000 24.86200
C  20.34700 -7.34600 26.36600
N  16.14100 -1.76800 25.95200
C  16.80300 -2.61400 25.07900
C  16.55100 -2.25400 23.60300
C  15.38100 -1.28300 23.69300
C  15.33400 -0.92100 25.20100
C  17.84200 -1.82700 22.82700
C  14.01900 -1.74300 23.10100
C  13.65100 -1.15000 21.72600
N  14.98100 -0.11900 27.98000
C  14.32000 0.52700 26.95900
C  13.42000 1.55600 27.57400
C  13.72900 1.54300 28.92000
C  14.70200 0.47200 29.11500
C  12.41600 2.44400 26.83500
C  13.35100 2.08900 30.18100
O  12.53300 2.99300 30.47400
C  14.17600 1.26700 31.17800
C  14.93400 2.13800 32.06800
O  16.06600 2.59100 31.99500
O  14.14200 2.52100 33.11000
C  14.74400 3.34800 34.12300
H  18.68400 -4.15900 30.99700
H  17.97700 -4.23600 24.59500
H  13.99000 0.63700 24.80000
H  16.68300 -0.06800 32.90000
H  17.23200 -2.80300 32.95100
H  19.19800 -2.00100 33.42800
H  18.84600 -0.36200 32.85300
H  19.47700 -1.45300 31.64400
H  15.13700 -2.52900 33.20600
H  14.21500 -1.04800 32.90400
H  15.45200 -2.16500 35.26600
H  14.41800 -0.70000 35.09400
H  21.14000 -6.04800 28.82300
H  19.86800 -6.60600 29.91300
H  20.54700 -5.02600 30.02400
H  20.07300 -7.96700 27.21800
H  21.35500 -6.94200 26.46500
H  20.24300 -7.98400 25.48800
H  16.19400 -3.19200 23.17900
H  15.71100 -0.39000 23.16100
H  18.03100 -2.24400 21.83800
H  18.63500 -2.18100 23.48600
H  17.89700 -0.74200 22.74200
H  13.12800 -1.57900 23.70600
H  14.05400 -2.82000 22.93200
H  14.48600 -1.28300 21.03800
H  13.51700 -0.07600 21.86000
H  12.73200 -1.57000 21.31800
H  12.22000 2.03500 25.84400
H  12.95100 3.33600 26.51000
H  11.53300 2.69600 27.42300
H  13.48300 0.69600 31.79500
H  14.01500 3.41700 34.93000
H  14.89900 4.38400 33.82200
H  15.60600 2.94300 34.65300
Mg 44.29600 3.91400 47.09400
C  42.55200 6.88500 46.60500
C  41.37100 2.15900 46.68700
C  46.17200 1.15200 46.64000
C  47.28000 5.83400 47.14200
N  42.26100 4.44500 46.45000
C  41.74800 5.72400 46.34200
C  40.26600 5.75300 46.12300
C  39.86100 4.24600 46.35600
C  41.19700 3.56400 46.65800
C  38.82200 4.03500 47.49100
C  39.96500 6.08100 44.55600
C  39.07900 7.27600 44.27700
H  39.48500 8.30500 43.17300
N  43.77400 1.87800 46.83000
C  42.50300 1.35000 46.74500
C  42.62000 -0.05100 46.57900
C  44.07200 -0.34500 46.54300
C  44.76300 0.91800 46.71100
C  41.42500 -0.99300 46.46400
C  44.58800 -1.78800 46.32100
O  43.80600 -2.63200 45.98500
C  46.04300 -2.22300 46.37600
N  46.38600 3.56300 46.92400
C  46.84800 2.32400 46.76500
C  48.36000 2.24900 46.60800
C  48.74700 3.81500 46.73900
C  47.37300 4.47600 46.88500
C  49.15900 1.30200 47.56000
C  49.59400 4.35600 45.60600
C  50.96300 4.95600 46.12500
N  44.84600 5.93900 46.87000
C  46.05900 6.58000 47.01800
C  45.87100 8.05000 47.06400
C  44.50800 8.21800 46.90900
C  43.92100 6.87600 46.81800
C  46.94700 9.11500 47.28100
C  43.48700 9.25500 46.92500
O  43.56900 10.48900 47.00300
C  42.18200 8.37000 46.62000
C  41.18000 8.52600 47.75600
O  41.27900 7.91700 48.84400
O  40.18100 9.47800 47.52400
C  39.27100 9.74500 48.68900
H  40.45400 1.56700 46.65100
H  46.68400 0.23800 46.33200
H  48.24800 6.33600 47.20500
H  39.71000 6.49100 46.70300
H  39.39700 3.82000 45.46700
H  38.57700 4.85500 48.16700
H  39.18800 3.27300 48.18000
H  37.88900 3.59500 47.13900
H  39.47100 5.24300 44.06500
H  40.86200 6.35900 44.00300
H  38.98100 7.84500 45.20200
H  38.04200 7.01600 44.06400
H  41.33600 -1.73700 47.25500
H  41.45900 -1.55900 45.53300
H  40.45200 -0.50100 46.46900
H  46.68100 -1.73300 45.64000
H  46.13100 -3.29900 46.22700
H  46.47200 -2.02300 47.35800
H  48.39800 1.86300 45.58900
H  49.20300 3.92500 47.72300
H  48.55500 0.72200 48.25700
H  49.83200 1.96000 48.11000
H  49.80000 0.66700 46.94900
H  49.01200 5.08900 45.04700
H  49.76400 3.53200 44.91200
H  51.69400 4.30100 45.65200
H  51.03300 5.07200 47.20700
H  51.23200 5.96600 45.81600
H  46.54400 9.96100 47.83900
H  47.25300 9.37900 46.26800
H  47.79000 8.72700 47.85300
H  41.74900 8.77400 45.70500
H  39.80800 10.28900 49.46700
H  38.75600 8.84300 49.02100
H  38.53500 10.43000 48.26800

