158

Mg 46.80000 15.92800 27.67500
C  44.84100 15.78400 30.59600
C  49.12400 17.67000 29.58500
C  48.58200 16.82400 24.88300
C  44.24700 14.77600 25.83600
N  46.89600 16.75300 29.81300
C  46.01100 16.45000 30.82800
C  46.49100 17.02700 32.16300
C  47.85800 17.75600 31.77000
C  47.95400 17.40400 30.27600
C  47.84300 19.32800 32.12600
C  46.77100 15.90000 33.18300
C  46.52500 16.16500 34.63200
H  46.09000 17.51900 35.14200
N  48.60400 16.97800 27.31400
C  49.41300 17.59100 28.20700
C  50.62300 18.07900 27.55400
C  50.58000 17.68100 26.25600
C  49.17200 17.16900 26.07300
C  51.61900 18.99500 28.21000
C  51.67100 17.87900 25.10600
O  51.50100 17.47900 23.99300
C  53.05200 18.62700 25.31000
N  46.37100 15.96900 25.68200
C  47.30900 16.26800 24.72400
C  46.71100 16.06500 23.32700
C  45.47800 15.17900 23.59600
C  45.34700 15.26800 25.10900
C  46.41800 17.46700 22.59700
C  45.64900 13.75100 23.09100
C  46.63500 12.92300 23.91400
N  44.94700 15.24600 28.11700
C  43.99400 14.79000 27.21500
C  42.85800 14.21800 27.91300
C  43.11900 14.61900 29.28800
C  44.38000 15.28800 29.31500
C  41.61200 13.61300 27.33800
C  42.57600 14.64700 30.60500
O  41.50600 14.23300 30.96600
C  43.64800 15.42200 31.48800
C  43.01400 16.58200 32.23200
O  42.35800 17.41300 31.59100
O  42.83900 16.28400 33.59600
C  41.79300 17.13200 34.24800
H  49.80200 18.28900 30.17500
H  49.21500 17.02500 24.01600
H  43.51900 14.31800 25.16300
H  45.81700 17.77400 32.58400
H  48.72300 17.22900 32.17300
H  47.82300 19.88200 31.18800
H  48.77700 19.53300 32.64900
H  47.11100 19.60200 32.88500
H  47.78600 15.51400 33.08900
H  46.08500 15.06900 33.02100
H  47.56300 16.04200 34.94000
H  45.91900 15.41000 35.13400
H  52.66700 18.69500 28.19800
H  51.21800 19.20000 29.20300
H  51.55800 19.95500 27.69800
H  53.06400 19.46700 26.00300
H  53.33200 18.86700 24.28400
H  53.82700 17.93800 25.64600
H  47.51600 15.60400 22.75400
H  44.56700 15.67300 23.25900
H  45.45600 17.83200 22.95400
H  46.26300 17.29300 21.53200
H  47.09400 18.30800 22.75200
H  46.13400 13.71400 22.11600
H  44.63600 13.34800 23.09400
H  47.05500 12.14900 23.27200
H  46.05500 12.29400 24.58900
H  47.32000 13.42300 24.59900
H  41.39300 14.27500 26.50000
H  40.85300 13.78200 28.10200
H  41.85200 12.58400 27.07100
H  43.97800 14.69000 32.22500
H  41.60300 16.73000 35.24300
H  40.88800 17.35400 33.68200
H  42.24600 18.12200 34.19100
Mg 26.79600 50.38000 26.82700
C  24.59500 51.40700 29.40100
C  29.03200 49.32800 29.15100
C  28.73100 49.72200 24.25500
C  24.48500 51.95700 24.52200
N  26.73300 50.45400 28.98100
C  25.76800 50.90000 29.86600
C  26.14000 50.55300 31.38100
C  27.64900 50.06300 31.24500
C  27.81600 49.90600 29.71900
C  28.66500 51.01000 31.85700
C  25.11400 49.46500 31.94300
C  24.37100 49.88900 33.26100
H  24.16500 48.97100 34.46100
N  28.57800 49.62300 26.66100
C  29.31500 49.15900 27.77800
C  30.56900 48.64300 27.27300
C  30.52800 48.72100 25.82900
C  29.29900 49.40100 25.49600
C  31.62200 48.08400 28.16800
C  31.58900 48.17100 24.86100
O  31.51100 48.27000 23.65400
C  32.74500 47.40700 25.31400
N  26.62500 50.90800 24.68700
C  27.57900 50.42800 23.85000
C  27.07500 50.52400 22.38800
C  25.61600 51.00400 22.53300
C  25.54300 51.32100 24.04600
C  28.04000 51.44000 21.57300
C  24.43100 50.04500 22.18300
C  23.41200 50.53300 21.13100
N  24.90000 51.47200 26.91700
C  24.09700 51.95700 25.90700
C  22.87200 52.55500 26.50900
C  23.00500 52.29600 27.89400
C  24.27900 51.68700 28.08300
C  21.77700 53.31300 25.71000
C  22.32500 52.45700 29.16400
O  21.29700 52.97300 29.52400
C  23.41900 51.99000 30.20400
C  23.93100 53.13000 31.04300
O  25.04200 53.71000 30.91400
O  23.09700 53.37500 32.02800
C  23.40300 54.48100 32.98200
H  29.72100 48.91300 29.89000
H  29.32700 49.35600 23.41600
H  23.73500 52.26300 23.79000
H  26.20100 51.53100 31.85800
H  27.75400 49.10600 31.75600
H  29.20300 50.42900 32.60600
H  28.24800 51.94100 32.24200
H  29.28700 51.38600 31.04400
H  25.69100 48.55400 32.10400
H  24.40000 49.22400 31.15500
H  23.41600 50.22700 32.85900
H  24.85200 50.81300 33.58100
H  31.51000 48.19800 29.24700
H  32.62100 48.50500 28.05600
H  31.86500 47.03100 28.02500
H  32.41700 46.70000 26.07700
H  33.43600 48.04700 25.86200
H  33.16100 46.94300 24.42000
H  27.21600 49.51800 21.99300
H  25.47400 51.93500 21.98400
H  29.02100 51.46600 22.04600
H  27.54600 52.36800 21.28600
H  28.15400 50.95400 20.60400
H  23.89900 49.78600 23.09800
H  24.94800 49.14000 21.86300
H  23.64800 50.15400 20.13700
H  23.54700 51.61000 21.02700
H  22.39200 50.26100 21.40000
H  21.86600 53.30800 24.62300
H  21.94900 54.33500 26.04900
H  20.80200 53.06700 26.12900
H  22.89400 51.30000 30.86400
H  23.98800 54.08200 33.81100
H  22.51400 54.86500 33.48200
H  23.80800 55.36800 32.49500

