158

Mg -2.16900 17.15000 26.27900
C  -2.43200 15.05800 28.90300
C  -2.36800 19.87700 28.37900
C  -2.17300 19.07400 23.61900
C  -2.58700 14.37200 24.11300
N  -2.18500 17.46400 28.49600
C  -2.40000 16.42400 29.34500
C  -2.66700 16.91700 30.81300
C  -3.01600 18.48700 30.49000
C  -2.51900 18.64600 29.04600
C  -4.49600 18.93900 30.46200
C  -1.41600 16.76600 31.73000
C  -1.64500 17.14500 33.21800
H  -1.67400 16.04100 34.30800
N  -2.12900 19.14400 26.03400
C  -2.08500 20.17500 27.01600
C  -1.90600 21.44700 26.40400
C  -1.85900 21.20500 25.03800
C  -2.05600 19.75600 24.86300
C  -1.89100 22.73400 27.17900
C  -1.69200 22.23400 23.92300
O  -1.69200 21.93900 22.72300
C  -1.48200 23.74400 24.26600
N  -2.55100 16.80000 24.17600
C  -2.44400 17.78900 23.28100
C  -2.58300 17.36000 21.82800
C  -2.61500 15.80400 21.99100
C  -2.64800 15.62700 23.50700
C  -3.92300 17.96800 21.18000
C  -1.43900 14.93200 21.43300
C  -0.00600 15.09900 21.94100
N  -2.50700 15.23500 26.40700
C  -2.52000 14.16500 25.48300
C  -2.54300 12.91600 26.16500
C  -2.61500 13.25400 27.48400
C  -2.44900 14.63200 27.61200
C  -2.41800 11.60700 25.59800
C  -2.81300 12.69200 28.75100
O  -3.06500 11.53700 29.04400
C  -2.69300 13.85200 29.70700
C  -1.58200 13.45600 30.59400
O  -0.39400 13.63000 30.44100
O  -2.15900 12.86800 31.73400
C  -1.31100 12.35400 32.77000
H  -2.52400 20.73800 29.03200
H  -1.98800 19.72700 22.76300
H  -2.51800 13.49400 23.46600
H  -3.51900 16.34700 31.18400
H  -2.47600 19.07200 31.23400
H  -5.32700 18.23700 30.51700
H  -4.71000 19.45000 29.52300
H  -4.57800 19.72900 31.20900
H  -0.59800 17.42700 31.44400
H  -1.14500 15.71200 31.65900
H  -2.56600 17.72100 33.30900
H  -0.80100 17.73800 33.56800
H  -1.83900 22.61400 28.26100
H  -2.66400 23.44700 26.89400
H  -0.92600 23.13800 26.87500
H  -1.40400 24.36200 23.37100
H  -0.58800 23.87200 24.87500
H  -2.38600 24.06000 24.78800
H  -1.74000 17.74000 21.25100
H  -3.46900 15.29600 21.54100
H  -4.47600 18.65600 21.82000
H  -4.64800 17.17600 20.99000
H  -3.57900 18.51200 20.30000
H  -1.32700 15.33600 20.42700
H  -1.77300 13.92300 21.18800
H  0.45100 15.79700 21.24000
H  0.62700 14.21400 21.88000
H  0.01800 15.63900 22.88700
H  -3.33400 11.14400 25.23200
H  -1.94900 10.92300 26.30500
H  -1.74400 11.73500 24.75100
H  -3.63100 13.82200 30.26100
H  -0.83600 13.18900 33.28400
H  -0.51300 11.68200 32.45200
H  -1.79100 11.66900 33.46700
Mg -10.07200 17.05900 42.88900
C  -6.73700 17.94800 42.69600
C  -10.81200 20.41400 42.25400
C  -13.08200 16.14600 42.26800
C  -9.08400 13.68600 42.82600
N  -8.90900 18.90700 42.38100
C  -7.55100 19.02500 42.44400
C  -7.07900 20.46100 42.17800
C  -8.41500 21.21300 42.42600
C  -9.47500 20.15300 42.29900
C  -8.34700 21.96000 43.80100
C  -6.52200 20.60500 40.69500
C  -5.02000 20.83000 40.55600
H  -4.26800 19.85200 39.58200
N  -11.71800 18.15400 42.25000
C  -11.89900 19.52000 42.17800
C  -13.31700 19.79200 41.81700
C  -13.96700 18.50700 41.68000
C  -12.92300 17.53200 42.05300
C  -13.87100 21.24200 41.57000
C  -15.44500 18.38800 41.32600
O  -16.16800 19.36900 41.21700
C  -16.02200 16.97500 41.00200
N  -10.95700 15.17800 42.46300
C  -12.22600 15.09100 42.50200
C  -12.71700 13.76600 42.81700
C  -11.47900 12.89500 43.00900
C  -10.43000 13.95300 42.65000
C  -13.76200 13.79100 44.02200
C  -11.45200 11.58100 42.18100
C  -11.29900 10.26800 43.08800
N  -8.33600 16.01400 42.83200
C  -8.03000 14.63300 42.79600
C  -6.58400 14.38800 42.97000
C  -6.07900 15.64100 42.90400
C  -7.14800 16.60000 42.79300
C  -5.92000 13.00200 43.20500
C  -4.77500 16.38500 42.98200
O  -3.60400 15.86300 43.02800
C  -5.21500 17.91100 42.95400
C  -4.90700 18.49700 44.30000
O  -5.11500 18.00500 45.42400
O  -4.55500 19.79300 44.09900
C  -3.84700 20.39400 45.27100
H  -11.12900 21.44700 42.09600
H  -14.13100 15.84100 42.28200
H  -8.73800 12.67100 43.03400
H  -6.27700 20.86100 42.79800
H  -8.61900 22.04700 41.75500
H  -7.87800 22.93000 43.63800
H  -7.86700 21.36000 44.57500
H  -9.33100 22.16200 44.22400
H  -6.95800 21.46000 40.17700
H  -6.70600 19.66300 40.17800
H  -4.47300 20.88700 41.49700
H  -4.85000 21.83200 40.16200
H  -13.32100 22.00900 42.11500
H  -14.90400 21.30800 41.91100
H  -13.75900 21.53800 40.52700
H  -15.24500 16.39900 40.50000
H  -16.91900 17.25100 40.44600
H  -16.28600 16.56100 41.97500
H  -13.36500 13.40000 42.02000
H  -11.32600 12.71600 44.07300
H  -13.54500 14.57300 44.75000
H  -13.48400 12.85100 44.50000
H  -14.81700 13.92200 43.78200
H  -10.63600 11.50000 41.46300
H  -12.35000 11.54900 41.56400
H  -10.85600 10.55900 44.04000
H  -10.63000 9.54400 42.62300
H  -12.34200 9.95200 43.08400
H  -4.85300 13.05300 42.99200
H  -6.36700 12.30900 42.49200
H  -6.08700 12.62400 44.21300
H  -4.63900 18.45300 42.20500
H  -4.53500 20.53600 46.10500
H  -3.33300 21.33500 45.07700
H  -3.05900 19.71100 45.59000

