158

Mg 25.85100 0.52500 29.90300
C  27.95200 0.38600 32.65300
C  23.17300 0.99700 32.03400
C  23.95400 0.86700 27.09200
C  28.63000 -0.32300 27.85500
N  25.57200 0.68400 32.14100
C  26.66000 0.72700 33.03400
C  26.12300 0.84200 34.53000
C  24.62100 0.97400 34.29800
C  24.43000 0.91200 32.77100
C  23.58300 0.22500 35.16900
C  26.64400 2.15200 35.18900
C  25.78000 2.77100 36.29800
H  26.54200 3.31700 37.58800
N  23.85000 0.81900 29.60900
C  22.92200 0.97000 30.63600
C  21.63000 1.15500 29.96800
C  21.84700 1.06000 28.55100
C  23.26600 0.90400 28.37800
C  20.35000 1.49700 30.75300
C  20.91100 1.15300 27.39700
O  21.22600 0.99500 26.24200
C  19.50000 1.40800 27.68400
N  26.27600 0.43400 27.79900
C  25.32900 0.71500 26.84500
C  25.90300 0.60500 25.48700
C  27.47400 0.33400 25.71300
C  27.46000 0.01200 27.20400
C  25.13300 -0.43300 24.59100
C  28.33800 1.53100 25.23100
C  29.21100 1.28400 24.03800
N  27.85400 0.07100 30.14200
C  28.81200 -0.41900 29.29000
C  30.06700 -0.67100 30.03600
C  29.79600 -0.23800 31.32500
C  28.40800 0.09000 31.37400
C  31.35800 -1.29500 29.68300
C  30.32800 -0.10800 32.65900
O  31.46700 -0.38400 33.01800
C  29.16600 0.40100 33.58200
C  29.07700 -0.56300 34.74100
O  28.91100 -1.76800 34.65200
O  29.19000 0.07200 35.98500
C  28.90300 -0.84900 37.15300
H  22.36000 1.04600 32.76100
H  23.38000 0.89500 26.16200
H  29.50300 -0.43100 27.20800
H  26.29700 -0.03700 35.15000
H  24.30300 1.99900 34.48600
H  24.09100 -0.13800 36.06200
H  23.16300 -0.55200 34.53000
H  22.89600 0.96800 35.57400
H  26.77100 2.91000 34.41600
H  27.62600 1.94300 35.61200
H  24.93900 2.14900 36.60000
H  25.41400 3.70800 35.87800
H  19.96100 2.47100 30.45600
H  20.44300 1.43900 31.83700
H  19.56200 0.85300 30.36200
H  18.93000 0.56100 28.06500
H  19.05300 1.66900 26.72500
H  19.43500 2.26400 28.35600
H  25.78200 1.49400 24.86600
H  27.86400 -0.60000 25.30800
H  25.74200 -1.32900 24.46900
H  24.89900 -0.06000 23.59400
H  24.19500 -0.71300 25.07000
H  28.95400 2.00300 25.99800
H  27.63500 2.31300 24.94400
H  30.19400 1.66400 24.31700
H  28.89000 1.99200 23.27400
H  29.26200 0.23400 23.75200
H  31.31000 -2.19700 29.07300
H  31.97000 -1.49200 30.56300
H  31.84100 -0.51700 29.09200
H  29.48700 1.38600 33.91900
H  29.31200 -0.37100 38.04400
H  29.40900 -1.81200 37.22100
H  27.83100 -1.00900 37.26500
Mg 42.92900 4.16000 47.64200
C  40.89700 6.98400 47.40900
C  40.07700 2.21600 47.60800
C  44.90800 1.44200 47.06800
C  45.71900 6.24500 47.33500
N  40.72300 4.55500 47.46500
C  40.11500 5.77300 47.49100
C  38.53300 5.63300 47.77900
C  38.39800 4.11500 47.85000
C  39.80500 3.58000 47.69500
C  37.77900 3.51100 49.13500
C  37.58600 6.33300 46.69900
C  38.04400 5.95500 45.26600
H  38.41400 7.03700 44.29600
N  42.52100 2.09500 47.48500
C  41.28400 1.50500 47.40400
C  41.38800 0.09100 47.11900
C  42.79600 -0.13300 46.91200
C  43.48700 1.14800 47.20500
C  40.32300 -0.93800 47.12500
C  43.37500 -1.55700 46.54700
O  42.69700 -2.51500 46.35600
C  44.91100 -1.75700 46.32200
N  45.01100 3.89300 47.19600
C  45.63600 2.63600 47.17700
C  47.16100 2.75600 47.25400
C  47.41400 4.25800 47.38900
C  45.97400 4.87400 47.38300
C  47.83400 1.87000 48.39400
C  48.47100 4.82900 46.37600
C  49.94300 4.97800 46.88000
N  43.26500 6.21600 47.31700
C  44.41000 6.86600 47.26100
C  44.14100 8.29800 47.21100
C  42.73700 8.39000 47.22500
C  42.27600 7.09000 47.31000
C  45.15600 9.41500 47.14200
C  41.60100 9.29500 47.22800
O  41.52500 10.54500 47.20900
C  40.32100 8.42000 47.31500
C  39.47400 8.99600 48.42400
O  39.45200 8.68400 49.64600
O  38.56600 9.88600 47.85600
C  37.66800 10.49300 48.76800
H  39.12200 1.68800 47.64600
H  45.60200 0.59900 47.06500
H  46.61600 6.86600 47.29300
H  38.33700 6.24600 48.65900
H  38.01600 3.68600 46.92400
H  37.40100 4.32300 49.75600
H  38.55400 3.11600 49.79200
H  36.91700 2.86700 48.96400
H  37.68800 7.41300 46.80400
H  36.56500 6.08200 46.98700
H  37.16400 5.40300 44.93600
H  38.82000 5.18900 45.24900
H  40.59700 -1.83700 47.67800
H  40.27900 -1.17300 46.06200
H  39.35500 -0.56400 47.45700
H  45.50200 -1.90100 47.22600
H  45.26900 -0.94500 45.68900
H  44.97700 -2.78400 45.96300
H  47.60200 2.38700 46.32800
H  47.63900 4.50100 48.42800
H  48.55900 2.46100 48.95500
H  48.41900 1.06900 47.94200
H  47.19900 1.43800 49.16700
H  48.00100 5.71700 45.95400
H  48.54400 4.14600 45.52900
H  50.01400 4.57900 47.89100
H  50.25900 6.01900 46.95700
H  50.62200 4.41800 46.23700
H  44.57200 10.30900 46.92300
H  45.93400 9.26300 46.39400
H  45.56500 9.58600 48.13700
H  39.79400 8.64200 46.38700
H  37.04500 9.81900 49.35700
H  36.93800 11.12400 48.26100
H  38.19600 11.10300 49.50100

