158

Mg 50.62500 45.46500 41.43400
C  47.61600 46.46700 40.18200
C  49.80700 42.24500 40.78000
C  53.94600 44.77900 41.88700
C  51.44900 48.98700 41.58900
N  48.88400 44.51100 40.55700
C  47.74300 45.08500 40.08500
C  46.68500 44.01100 39.58700
C  47.36100 42.72600 40.18800
C  48.79800 43.16400 40.50800
C  46.72900 41.95100 41.38600
C  46.49000 44.09800 38.10800
C  45.05100 44.11200 37.62700
H  44.77400 42.90500 36.66900
N  51.73500 43.75100 41.33500
C  51.17200 42.48600 41.14900
C  52.19800 41.51500 41.07000
C  53.39600 42.19200 41.35900
C  53.06300 43.67800 41.62900
C  51.91000 40.03100 40.78400
C  54.72000 41.61900 41.29400
O  54.95400 40.46600 41.04100
C  56.07500 42.42000 41.52300
N  52.44900 46.66200 41.53200
C  53.66100 46.11900 41.79900
C  54.70100 47.19600 42.06000
C  53.90800 48.51000 42.08900
C  52.46400 48.03900 41.72600
C  55.66500 47.05800 43.30400
C  54.48500 49.58400 41.13700
C  54.64700 50.96400 41.76900
N  49.69700 47.39700 41.10700
C  50.09700 48.64700 41.26500
C  49.03500 49.57700 40.93700
C  48.04400 48.77400 40.40100
C  48.50000 47.41000 40.58100
C  48.96600 51.05000 41.07200
C  46.68800 48.81200 39.85300
O  45.93800 49.76500 39.66100
C  46.41200 47.30900 39.68400
C  45.18800 47.13400 40.53200
O  45.18900 46.66100 41.68800
O  43.98100 47.41000 39.88800
C  42.75300 47.18000 40.61100
H  49.48600 41.24200 40.49100
H  55.00400 44.54700 42.03000
H  51.55300 50.06300 41.74000
H  45.73900 44.16100 40.10800
H  47.44700 41.92800 39.45000
H  47.41100 41.99800 42.23600
H  46.77100 40.88100 41.18400
H  45.72200 42.23900 41.68700
H  46.84400 43.17200 37.65500
H  46.98800 44.97100 37.68700
H  44.85600 45.07500 37.15500
H  44.40200 44.03600 38.49900
H  51.31000 39.71800 41.63900
H  52.82900 39.44500 40.78100
H  51.34500 39.91600 39.85900
H  56.27400 42.77700 42.53300
H  56.12700 43.24400 40.81100
H  56.83900 41.67000 41.32300
H  55.26800 47.18600 41.13000
H  53.79300 48.90400 43.09900
H  56.21700 47.99000 43.42500
H  56.36500 46.28200 42.99600
H  55.07000 46.68800 44.13900
H  53.90000 49.70900 40.22600
H  55.50600 49.40100 40.80200
H  55.58200 51.48900 41.57200
H  54.50100 51.02500 42.84700
H  53.94900 51.71300 41.39400
H  48.00100 51.29500 40.62800
H  49.80400 51.57600 40.61400
H  48.90400 51.34400 42.11900
H  46.08100 47.13400 38.66000
H  42.31900 48.17900 40.56900
H  42.78500 46.84200 41.64700
H  42.07600 46.52400 40.06300
Mg 48.42400 34.26800 26.89400
C  46.73600 32.87400 29.66600
C  48.45100 37.22200 28.74800
C  49.65900 35.65900 24.34200
C  47.62600 31.38500 25.10700
N  47.63200 35.06000 28.95300
C  47.12100 34.20000 29.92900
C  46.95100 34.97000 31.24800
C  47.12000 36.48500 30.79200
C  47.85600 36.23900 29.49700
C  45.75500 37.23100 30.74000
C  48.05000 34.56900 32.26900
C  47.54900 34.38800 33.75000
H  46.53100 35.34400 34.33400
N  49.08700 36.10700 26.63600
C  49.10800 37.16300 27.50700
C  49.96400 38.14300 26.88500
C  50.20900 37.82100 25.54500
C  49.66500 36.47200 25.47300
C  50.33800 39.48300 27.58100
C  50.92300 38.55900 24.39200
O  50.76900 38.32500 23.19100
C  51.64100 39.86600 24.82900
N  48.38400 33.73100 24.92800
C  49.11200 34.44400 24.07400
C  49.40400 33.73900 22.81700
C  48.87600 32.26500 23.03100
C  48.23200 32.43900 24.39500
C  48.93200 34.44800 21.53000
C  49.92900 31.06400 23.10800
C  50.62900 30.63400 21.74700
N  47.45100 32.43100 27.25300
C  47.12100 31.35900 26.40000
C  46.44300 30.33400 27.16000
C  46.25500 30.92400 28.43200
C  46.92300 32.17400 28.41400
C  45.95600 29.02000 26.71900
C  45.81700 30.60000 29.78000
O  45.40900 29.55800 30.31900
C  45.97800 31.90100 30.55900
C  46.45700 31.50700 31.94600
O  47.49700 31.10800 32.30100
O  45.27100 31.48700 32.71600
C  45.35900 31.04700 34.10200
H  48.46900 38.20400 29.22700
H  50.32100 35.97800 23.53500
H  47.53600 30.44300 24.56300
H  46.01600 34.64400 31.70400
H  47.75900 36.93400 31.55300
H  45.40400 37.44300 29.73000
H  45.73900 38.13000 31.35700
H  45.04200 36.59000 31.25800
H  48.73600 35.40200 32.42800
H  48.62200 33.68400 31.98800
H  48.40800 34.38700 34.42200
H  47.22000 33.34900 33.73200
H  49.76000 40.27900 27.11200
H  51.38000 39.60900 27.28900
H  50.09700 39.36000 28.63700
H  50.92400 40.65900 25.04200
H  52.18500 40.16900 23.93400
H  52.41500 39.70200 25.57900
H  50.48200 33.59400 22.74500
H  48.08300 31.90200 22.37700
H  47.95000 33.99700 21.38500
H  49.64600 34.38900 20.70900
H  48.71600 35.50300 21.69600
H  49.41900 30.13900 23.37800
H  50.67000 31.36100 23.84900
H  50.77200 29.56400 21.59300
H  51.60500 31.11500 21.80600
H  50.09900 31.00400 20.86900
H  46.28000 28.68500 25.73300
H  44.87000 29.03300 26.81700
H  46.38000 28.39800 27.50700
H  44.97200 32.31700 30.61300
H  46.25600 30.46000 34.30100
H  44.51700 30.38400 34.30100
H  45.24000 31.80600 34.87500

