158

Mg 17.12000 -2.15900 27.30600
C  15.77100 -0.14900 29.84900
C  19.41900 -3.44600 29.41800
C  18.89400 -3.37100 24.61900
C  15.11400 -0.37700 24.99400
N  17.57000 -1.74300 29.36900
C  16.82100 -0.99400 30.28700
C  17.28400 -1.24000 31.71000
C  18.46600 -2.15700 31.56700
C  18.49400 -2.53200 30.05500
C  19.81800 -1.55000 32.05900
C  16.12500 -1.95400 32.45700
C  15.89300 -1.38300 33.95300
H  17.07000 -0.69300 34.71000
N  18.67800 -3.54200 27.14700
C  19.51000 -3.94100 28.12800
C  20.51100 -4.81900 27.54700
C  20.40800 -4.79500 26.16700
C  19.32200 -3.87400 25.90700
C  21.50400 -5.53700 28.44300
C  21.16700 -5.45300 25.14600
O  20.89600 -5.33400 23.93200
C  22.30100 -6.29000 25.33500
N  16.96100 -1.97200 25.19000
C  17.85600 -2.47500 24.27300
C  17.53300 -1.99000 22.88900
C  16.19500 -1.26000 23.00700
C  16.01700 -1.24500 24.49100
C  18.64300 -1.12900 22.24100
C  14.99500 -1.82300 22.19300
C  13.92500 -2.61800 22.96900
N  15.74000 -0.48600 27.34700
C  14.97000 0.04700 26.32200
C  14.10800 1.07900 26.93100
C  14.35600 0.98400 28.30300
C  15.37900 0.04300 28.47400
C  13.25500 2.02600 26.15900
C  14.02700 1.54800 29.64500
O  13.11900 2.31500 29.99000
C  14.89300 0.74600 30.70400
C  15.66400 1.70500 31.49800
O  16.83700 1.97800 31.19800
O  14.88500 2.34200 32.46600
C  15.69100 3.45000 33.07100
H  20.03200 -3.85300 30.22500
H  19.55100 -3.55200 23.76600
H  14.49200 0.13700 24.25900
H  17.53600 -0.24200 32.06900
H  18.36000 -3.13800 32.03100
H  20.34500 -2.33900 32.59500
H  19.69200 -0.67700 32.70000
H  20.38200 -1.21500 31.18900
H  16.25500 -3.02300 32.62200
H  15.24200 -1.92000 31.81900
H  15.43800 -2.23400 34.46000
H  15.06600 -0.67300 33.93100
H  21.78100 -6.52700 28.08000
H  21.17400 -5.66900 29.47300
H  22.48300 -5.07600 28.58000
H  22.71500 -6.58600 24.37100
H  22.05800 -7.15400 25.95400
H  22.99900 -5.63400 25.85500
H  17.32900 -2.79700 22.18500
H  16.25400 -0.20200 22.75000
H  18.15700 -0.33500 21.67400
H  19.15500 -1.62000 21.41300
H  19.39500 -0.69600 22.90100
H  15.38900 -2.56100 21.49400
H  14.54600 -0.98200 21.66500
H  13.08000 -1.97800 23.22200
H  14.30700 -3.18000 23.82200
H  13.54100 -3.35200 22.26100
H  12.65200 1.56600 25.37700
H  13.85200 2.77800 25.64300
H  12.66700 2.60900 26.86900
H  14.21900 0.15800 31.32700
H  16.38600 3.85500 32.33500
H  16.08500 2.99900 33.98200
H  15.22800 4.39300 33.36000
Mg 47.29400 25.32400 28.81000
C  48.51100 27.61200 31.24000
C  46.11700 23.40200 31.39300
C  46.94700 22.68200 26.75200
C  49.08800 26.93900 26.46000
N  47.31200 25.50900 31.04700
C  47.73500 26.58300 31.80500
C  47.26100 26.41000 33.22500
C  46.74400 24.96300 33.29400
C  46.62900 24.64300 31.82300
C  47.45100 23.84100 34.23900
C  46.31500 27.63600 33.65600
C  45.46800 27.54900 34.90400
H  46.09400 27.86300 36.19500
N  46.44200 23.47900 28.96800
C  45.98800 22.83600 30.11200
C  45.37400 21.58800 29.80200
C  45.46300 21.40500 28.45000
C  46.32800 22.53200 27.99700
C  44.77500 20.67000 30.88500
C  44.85700 20.29100 27.51600
O  44.96900 20.25200 26.32200
C  44.13900 19.10200 28.13000
N  47.93400 24.92600 26.82500
C  47.59900 23.78600 26.18300
C  48.15700 23.75400 24.73300
C  48.51500 25.28600 24.55600
C  48.47600 25.74600 26.01800
C  49.40100 22.87100 24.51600
C  47.43400 26.18500 23.78700
C  47.99100 27.07800 22.67000
N  48.44100 27.03900 28.72300
C  49.16400 27.53300 27.70900
C  49.87500 28.71200 28.11100
C  49.60600 28.86400 29.51700
C  48.82100 27.73700 29.86100
C  50.62400 29.61700 27.13000
C  49.85300 29.65100 30.69200
O  50.43300 30.69100 30.86300
C  49.16000 28.86500 31.88400
C  50.27400 28.55900 32.81200
O  51.39600 28.11800 32.49100
O  49.85600 28.68700 34.13700
C  50.77200 28.08700 35.17700
H  45.70400 22.72200 32.14200
H  46.64400 21.96700 25.98400
H  49.51200 27.43400 25.58300
H  48.17500 26.44600 33.81800
H  45.69800 25.04500 33.59100
H  48.39100 24.19200 34.66400
H  47.72800 22.92300 33.72000
H  46.66300 23.54500 34.93200
H  45.69000 27.57500 32.76500
H  46.80900 28.60700 33.65200
H  45.00300 26.56300 34.92200
H  44.60200 28.20800 34.84000
H  44.90800 21.01500 31.91100
H  45.28200 19.71200 31.00500
H  43.70900 20.51200 30.72600
H  43.19000 19.41400 28.56500
H  44.62200 18.72700 29.03200
H  43.98100 18.36800 27.34000
H  47.30200 23.53300 24.09400
H  49.52900 25.47200 24.20200
H  49.75600 22.29400 25.36900
H  50.26600 23.37600 24.08600
H  49.21700 22.16900 23.70200
H  46.92000 26.81200 24.51600
H  46.71100 25.50900 23.33000
H  47.17100 27.06700 21.95200
H  48.93400 26.73900 22.24200
H  48.13900 28.07800 23.07700
H  51.19700 30.36400 27.67900
H  49.92800 30.08200 26.43300
H  51.32400 28.93700 26.64500
H  48.49600 29.60300 32.33400
H  50.29100 27.58200 36.01400
H  51.33400 28.90900 35.62000
H  51.54600 27.46400 34.72900

