158

Mg 49.82400 47.41400 42.42300
C  46.39300 47.97800 41.44900
C  49.75000 44.40400 40.72400
C  53.15900 47.16200 42.86000
C  49.99200 50.87100 43.33500
N  48.25200 46.38700 41.07300
C  46.88700 46.74900 40.96500
C  46.21300 45.68600 40.10700
C  47.30100 44.51100 40.00700
C  48.52100 45.17300 40.67100
C  46.85300 43.05500 40.47500
C  45.56000 46.18500 38.77700
C  44.03200 45.95500 38.63700
H  43.49600 45.81400 37.23700
N  51.24600 45.93800 41.97000
C  51.00300 44.73800 41.30500
C  52.14400 43.88600 41.33500
C  53.22200 44.78200 41.86400
C  52.57100 46.05600 42.26100
C  52.25500 42.48100 40.61700
C  54.64100 44.28900 41.92500
O  54.96100 43.16500 41.64500
C  55.63000 45.15600 42.55600
N  51.37900 48.93800 42.86800
C  52.64500 48.47900 43.19800
C  53.59200 49.75800 43.52200
C  52.53200 50.94000 43.72300
C  51.21600 50.21700 43.35700
C  54.50100 49.56100 44.82000
C  52.82300 52.21300 42.76700
C  54.11200 52.90700 42.95000
N  48.45600 49.08300 42.44100
C  48.70000 50.38800 42.91600
C  47.42700 51.11700 42.85100
C  46.41600 50.17600 42.46000
C  47.15500 48.96300 42.07500
C  47.32900 52.56700 43.18600
C  45.04100 50.02800 42.11600
O  44.10600 50.83100 42.13300
C  44.95500 48.60900 41.44700
C  44.00300 47.77000 42.30000
O  43.97600 47.77200 43.50900
O  43.24000 46.85800 41.56200
C  42.36900 45.88700 42.27600
H  49.68000 43.38500 40.33700
H  54.23900 47.19300 43.01800
H  50.05500 51.89200 43.71500
H  45.39800 45.23700 40.67400
H  47.53000 44.49100 38.94200
H  46.61800 42.42100 39.62000
H  45.96300 43.15500 41.09800
H  47.63100 42.71500 41.15800
H  46.04800 45.71400 37.92300
H  45.78900 47.24900 38.72800
H  43.41300 46.76000 39.03200
H  43.85400 45.02000 39.16900
H  51.36100 42.28800 40.02400
H  52.18000 41.66700 41.33800
H  53.19200 42.24600 40.11100
H  55.70100 45.94800 41.81000
H  56.59700 44.65500 42.61500
H  55.43800 45.46000 43.58500
H  54.14700 50.03100 42.62500
H  52.22200 51.14100 44.74800
H  54.58100 48.49000 45.01000
H  54.17200 50.08600 45.71700
H  55.46600 49.91800 44.46000
H  52.00000 52.91900 42.87700
H  52.67800 51.96100 41.71700
H  54.96100 52.31800 43.29600
H  53.98300 53.81500 43.53800
H  54.46400 53.13100 41.94300
H  47.59000 53.20200 42.33900
H  47.95600 52.92100 44.00500
H  46.30500 52.92100 43.30000
H  44.45600 48.80100 40.49700
H  43.01100 45.15600 42.76900
H  41.63800 45.42100 41.61500
H  41.75900 46.39300 43.02400
Mg 29.05000 58.68500 39.88000
C  26.52000 56.49200 38.95800
C  31.41400 56.51600 38.71700
C  31.53300 61.21600 40.18900
C  26.56100 61.14500 40.43600
N  28.94100 56.81500 38.73000
C  27.78800 56.05100 38.65000
C  28.15300 54.63200 38.07300
C  29.70500 54.62900 38.05100
C  30.05900 56.08000 38.55000
C  30.31400 53.46500 38.85200
C  27.45100 54.12600 36.75900
C  26.91100 55.21800 35.75400
H  27.72800 55.33500 34.48700
N  31.21500 58.85500 39.58700
C  31.97200 57.74200 39.14300
C  33.38600 58.12400 39.06100
C  33.44500 59.54100 39.35600
C  32.04400 59.98700 39.77900
C  34.50600 57.27600 38.48400
C  34.67900 60.48900 39.08400
O  35.64000 60.03900 38.46400
C  34.69700 61.94300 39.52000
N  29.04700 60.82000 40.21500
C  30.16800 61.54900 40.43700
C  29.82900 63.01100 40.72200
C  28.25000 63.01100 40.78200
C  27.87700 61.57800 40.47200
C  30.53100 63.52800 42.04900
C  27.66900 63.88800 39.61400
C  28.05500 65.33700 39.43200
N  26.92100 58.76700 39.90000
C  26.06500 59.80100 40.09000
C  24.74200 59.33000 39.96900
C  24.84200 57.99000 39.58600
C  26.23200 57.73400 39.49700
C  23.47200 60.13700 40.15700
C  24.08200 56.83500 39.24300
O  22.90300 56.57000 39.18200
C  25.18700 55.74800 38.89900
C  25.05500 54.46400 39.64000
O  25.71800 54.22600 40.63700
O  24.19300 53.65700 39.04100
C  24.05600 52.32600 39.65400
H  32.08200 55.74600 38.32600
H  32.33600 61.95500 40.21700
H  25.80800 61.92200 40.58100
H  27.78400 53.91800 38.81000
H  30.05400 54.54200 37.02200
H  29.66600 52.70700 39.29000
H  30.92900 53.91800 39.62900
H  30.82300 52.80700 38.14700
H  26.67000 53.37000 36.84400
H  28.20500 53.65600 36.12700
H  26.97400 56.23000 36.15300
H  25.91500 54.98200 35.37900
H  34.80300 57.55600 37.47400
H  34.16900 56.24000 38.46400
H  35.34600 57.17600 39.17100
H  34.39500 62.08200 40.55800
H  33.93200 62.44600 38.93000
H  35.60200 62.48800 39.25200
H  30.05200 63.66300 39.87700
H  27.86200 63.26500 41.76900
H  31.34600 62.87200 42.35700
H  29.89600 63.26500 42.89500
H  31.01000 64.49100 41.87100
H  26.58900 63.90000 39.76500
H  27.78700 63.44500 38.62500
H  29.03500 65.45500 39.89400
H  27.32700 66.02300 39.86400
H  28.24500 65.62600 38.39900
H  22.90700 59.70600 40.98300
H  23.03700 59.77400 39.22600
H  23.73100 61.19600 40.15800
H  25.04400 55.46300 37.85700
H  23.31000 51.73400 39.12300
H  23.62500 52.40100 40.65200
H  25.04500 51.89400 39.50200

