158

Mg 47.81000 34.82000 26.75500
C  45.99700 33.66300 29.42400
C  48.74400 37.57300 28.59400
C  48.96700 36.23800 23.87700
C  46.53800 32.12700 24.83600
N  47.55600 35.46800 28.87600
C  46.71000 34.84600 29.75000
C  46.80800 35.51800 31.14500
C  47.37400 36.97500 30.72900
C  47.89300 36.73500 29.25100
C  46.38500 38.05700 30.67400
C  47.77500 34.79000 32.09900
C  47.52700 34.96000 33.63500
H  46.68400 36.12900 34.11400
N  48.82300 36.67000 26.37700
C  49.21600 37.58300 27.28000
C  49.99900 38.58200 26.60600
C  50.11900 38.25600 25.20000
C  49.27100 37.01600 25.11700
C  50.50400 39.84900 27.32900
C  50.87400 38.89200 23.99400
O  50.93900 38.50800 22.82000
C  51.56900 40.20300 24.33500
N  47.71200 34.35800 24.67000
C  48.34200 35.03200 23.66700
C  48.23800 34.38100 22.26000
C  47.56300 33.00400 22.61900
C  47.26500 33.09900 24.18000
C  47.32700 35.14600 21.29200
C  48.36400 31.71700 22.20800
C  49.39600 31.19800 23.24800
N  46.58100 33.09800 27.02700
C  46.27600 32.07900 26.22800
C  45.58600 31.09500 27.05800
C  45.35300 31.76000 28.30100
C  46.02400 32.90800 28.21200
C  45.09700 29.80900 26.59300
C  44.72400 31.66600 29.51800
O  44.03200 30.78300 29.94400
C  44.90700 33.00100 30.29000
C  45.16200 32.65200 31.72700
O  46.05500 31.88100 32.11200
O  44.20600 33.07900 32.56200
C  44.30200 32.78200 34.00200
H  49.04000 38.41000 29.23000
H  49.33000 36.55800 22.89800
H  46.41600 31.25200 24.19400
H  45.80700 35.49900 31.57700
H  48.15600 37.36400 31.38100
H  45.70400 38.14600 31.52000
H  45.85400 38.16600 29.72900
H  46.95200 38.98400 30.58200
H  48.82400 35.02500 31.91900
H  47.70500 33.72200 31.89100
H  48.44300 35.05400 34.22000
H  47.09400 34.09000 34.12800
H  51.59400 39.87700 27.31500
H  50.02600 39.92400 28.30600
H  50.06600 40.64300 26.72400
H  52.49600 40.00300 24.87200
H  50.98400 40.97700 24.83400
H  51.83900 40.77800 23.45000
H  49.19800 34.34400 21.74500
H  46.61100 32.91300 22.09600
H  46.27000 34.99300 21.51100
H  47.45700 34.67800 20.31600
H  47.54900 36.21200 21.34100
H  48.82900 31.92600 21.24400
H  47.69900 30.86300 22.07700
H  49.19800 30.18400 23.59400
H  49.66200 31.81100 24.10900
H  50.36700 31.10700 22.76100
H  45.98600 29.25500 26.29400
H  44.49900 29.89200 25.68600
H  44.59600 29.21100 27.35400
H  43.99000 33.58900 30.26700
H  43.33100 32.61600 34.46700
H  44.67200 33.66100 34.52900
H  44.97800 31.93400 34.12000
Mg 29.90000 58.21600 40.10700
C  27.05900 56.17200 39.68000
C  31.87600 55.56600 39.17600
C  32.68200 60.28500 39.85800
C  27.91100 61.02600 40.15500
N  29.48500 56.03900 39.80300
C  28.24200 55.44800 39.59400
C  28.44000 53.99800 39.01200
C  30.02200 53.81800 39.27500
C  30.48100 55.25500 39.27700
C  30.42000 53.19900 40.65100
C  28.16500 53.98800 37.50200
C  28.20900 55.32800 36.68000
H  27.42700 55.41100 35.37600
N  31.99400 57.95400 39.71600
C  32.58800 56.79300 39.36900
C  33.97700 56.98900 39.34500
C  34.28000 58.33700 39.59900
C  32.93800 58.93100 39.76300
C  35.04200 55.86700 39.24700
C  35.72900 58.93200 39.61400
O  36.69900 58.22200 39.41300
C  35.90300 60.38100 40.12400
N  30.26700 60.27400 40.05500
C  31.48600 60.91800 39.95200
C  31.40800 62.43100 39.82500
C  29.81100 62.67800 40.07000
C  29.30500 61.27600 40.07700
C  32.29500 63.19800 40.85500
C  29.05200 63.70600 39.15300
C  28.47700 64.95200 39.91300
N  27.86600 58.52100 40.14800
C  27.19200 59.77400 40.11200
C  25.78300 59.56300 39.96400
C  25.67500 58.17000 39.73600
C  26.97400 57.59600 39.93600
C  24.72700 60.57900 39.91100
C  24.76300 57.05900 39.48000
O  23.55200 56.98200 39.28900
C  25.65100 55.79200 39.32300
C  25.08800 54.66600 40.11000
O  24.89700 54.78300 41.29800
O  24.86400 53.57600 39.35600
C  24.24100 52.38700 40.00400
H  32.45700 54.67600 38.92700
H  33.46400 61.04500 39.79500
H  27.37400 61.97600 40.17000
H  27.85200 53.23900 39.52800
H  30.58600 53.29300 38.50400
H  29.48600 52.77500 41.01900
H  30.80400 53.97700 41.31000
H  31.14500 52.39300 40.53500
H  27.18100 53.52700 37.41500
H  28.98000 53.44500 37.02400
H  29.27600 55.44100 36.48700
H  27.98600 56.22400 37.25800
H  35.63000 56.17100 38.38100
H  34.64600 54.92400 38.86800
H  35.74200 55.66100 40.05600
H  35.79200 61.04500 39.26800
H  36.87400 60.61600 40.55900
H  35.14600 60.51700 40.89700
H  31.69800 62.77900 38.83400
H  29.67600 62.99300 41.10500
H  31.64900 63.67100 41.59500
H  32.90800 63.92200 40.31800
H  32.88000 62.51400 41.47100
H  28.25400 63.31400 38.52200
H  29.82100 64.07600 38.47400
H  29.20300 65.73000 39.67700
H  28.40900 64.69800 40.97100
H  27.51000 65.19200 39.47300
H  24.61300 61.03200 40.89600
H  23.81100 60.07400 39.60600
H  25.05600 61.31300 39.17500
H  25.62600 55.53000 38.26500
H  24.58200 51.49000 39.48700
H  23.15300 52.43600 39.94900
H  24.38300 52.43400 41.08400

