158

Mg -0.44500 7.05700 26.94800
C  0.37200 9.05300 29.76700
C  -0.36700 4.36500 28.89300
C  -0.93100 5.31400 24.18700
C  0.24900 9.86800 24.99900
N  0.10500 6.76000 29.02900
C  0.22500 7.70400 30.05200
C  0.22900 7.03900 31.39700
C  0.33100 5.50400 30.98300
C  -0.07400 5.56400 29.52400
C  1.72400 4.93400 31.09200
C  -1.00400 7.49000 32.30100
C  -0.58800 7.57700 33.80100
H  0.67100 6.94900 34.32500
N  -0.79600 5.11800 26.56800
C  -0.74700 4.13900 27.52400
C  -1.11100 2.84200 26.96500
C  -1.12400 3.12400 25.52800
C  -0.91700 4.58600 25.34400
C  -1.22200 1.57700 27.78800
C  -1.32300 2.18300 24.39000
O  -1.38900 2.50800 23.21900
C  -1.50200 0.69600 24.61200
N  -0.49900 7.57500 24.96400
C  -0.70900 6.65300 23.98700
C  -0.40900 7.19900 22.60600
C  -0.45200 8.71700 22.83900
C  -0.19000 8.71600 24.35100
C  0.98000 6.74600 22.06200
C  -1.71900 9.51000 22.47600
C  -3.10400 9.08500 22.96800
N  0.17200 9.07300 27.24800
C  0.42400 10.06500 26.38300
C  0.93700 11.24400 27.07200
C  0.87500 10.92700 28.40100
C  0.33800 9.63800 28.48400
C  1.29700 12.57600 26.39800
C  1.13000 11.39800 29.71100
O  1.58800 12.47900 30.10900
C  0.70900 10.17300 30.70000
C  1.96100 10.02800 31.50800
O  2.94600 9.39600 31.22900
O  1.77200 10.79900 32.69200
C  2.96000 10.86200 33.51000
H  -0.42600 3.54500 29.61200
H  -1.08100 4.87900 23.19600
H  0.58800 10.71100 24.39300
H  1.13800 7.39800 31.88100
H  -0.43700 4.96000 31.53300
H  1.91000 4.45800 32.05500
H  2.48100 5.70000 30.92700
H  1.90900 4.25600 30.25900
H  -1.76500 6.71100 32.26100
H  -1.56400 8.37900 32.00900
H  -1.38600 7.10400 34.37200
H  -0.62400 8.63000 34.08100
H  -1.50300 0.78100 27.09800
H  -2.00200 1.59300 28.54900
H  -0.26300 1.37400 28.26500
H  -0.63900 0.20800 25.06700
H  -1.44200 0.23300 23.62700
H  -2.42900 0.55400 25.16700
H  -1.28400 6.99000 21.99100
H  0.39500 9.12700 22.28800
H  1.14700 7.37300 21.18600
H  0.84800 5.68700 21.83900
H  1.76700 6.79900 22.81500
H  -1.58000 9.39300 21.40100
H  -1.56000 10.54800 22.76700
H  -3.65800 9.92400 23.38900
H  -3.00800 8.26500 23.68100
H  -3.68300 8.60400 22.18000
H  1.90200 13.18700 27.06800
H  0.36200 13.09300 26.18400
H  1.80000 12.51000 25.43300
H  -0.05800 10.44300 31.42600
H  3.30100 9.89200 33.87300
H  2.47400 11.37300 34.34100
H  3.71800 11.44800 32.99100
Mg 53.68200 24.04500 45.12300
C  50.96700 26.12400 44.53400
C  51.75700 21.41500 43.79500
C  56.41400 22.02500 44.98300
C  55.52800 26.71300 46.03100
N  51.66800 23.83200 44.17700
C  50.72400 24.87700 44.09000
C  49.41800 24.29100 43.64900
C  49.59500 22.76800 44.00400
C  51.10600 22.61500 44.04800
C  48.98200 22.16600 45.27500
C  48.89400 24.68800 42.21500
C  50.00000 24.67800 41.16200
H  50.53300 23.30800 40.75700
N  54.02000 21.97600 44.51400
C  53.13700 21.08900 44.05100
C  53.79100 19.79800 44.00800
C  55.08800 19.97200 44.58500
C  55.24000 21.32600 44.74300
C  53.07500 18.54100 43.46700
C  56.03800 18.78600 44.90300
O  55.74600 17.62600 44.61400
C  57.27200 18.95400 45.80200
N  55.73200 24.42700 45.15100
C  56.66100 23.41600 45.25100
C  58.03300 24.02300 45.71600
C  57.66200 25.48400 46.01100
C  56.18200 25.56200 45.70400
C  58.78400 23.34600 46.85700
C  58.41200 26.51000 45.14900
C  57.90900 26.71600 43.61600
N  53.36900 25.98200 45.36800
C  54.17200 26.98700 45.81100
C  53.44600 28.18500 46.07400
C  52.23400 27.90800 45.41600
C  52.21300 26.58700 45.05100
C  53.84000 29.41400 46.68700
C  50.93400 28.45800 45.02300
O  50.54800 29.60700 45.12600
C  50.06000 27.30000 44.50200
C  49.68500 27.79300 43.10300
O  50.40300 28.01000 42.12000
O  48.30300 27.75800 43.06000
C  47.67200 28.47400 41.93700
H  51.22700 20.52100 43.45900
H  57.37400 21.53500 45.15400
H  56.17200 27.55000 46.31000
H  48.67300 24.70400 44.33000
H  49.12500 22.23700 43.17500
H  48.50900 22.89100 45.93700
H  49.72600 21.67300 45.90100
H  48.29800 21.39300 44.92400
H  48.33400 25.61700 42.32400
H  48.14300 23.99700 41.83200
H  50.86300 25.25200 41.49700
H  49.72900 25.13200 40.20800
H  53.61200 18.33600 42.54100
H  52.01700 18.65400 43.23100
H  52.95900 17.67100 44.11300
H  57.49900 18.12100 46.46800
H  57.18300 19.86200 46.39800
H  58.15000 18.91900 45.15700
H  58.67100 24.02600 44.83200
H  57.72800 25.68800 47.08000
H  59.64200 22.80100 46.46200
H  58.12700 22.64900 47.37800
H  59.22100 24.08000 47.53400
H  59.41200 26.07800 45.11600
H  58.49800 27.49900 45.59900
H  57.02900 26.11000 43.39700
H  58.78100 26.49600 43.00000
H  57.63100 27.76400 43.51000
H  54.22600 30.09400 45.92800
H  54.60500 29.21000 47.43700
H  52.93400 29.87000 47.08600
H  49.18200 27.18000 45.13700
H  48.29800 29.11000 41.31100
H  46.94900 29.22100 42.26300
H  47.14000 27.74400 41.32700

