158

Mg 54.52400 24.10300 45.33900
C  52.21700 26.37100 43.96300
C  52.94800 21.68400 43.32300
C  57.24500 22.23600 45.52300
C  56.20200 26.87600 46.67100
N  52.87800 24.10300 43.62800
C  52.03300 25.10000 43.34200
C  50.86000 24.62100 42.43400
C  50.93200 23.10400 42.64100
C  52.36500 22.93800 43.29900
C  49.84900 22.52100 43.61400
C  51.24100 25.04300 40.95700
C  50.12300 24.83600 39.95400
H  50.35000 25.21300 38.47600
N  54.99900 22.13600 44.61100
C  54.17200 21.28700 43.93200
C  54.82900 19.99200 43.75600
C  56.12600 20.12500 44.39500
C  56.14600 21.54600 44.92300
C  54.18800 18.88000 42.97300
C  57.19700 19.09800 44.48500
O  57.06800 18.07700 43.78500
C  58.38000 19.14400 45.29200
N  56.52900 24.52500 45.82400
C  57.45400 23.56000 45.91100
C  58.79800 24.17400 46.40900
C  58.39200 25.63000 46.81700
C  56.93400 25.76300 46.44500
C  59.33700 23.34600 47.60400
C  59.29900 26.84600 46.40500
C  60.70200 26.61600 45.91600
N  54.20500 26.17600 45.50200
C  54.94900 27.16200 46.16100
C  54.17500 28.33800 46.29600
C  53.11600 28.04900 45.41600
C  53.18700 26.76600 44.90200
C  54.63500 29.52700 47.00500
C  51.95800 28.60700 44.95300
O  51.37600 29.64400 45.30000
C  51.28100 27.54900 43.93200
C  50.83400 28.13300 42.70300
O  51.60400 28.62200 41.84500
O  49.49600 27.93100 42.56600
C  48.89200 28.42800 41.32400
H  52.35900 20.85500 42.92400
H  58.07900 21.53100 45.53400
H  56.61400 27.62800 47.34700
H  49.88700 25.06200 42.65400
H  50.86300 22.54400 41.70800
H  50.36900 21.93700 44.37400
H  49.15400 21.96600 42.98400
H  49.25600 23.27900 44.12700
H  52.16000 24.51900 40.69400
H  51.50600 26.10000 40.94400
H  49.21600 25.32500 40.30900
H  49.93800 23.76200 39.93700
H  54.49800 18.92100 41.92800
H  53.13500 19.12900 43.10900
H  54.36600 17.91700 43.45100
H  58.85100 18.16300 45.36300
H  58.00700 19.41400 46.28000
H  59.00500 19.92600 44.86100
H  59.51400 24.13500 45.58800
H  58.36100 25.64000 47.90700
H  59.70300 23.97700 48.41400
H  60.16600 22.73100 47.25400
H  58.51600 22.74300 47.99100
H  59.30200 27.66100 47.12900
H  58.80100 27.25800 45.52700
H  61.25500 27.36000 46.48900
H  60.81500 26.80300 44.84800
H  61.05800 25.62100 46.18300
H  55.17100 30.26600 46.40900
H  55.20400 29.27700 47.90000
H  53.76400 30.08200 47.35200
H  50.38400 27.19400 44.44100
H  48.79600 29.51200 41.37600
H  47.90800 27.96900 41.22800
H  49.59900 28.16400 40.53700
Mg -11.68700 15.66300 41.35600
C  -8.88000 13.91200 41.09000
C  -10.19600 18.46300 39.98100
C  -14.69500 17.30400 41.29400
C  -13.45700 12.73700 42.48200
N  -9.77200 16.02900 40.56400
C  -8.73000 15.20600 40.57000
C  -7.50400 15.95200 40.07800
C  -7.97100 17.46100 39.84100
C  -9.43700 17.35100 40.19900
C  -7.15100 18.56600 40.58700
C  -7.02000 15.13700 38.84500
C  -5.47800 15.10500 38.64500
H  -5.04100 16.06700 37.56200
N  -12.30900 17.64200 40.76400
C  -11.57900 18.63500 40.18700
C  -12.38100 19.79500 39.84500
C  -13.68300 19.47000 40.26800
C  -13.65300 18.09500 40.82100
C  -11.91400 20.97900 39.02800
C  -14.91100 20.45200 40.11800
O  -14.74100 21.54200 39.58400
C  -16.36500 19.98900 40.46900
N  -13.84900 15.08700 41.73800
C  -14.87300 15.95400 41.71100
C  -16.20400 15.25700 42.08900
C  -15.67700 14.02300 42.91800
C  -14.23000 13.90000 42.30800
C  -17.23700 16.07700 42.82100
C  -16.49500 12.68900 42.83200
C  -17.14800 12.13700 44.10200
N  -11.29600 13.69600 41.56800
C  -12.08700 12.62200 42.09200
C  -11.20000 11.46300 42.11900
C  -9.89500 11.97400 41.84200
C  -10.07500 13.31200 41.41900
C  -11.56600 10.09800 42.55000
C  -8.57900 11.62400 41.83100
O  -7.97800 10.52600 42.05400
C  -7.81300 12.87600 41.28200
C  -6.68500 13.24100 42.13700
O  -6.74900 13.34400 43.32500
O  -5.45300 13.22100 41.35900
C  -4.32800 13.42100 42.35600
H  -9.72500 19.39300 39.65600
H  -15.70100 17.72900 41.27100
H  -13.90900 11.85800 42.94800
H  -6.66900 15.83900 40.77000
H  -7.82400 17.73900 38.79700
H  -7.15000 19.47300 39.98200
H  -6.14900 18.15900 40.72200
H  -7.59600 18.71400 41.57100
H  -7.39900 15.59300 37.93100
H  -7.38400 14.11400 38.74700
H  -5.16600 14.12500 38.28500
H  -4.83200 15.36100 39.48500
H  -12.12900 21.91200 39.54900
H  -12.56400 21.01200 38.15400
H  -10.86000 21.05000 38.75900
H  -17.10200 20.77700 40.31900
H  -16.48800 19.71700 41.51800
H  -16.41200 19.17000 39.75100
H  -16.71500 14.88500 41.20200
H  -15.40000 14.27600 43.94200
H  -18.15000 16.17100 42.23300
H  -16.86200 17.09300 42.94800
H  -17.56100 15.54400 43.71400
H  -15.90400 11.89000 42.38300
H  -17.27400 12.87400 42.09200
H  -16.50200 11.42600 44.61800
H  -18.00900 11.56700 43.75300
H  -17.45600 12.96700 44.73900
H  -10.74600 9.39300 42.68200
H  -12.28900 9.62800 41.88400
H  -12.11400 10.15000 43.49200
H  -7.38500 12.70900 40.29300
H  -3.37400 13.43000 41.82800
H  -4.10300 12.67200 43.11600
H  -4.45000 14.35900 42.89800

