158

Mg 24.41400 -5.42700 45.85000
C  26.79800 -3.02800 44.47700
C  22.16700 -4.01000 43.63100
C  22.62800 -8.15800 46.31700
C  27.23800 -6.85500 47.51200
N  24.48700 -3.72900 44.28200
C  25.55400 -2.95000 43.90000
C  25.20400 -2.07500 42.71800
C  23.65300 -2.04600 42.64200
C  23.39600 -3.28300 43.64700
C  23.10000 -0.76300 43.07800
C  25.76800 -2.77300 41.43800
C  26.65500 -1.86000 40.45200
H  26.00700 -1.56600 39.08900
N  22.53000 -5.96200 45.21100
C  21.81100 -5.30400 44.23400
C  20.55700 -6.01500 44.11700
C  20.69200 -7.16900 44.93600
C  21.97000 -7.13000 45.56600
C  19.47500 -5.62800 43.18400
C  19.52500 -8.15100 45.14200
O  18.55800 -8.14200 44.38900
C  19.42600 -9.14100 46.37200
N  24.86400 -7.17300 46.86700
C  23.91800 -8.12100 47.01300
C  24.46300 -9.31400 47.83800
C  25.87300 -8.84300 48.31900
C  26.01800 -7.60300 47.50200
C  23.53200 -9.76700 48.99800
C  26.96800 -9.89000 47.98800
C  28.05100 -10.17000 49.13000
N  26.64800 -4.94900 46.17200
C  27.51500 -5.62300 46.89200
C  28.74000 -4.86400 46.76500
C  28.48900 -3.85400 45.85300
C  27.22900 -3.98300 45.47000
C  29.93300 -5.39400 47.53100
C  29.13100 -2.74600 45.24300
O  30.29700 -2.35400 45.27300
C  28.01500 -2.11800 44.26900
C  27.87700 -0.66900 44.70800
O  28.46000 0.27800 44.26600
O  26.94300 -0.58200 45.78500
C  26.95600 0.71500 46.46000
H  21.40400 -3.61300 42.95800
H  22.15400 -9.13800 46.40400
H  28.06900 -7.42000 47.94000
H  25.55600 -1.05500 42.87500
H  23.30500 -2.30400 41.64200
H  22.19900 -0.85700 43.68400
H  22.69900 -0.22500 42.21900
H  23.77300 -0.11200 43.63600
H  25.06800 -3.35200 40.83600
H  26.54600 -3.43200 41.82300
H  27.57700 -2.40500 40.24800
H  26.87200 -0.91700 40.95400
H  19.52700 -6.29600 42.32400
H  19.62600 -4.59500 42.87000
H  18.49300 -5.64900 43.65600
H  20.01100 -8.86000 47.24800
H  19.69600 -10.17900 46.18100
H  18.35100 -9.20000 46.54200
H  24.50300 -10.15400 47.14400
H  25.80500 -8.67600 49.39400
H  22.56900 -9.26500 48.90600
H  23.79500 -9.57000 50.03800
H  23.24500 -10.81700 48.94200
H  27.54300 -9.38400 47.21200
H  26.65600 -10.85100 47.58000
H  28.15800 -11.23900 49.31400
H  27.78700 -9.60200 50.02200
H  28.93900 -9.62100 48.81600
H  30.29900 -6.29900 47.04700
H  29.68300 -5.59400 48.57300
H  30.73000 -4.68200 47.31500
H  28.25200 -2.10700 43.20500
H  26.02400 0.89000 46.99700
H  27.09000 1.51200 45.72900
H  27.80200 0.81900 47.14000
Mg 6.39900 54.40300 40.99100
C  6.11200 50.95900 41.10200
C  9.54900 53.96500 39.87200
C  6.64600 57.73700 40.88800
C  3.15100 54.53200 42.23700
N  7.60800 52.58300 40.25300
C  7.32100 51.25700 40.50000
C  8.48500 50.42100 40.16600
C  9.69700 51.49500 40.17200
C  8.91200 52.78100 40.05500
C  10.56600 51.32700 41.53700
C  8.20000 49.70300 38.79700
C  8.24600 50.55300 37.51300
H  6.99600 50.81600 36.61500
N  7.87100 55.66300 40.58700
C  9.14800 55.27500 40.25600
C  9.92200 56.46600 40.05500
C  9.13400 57.62900 40.39000
C  7.82400 57.05900 40.61600
C  11.39200 56.46900 39.63900
C  9.63900 59.06100 40.37300
O  10.85300 59.27800 40.22000
C  8.67800 60.20800 40.62800
N  5.02100 55.88500 41.45700
C  5.40900 57.24500 41.23800
C  4.25300 58.13000 41.46600
C  3.01400 57.12400 41.65700
C  3.77000 55.76500 41.81200
C  4.46900 59.15600 42.62000
C  1.95400 57.25200 40.56000
C  0.47600 57.28500 40.97100
N  4.85300 53.07800 41.44200
C  3.70100 53.29600 42.17700
C  3.13000 52.08100 42.74600
C  4.05700 51.10600 42.32500
C  5.11300 51.79500 41.61500
C  1.85800 51.92600 43.45100
C  4.39600 49.70500 42.40100
O  3.98200 48.74900 43.05100
C  5.71400 49.54900 41.55100
C  5.21200 48.59400 40.50200
O  4.38500 48.87800 39.62900
O  5.87700 47.35600 40.57600
C  5.47800 46.48700 39.46900
H  10.60600 53.81000 39.64600
H  6.64100 58.82900 40.92300
H  2.14600 54.56800 42.66200
H  8.58900 49.62600 40.90500
H  10.42700 51.35100 39.37500
H  10.26400 50.34000 41.88600
H  10.19700 52.06700 42.24800
H  11.63000 51.41100 41.31200
H  7.27500 49.13000 38.85900
H  8.93400 48.93600 38.54900
H  8.95300 50.13700 36.79500
H  8.57200 51.56500 37.75100
H  12.00500 56.84600 40.45700
H  11.64800 57.11800 38.80200
H  11.87700 55.53900 39.34200
H  7.91900 60.26400 39.84700
H  9.26800 61.10500 40.81700
H  8.22900 59.99800 41.59800
H  4.07100 58.70100 40.55500
H  2.57500 57.17200 42.65400
H  4.05300 58.76100 43.54600
H  4.29800 60.20200 42.36400
H  5.53600 59.14600 42.84500
H  2.07100 56.41900 39.86700
H  2.14200 58.19500 40.04600
H  -0.01000 57.69300 40.08500
H  0.17900 57.80200 41.88400
H  0.02100 56.29500 41.01200
H  1.76200 52.58800 44.31200
H  1.71500 50.93000 43.87000
H  1.06100 52.25000 42.78100
H  6.44500 49.11300 42.23200
H  6.06400 46.69700 38.57500
H  4.41700 46.53700 39.22800
H  5.73700 45.47100 39.77000

