158

Mg 2.63000 -1.50900 44.06200
C  5.98700 -0.77600 43.69100
C  1.91000 1.57400 42.54500
C  -0.65500 -2.42300 43.77100
C  3.39400 -4.65000 45.29200
N  3.77500 0.18500 43.24700
C  5.11100 0.25800 43.20500
C  5.72500 1.40900 42.41600
C  4.43800 2.33200 42.30400
C  3.28200 1.31800 42.72000
C  4.58900 3.55300 43.32000
C  6.45300 1.12500 41.08000
C  7.58900 2.13700 40.76700
H  7.33300 3.09400 39.59600
N  0.85700 -0.54000 43.37100
C  0.80000 0.73900 42.76300
C  -0.52400 1.07700 42.55700
C  -1.39000 -0.02800 42.92000
C  -0.42100 -1.09000 43.40000
C  -0.94400 2.47200 42.13500
C  -2.97900 -0.04100 42.82400
O  -3.56700 0.91100 42.32300
C  -3.73300 -1.22400 43.17700
N  1.45100 -3.28900 44.56400
C  0.19500 -3.48800 44.20600
C  -0.26900 -4.92100 44.39700
C  1.07100 -5.59600 44.91600
C  2.05500 -4.43800 44.98600
C  -1.49400 -5.18200 45.32000
C  1.46200 -6.70600 43.76100
C  0.60700 -7.95200 43.86300
N  4.37200 -2.57500 44.44400
C  4.52600 -3.82800 44.97700
C  5.99900 -4.07900 45.09600
C  6.60300 -2.89500 44.61800
C  5.59000 -2.03200 44.24200
C  6.62000 -5.22300 45.69700
C  7.87700 -2.25000 44.44400
O  9.02800 -2.60900 44.68200
C  7.48600 -0.83900 43.75700
C  8.05900 0.17100 44.68800
O  7.96600 0.21300 45.88700
O  8.66100 1.16000 43.94600
C  9.02400 2.45800 44.60600
H  1.60700 2.56300 42.19600
H  -1.66800 -2.75900 43.53800
H  3.66700 -5.64700 45.64500
H  6.42800 1.91400 43.07900
H  4.05100 2.67200 41.34300
H  3.62600 3.98000 43.60200
H  5.15000 4.39200 42.91100
H  5.05100 3.21300 44.24700
H  5.69600 1.17900 40.29800
H  6.89400 0.13600 40.95100
H  8.44900 1.52100 40.50500
H  7.80500 2.77300 41.62600
H  -1.97200 2.69700 42.41900
H  -0.80200 2.56700 41.05900
H  -0.38900 3.24100 42.67200
H  -4.81800 -1.15800 43.10200
H  -3.32600 -1.77100 44.02700
H  -3.49800 -1.92500 42.37500
H  -0.56900 -5.30400 43.42200
H  0.99800 -5.92200 45.95300
H  -2.13400 -5.98800 44.96200
H  -1.98400 -4.21000 45.25600
H  -1.22500 -5.43700 46.34500
H  2.38500 -7.16800 44.11000
H  1.46700 -6.32000 42.74100
H  0.41800 -8.19900 42.81800
H  -0.35000 -7.74500 44.34300
H  1.17800 -8.75700 44.32600
H  7.07800 -5.88600 44.96300
H  5.98800 -5.86000 46.31600
H  7.51100 -4.90200 46.23600
H  7.94000 -0.84500 42.76700
H  8.89300 2.50400 45.68700
H  8.39400 3.21000 44.13100
H  10.01100 2.59400 44.16300
Mg 49.28600 44.79400 42.01000
C  45.84900 45.36600 41.19900
C  48.76600 41.68600 40.69800
C  52.54600 44.45300 41.94400
C  49.59900 48.31500 42.27400
N  47.43100 43.66500 41.16800
C  46.16000 44.05800 40.91400
C  45.31700 43.05000 40.15100
C  46.20200 41.81100 40.27100
C  47.59200 42.42200 40.69300
C  45.78800 40.79500 41.35000
C  45.12900 43.69700 38.75300
C  43.75200 43.68200 38.07600
H  43.52100 42.63100 37.00300
N  50.50300 43.18900 41.63700
C  50.11600 42.00800 41.04900
C  51.26000 41.16900 40.94000
C  52.42700 41.93500 41.35900
C  51.86500 43.23800 41.73200
C  51.13000 39.73900 40.34700
C  53.83300 41.39300 41.58100
O  54.08600 40.24600 41.26200
C  54.98000 42.16300 42.14400
N  50.85900 46.18100 42.04300
C  52.10700 45.75900 42.06800
C  53.15000 46.94500 41.91900
C  52.22600 48.15500 42.21800
C  50.79100 47.52200 42.19600
C  54.33400 46.78700 42.87800
C  52.56100 49.42900 41.40800
C  52.29300 50.75000 42.16900
N  48.04800 46.55200 41.99900
C  48.26600 47.89200 42.21500
C  47.08100 48.61100 42.34200
C  46.12000 47.69800 41.91600
C  46.74600 46.41600 41.70700
C  46.87900 50.04700 42.76400
C  44.62800 47.53100 41.59200
O  43.71800 48.36800 41.50000
C  44.47700 45.99300 41.18300
C  43.63400 45.42500 42.19400
O  44.00500 44.70700 43.13400
O  42.32900 45.69900 41.90400
C  41.36200 45.13900 42.76900
H  48.68600 40.64100 40.39200
H  53.60000 44.35700 41.67500
H  49.70200 49.40300 42.26400
H  44.36500 42.97900 40.67500
H  46.19400 41.35700 39.28000
H  44.79300 41.14000 41.63200
H  46.44600 40.84100 42.21700
H  45.70500 39.80300 40.90600
H  45.84400 43.15500 38.13500
H  45.40500 44.74800 38.67200
H  43.52500 44.70500 37.77500
H  43.09000 43.45300 38.91100
H  50.71800 39.05500 41.08800
H  51.99600 39.17100 40.00700
H  50.35200 39.76300 39.58400
H  54.53100 42.76800 42.93200
H  55.32600 42.77600 41.31200
H  55.75100 41.52400 42.57500
H  53.52800 46.90300 40.89800
H  52.37400 48.51800 43.23500
H  55.29300 46.45800 42.47800
H  54.01700 46.14000 43.69600
H  54.57700 47.73200 43.36400
H  51.98500 49.39800 40.48300
H  53.64500 49.53300 41.35100
H  51.92100 50.52000 43.16800
H  51.51800 51.25200 41.58900
H  53.18000 51.38100 42.22200
H  47.72400 50.33200 43.39200
H  45.94000 50.12000 43.31400
H  46.88400 50.53400 41.78900
H  44.10400 45.84200 40.17100
H  41.72900 44.20700 43.19700
H  40.49900 44.89400 42.15000
H  41.02700 45.81400 43.55600

