158

Mg 0.96100 6.86400 26.20300
C  1.99000 9.37600 28.66500
C  1.00000 4.61200 28.71000
C  0.24000 4.77300 23.92400
C  1.68000 9.47400 23.76400
N  1.44700 7.04100 28.45200
C  1.75000 8.07800 29.25300
C  1.56200 7.76000 30.68500
C  1.52300 6.19000 30.66500
C  1.31600 5.91400 29.17400
C  2.79000 5.46200 31.18200
C  0.28000 8.49900 31.41000
C  0.45400 8.72700 32.97000
H  1.75500 8.36900 33.72600
N  0.63300 4.96900 26.28300
C  0.74600 4.11100 27.38300
C  0.37600 2.72100 26.99900
C  0.01500 2.78900 25.60900
C  0.38500 4.17100 25.18000
C  0.19000 1.58100 28.06000
C  -0.50200 1.66300 24.71300
O  -0.95200 1.86600 23.61500
C  -0.52700 0.23800 25.26100
N  1.32200 7.00200 23.97000
C  0.65500 6.00100 23.33300
C  0.07400 6.48300 21.95000
C  0.58400 8.00400 21.88800
C  1.17500 8.24200 23.30900
C  0.45100 5.61200 20.72800
C  -0.43400 9.08100 21.49600
C  -0.05200 10.27500 20.62200
N  1.72100 9.00700 26.14500
C  1.92200 9.88700 25.08700
C  2.42300 11.10200 25.57300
C  2.38100 10.96100 26.93700
C  2.00200 9.66100 27.24900
C  3.08100 12.22800 24.72800
C  2.64300 11.71100 28.14200
O  3.00300 12.87700 28.25700
C  2.25300 10.76700 29.33100
C  3.40100 10.61900 30.20200
O  4.45700 10.08500 29.86200
O  3.14100 11.28600 31.40700
C  4.27400 11.50900 32.29900
H  0.99200 3.84300 29.48500
H  -0.09900 4.04400 23.18600
H  1.66100 10.28200 23.02900
H  2.40500 8.19900 31.21800
H  0.64700 5.92200 31.25700
H  2.52700 4.82600 32.02700
H  3.59000 6.14800 31.45900
H  3.08900 4.77200 30.39300
H  -0.62500 7.89500 31.47000
H  0.11900 9.46100 30.92500
H  -0.35500 8.17500 33.44900
H  0.20800 9.74300 33.28100
H  0.57300 0.61600 27.72900
H  -0.87900 1.50800 28.25900
H  0.56500 2.04300 28.97300
H  -0.96100 0.05600 26.24400
H  0.52700 0.04600 25.46300
H  -0.75200 -0.54900 24.54200
H  -1.01400 6.42300 21.97800
H  1.45000 8.04100 21.22700
H  0.98500 4.69500 20.97900
H  1.21900 6.11000 20.13700
H  -0.35300 5.36500 20.03500
H  -0.71700 9.45400 22.48100
H  -1.26300 8.64600 20.93900
H  -0.91100 10.75200 20.14900
H  0.63000 10.00800 19.81500
H  0.23400 11.07700 21.30300
H  2.38400 12.71900 24.04900
H  3.77600 11.77200 24.02200
H  3.47900 13.05500 25.31600
H  1.39600 11.03400 29.94900
H  4.83100 12.39500 31.99300
H  4.91900 10.65200 32.49200
H  3.83700 11.81400 33.25000
Mg -11.31600 16.01100 43.37100
C  -7.93400 17.13800 43.42300
C  -12.19100 19.23100 42.53800
C  -14.44300 14.97000 43.28300
C  -10.13700 12.71400 43.57100
N  -10.16800 17.95700 42.92100
C  -8.83700 18.14700 43.01600
C  -8.45600 19.53400 42.62800
C  -9.84800 20.25700 42.49700
C  -10.81800 19.06800 42.63700
C  -10.12100 21.49500 43.41500
C  -7.67800 19.42100 41.23900
C  -6.38800 20.16400 41.22600
H  -5.38600 19.72900 40.12800
N  -13.09200 17.03000 43.13700
C  -13.23500 18.34000 42.86800
C  -14.63300 18.68100 42.81900
C  -15.40000 17.45500 43.02800
C  -14.32700 16.41700 43.17200
C  -15.08300 20.13000 42.46000
C  -16.84400 17.31300 43.16900
O  -17.53700 18.26900 42.81500
C  -17.49400 16.15600 43.73900
N  -12.17200 14.08200 43.21100
C  -13.50100 13.98400 43.29100
C  -13.84400 12.52300 43.46000
C  -12.47000 11.73100 43.43400
C  -11.49300 12.88800 43.43900
C  -14.76000 12.18800 44.66100
C  -12.24300 10.82400 42.13400
C  -12.31600 9.29500 42.26700
N  -9.45100 15.07700 43.40200
C  -9.13500 13.72800 43.51700
C  -7.76300 13.54900 43.69500
C  -7.23700 14.88400 43.69800
C  -8.29400 15.77700 43.60700
C  -7.00600 12.27900 43.79900
C  -6.04600 15.69700 43.76200
O  -4.87700 15.36700 43.84200
C  -6.40900 17.25700 43.69700
C  -6.14800 17.92700 44.87400
O  -6.14900 17.44300 45.97000
O  -5.87900 19.28100 44.60800
C  -5.76700 20.15600 45.74700
H  -12.36800 20.28800 42.32800
H  -15.44200 14.54300 43.39800
H  -9.80200 11.67800 43.65700
H  -7.98900 19.96900 43.51000
H  -9.99700 20.66000 41.49500
H  -10.44000 22.42500 42.94400
H  -9.16500 21.72900 43.88300
H  -10.77700 21.14400 44.21200
H  -8.16900 19.88900 40.38600
H  -7.58100 18.36000 41.01000
H  -5.93900 20.03200 42.21100
H  -6.60700 21.23100 41.20800
H  -16.13800 20.04300 42.20000
H  -14.48600 20.70000 41.74800
H  -15.01600 20.59400 43.44400
H  -18.45200 16.46800 44.15300
H  -16.82900 15.86300 44.55100
H  -17.74400 15.42900 42.96600
H  -14.42300 12.16300 42.60900
H  -12.31700 11.14300 44.33900
H  -14.71700 12.92600 45.46300
H  -14.68400 11.19000 45.09200
H  -15.80000 12.22900 44.33900
H  -11.29300 11.15900 41.71600
H  -13.06800 11.17000 41.51100
H  -13.23200 8.89100 41.83700
H  -12.08800 8.99700 43.29100
H  -11.52300 8.80700 41.70000
H  -7.01700 11.82900 42.80700
H  -7.35400 11.66500 44.63000
H  -5.98600 12.59000 44.02800
H  -5.87400 17.79100 42.91100
H  -6.75600 20.50700 46.04200
H  -5.28000 21.10700 45.53500
H  -5.25900 19.70000 46.59700

