158

Mg 2.05700 -1.50700 44.27000
C  5.47300 -0.93200 43.23800
C  1.08700 0.90600 42.13200
C  -1.13800 -2.68400 44.51500
C  3.07800 -4.03700 46.30900
N  3.17400 -0.28400 42.76900
C  4.51800 -0.14800 42.55300
C  4.84200 0.95700 41.51600
C  3.41200 1.60600 41.36900
C  2.47900 0.73200 42.24500
C  3.39200 3.12700 41.74000
C  5.41500 0.43600 40.16400
C  6.57100 1.13000 39.39800
H  6.29700 1.57700 37.89300
N  0.19500 -0.94900 43.46400
C  0.00100 0.13600 42.67600
C  -1.40900 0.29500 42.45400
C  -2.08000 -0.77700 43.10000
C  -1.03800 -1.48300 43.76200
C  -1.97400 1.49500 41.60800
C  -3.62600 -1.09500 43.09300
O  -4.35800 -0.31000 42.50200
C  -4.23700 -2.28900 43.70500
N  1.09500 -3.28700 45.12200
C  -0.21400 -3.52500 45.16200
C  -0.58600 -4.72600 46.10200
C  0.85600 -5.05200 46.67100
C  1.75300 -4.06800 46.00300
C  -1.66300 -4.37200 47.21400
C  1.25100 -6.52000 46.38800
C  2.18100 -7.16700 47.34000
N  3.91400 -2.25900 44.89600
C  4.13900 -3.27100 45.71200
C  5.55500 -3.47400 45.84900
C  6.08700 -2.57900 44.86900
C  5.04300 -1.87400 44.28900
C  6.29700 -4.50800 46.78000
C  7.35900 -2.01200 44.31700
O  8.52400 -2.21000 44.64100
C  6.90700 -0.99500 43.19600
C  7.59100 0.32900 43.44300
O  8.61700 0.53700 42.77100
O  7.21700 1.12500 44.52200
C  8.31600 1.87200 45.15600
H  0.86100 1.80400 41.55200
H  -2.06500 -3.23800 44.67000
H  3.27200 -4.83400 47.03000
H  5.44200 1.69300 42.05200
H  3.13900 1.56600 40.31500
H  2.57400 3.36700 42.41900
H  3.23100 3.80500 40.90200
H  4.19300 3.50700 42.37500
H  4.61100 0.33500 39.43400
H  5.74500 -0.57200 40.41400
H  7.44900 0.50200 39.24900
H  7.00000 1.90300 40.03500
H  -2.87800 1.25100 41.05100
H  -1.20400 1.74900 40.87900
H  -2.27200 2.27700 42.30700
H  -3.90200 -2.42400 44.73400
H  -4.05800 -3.07100 42.96700
H  -5.32700 -2.31400 43.71600
H  -1.02900 -5.47200 45.44200
H  0.85700 -4.98100 47.75900
H  -2.37600 -5.18500 47.34900
H  -2.24600 -3.52200 46.85800
H  -1.29000 -4.24800 48.23000
H  1.65900 -6.55400 45.37700
H  0.29600 -7.04500 46.41800
H  1.73500 -8.13500 47.56800
H  2.39700 -6.64200 48.27000
H  3.05400 -7.33800 46.71000
H  7.16100 -3.98400 47.18600
H  6.57800 -5.39500 46.21200
H  5.56200 -4.77700 47.53800
H  7.19900 -1.46000 42.25500
H  8.69200 2.61800 44.45600
H  9.14900 1.18100 45.29200
H  8.06100 2.34200 46.10600
Mg 1.36900 42.07100 24.90000
C  3.42200 42.26300 27.81700
C  -1.24000 41.01800 26.82300
C  -0.37400 41.85300 22.12800
C  4.40700 42.31500 23.07600
N  1.14800 41.74300 27.02400
C  2.06700 42.09700 28.02900
C  1.37600 42.15700 29.35100
C  -0.05600 41.69500 29.02300
C  -0.11000 41.49200 27.55800
C  -0.49500 40.50200 29.81500
C  1.53600 43.57600 30.01400
C  1.50500 43.72100 31.55500
H  1.25700 42.64000 32.57500
N  -0.55900 41.58300 24.47700
C  -1.43700 41.07600 25.43900
C  -2.67200 40.62800 24.76800
C  -2.49300 40.93700 23.38000
C  -1.13900 41.50700 23.26400
C  -3.77200 39.88300 25.40200
C  -3.37000 40.73900 22.22600
O  -2.91300 40.80900 21.06700
C  -4.75400 40.44200 22.46500
N  1.84300 42.05800 22.96800
C  0.95300 42.11100 21.89300
C  1.70500 42.25900 20.54400
C  3.05300 42.70300 21.01400
C  3.11900 42.38900 22.48500
C  1.64200 40.92900 19.66500
C  3.36100 44.26900 20.86000
C  3.25600 44.93000 19.45600
N  3.50500 42.24600 25.32400
C  4.60300 42.31800 24.44600
C  5.85500 42.40200 25.18800
C  5.46700 42.39500 26.50200
C  4.04500 42.29500 26.55100
C  7.14500 42.25400 24.39900
C  5.90100 42.45300 27.85100
O  7.03800 42.46400 28.28400
C  4.62100 42.43800 28.78800
C  4.77600 41.53300 29.96700
O  5.08000 40.31700 29.91600
O  4.72100 42.25800 31.16700
C  4.98800 41.42500 32.35800
H  -2.04800 40.62300 27.44300
H  -0.80300 41.84100 21.12400
H  5.25800 42.43000 22.40200
H  1.79400 41.57600 30.17300
H  -0.74700 42.52200 29.18800
H  -1.52400 40.64100 30.14700
H  0.10100 40.39800 30.72100
H  -0.51100 39.52800 29.32600
H  0.78800 44.27800 29.64600
H  2.45400 43.99100 29.59900
H  0.74900 44.44300 31.86500
H  2.47900 44.12800 31.82700
H  -3.49800 39.51700 26.39100
H  -3.96100 38.97100 24.83600
H  -4.68000 40.48400 25.36000
H  -5.14100 41.21500 23.12800
H  -4.72500 39.42500 22.85800
H  -5.36800 40.44000 21.56500
H  1.28900 43.10200 19.99100
H  3.87300 42.24500 20.46200
H  1.19100 40.99200 18.67500
H  1.21700 40.10500 20.23700
H  2.63500 40.50000 19.53000
H  4.41100 44.32300 21.14900
H  2.85900 44.88500 21.60600
H  2.83500 44.26400 18.70300
H  4.20600 45.16100 18.97400
H  2.78300 45.91200 19.45800
H  7.01800 41.84900 23.39500
H  7.78300 41.63300 25.02700
H  7.74500 43.16300 24.35300
H  4.52600 43.47300 29.11500
H  5.79900 40.70200 32.26600
H  4.11700 40.84800 32.67000
H  5.25000 42.04000 33.21900

