158

Mg 36.42900 50.04400 25.42900
C  36.80000 48.08400 28.32200
C  35.23200 52.59000 27.44100
C  35.99200 51.80500 22.68100
C  37.44700 47.31900 23.57600
N  36.15100 50.31500 27.57500
C  36.37700 49.39200 28.58600
C  36.14500 50.04200 29.95200
C  35.50100 51.32500 29.58800
C  35.64900 51.45600 28.11500
C  34.03000 51.56000 30.07500
C  37.50100 50.09400 30.80600
C  37.46900 49.92300 32.33000
H  36.04600 49.89900 32.94800
N  35.68100 51.94100 25.07900
C  35.31200 52.87600 26.03600
C  34.87000 54.10600 25.28700
C  35.09800 53.90200 23.95100
C  35.64100 52.49600 23.85800
C  34.28200 55.29100 25.99300
C  34.87000 54.86800 22.75200
O  35.18400 54.65300 21.58900
C  34.41000 56.29400 23.05400
N  36.57700 49.59600 23.43700
C  36.41400 50.49800 22.47700
C  36.74700 49.97700 21.02600
C  37.06700 48.50700 21.31000
C  37.13700 48.48500 22.89000
C  35.67200 50.20500 19.96900
C  38.39400 48.01700 20.65400
C  39.68500 48.55600 21.41400
N  37.01700 48.09700 25.84400
C  37.38500 47.11700 24.98700
C  37.70900 45.89500 25.71300
C  37.49900 46.18600 27.09500
C  37.03000 47.59900 27.03100
C  38.13200 44.57500 25.12300
C  37.44200 45.67200 28.47500
O  37.73300 44.53800 28.86700
C  37.09300 46.91300 29.34600
C  35.83900 46.60800 30.05500
O  34.74000 47.00200 29.67300
O  36.04600 45.95400 31.23100
C  34.85200 45.74500 32.04600
H  34.84500 53.35800 28.11400
H  35.84700 52.28800 21.71200
H  37.63500 46.43100 22.96800
H  35.46800 49.40800 30.52400
H  35.99100 52.17100 30.07100
H  33.55800 50.79400 30.69000
H  33.41500 51.60900 29.17600
H  34.06900 52.52900 30.57300
H  37.93800 51.08400 30.67800
H  38.15200 49.35800 30.33300
H  38.00200 50.80800 32.67800
H  38.05500 49.04500 32.59900
H  34.98600 56.10900 25.83600
H  34.27700 55.01200 27.04600
H  33.31200 55.61600 25.61600
H  35.14900 56.93400 23.53600
H  33.48100 56.26400 23.62400
H  34.15900 56.86000 22.15700
H  37.64600 50.54700 20.79200
H  36.20600 47.85700 21.15300
H  35.51200 49.36200 19.29700
H  35.93700 51.06300 19.35100
H  34.72900 50.37600 20.48900
H  38.30000 48.34700 19.62000
H  38.41600 46.92700 20.65100
H  39.41500 49.25500 22.20500
H  40.28900 48.93300 20.58900
H  40.17300 47.70100 21.88300
H  39.00300 44.85700 24.53200
H  37.32000 44.08500 24.58700
H  38.41400 43.90400 25.93500
H  37.95000 46.98800 30.01700
H  34.40700 46.64900 32.46100
H  35.19600 45.05700 32.81800
H  34.10500 45.11500 31.56200
Mg -2.14500 34.06700 26.64200
C  -3.52400 32.33000 29.33400
C  -0.30700 36.03300 28.92900
C  -0.83000 35.74500 24.09400
C  -4.07800 32.23300 24.48000
N  -2.07500 34.15700 28.81300
C  -2.70800 33.38200 29.77800
C  -2.09900 33.61100 31.19700
C  -1.39200 35.06000 30.98300
C  -1.29400 35.16000 29.46000
C  -2.19100 36.22400 31.47300
C  -1.16900 32.48100 31.65900
C  -1.02700 32.26300 33.19700
H  -1.70600 33.16100 34.21900
N  -0.62700 35.57800 26.54300
C  -0.02200 36.22400 27.59700
C  0.94900 37.17300 26.99800
C  0.69800 37.19600 25.58000
C  -0.33200 36.14100 25.33500
C  1.97400 37.92800 27.93500
C  1.40100 38.00600 24.46300
O  1.13600 37.96400 23.28300
C  2.54900 38.84100 24.96000
N  -2.41400 34.06900 24.57500
C  -1.78400 34.87900 23.68500
C  -2.12400 34.59500 22.21700
C  -3.03200 33.31000 22.43600
C  -3.24600 33.23000 23.94500
C  -2.99000 35.78200 21.60300
C  -2.40100 31.95000 21.87700
C  -1.28600 31.31900 22.69800
N  -3.64300 32.66400 26.76300
C  -4.23300 31.93400 25.80300
C  -5.04300 30.88100 26.42000
C  -4.76200 30.99600 27.77700
C  -3.88800 32.08600 27.94100
C  -5.89700 29.89800 25.70200
C  -5.10900 30.44600 29.01300
O  -5.94100 29.55200 29.27900
C  -4.24400 31.27500 30.09500
C  -5.22800 31.75800 31.10600
O  -6.08900 32.58500 30.88500
O  -5.14000 31.03900 32.22000
C  -6.07600 31.34500 33.26900
H  0.25200 36.66200 29.62500
H  -0.16900 36.10300 23.30200
H  -4.65000 31.71600 23.70600
H  -2.83300 33.63300 32.00200
H  -0.40300 35.04400 31.44100
H  -1.64100 36.79800 32.21900
H  -3.05800 35.77700 31.96000
H  -2.44600 36.90700 30.66300
H  -0.15800 32.78700 31.38900
H  -1.24700 31.49600 31.19800
H  0.04000 32.37400 33.38600
H  -1.19600 31.25100 33.56500
H  3.02700 37.66600 27.83300
H  1.57700 37.96500 28.94900
H  1.91900 38.99600 27.72700
H  3.33600 38.24600 25.42400
H  2.08400 39.54500 25.65000
H  3.07600 39.24200 24.09400
H  -1.27800 34.54300 21.53100
H  -3.98900 33.45100 21.93200
H  -4.05400 35.73000 21.83600
H  -2.77400 35.57400 20.55500
H  -2.54000 36.69100 22.00200
H  -1.91500 32.24100 20.94600
H  -3.12000 31.18000 21.59600
H  -1.47200 30.24700 22.63200
H  -1.28300 31.57500 23.75700
H  -0.28200 31.58100 22.36600
H  -6.83000 29.56900 26.16000
H  -5.28500 29.06500 25.35600
H  -6.11800 30.34300 24.73200
H  -3.52900 30.67500 30.65700
H  -6.98100 31.92400 33.08200
H  -5.55400 31.89900 34.04900
H  -6.50900 30.42700 33.66500

