158

Mg 26.33400 50.91400 26.05900
C  24.10400 51.97900 28.63800
C  28.39100 49.89600 28.54600
C  28.39400 50.21200 23.65300
C  24.14800 52.28200 23.79200
N  26.24300 50.90800 28.38200
C  25.20500 51.39700 29.13900
C  25.45600 51.09300 30.65000
C  26.91000 50.39100 30.59000
C  27.22500 50.44800 29.10800
C  28.00100 51.06500 31.48500
C  24.39900 50.16100 31.30900
C  24.82100 49.36600 32.62200
H  23.68800 49.32000 33.70400
N  28.16900 50.21100 26.12300
C  28.90200 49.77600 27.22200
C  30.21000 49.31700 26.77900
C  30.22700 49.48500 25.38800
C  28.93800 50.00000 25.05000
C  31.14700 48.64700 27.73400
C  31.35700 49.14500 24.45100
O  31.27700 49.39300 23.27200
C  32.66100 48.56700 25.01400
N  26.26200 51.11200 24.05600
C  27.19200 50.67200 23.25700
C  26.84500 50.85200 21.81000
C  25.32300 51.36800 21.87100
C  25.19900 51.57800 23.34400
C  27.77900 51.79200 21.10200
C  24.35800 50.38300 21.18000
C  24.02800 50.76800 19.75900
N  24.58100 52.02100 26.14300
C  23.83900 52.55500 25.11100
C  22.61700 53.17500 25.63000
C  22.71800 53.05700 27.03900
C  23.90200 52.30500 27.27900
C  21.50600 53.70200 24.76200
C  22.01500 53.21500 28.31800
O  20.91100 53.67600 28.64200
C  22.96900 52.50000 29.37400
C  23.31700 53.58500 30.39400
O  24.19300 54.44800 30.29300
O  22.61700 53.38200 31.54200
C  23.01300 54.10000 32.76800
H  29.09300 49.63900 29.34200
H  29.09100 50.02700 22.83300
H  23.42700 52.62500 23.04800
H  25.51100 52.00100 31.25100
H  26.75000 49.35600 30.89300
H  28.86200 51.31300 30.86500
H  28.26800 50.38700 32.29600
H  27.63200 51.97500 31.95900
H  24.13500 49.51600 30.47100
H  23.57500 50.81400 31.59800
H  25.68100 49.82500 33.10900
H  24.98800 48.36400 32.22700
H  31.06600 47.57500 27.55500
H  30.80800 48.78300 28.76100
H  32.17300 49.01200 27.69100
H  33.23900 48.26300 24.14100
H  32.50700 47.73200 25.69900
H  33.10300 49.42100 25.52800
H  26.88400 49.86400 21.34900
H  25.22500 52.38600 21.49200
H  28.47600 52.27000 21.79000
H  27.25900 52.60600 20.59700
H  28.39800 51.24800 20.38900
H  23.39800 50.26800 21.68400
H  24.85400 49.41300 21.14800
H  24.56400 50.09000 19.09600
H  24.35600 51.75700 19.43700
H  22.94600 50.71200 19.64000
H  21.96700 54.49400 24.17100
H  20.69700 54.02300 25.41800
H  21.07000 52.94900 24.10500
H  22.52700 51.62400 29.84700
H  23.37700 55.09200 32.50300
H  23.70000 53.52400 33.38800
H  22.11800 54.19500 33.38300
Mg 8.35200 48.39900 28.21800
C  6.64300 47.46600 31.18600
C  11.33800 48.32400 29.80900
C  9.78200 49.61300 25.40700
C  5.15800 48.64100 26.54800
N  8.94900 47.87400 30.25000
C  8.06800 47.56100 31.31300
C  8.89600 47.52400 32.67200
C  10.33100 48.12900 32.15800
C  10.30500 48.09200 30.68100
C  10.86100 49.47900 32.76000
C  8.96700 46.06600 33.32400
C  8.77300 46.20400 34.81900
H  9.55000 45.25000 35.75900
N  10.28700 48.66400 27.61100
C  11.38200 48.58500 28.39000
C  12.59500 48.71000 27.56500
C  12.12200 49.12300 26.29000
C  10.65300 49.21300 26.41000
C  13.95800 48.43000 28.06100
C  12.88800 49.44700 25.02300
O  12.42700 49.92200 23.99900
C  14.31200 49.23400 24.98600
N  7.54600 49.16300 26.41200
C  8.39500 49.66500 25.46800
C  7.62800 50.26500 24.24300
C  6.15700 49.75600 24.51700
C  6.30000 49.10900 25.86800
C  7.76200 51.81000 24.21300
C  5.51300 48.75500 23.56400
C  5.89100 48.72600 22.06200
N  6.27800 48.05100 28.68300
C  5.14700 48.09500 27.87300
C  4.02000 47.76700 28.69300
C  4.54800 47.52600 29.99000
C  5.94900 47.71900 29.91100
C  2.60500 47.73000 28.22900
C  4.14300 47.15100 31.34500
O  2.99000 46.92800 31.80000
C  5.58400 47.15700 32.25300
C  5.70300 45.77300 32.86100
O  6.00700 44.77500 32.23100
O  5.42800 45.85500 34.17100
C  5.31100 44.57500 34.89000
H  12.26700 48.37800 30.38100
H  10.20000 50.06300 24.50400
H  4.29700 48.98500 25.97000
H  8.34600 48.26900 33.24600
H  11.07400 47.41600 32.51500
H  11.42200 50.04300 32.01500
H  11.51300 49.30000 33.61500
H  10.01700 50.09000 33.08100
H  9.92800 45.56000 33.22300
H  8.26500 45.39000 32.83600
H  7.73400 46.11000 35.13600
H  9.12200 47.20500 35.07400
H  13.93900 48.07300 29.09000
H  14.36700 49.43800 28.13900
H  14.63100 47.85000 27.43000
H  14.44100 48.15700 24.87300
H  14.78300 49.70200 25.85000
H  14.71700 49.80800 24.15300
H  7.95600 49.72600 23.35400
H  5.46700 50.59300 24.62400
H  8.67600 52.15300 24.69800
H  6.88000 52.25600 24.67300
H  7.68800 52.16900 23.18700
H  4.44300 48.86500 23.74200
H  5.80900 47.83800 24.07300
H  5.98000 49.72600 21.63600
H  4.95700 48.41800 21.59300
H  6.64600 47.97000 21.84900
H  2.33200 48.56500 27.58400
H  1.83800 47.70500 29.00400
H  2.46100 46.81400 27.65800
H  5.65700 47.84100 33.09800
H  4.27600 44.43800 35.20400
H  5.89600 44.60200 35.80900
H  5.63500 43.74200 34.26600

