158

Mg 17.50800 -2.83200 28.19900
C  16.31400 -0.73800 30.91700
C  19.33400 -4.59000 30.51400
C  18.80600 -4.33800 25.70400
C  15.66100 -0.76100 25.99600
N  17.69700 -2.73000 30.45300
C  17.08600 -1.78000 31.33500
C  17.57500 -2.11400 32.79300
C  18.65600 -3.15700 32.60600
C  18.65300 -3.49800 31.07900
C  20.02900 -2.66200 33.07000
C  16.36700 -2.43600 33.72000
C  16.28000 -1.68400 35.08800
H  17.52100 -1.18900 35.79600
N  18.79100 -4.39200 28.07600
C  19.38200 -5.01200 29.11000
C  20.13600 -6.14800 28.55200
C  20.05100 -6.07100 27.10200
C  19.18100 -4.85900 26.91300
C  21.16000 -7.01600 29.36400
C  20.71100 -6.94400 26.07500
O  20.66000 -6.72700 24.88600
C  21.42200 -8.21600 26.41200
N  17.48400 -2.39200 26.18700
C  18.03000 -3.27700 25.31100
C  17.74500 -2.89500 23.84800
C  16.53400 -2.04800 24.02400
C  16.56200 -1.68500 25.46900
C  18.96400 -2.19900 23.22300
C  15.23100 -2.78100 23.57100
C  14.08600 -1.97900 23.06100
N  16.30000 -1.01900 28.37500
C  15.53600 -0.36200 27.39800
C  14.63600 0.58100 27.99100
C  15.00100 0.56600 29.36700
C  15.97200 -0.45300 29.54600
C  13.69000 1.35700 27.22900
C  14.66600 1.14400 30.64600
O  13.77200 1.97300 30.97600
C  15.51700 0.27600 31.78200
C  16.48900 1.27100 32.44400
O  17.63900 1.55400 32.09800
O  15.81400 1.82100 33.50200
C  16.44300 2.74900 34.43400
H  19.94700 -5.27700 31.10100
H  19.12600 -4.91600 24.83500
H  15.20100 -0.15100 25.21600
H  18.00400 -1.17500 33.14200
H  18.33400 -4.12600 32.98700
H  20.76700 -3.39600 32.74800
H  20.10800 -2.53500 34.14900
H  20.17600 -1.70400 32.56900
H  16.46300 -3.48200 34.01200
H  15.41000 -2.24400 33.23500
H  15.77900 -2.40400 35.73400
H  15.49400 -0.97500 34.82500
H  22.00900 -7.25400 28.72300
H  20.81600 -7.93800 29.83200
H  21.52300 -6.45400 30.22400
H  21.00300 -8.61900 27.33400
H  22.45200 -7.93200 26.63100
H  21.48500 -8.95200 25.61100
H  17.64900 -3.89800 23.43100
H  16.67400 -1.11600 23.47700
H  19.90400 -2.05400 23.75500
H  18.65500 -1.18700 22.96200
H  19.23800 -2.78000 22.34200
H  14.93100 -3.26400 24.50100
H  15.34900 -3.39900 22.68000
H  14.14700 -1.01900 23.57400
H  13.20700 -2.55300 23.35500
H  14.17500 -1.88100 21.97900
H  13.11900 0.74800 26.52700
H  14.25100 1.99300 26.54500
H  13.07200 1.95100 27.90200
H  14.81600 -0.11800 32.51700
H  17.21900 3.33800 33.94500
H  16.74300 2.30700 35.38400
H  15.67200 3.46600 34.71800
Mg -4.71000 24.88500 25.89800
C  -2.89500 26.44500 28.51000
C  -5.74400 22.63400 28.13800
C  -6.36400 23.56000 23.47800
C  -3.11000 27.13100 23.59900
N  -4.38200 24.69000 28.05300
C  -3.73700 25.46100 28.90800
C  -4.07600 25.15900 30.39300
C  -4.71200 23.78900 30.22100
C  -5.03000 23.67700 28.69900
C  -3.79800 22.64000 30.70000
C  -5.09600 26.25700 30.88800
C  -5.02300 26.43000 32.44500
H  -4.62300 25.24700 33.33500
N  -5.95700 23.33100 25.82300
C  -6.18600 22.45900 26.80500
C  -6.88600 21.29000 26.27300
C  -7.15200 21.52100 24.88800
C  -6.50300 22.84300 24.68500
C  -7.47300 20.16700 27.20700
C  -7.97400 20.77300 23.87000
O  -8.26500 21.27700 22.79500
C  -8.54000 19.38100 24.18300
N  -4.89400 25.48400 23.85500
C  -5.60800 24.67200 23.08000
C  -5.41300 24.85400 21.57000
C  -4.45400 26.09600 21.58900
C  -4.14200 26.31500 23.10200
C  -4.76600 23.59500 20.95100
C  -5.03800 27.31400 20.89200
C  -4.20500 27.76200 19.70800
N  -3.25400 26.41700 25.96600
C  -2.73200 27.24400 24.96000
C  -1.81700 28.22400 25.60100
C  -1.89100 27.99400 26.96000
C  -2.70600 26.81700 27.16700
C  -1.15400 29.33600 24.90500
C  -1.31900 28.43300 28.27200
O  -0.48100 29.30400 28.51300
C  -2.11000 27.48400 29.37200
C  -1.12500 26.79200 30.22600
O  -0.24700 26.06900 29.92100
O  -1.44600 27.11700 31.52900
C  -0.58300 26.72300 32.66100
H  -6.19400 21.91500 28.82500
H  -6.88100 23.15500 22.60600
H  -2.74800 27.77800 22.79800
H  -3.20600 25.19000 31.04900
H  -5.58100 23.72400 30.87500
H  -4.41900 22.01600 31.34300
H  -3.02700 22.96900 31.39700
H  -3.37200 22.06800 29.87500
H  -6.11700 26.03300 30.57900
H  -4.87600 27.24400 30.48100
H  -5.99400 26.69100 32.86800
H  -4.25600 27.17400 32.65800
H  -6.79500 19.31400 27.22400
H  -8.48300 20.06100 26.81200
H  -7.56900 20.64600 28.18100
H  -7.72700 18.71800 24.47700
H  -8.98600 19.06900 23.23800
H  -9.25800 19.37500 25.00300
H  -6.42100 24.99700 21.18000
H  -3.50400 25.85900 21.10900
H  -4.70600 22.74900 21.63600
H  -3.78200 23.71000 20.49700
H  -5.38900 23.37600 20.08400
H  -5.10600 28.16900 21.56400
H  -6.06800 27.18200 20.56000
H  -4.82600 28.36900 19.04900
H  -3.96900 26.88800 19.10000
H  -3.36100 28.31900 20.11500
H  -0.08400 29.24000 25.08800
H  -1.34700 30.35600 25.23800
H  -1.28700 29.15600 23.83800
H  -2.73100 28.17300 29.94600
H  0.22300 27.45300 32.73700
H  -0.05100 25.81200 32.38400
H  -0.98800 26.68500 33.67200

