158

Mg 34.73700 2.65900 29.37500
C  32.72400 3.71600 32.07600
C  37.47200 2.57400 31.48600
C  36.80300 2.46000 26.70700
C  32.11300 3.44400 27.17100
N  34.99900 3.27100 31.56000
C  34.05400 3.53200 32.48400
C  34.64700 3.38300 33.91000
C  36.17500 3.18100 33.68600
C  36.27100 3.03600 32.13000
C  37.06800 4.31800 34.28000
C  33.87100 2.24700 34.73800
C  33.58100 2.35800 36.27200
H  34.20300 3.53000 37.07500
N  36.81100 2.42600 29.11500
C  37.77000 2.37700 30.15100
C  39.08000 2.17000 29.54200
C  38.91700 2.02700 28.13200
C  37.47200 2.22000 27.91200
C  40.35100 2.12700 30.34900
C  39.93200 1.69800 27.06200
O  39.55700 1.60500 25.90300
C  41.38000 1.40500 27.37500
N  34.44800 2.90100 27.23400
C  35.47900 2.76800 26.32400
C  35.05300 3.03800 24.86900
C  33.48900 3.13000 25.08700
C  33.28900 3.11700 26.56500
C  35.70100 4.27500 24.25000
C  32.62200 2.04800 24.41800
C  31.16500 2.35200 24.16100
N  32.75700 3.16900 29.53600
C  31.83500 3.45400 28.54600
C  30.55200 3.91200 29.15100
C  30.92300 3.95700 30.52900
C  32.25600 3.55200 30.76500
C  29.21500 4.21700 28.44800
C  30.32100 4.31400 31.83800
O  29.18800 4.79000 32.13800
C  31.51300 4.13700 32.85400
C  31.69000 5.50000 33.58000
O  32.10200 6.58700 33.16300
O  31.23200 5.31500 34.80800
C  31.00700 6.51200 35.61600
H  38.33300 2.45800 32.14800
H  37.47300 2.47700 25.84400
H  31.27100 3.68600 26.52000
H  34.59700 4.27000 34.54300
H  36.53700 2.21500 34.03700
H  37.83100 3.88800 34.92900
H  36.66100 5.12800 34.88600
H  37.62600 4.78400 33.46800
H  34.48900 1.38200 34.49700
H  32.95300 1.96000 34.22600
H  33.82700 1.39800 36.72500
H  32.51100 2.55800 36.33400
H  40.21400 2.77100 31.21800
H  41.16900 2.56200 29.77600
H  40.58000 1.12000 30.69900
H  41.52200 0.78000 28.25700
H  41.87300 2.32100 27.69900
H  41.82800 0.97500 26.47900
H  35.11200 2.12400 24.27700
H  33.10100 4.07400 24.70400
H  36.49000 4.68000 24.88400
H  34.97900 5.05300 24.00200
H  36.32900 3.94400 23.42300
H  32.81200 1.14500 24.99800
H  32.94700 1.88800 23.39000
H  30.94300 2.12200 23.11900
H  30.82400 3.35100 24.43500
H  30.59600 1.66200 24.78300
H  28.43600 4.57900 29.11900
H  28.87700 3.22600 28.14500
H  29.30100 4.78000 27.51800
H  31.35700 3.30700 33.54300
H  29.97600 6.86300 35.56700
H  31.72200 7.33300 35.56900
H  31.11600 6.08500 36.61300
Mg 48.42900 35.78600 28.83400
C  46.22100 34.07900 31.00200
C  48.39800 38.33900 31.03600
C  50.05800 37.62800 26.59500
C  47.76300 33.34100 26.40600
N  47.40600 36.10200 30.76300
C  46.60400 35.26600 31.48600
C  46.31200 35.85000 32.85400
C  46.62200 37.36200 32.65400
C  47.59300 37.27000 31.42400
C  45.49300 38.27500 32.24900
C  46.92100 35.05800 34.03500
C  48.15400 35.54600 34.75900
H  48.00800 36.46300 35.94200
N  49.23000 37.69200 28.86600
C  49.19600 38.56900 29.95100
C  49.99700 39.68900 29.58500
C  50.52000 39.49600 28.27600
C  49.92900 38.26800 27.79200
C  50.37400 40.74000 30.64300
C  51.41200 40.38300 27.40400
O  51.69900 40.09600 26.27300
C  51.97400 41.67900 28.00900
N  48.54800 35.56600 26.64000
C  49.42200 36.43200 26.09200
C  49.89200 35.93400 24.77400
C  49.33600 34.45700 24.73200
C  48.58200 34.41400 26.04300
C  49.45900 36.84900 23.58800
C  50.46400 33.31300 24.76500
C  50.79600 32.68100 23.37500
N  47.37800 34.02700 28.71400
C  47.15500 33.13200 27.63600
C  46.34000 32.10000 28.04500
C  45.91200 32.39800 29.34800
C  46.58600 33.59300 29.72200
C  46.06400 30.88800 27.27500
C  45.07500 31.99700 30.42400
O  44.33800 31.02600 30.56600
C  45.09900 33.13400 31.46100
C  45.09900 32.48400 32.80200
O  45.71800 31.47400 33.18600
O  44.05700 33.09900 33.47700
C  43.83900 32.67900 34.92100
H  48.47300 39.19000 31.71600
H  50.71600 38.12800 25.88000
H  47.84500 32.51300 25.69900
H  45.24400 35.88100 33.06700
H  47.14100 37.77300 33.51900
H  44.58400 37.72500 32.00200
H  45.74300 38.82300 31.34000
H  45.29800 39.06700 32.97200
H  47.13600 34.01300 33.80800
H  46.11300 35.00900 34.76400
H  48.73800 36.07200 34.00300
H  48.75700 34.73800 35.17200
H  51.46400 40.78200 30.63800
H  49.91200 40.57800 31.61700
H  49.85800 41.66200 30.37600
H  52.27400 41.46700 29.03500
H  51.07200 42.28300 28.10600
H  52.78200 42.09800 27.41100
H  50.97600 35.86800 24.67700
H  48.66200 34.39100 23.87800
H  49.05800 36.31700 22.72500
H  50.31200 37.39100 23.17900
H  48.62000 37.47200 23.90000
H  50.15200 32.53800 25.46400
H  51.42800 33.76500 24.99700
H  50.38000 33.18400 22.50200
H  50.33900 31.69200 23.32500
H  51.83400 32.64100 23.04400
H  45.29000 30.25800 27.71200
H  47.00400 30.35200 27.14500
H  45.85200 31.20300 26.25300
H  44.14300 33.63100 31.29500
H  42.75800 32.60700 35.03500
H  44.31200 33.45300 35.52500
H  44.29800 31.69900 35.05800

