158

Mg 1.93400 -1.21100 44.99200
C  5.30300 -0.39600 44.48300
C  1.08200 1.32300 42.61700
C  -1.15500 -2.44800 44.66800
C  2.97500 -4.08500 46.72200
N  3.13300 0.17200 43.60000
C  4.48500 0.37900 43.67800
C  4.86100 1.48700 42.72000
C  3.49600 2.11200 42.27700
C  2.44200 1.19700 42.88800
C  3.15100 3.50900 42.93000
C  5.70700 0.92200 41.44600
C  7.11100 1.56600 41.45500
H  7.58900 2.24300 40.19300
N  0.16200 -0.56900 43.94700
C  0.07400 0.46700 43.04200
C  -1.37500 0.63700 42.72100
C  -2.07800 -0.49100 43.29400
C  -0.97700 -1.21000 44.01500
C  -1.98200 1.69500 41.85300
C  -3.56800 -0.72400 43.12300
O  -4.15500 -0.15900 42.22100
C  -4.38900 -1.68200 43.96800
N  1.04400 -2.98400 45.61200
C  -0.29300 -3.23600 45.43800
C  -0.67300 -4.65800 46.05800
C  0.69000 -5.11500 46.73100
C  1.60800 -4.00200 46.37200
C  -1.93100 -4.67800 47.02900
C  1.20300 -6.49400 46.13900
C  2.03800 -7.31600 47.18600
N  3.72200 -2.09000 45.62700
C  4.01300 -3.22600 46.35600
C  5.43800 -3.24000 46.57600
C  5.99500 -2.14000 45.89900
C  4.89700 -1.49700 45.26700
C  6.18600 -4.26100 47.23600
C  7.24200 -1.43300 45.58200
O  8.43900 -1.56600 45.92800
C  6.78200 -0.28600 44.62400
C  7.25600 1.03600 45.16300
O  6.75900 1.55100 46.14200
O  8.30900 1.54100 44.38400
C  8.46000 3.00100 44.54500
H  0.74100 2.07300 41.90000
H  -2.17000 -2.83400 44.55900
H  3.27800 -4.90800 47.37200
H  5.49200 2.08600 43.37700
H  3.33600 1.97300 41.20800
H  3.10400 4.19800 42.08700
H  3.87800 3.90100 43.64100
H  2.23800 3.67900 43.49900
H  5.20200 1.25200 40.53800
H  5.85700 -0.15100 41.56100
H  7.92700 0.93500 41.81000
H  7.16900 2.38900 42.16700
H  -2.25300 1.35000 40.85500
H  -1.25200 2.47700 41.64400
H  -2.91100 2.11000 42.24200
H  -5.37600 -1.24600 44.12000
H  -3.90300 -1.86100 44.92700
H  -4.42800 -2.60600 43.39000
H  -0.89300 -5.34000 45.23700
H  0.64400 -5.18700 47.81800
H  -1.65100 -5.08900 48.00000
H  -2.82100 -5.16600 46.63300
H  -2.10300 -3.61600 47.20000
H  1.80600 -6.35000 45.24200
H  0.38400 -7.17000 45.89500
H  1.29500 -8.08400 47.40500
H  2.24300 -6.74700 48.09200
H  2.95600 -7.81800 46.88100
H  7.21800 -3.96000 47.41500
H  6.15500 -5.23900 46.75500
H  5.74400 -4.60300 48.17200
H  7.24200 -0.43200 43.64700
H  9.18000 3.13000 45.35400
H  7.56200 3.54200 44.84700
H  8.80400 3.48000 43.62900
Mg -12.54100 38.37700 41.42800
C  -10.31200 35.88200 40.42800
C  -10.26900 40.69600 40.04000
C  -14.93000 40.65800 41.67500
C  -14.79900 35.80000 42.21500
N  -10.60400 38.22600 40.18400
C  -9.89900 37.09200 39.97400
C  -8.51600 37.43100 39.30900
C  -8.47400 38.97800 39.25100
C  -9.85100 39.36200 39.91900
C  -7.26400 39.74600 39.76400
C  -8.33200 36.80600 37.87500
C  -7.19500 35.79100 37.75200
H  -6.14700 36.13800 36.71000
N  -12.61100 40.37300 40.92700
C  -11.53500 41.14600 40.42000
C  -12.04300 42.47700 40.31800
C  -13.42400 42.51400 40.71600
C  -13.66300 41.16800 41.19100
C  -11.06800 43.59900 39.83400
C  -14.28000 43.67600 40.65100
O  -13.80000 44.73800 40.38000
C  -15.72800 43.66900 40.98800
N  -14.68300 38.26200 41.78500
C  -15.36500 39.38300 41.96400
C  -16.81900 39.03400 42.35000
C  -16.75500 37.41500 42.53800
C  -15.38400 37.07300 42.13000
C  -17.30600 39.93800 43.61500
C  -17.84800 36.71000 41.69100
C  -18.60100 35.56500 42.42900
N  -12.52900 36.23800 41.50400
C  -13.46300 35.35000 41.95500
C  -12.87700 34.06700 42.01900
C  -11.59000 34.25300 41.48200
C  -11.46400 35.58200 41.07800
C  -13.48900 32.86000 42.63300
C  -10.34000 33.55000 41.21900
O  -10.04100 32.41800 41.47800
C  -9.46800 34.65100 40.46100
C  -8.22600 34.75100 41.18200
O  -8.01100 35.53100 42.11400
O  -7.31900 33.89100 40.69100
C  -6.01300 33.55700 41.37200
H  -9.49500 41.40900 39.74900
H  -15.72000 41.37300 41.91400
H  -15.60700 35.11800 42.48800
H  -7.72100 37.07500 39.96500
H  -8.53400 39.35700 38.23100
H  -6.66400 40.32700 39.06400
H  -6.58900 38.97500 40.13700
H  -7.52300 40.31800 40.65500
H  -8.07700 37.60100 37.17400
H  -9.19300 36.28300 37.45900
H  -7.60000 34.80900 37.50700
H  -6.71400 35.72400 38.72800
H  -10.18500 43.21400 39.32300
H  -10.74100 44.20400 40.68000
H  -11.56700 44.22500 39.09400
H  -16.14500 42.90500 40.33200
H  -16.19700 44.62700 40.76300
H  -15.84400 43.51600 42.06100
H  -17.35600 39.28600 41.43600
H  -16.74300 37.04500 43.56300
H  -18.01600 40.63000 43.16300
H  -16.39600 40.37800 44.02300
H  -17.83100 39.36400 44.37900
H  -17.28900 36.25700 40.87200
H  -18.62900 37.40200 41.37700
H  -19.66300 35.48800 42.19500
H  -18.44800 35.54400 43.50800
H  -18.05200 34.67700 42.11600
H  -14.44800 32.71000 42.13700
H  -13.60100 33.17600 43.67000
H  -12.94700 31.92000 42.53500
H  -9.27700 34.25500 39.46400
H  -5.48000 32.83000 40.75800
H  -6.23500 33.20000 42.37800
H  -5.36400 34.43000 41.31700

