158

Mg 0.38200 7.45300 25.85300
C  1.39100 9.57700 28.53700
C  0.69200 4.86500 27.99900
C  -0.14900 5.51300 23.27700
C  1.13700 10.12900 23.61000
N  1.30500 7.33300 27.92900
C  1.35800 8.26500 28.86000
C  1.30700 7.71200 30.32900
C  1.27300 6.20300 30.07600
C  1.16500 6.09500 28.53600
C  2.34700 5.33500 30.76100
C  0.11800 8.25100 31.17000
C  -0.04600 7.51500 32.51700
H  1.19300 6.84300 33.21300
N  0.18100 5.46600 25.77600
C  0.22100 4.55000 26.76500
C  -0.11300 3.22200 26.26500
C  -0.37700 3.37300 24.85200
C  -0.17800 4.86500 24.58400
C  0.02200 1.93100 27.15600
C  -0.76400 2.43900 23.83300
O  -1.00400 2.71000 22.64700
C  -0.91100 0.99600 24.28800
N  0.48300 7.81200 23.68200
C  0.27100 6.79500 22.84500
C  0.29600 7.27500 21.36400
C  0.78100 8.67500 21.45200
C  0.72600 8.95400 22.99900
C  1.01600 6.33200 20.36800
C  -0.02000 9.78100 20.63200
C  0.93000 10.67100 19.74200
N  1.05200 9.49800 25.98600
C  1.19200 10.47800 25.07400
C  1.44700 11.75700 25.72000
C  1.57800 11.43900 27.08100
C  1.35800 10.04300 27.14100
C  1.78200 13.01700 24.99400
C  1.84000 11.94700 28.36700
O  2.11500 13.08300 28.78800
C  1.58900 10.78700 29.36000
C  2.59200 10.71100 30.43300
O  3.64900 10.14200 30.32300
O  2.16900 11.34400 31.61500
C  3.16100 11.29000 32.73100
H  0.62000 4.08300 28.75700
H  -0.49900 4.87600 22.46200
H  1.30800 10.90700 22.86300
H  2.29600 7.91200 30.74000
H  0.30800 5.88500 30.47000
H  3.03400 5.89300 31.39700
H  2.95300 4.92400 29.95300
H  1.86900 4.58600 31.39200
H  -0.79900 8.10800 30.59800
H  0.23200 9.30000 31.44300
H  -0.89700 6.85300 32.35400
H  -0.29500 8.32800 33.19800
H  0.88600 1.30600 26.93100
H  -0.92700 1.41600 27.00500
H  0.02700 2.18300 28.21600
H  -1.16900 0.49700 23.35300
H  -1.77100 0.98100 24.95800
H  0.06100 0.72700 24.70100
H  -0.75300 7.26300 21.06800
H  1.80800 8.65300 21.08600
H  1.35900 5.54400 21.03900
H  1.71000 6.99300 19.84800
H  0.26100 5.97900 19.66600
H  -0.57100 10.46100 21.28100
H  -0.84600 9.38600 20.04000
H  0.82100 10.44000 18.68200
H  1.97700 10.51300 20.00000
H  0.70800 11.70700 20.00000
H  2.43000 13.63900 25.61200
H  0.88400 13.56400 24.70900
H  2.32200 12.72800 24.09200
H  0.69000 11.06300 29.91300
H  4.00100 11.85000 32.31900
H  3.28500 10.26600 33.08100
H  2.73100 11.80600 33.58900
Mg -1.79400 34.79300 25.97800
C  -3.02200 32.79900 28.68900
C  -0.09000 36.65200 28.32900
C  -0.89200 36.70700 23.47100
C  -3.44600 32.64900 23.85800
N  -1.49900 34.68000 28.31200
C  -2.26100 33.88800 29.18100
C  -1.73500 34.06500 30.63000
C  -0.85900 35.37400 30.49000
C  -0.85900 35.65900 28.93800
C  -1.34700 36.58800 31.32100
C  -1.08600 32.82300 31.20200
C  -1.68800 32.20200 32.49900
H  -0.75800 31.92800 33.70000
N  -0.51100 36.36600 25.88000
C  0.18400 36.91100 26.92700
C  1.05400 37.92200 26.46000
C  0.82700 37.95200 25.08400
C  -0.26800 37.07500 24.72200
C  2.01300 38.67500 27.24000
C  1.45800 38.87800 24.01400
O  1.13000 38.93900 22.81700
C  2.57300 39.83300 24.43200
N  -2.31600 34.80600 23.99100
C  -1.76200 35.70100 23.14200
C  -1.97800 35.28400 21.61300
C  -2.55800 33.82800 21.82800
C  -2.73400 33.76400 23.31000
C  -2.92100 36.23300 20.77500
C  -1.61300 32.65300 21.24800
C  -0.22000 32.56800 21.86900
N  -2.99800 33.12400 26.19900
C  -3.59300 32.31000 25.22500
C  -4.35200 31.25600 25.73400
C  -4.14000 31.41100 27.15600
C  -3.39100 32.54200 27.38500
C  -5.20700 30.22700 24.96300
C  -4.46200 30.86500 28.47700
O  -5.21600 29.94300 28.80200
C  -3.69400 31.74000 29.52700
C  -4.57500 32.47700 30.47700
O  -4.97200 33.61200 30.40900
O  -4.88400 31.55400 31.48500
C  -5.55000 32.07600 32.69300
H  0.38500 37.27700 29.08900
H  -0.54700 37.20400 22.56200
H  -3.92800 31.93000 23.19200
H  -2.51200 34.36900 31.33200
H  0.15300 35.18200 30.84600
H  -1.86200 37.31400 30.69200
H  -0.58600 37.09000 31.91900
H  -2.05800 36.26100 32.07900
H  -0.09600 33.16200 31.50900
H  -0.94500 32.10600 30.39300
H  -2.00300 31.25000 32.07100
H  -2.54400 32.76500 32.87100
H  2.22300 38.34700 28.25800
H  1.74000 39.73000 27.22600
H  2.99300 38.46800 26.81000
H  3.32000 39.23600 24.95500
H  2.12100 40.55600 25.11100
H  2.99100 40.44300 23.63100
H  -1.08300 35.24100 20.99200
H  -3.54700 33.79300 21.37100
H  -3.40800 36.88500 21.50000
H  -3.73400 35.70600 20.27700
H  -2.35600 36.80600 20.04000
H  -1.62600 32.67200 20.15900
H  -2.12600 31.74500 21.56500
H  -0.14300 32.79900 22.93100
H  0.46700 33.15800 21.26300
H  -0.00000 31.50100 21.90700
H  -6.07100 30.80200 24.62900
H  -5.42300 29.37400 25.60600
H  -4.70700 29.81600 24.08600
H  -3.00000 31.19200 30.16400
H  -4.92300 32.90100 33.03300
H  -5.43000 31.28200 33.42900
H  -6.60800 32.29400 32.55100

