158

Mg 7.18700 1.58200 28.08700
C  8.73500 0.23900 30.93800
C  5.14600 3.40400 30.20400
C  6.06800 3.04900 25.48000
C  9.11400 -0.59100 26.15300
N  6.98200 1.70300 30.28900
C  7.82600 1.18800 31.23100
C  7.58800 1.79700 32.70300
C  6.21200 2.66300 32.44700
C  6.00500 2.52400 30.91000
C  4.99900 2.31000 33.33500
C  8.79600 2.64300 33.21900
C  9.25600 2.42600 34.68700
H  8.17500 2.23700 35.81100
N  5.74200 3.12700 27.89800
C  5.01500 3.74200 28.83000
C  4.17800 4.71100 28.18500
C  4.62300 4.83000 26.85500
C  5.53500 3.63600 26.68400
C  3.13400 5.54300 29.03300
C  4.24500 5.85500 25.76100
O  4.86000 5.85600 24.64600
C  3.26000 6.86700 26.09600
N  7.36200 1.16000 26.07800
C  6.80500 1.94800 25.20700
C  7.22100 1.54500 23.74000
C  8.09600 0.33900 23.95100
C  8.17000 0.22700 25.51100
C  6.00800 1.32200 22.62700
C  9.40800 0.33900 23.15200
C  10.56600 1.17200 23.84600
N  8.59500 0.13200 28.43500
C  9.39300 -0.64900 27.54400
C  10.31600 -1.51600 28.27700
C  10.18600 -1.04900 29.60400
C  9.06000 -0.15000 29.59600
C  11.18500 -2.58700 27.69400
C  10.72900 -1.23900 30.89800
O  11.63000 -2.00800 31.33500
C  9.88300 -0.22300 31.79800
C  9.26400 -0.94900 32.93200
O  8.25900 -1.66300 32.82600
O  9.97000 -0.89100 34.08300
C  9.38000 -1.45100 35.26900
H  4.59800 3.99500 30.94000
H  5.80800 3.62100 24.58600
H  9.67800 -1.30300 25.54600
H  7.41900 0.96300 33.38300
H  6.33800 3.73300 32.61500
H  5.30000 1.59600 34.10200
H  4.20500 1.86000 32.73900
H  4.71900 3.21300 33.87800
H  8.65400 3.67700 32.90400
H  9.69100 2.30900 32.69300
H  9.92400 3.24400 34.95900
H  9.91900 1.56100 34.73100
H  3.35900 6.59800 28.87400
H  2.95300 5.19900 30.05100
H  2.20800 5.43800 28.46800
H  2.33200 6.49600 26.52900
H  3.00100 7.33000 25.14400
H  3.70200 7.60700 26.76300
H  7.76500 2.43700 23.42700
H  7.67400 -0.62100 23.65400
H  5.07900 1.50700 23.16500
H  5.90000 0.31900 22.21500
H  6.13800 2.05100 21.82700
H  9.32300 0.62800 22.10500
H  9.81400 -0.66900 23.07200
H  10.38700 1.56300 24.84700
H  10.78600 1.96100 23.12600
H  11.44000 0.55400 24.05300
H  12.05000 -2.22400 27.14000
H  10.49000 -3.22600 27.14800
H  11.54400 -3.27900 28.45500
H  10.62200 0.55300 32.00100
H  9.96100 -2.37100 35.33100
H  8.32700 -1.71600 35.17500
H  9.47200 -0.76200 36.10800
Mg 25.03600 0.48400 29.64100
C  27.34800 0.83000 32.18800
C  22.46700 0.56800 31.77100
C  23.08300 0.25100 26.95700
C  27.93800 0.01100 27.48000
N  24.95800 0.60800 31.71000
C  26.02200 0.84400 32.61900
C  25.44800 0.97400 33.99900
C  23.84300 0.61300 33.86100
C  23.75800 0.61300 32.32000
C  23.36900 -0.72000 34.51300
C  25.79400 2.35100 34.67700
C  26.13100 2.10800 36.19600
H  25.48100 2.93700 37.27400
N  23.10500 0.56600 29.41200
C  22.14900 0.60200 30.41200
C  20.80300 0.43200 29.90800
C  20.94400 0.29600 28.53000
C  22.43700 0.39400 28.24800
C  19.57500 0.22600 30.77100
C  19.89700 0.18500 27.52900
O  20.14100 0.01000 26.34400
C  18.43700 0.34000 27.88100
N  25.53000 0.26900 27.55800
C  24.44300 0.10100 26.63800
C  24.98900 -0.17800 25.19200
C  26.51000 -0.15200 25.31300
C  26.73400 0.06600 26.88900
C  24.36100 -1.38400 24.39300
C  27.24900 0.83800 24.38200
C  27.71300 0.22600 22.94400
N  27.29000 0.40800 29.72700
C  28.28100 0.12600 28.85800
C  29.59400 0.13300 29.53900
C  29.27700 0.37300 30.84900
C  27.87800 0.55100 30.87200
C  30.89200 -0.17800 28.90300
C  29.77900 0.48200 32.19600
O  30.90900 0.24300 32.65500
C  28.54300 0.84500 33.12000
C  28.36300 -0.16000 34.27400
O  27.83100 -1.25100 34.14400
O  28.89600 0.22200 35.45700
C  28.56600 -0.61800 36.67100
H  21.65600 0.40100 32.48200
H  22.41900 -0.05200 26.14500
H  28.77700 -0.07900 26.78700
H  25.89500 0.22900 34.65800
H  23.26300 1.42200 34.30500
H  22.90500 -0.64300 35.49600
H  24.20600 -1.40700 34.63300
H  22.68100 -1.17300 33.79900
H  24.99700 3.08900 34.59600
H  26.69400 2.76600 34.22400
H  27.20200 2.27000 36.32600
H  25.82800 1.12200 36.54800
H  18.75600 0.92000 30.58100
H  19.80300 0.47700 31.80700
H  19.17700 -0.78600 30.69300
H  17.82800 0.35100 26.97700
H  18.25900 1.28000 28.40400
H  18.08000 -0.40500 28.59300
H  24.60300 0.65100 24.59900
H  26.85100 -1.18000 25.18800
H  25.14000 -2.06000 24.04200
H  23.92300 -0.88800 23.52700
H  23.66400 -2.06200 24.88500
H  28.12600 1.39500 24.71100
H  26.50700 1.61300 24.18900
H  27.22100 0.68600 22.08700
H  27.45500 -0.82800 22.84700
H  28.78800 0.32300 22.79100
H  31.66600 -0.05600 29.66100
H  30.99400 0.57800 28.12500
H  30.86100 -1.16200 28.43500
H  28.74800 1.85200 33.48400
H  27.48800 -0.77700 36.63100
H  29.00200 -0.20400 37.58000
H  28.98300 -1.61500 36.52600

