158

Mg 48.03600 14.98000 28.58100
C  45.60500 14.83300 31.03400
C  50.03900 16.97600 30.42600
C  50.18300 15.30800 25.85700
C  45.92100 12.89500 26.57800
N  47.87200 15.86300 30.44300
C  46.79800 15.61900 31.39400
C  47.17100 16.20600 32.78800
C  48.51300 17.01900 32.49200
C  48.83400 16.67600 31.01900
C  48.27900 18.56100 32.56800
C  47.41000 15.13000 33.89400
C  46.73600 15.37100 35.25200
H  47.56000 15.67700 36.52000
N  49.91200 15.91600 28.14300
C  50.58500 16.66300 29.11400
C  51.84900 17.06000 28.55000
C  51.84500 16.70400 27.18000
C  50.60100 15.93900 27.05500
C  52.87500 17.78700 29.36200
C  52.95400 16.81500 26.15000
O  52.94500 16.33600 25.04300
C  54.22500 17.65900 26.43500
N  47.91100 14.36800 26.43700
C  48.99400 14.50600 25.59600
C  48.70500 13.78300 24.23800
C  47.30900 13.15400 24.48600
C  47.03000 13.43300 25.98100
C  48.61100 14.74100 23.00600
C  47.21100 11.64200 24.09600
C  48.05200 10.64800 24.97400
N  46.22400 13.97800 28.71500
C  45.40500 13.28100 27.79000
C  44.12000 13.00000 28.44300
C  44.21100 13.59200 29.69800
C  45.44300 14.22100 29.79000
C  42.99200 12.12300 27.93000
C  43.48400 13.80800 30.92700
O  42.36100 13.46000 31.18800
C  44.38700 14.66900 31.80400
C  43.75500 15.94900 32.08700
O  43.36900 16.76000 31.32300
O  43.87400 16.21700 33.40400
C  43.40300 17.53000 33.91200
H  50.62900 17.68700 31.00800
H  50.92900 15.46800 25.07600
H  45.27500 12.20700 26.02900
H  46.35400 16.87700 33.05400
H  49.34800 16.69400 33.11300
H  47.23500 18.87400 32.56000
H  48.82000 19.14300 31.82200
H  48.69200 18.76400 33.55600
H  48.48800 14.99800 33.98000
H  47.12300 14.13600 33.55100
H  46.14800 14.49300 35.52000
H  45.98300 16.15800 35.20300
H  52.46700 18.22900 30.27100
H  53.24900 18.65900 28.82600
H  53.73100 17.19300 29.68400
H  54.84800 17.29200 27.25100
H  53.92000 18.69100 26.60900
H  54.80400 17.67900 25.51200
H  49.45400 13.08700 23.85800
H  46.49300 13.63900 23.95000
H  49.42500 14.55300 22.30600
H  48.71100 15.81100 23.18800
H  47.68300 14.59500 22.45200
H  47.48600 11.61900 23.04200
H  46.15800 11.36400 24.08700
H  48.48100 11.16800 25.83100
H  48.81200 10.23700 24.31000
H  47.45100 9.86500 25.43800
H  43.36900 11.47300 27.14000
H  42.18100 12.71700 27.50800
H  42.73200 11.43900 28.73800
H  44.63300 14.05500 32.67000
H  43.15000 17.25000 34.93500
H  42.52400 17.86600 33.36200
H  44.19300 18.27700 33.99500
Mg -2.18900 35.32900 26.85700
C  -3.47800 33.16000 29.30300
C  -0.84400 37.13800 29.26200
C  -0.97800 37.12700 24.42300
C  -3.85200 33.20800 24.36300
N  -2.21300 35.11000 29.09300
C  -2.56000 34.10900 29.84900
C  -2.25700 34.29100 31.31900
C  -1.50500 35.69600 31.29300
C  -1.57900 36.04300 29.78500
C  -2.08500 36.84000 32.23600
C  -1.50000 33.02800 31.83200
C  -1.96700 32.47000 33.17100
H  -0.94800 32.23700 34.28500
N  -1.18900 36.93300 26.80900
C  -0.65000 37.57400 27.94400
C  0.30200 38.61800 27.53200
C  0.37100 38.54000 26.14300
C  -0.62200 37.49700 25.70700
C  1.12900 39.53900 28.52900
C  1.20500 39.32900 25.19200
O  1.26400 39.19700 23.99200
C  2.12800 40.33500 25.73800
N  -2.62400 35.32600 24.74300
C  -1.92600 36.17600 23.94800
C  -2.25300 35.93900 22.46400
C  -3.06500 34.70100 22.45700
C  -3.22900 34.40400 23.94700
C  -2.95700 37.06300 21.69100
C  -2.44100 33.48300 21.62900
C  -1.23900 32.73500 22.29600
N  -3.49700 33.60200 26.75700
C  -4.08400 32.84900 25.71000
C  -4.81300 31.72200 26.23800
C  -4.70000 31.84500 27.67400
C  -3.79100 32.92000 27.93900
C  -5.47400 30.62300 25.48500
C  -5.03200 31.33000 28.90600
O  -5.79200 30.39900 29.17300
C  -4.21500 32.06000 30.04500
C  -5.11700 32.65200 31.04000
O  -5.87300 33.59900 30.85800
O  -5.03900 31.97700 32.22300
C  -6.12800 32.24100 33.14000
H  -0.27600 37.73300 29.98000
H  -0.68300 37.76400 23.58700
H  -4.32200 32.67100 23.53700
H  -3.19600 34.41000 31.86000
H  -0.52700 35.60000 31.76300
H  -2.95900 36.60300 32.84300
H  -2.35800 37.67800 31.59500
H  -1.36000 37.25200 32.93800
H  -0.43300 33.22600 31.93100
H  -1.47600 32.23300 31.08700
H  -2.53200 31.55300 33.00500
H  -2.65300 33.18400 33.62700
H  2.14700 39.79000 28.23000
H  1.08400 39.11600 29.53200
H  0.63500 40.49800 28.67800
H  2.96500 39.76400 26.13900
H  1.59100 40.94800 26.46200
H  2.45500 41.06900 25.00200
H  -1.25700 35.88900 22.02400
H  -4.12300 34.82600 22.22700
H  -3.64900 36.71700 20.92400
H  -2.17500 37.75400 21.37800
H  -3.51800 37.59800 22.45800
H  -2.23600 33.87300 20.63200
H  -3.23100 32.78100 21.36000
H  -0.92100 33.17800 23.23900
H  -0.31900 32.87700 21.72900
H  -1.48800 31.67900 22.40400
H  -4.93000 30.34400 24.58300
H  -6.47900 30.99500 25.28800
H  -5.59500 29.88200 26.27500
H  -3.56900 31.31600 30.51200
H  -7.02700 32.70100 32.73000
H  -5.74700 32.75500 34.02200
H  -6.42500 31.28800 33.58000

