158

Mg 54.03000 24.73500 44.11300
C  51.38300 26.97500 44.01700
C  51.86700 22.29700 42.81900
C  56.61600 22.67300 43.75300
C  56.16600 27.47600 44.75600
N  51.94800 24.71400 43.44400
C  51.03200 25.72300 43.49500
C  49.57500 25.25900 43.11300
C  49.71500 23.68900 43.31200
C  51.24200 23.54700 43.19400
C  49.26300 23.10100 44.72700
C  48.99800 25.64800 41.72300
C  49.91400 26.17900 40.61400
H  50.26700 25.14400 39.49500
N  54.22000 22.76200 43.35100
C  53.22100 21.92800 42.93600
C  53.77700 20.59200 42.72300
C  55.14700 20.55000 43.07100
C  55.38800 21.98200 43.48000
C  52.88100 19.36700 42.27400
C  56.16100 19.43000 42.97100
O  55.82200 18.30200 42.64000
C  57.60600 19.65000 43.18000
N  56.21800 25.11200 43.96200
C  57.02400 24.05100 43.94400
C  58.48000 24.57800 44.16200
C  58.35300 26.06900 44.35200
C  56.80600 26.27900 44.40900
C  59.35300 23.77400 45.19900
C  59.04300 27.11000 43.33800
C  59.99800 28.24700 43.84900
N  53.87700 26.80300 44.40300
C  54.77700 27.72900 44.84600
C  54.14900 28.95300 45.18400
C  52.79800 28.70200 44.91300
C  52.69100 27.39800 44.32200
C  54.87200 30.16900 45.77300
C  51.39300 29.25000 44.91400
O  51.05100 30.43700 45.14100
C  50.46000 28.15600 44.19400
C  50.08800 28.85200 42.96600
O  50.87400 29.40900 42.23400
O  48.68800 28.97300 42.76500
C  48.43000 29.60800 41.44900
H  51.21600 21.44600 42.60800
H  57.48300 22.08600 44.06500
H  56.76700 28.34200 45.04200
H  48.86800 25.67000 43.83300
H  49.27800 23.14700 42.47400
H  50.13400 22.83400 45.32500
H  48.68900 22.21100 44.47000
H  48.58800 23.75200 45.28300
H  48.24600 26.42500 41.85900
H  48.53900 24.81100 41.19700
H  50.77400 26.66600 41.07300
H  49.38700 26.99500 40.12000
H  53.11600 18.56000 42.96700
H  52.90300 19.14100 41.20700
H  51.84100 19.67800 42.37200
H  58.06700 18.77200 42.72700
H  57.84200 19.65800 44.24400
H  57.96500 20.59800 42.77900
H  58.87900 24.43300 43.15800
H  58.78100 26.32400 45.32200
H  58.65200 23.52500 45.99600
H  60.16300 24.39300 45.58400
H  59.67000 22.83900 44.73800
H  58.21300 27.52900 42.77000
H  59.57300 26.51000 42.59800
H  60.93000 28.10100 43.30200
H  60.21700 28.24400 44.91700
H  59.62800 29.22000 43.52700
H  55.27300 29.80500 46.71900
H  54.16200 30.93300 46.08900
H  55.75900 30.44200 45.20100
H  49.63000 28.03600 44.89000
H  48.59700 29.11300 40.49300
H  48.77900 30.62600 41.27500
H  47.36600 29.84100 41.49100
Mg 35.48400 49.26500 26.73900
C  35.61100 47.11700 29.58100
C  34.29200 51.73400 28.75100
C  35.00800 50.94300 24.02200
C  36.25400 46.32700 24.85200
N  35.10200 49.30100 28.86700
C  35.10400 48.38600 29.84500
C  34.94300 48.91600 31.24500
C  34.23200 50.23500 30.86500
C  34.61900 50.49000 29.40500
C  32.71700 50.29800 31.06600
C  36.28200 49.17800 32.08500
C  36.32800 48.59500 33.52900
H  35.05700 48.71700 34.37100
N  34.76700 51.12300 26.39000
C  34.35900 51.99600 27.33800
C  34.19000 53.27300 26.70600
C  34.34900 53.06300 25.29300
C  34.65100 51.65600 25.16700
C  33.91700 54.51500 27.54900
C  34.35600 53.98900 24.14200
O  34.64200 53.71900 22.96700
C  33.79400 55.40200 24.38600
N  35.61600 48.70500 24.76200
C  35.46200 49.62200 23.76000
C  35.79400 49.10300 22.39300
C  36.21800 47.65500 22.67500
C  35.99900 47.54500 24.19600
C  34.73700 49.25600 21.28800
C  37.66600 47.16800 22.22900
C  38.91900 47.73500 22.78100
N  35.86900 47.14300 27.03900
C  36.22300 46.11300 26.21400
C  36.51200 44.92400 26.92000
C  36.28200 45.26600 28.25000
C  35.90000 46.64000 28.29700
C  37.15600 43.62200 26.31400
C  36.47100 44.72300 29.61800
O  36.96200 43.61100 29.97800
C  35.87600 45.89000 30.51700
C  34.58900 45.47700 31.19500
O  33.46600 45.35000 30.62000
O  34.88100 45.11600 32.45100
C  33.86900 44.38100 33.23800
H  33.83000 52.50900 29.36600
H  34.76000 51.51100 23.12300
H  36.51900 45.44200 24.27000
H  34.27100 48.27100 31.81100
H  34.53700 51.06900 31.49600
H  32.52400 51.16300 31.69900
H  32.28000 49.40900 31.52100
H  32.15100 50.53700 30.16600
H  36.51100 50.23300 32.23300
H  36.99700 48.66500 31.44100
H  37.07200 49.08800 34.15500
H  36.73500 47.58400 33.53200
H  33.66500 54.32100 28.59200
H  33.02400 54.93900 27.09200
H  34.64200 55.32800 27.49800
H  32.82000 55.46500 24.87200
H  33.70100 55.87600 23.41000
H  34.54400 55.92300 24.98100
H  36.65500 49.72800 22.15900
H  35.54600 47.01300 22.10600
H  34.55500 48.29000 20.81800
H  35.14100 49.93000 20.53300
H  33.74300 49.50200 21.66300
H  37.69100 47.30900 21.14800
H  37.67200 46.09400 22.41300
H  38.71600 47.84200 23.84600
H  39.24400 48.68400 22.35400
H  39.70800 46.98600 22.70600
H  38.19000 43.56000 26.65300
H  37.08000 43.57700 25.22700
H  36.65600 42.73400 26.70200
H  36.59100 46.08300 31.31700
H  33.90000 43.30800 33.04800
H  32.84300 44.69700 33.05000
H  34.04500 44.50300 34.30700

