158

Mg 47.08400 17.28800 28.30400
C  45.11100 17.27100 31.17800
C  49.45700 19.11600 30.09800
C  48.49600 18.25100 25.49200
C  44.41200 16.04100 26.40100
N  47.12400 18.31300 30.50700
C  46.33900 17.90000 31.47100
C  46.93600 18.36500 32.84100
C  48.15600 19.25200 32.37900
C  48.29900 18.92700 30.89700
C  48.15900 20.73000 32.58000
C  47.22600 17.20000 33.82800
C  46.89100 17.28900 35.38000
H  46.50200 18.74800 35.83600
N  48.75500 18.33600 27.84100
C  49.61500 19.00800 28.69200
C  50.73500 19.57200 28.00100
C  50.41700 19.39200 26.61300
C  49.18000 18.58100 26.58200
C  52.00000 20.11300 28.68900
C  51.20200 19.99100 25.40500
O  50.85700 19.82300 24.23600
C  52.33400 20.86500 25.69200
N  46.50200 17.26500 26.23300
C  47.22300 17.71400 25.27000
C  46.67700 17.45500 23.87400
C  45.49400 16.48800 24.14500
C  45.44400 16.59900 25.64000
C  46.13600 18.73500 23.23600
C  45.51200 15.03900 23.59700
C  44.55300 14.73200 22.40900
N  45.20900 16.60200 28.68600
C  44.20200 16.07500 27.81200
C  43.07100 15.63200 28.59000
C  43.45500 16.07400 29.95000
C  44.68800 16.69700 29.90400
C  41.82000 14.99500 28.03600
C  42.92100 16.18000 31.31800
O  41.81300 15.99900 31.74700
C  44.02700 16.83100 32.20900
C  43.39500 17.93700 32.93200
O  43.02000 18.95900 32.38000
O  42.97200 17.51900 34.10700
C  42.33100 18.44600 35.07300
H  50.28200 19.64900 30.57500
H  49.01300 18.42100 24.54500
H  43.45700 15.74400 25.96200
H  46.12500 18.89100 33.34600
H  49.02000 18.84600 32.90400
H  48.06900 21.24900 31.62600
H  49.16100 20.88300 32.98100
H  47.26700 21.08900 33.09300
H  48.30900 17.07400 33.82200
H  46.84700 16.29000 33.36300
H  47.81300 17.07500 35.92100
H  46.11600 16.56300 35.62500
H  52.83600 19.55300 28.27100
H  52.00400 19.97700 29.77100
H  52.00000 21.19800 28.58600
H  52.05400 21.85300 26.05800
H  52.81800 20.91000 24.71600
H  53.18500 20.48300 26.25500
H  47.54100 17.10400 23.30900
H  44.54400 16.96900 23.91100
H  46.83300 19.50300 23.56900
H  45.10800 18.98800 23.49400
H  46.15500 18.67700 22.14700
H  45.18900 14.40800 24.42500
H  46.53400 14.87600 23.25500
H  43.77700 15.46900 22.20200
H  44.00600 13.89100 22.83500
H  45.15300 14.39000 21.56600
H  41.00200 14.76000 28.71600
H  42.08900 13.97200 27.77100
H  41.39400 15.66400 27.28900
H  44.41300 16.09100 32.90900
H  41.26800 18.34200 34.85600
H  42.41600 19.52400 34.93500
H  42.65800 18.26500 36.09700
Mg -6.23600 25.37500 25.68400
C  -4.80100 26.45000 28.62500
C  -8.30300 23.29800 27.48100
C  -7.27700 24.00700 22.81800
C  -3.68400 27.01700 23.93000
N  -6.37900 24.79000 27.74200
C  -5.78500 25.46000 28.81400
C  -6.44700 25.18900 30.18700
C  -7.19800 23.89400 29.81400
C  -7.37100 23.98100 28.25900
C  -6.63300 22.56700 30.19900
C  -7.40700 26.28800 30.77600
C  -7.62500 26.28000 32.31400
H  -6.84500 25.26800 33.19000
N  -7.61900 24.03600 25.22300
C  -8.47700 23.34800 26.10000
C  -9.55100 22.72400 25.35900
C  -9.15500 22.76600 23.98100
C  -8.00900 23.62200 23.97600
C  -10.75100 21.99800 25.98800
C  -9.87400 22.05300 22.79600
O  -9.44800 22.14300 21.63700
C  -11.02500 21.14300 23.04800
N  -5.58500 25.48800 23.64900
C  -6.12000 24.79000 22.63800
C  -5.40000 25.04100 21.27700
C  -4.35100 26.11800 21.65400
C  -4.54100 26.23900 23.18300
C  -4.90900 23.83500 20.43300
C  -4.59900 27.53300 21.02800
C  -3.67800 27.79000 19.86600
N  -4.51800 26.45500 26.14300
C  -3.61800 27.07100 25.31000
C  -2.70100 27.82800 26.08800
C  -3.17200 27.76400 27.45100
C  -4.23500 26.87600 27.40600
C  -1.54900 28.66900 25.60800
C  -2.93700 28.19700 28.75900
O  -2.15600 29.04800 29.20500
C  -3.96000 27.31900 29.65100
C  -3.23400 26.53900 30.67300
O  -2.65400 25.52600 30.37900
O  -3.14900 27.17500 31.87900
C  -2.14300 26.72500 32.86800
H  -9.15900 23.01600 28.09800
H  -7.69800 23.59500 21.89800
H  -2.88400 27.64100 23.52600
H  -5.56100 25.09800 30.81500
H  -8.18400 23.83000 30.27400
H  -6.28100 21.98400 29.34700
H  -7.34900 21.90400 30.68400
H  -5.83900 22.64200 30.94200
H  -8.40600 26.31000 30.34100
H  -6.98000 27.27400 30.59500
H  -8.66900 26.23400 32.62500
H  -7.29600 27.27000 32.62800
H  -10.80200 20.92600 25.79500
H  -11.65600 22.40600 25.53700
H  -10.90400 22.25800 27.03500
H  -11.49700 20.63300 22.20800
H  -11.83500 21.77300 23.41400
H  -10.76500 20.31900 23.71200
H  -6.05800 25.48500 20.53000
H  -3.36200 25.69000 21.49100
H  -5.44900 23.65100 19.50400
H  -4.95100 22.88100 20.95800
H  -3.85700 23.97300 20.18300
H  -4.36500 28.28500 21.78200
H  -5.64100 27.74800 20.79300
H  -4.34500 27.94100 19.01800
H  -2.94900 27.02900 19.59100
H  -2.97600 28.60800 20.03300
H  -1.88400 29.66400 25.31400
H  -0.99700 28.23900 24.77300
H  -0.88900 28.91200 26.44100
H  -4.69900 27.92500 30.17500
H  -2.52300 25.96500 33.55100
H  -1.92200 27.54500 33.55100
H  -1.26500 26.29500 32.38700

