158

Mg 16.07200 -2.00500 27.73000
C  15.07800 0.35100 30.21500
C  18.00100 -3.48500 30.14800
C  17.13400 -3.94200 25.25200
C  14.34000 0.18600 25.31500
N  16.44300 -1.58900 29.92900
C  15.92500 -0.60900 30.75200
C  16.51800 -0.67200 32.13800
C  17.70900 -1.68500 32.00800
C  17.41600 -2.25200 30.57200
C  19.20100 -1.23000 32.31300
C  15.44200 -1.13100 33.11700
C  15.31400 -0.49500 34.51000
H  16.47200 0.35800 35.05000
N  17.28700 -3.62600 27.68700
C  17.95600 -4.12800 28.76300
C  18.62600 -5.31500 28.29100
C  18.49600 -5.36900 26.88000
C  17.61500 -4.32600 26.49800
C  19.42900 -6.07700 29.28700
C  19.20700 -6.33100 25.98400
O  18.89400 -6.33900 24.78900
C  20.36600 -7.13600 26.52600
N  15.99400 -1.83800 25.68800
C  16.50000 -2.78400 24.82100
C  16.24800 -2.35900 23.34000
C  15.32200 -1.14900 23.43700
C  15.22600 -0.89400 24.94900
C  17.59400 -2.08300 22.50100
C  13.92500 -1.35400 22.76200
C  13.63500 -0.36700 21.61500
N  14.92500 -0.20200 27.71900
C  14.25800 0.55300 26.66300
C  13.63200 1.66100 27.29000
C  13.85400 1.53000 28.66800
C  14.65000 0.40900 28.84400
C  13.06800 2.79200 26.49000
C  13.61500 2.28800 29.84200
O  12.86600 3.25800 30.04900
C  14.33500 1.47600 30.95400
C  15.17900 2.38600 31.72100
O  16.35000 2.49900 31.63100
O  14.40100 3.07800 32.56100
C  14.85500 4.11500 33.56300
H  18.78000 -3.84000 30.82600
H  17.53800 -4.50000 24.40400
H  13.93900 0.87400 24.56700
H  16.93200 0.31400 32.35100
H  17.44500 -2.57200 32.58400
H  19.68900 -1.70000 33.16700
H  18.99000 -0.19300 32.57700
H  19.92500 -1.26000 31.49900
H  15.62300 -2.20000 33.22800
H  14.53000 -0.94700 32.54800
H  15.02300 -1.19100 35.29600
H  14.44800 0.15100 34.36600
H  20.51000 -5.93100 29.28100
H  19.13500 -7.12200 29.19600
H  19.16900 -5.81000 30.31100
H  21.16400 -6.45700 26.82500
H  20.79000 -7.66600 25.67300
H  19.96000 -7.87400 27.21800
H  15.73700 -3.17100 22.82100
H  15.87500 -0.33400 22.97100
H  18.46200 -2.42800 23.06300
H  17.89300 -1.04200 22.37300
H  17.53200 -2.63800 21.56500
H  13.19800 -1.09000 23.52900
H  13.70900 -2.41300 22.61900
H  13.14400 -0.82500 20.75700
H  14.54500 0.00100 21.14100
H  13.04900 0.46300 22.01000
H  12.00000 2.58000 26.43600
H  13.58700 2.96700 25.54700
H  13.24800 3.80100 26.85900
H  13.65400 0.98800 31.65100
H  15.63300 4.74300 33.12800
H  15.08000 3.78600 34.57700
H  14.00100 4.76500 33.75800
Mg 9.95000 47.14300 25.80000
C  7.67900 47.42600 28.43200
C  12.36000 48.54500 27.97300
C  12.26400 46.76800 23.37400
C  7.39600 46.40900 23.70000
N  9.99400 47.88400 27.97600
C  8.94500 47.73900 28.92300
C  9.44200 48.25300 30.29000
C  10.90200 48.86800 29.97600
C  11.11300 48.36400 28.56200
C  11.16500 50.34800 30.13500
C  9.48700 47.19000 31.47300
C  10.15600 47.57900 32.82800
H  9.23800 47.28900 34.02100
N  12.01500 47.69200 25.63100
C  12.83700 48.16100 26.66600
C  14.17400 48.10100 26.22100
C  14.19400 47.47400 24.89200
C  12.78200 47.30400 24.56900
C  15.41100 48.52500 27.10900
C  15.34300 46.97000 24.12800
O  15.23100 46.51000 22.96100
C  16.75500 46.93300 24.75100
N  9.86900 46.76400 23.84900
C  10.93300 46.62800 22.99700
C  10.47700 46.08900 21.64900
C  8.95300 46.15200 21.65800
C  8.69700 46.46500 23.16100
C  11.07100 46.81200 20.46700
C  8.21100 44.93100 21.04000
C  7.20500 45.17900 19.84800
N  7.90500 47.01500 25.95400
C  6.96900 46.69300 25.04000
C  5.69200 46.48700 25.64600
C  5.92100 46.90000 26.98100
C  7.31700 47.10300 27.08400
C  4.33500 46.21700 24.98100
C  5.19900 47.11000 28.23400
O  4.06900 46.94900 28.58200
C  6.32100 47.50200 29.21600
C  6.07400 46.51900 30.33900
O  6.53600 45.39900 30.42000
O  5.28700 47.05500 31.29500
C  5.08200 46.38000 32.53900
H  13.09600 48.83900 28.72500
H  12.97700 46.57000 22.57100
H  6.55000 46.22800 23.03400
H  8.77400 49.06500 30.57400
H  11.61600 48.29600 30.56900
H  10.53000 50.84500 30.86800
H  10.94300 50.83800 29.18700
H  12.21800 50.53100 30.34800
H  9.65700 46.14400 31.21500
H  8.45700 46.94600 31.73300
H  10.37900 48.64400 32.75800
H  11.08500 47.01600 32.91800
H  15.09100 49.03500 28.01800
H  16.02300 49.23100 26.54700
H  16.01500 47.72100 27.52800
H  16.61000 46.78700 25.82100
H  17.38000 47.79500 24.51500
H  17.32400 46.08500 24.37000
H  10.84600 45.06800 21.55100
H  8.66400 47.05100 21.11200
H  12.13400 46.59800 20.35800
H  11.03700 47.89100 20.61700
H  10.51300 46.51600 19.58000
H  7.70600 44.44100 21.87200
H  8.94200 44.23600 20.62500
H  7.46800 44.47100 19.06200
H  7.22400 46.20600 19.48400
H  6.14600 45.02500 20.05500
H  4.46500 45.85800 23.96000
H  3.80300 47.16300 24.87500
H  3.90200 45.46900 25.64500
H  6.23100 48.54200 29.52700
H  4.73500 47.05700 33.32100
H  5.99600 45.91000 32.90100
H  4.32800 45.59300 32.53300

