158

Mg -2.52400 17.12600 27.79000
C  -2.93400 15.02800 30.55800
C  -3.14300 19.95500 30.01100
C  -2.35400 19.15800 25.23800
C  -2.63600 14.38400 25.60900
N  -2.97200 17.41200 30.02300
C  -3.00500 16.38700 30.90000
C  -3.27700 16.93300 32.30800
C  -3.30700 18.52900 32.13800
C  -3.17300 18.66900 30.69300
C  -4.38300 19.31000 32.88800
C  -2.24500 16.53400 33.44200
C  -2.21300 17.25900 34.79800
H  -1.92600 16.40700 36.04600
N  -2.64400 19.26000 27.59700
C  -2.88100 20.20600 28.59900
C  -2.83200 21.56900 28.05100
C  -2.57000 21.43200 26.65400
C  -2.53500 19.92200 26.40200
C  -2.86700 22.84200 28.88500
C  -2.29300 22.46100 25.62300
O  -2.23000 22.16900 24.44100
C  -1.94400 23.84700 26.04400
N  -2.57400 16.85400 25.71400
C  -2.36200 17.88500 24.86900
C  -2.23800 17.35900 23.41100
C  -2.37800 15.79500 23.57300
C  -2.56400 15.66400 25.04400
C  -3.33800 17.97700 22.40300
C  -1.19400 15.06000 22.90600
C  0.22400 14.95000 23.55600
N  -2.59700 15.19500 27.94300
C  -2.69700 14.17800 26.99000
C  -2.85300 12.83700 27.63300
C  -2.88600 13.18200 29.00900
C  -2.78600 14.67200 29.16600
C  -3.09900 11.53200 27.05700
C  -3.09400 12.58200 30.35800
O  -3.27800 11.43700 30.70500
C  -3.13200 13.75600 31.43100
C  -2.00200 13.44300 32.34100
O  -0.85700 13.75900 32.15500
O  -2.46300 12.70100 33.38600
C  -1.45300 12.26800 34.35000
H  -3.14900 20.73200 30.77800
H  -2.21300 19.79700 24.36300
H  -2.61600 13.54000 24.91700
H  -4.24500 16.60500 32.68600
H  -2.36600 18.97500 32.46200
H  -5.19400 19.73500 32.29700
H  -3.87400 20.07900 33.46800
H  -4.85200 18.65200 33.62000
H  -1.22900 16.54400 33.04800
H  -2.51900 15.52500 33.75100
H  -3.16900 17.75400 34.97100
H  -1.50800 18.06400 34.58700
H  -1.89600 23.29900 29.07700
H  -3.33100 22.73700 29.86600
H  -3.45800 23.53800 28.28900
H  -1.51100 24.40700 25.21500
H  -1.10500 23.85400 26.74100
H  -2.78900 24.36100 26.50100
H  -1.34500 17.69300 22.88200
H  -3.35500 15.45900 23.22600
H  -3.89200 18.68300 23.02100
H  -3.92100 17.11500 22.07800
H  -2.87200 18.36800 21.49900
H  -1.03100 15.59400 21.96900
H  -1.52700 14.03600 22.73800
H  0.68200 15.92100 23.74300
H  0.88500 14.26100 23.02900
H  -0.02100 14.40600 24.46900
H  -3.70000 11.73500 26.17000
H  -3.55700 11.02400 27.90500
H  -2.12000 11.08000 26.89500
H  -4.09500 13.77800 31.94100
H  -0.63200 11.69000 33.92600
H  -1.89300 11.55000 35.04200
H  -1.04500 13.09800 34.92700
Mg -6.15300 24.73600 27.09600
C  -5.13900 26.35500 30.17700
C  -8.14700 22.75300 29.20100
C  -7.13700 23.08800 24.38400
C  -4.02400 26.82800 25.36800
N  -6.57300 24.53900 29.43400
C  -5.99400 25.27700 30.43500
C  -6.44000 24.83000 31.88000
C  -7.14100 23.49600 31.46300
C  -7.37700 23.61500 29.95500
C  -6.44900 22.12200 31.66700
C  -7.33800 26.00900 32.54700
C  -7.16400 26.12100 34.07600
H  -6.60400 24.92300 34.82200
N  -7.49400 23.22300 26.76700
C  -8.19100 22.60200 27.78000
C  -9.10400 21.60600 27.19800
C  -8.78700 21.57200 25.83100
C  -7.75500 22.67500 25.59900
C  -10.00500 20.70800 27.94700
C  -9.39000 20.73700 24.72800
O  -8.96300 20.78300 23.58000
C  -10.37800 19.64600 25.03600
N  -5.57200 24.91000 25.17900
C  -6.16700 24.11900 24.21400
C  -5.64000 24.51100 22.83300
C  -4.75000 25.80500 23.15000
C  -4.71600 25.83900 24.66400
C  -4.94100 23.38400 22.00200
C  -5.37500 27.06700 22.45800
C  -4.53700 28.18600 21.74900
N  -4.91300 26.22600 27.61900
C  -4.07800 26.93600 26.77600
C  -3.23800 27.80900 27.60400
C  -3.61200 27.62800 28.89900
C  -4.68700 26.67500 28.83800
C  -2.10900 28.72000 27.18700
C  -3.28300 27.99600 30.27500
O  -2.40100 28.72200 30.70600
C  -4.31500 27.23000 31.15100
C  -3.45400 26.44600 32.07000
O  -2.50700 25.81500 31.78600
O  -3.88500 26.64700 33.33100
C  -3.01700 26.30700 34.44500
H  -8.82500 22.15200 29.81000
H  -7.29300 22.51200 23.46900
H  -3.48000 27.55900 24.76600
H  -5.51200 24.64800 32.42400
H  -8.07500 23.56200 32.02100
H  -5.51100 22.30200 32.19200
H  -6.28900 21.50600 30.78300
H  -7.10800 21.59900 32.36100
H  -8.38500 25.92400 32.25500
H  -6.90400 26.95500 32.22600
H  -8.07300 26.33500 34.63700
H  -6.41000 26.89700 34.20600
H  -10.93900 20.83000 27.39900
H  -10.25400 21.13700 28.91800
H  -9.63200 19.68400 27.95500
H  -9.90300 18.90500 25.68000
H  -10.62400 19.12800 24.10900
H  -11.27200 20.21200 25.29500
H  -6.57300 24.80600 22.35400
H  -3.72800 25.73000 22.78000
H  -3.87700 23.54800 22.17700
H  -5.14500 23.39400 20.93200
H  -5.27400 22.40800 22.35500
H  -5.98900 27.63500 23.15600
H  -6.00800 26.75800 21.62500
H  -5.28600 28.77300 21.21800
H  -3.92000 27.67400 21.01000
H  -3.95800 28.73800 22.48900
H  -1.57300 28.27000 26.35200
H  -1.40400 28.75000 28.01900
H  -2.42200 29.69500 26.81600
H  -4.91100 27.98600 31.66400
H  -2.52100 25.33800 34.40700
H  -3.61800 26.38400 35.35200
H  -2.19900 27.02300 34.53400

