158

Mg 54.97100 24.13300 45.35300
C  52.20800 26.45000 44.87400
C  52.92900 21.77900 44.08400
C  57.61600 22.43900 45.05000
C  56.76700 26.99500 46.52500
N  52.87900 24.14800 44.64600
C  51.99600 25.18600 44.40400
C  50.66000 24.63500 43.77700
C  50.76700 23.10100 43.99200
C  52.31300 22.97400 44.27400
C  49.97600 22.55800 45.14000
C  50.46300 25.09600 42.27200
C  49.01200 25.34500 41.87400
H  48.49900 24.84100 40.52600
N  55.26000 22.33800 44.58000
C  54.33300 21.48300 44.13700
C  54.98100 20.32500 43.66000
C  56.39300 20.57800 43.70400
C  56.48300 21.81700 44.49100
C  54.32200 19.03300 43.13700
C  57.53600 19.63500 43.17400
O  57.12700 18.62100 42.60500
C  58.97200 19.90900 43.35400
N  56.97000 24.71700 45.77000
C  57.86300 23.68300 45.60200
C  59.29700 24.18200 46.14300
C  58.93700 25.64800 46.63900
C  57.46900 25.80500 46.27300
C  60.14300 23.29200 47.15700
C  59.71200 26.78700 45.87400
C  60.55400 27.70100 46.74400
N  54.51700 26.21400 45.90100
C  55.40700 27.22100 46.33000
C  54.69300 28.47500 46.46400
C  53.44300 28.16600 45.92700
C  53.40100 26.83900 45.55400
C  55.22500 29.80200 46.86300
C  52.20600 28.79900 45.51000
O  51.80400 29.97800 45.60400
C  51.40900 27.68900 44.74500
C  51.39900 28.12400 43.34600
O  52.44600 28.34300 42.66800
O  50.12100 28.41400 42.93500
C  50.04800 28.92300 41.53800
H  52.32500 20.98500 43.63900
H  58.45500 21.75800 44.89700
H  57.31300 27.81700 46.99200
H  49.88300 25.10500 44.37900
H  50.56700 22.60000 43.04500
H  50.60900 22.15400 45.93100
H  49.40100 21.75200 44.68400
H  49.33200 23.29800 45.61400
H  50.92900 24.39300 41.58100
H  50.99400 26.04400 42.18000
H  48.92900 26.42800 41.78800
H  48.36700 24.83100 42.58800
H  54.79600 18.11600 43.48600
H  54.49900 18.92000 42.06800
H  53.24000 19.03700 43.26300
H  59.30500 20.92800 43.15500
H  59.57600 19.28500 42.69600
H  59.28800 19.69700 44.37600
H  59.91500 24.40100 45.27300
H  59.18000 25.68800 47.70000
H  59.96200 22.21700 47.13100
H  60.09400 23.80200 48.11900
H  61.16300 23.54000 46.86500
H  59.09200 27.47300 45.29600
H  60.41200 26.35900 45.15700
H  60.49900 28.73500 46.40400
H  61.62000 27.47600 46.77700
H  60.19000 27.76500 47.76900
H  54.76200 30.21200 47.76000
H  54.87600 30.57400 46.17700
H  56.30900 29.73000 46.76800
H  50.39000 27.57400 45.11600
H  48.99400 29.02200 41.27600
H  50.59200 28.29100 40.83500
H  50.37800 29.96100 41.56500
Mg 6.59600 53.99400 40.29400
C  6.16600 50.49400 40.01900
C  9.74800 53.56900 39.09800
C  6.64800 57.24800 39.86400
C  3.09300 54.13600 40.85700
N  7.70800 52.23300 39.45200
C  7.33600 50.92800 39.44200
C  8.56300 50.06600 39.27000
C  9.77000 51.04800 39.23200
C  9.06200 52.36300 39.29700
C  10.76600 50.80600 40.36000
C  8.55500 49.32300 37.92600
C  8.45200 50.13900 36.66900
H  7.48300 49.74100 35.51000
N  8.06200 55.27700 39.71200
C  9.32800 54.88400 39.25500
C  10.09800 56.06400 39.05300
C  9.20900 57.15600 39.27500
C  7.92300 56.59200 39.60900
C  11.54800 56.11300 38.58200
C  9.64300 58.60400 39.32200
O  10.75500 58.89900 38.92400
C  8.74300 59.71900 39.80200
N  5.03500 55.42800 40.29500
C  5.40200 56.76400 40.20800
C  4.18600 57.67500 40.38200
C  3.00400 56.61000 40.51800
C  3.73800 55.28000 40.53100
C  4.42600 58.60900 41.70600
C  1.85000 56.62200 39.39900
C  0.57900 57.41700 39.64600
N  4.89400 52.65100 40.43100
C  3.58800 52.83200 40.96100
C  3.05200 51.53100 41.31800
C  3.99700 50.60400 40.91500
C  5.07700 51.32100 40.42300
C  1.75100 51.29200 42.01400
C  4.29100 49.23300 40.82700
O  3.49900 48.30700 41.10900
C  5.66000 49.02700 40.26100
C  5.44900 48.11400 39.08900
O  4.77000 48.33700 38.06500
O  6.25700 47.05700 39.13500
C  6.06700 46.05500 38.05800
H  10.78000 53.43500 38.76900
H  6.50700 58.33000 39.83000
H  2.03800 54.29700 41.08700
H  8.72200 49.38900 40.10900
H  10.39800 51.10600 38.34300
H  10.74600 49.76900 40.69300
H  10.54500 51.58000 41.09600
H  11.79400 50.97600 40.04000
H  7.65700 48.71200 37.83600
H  9.40200 48.64800 37.80300
H  9.47700 50.31500 36.34500
H  8.08800 51.11600 36.98700
H  11.91300 55.22100 38.07300
H  12.23700 56.46100 39.35100
H  11.64000 56.85600 37.78900
H  7.81600 59.83500 39.24200
H  9.28500 60.62400 39.52800
H  8.54100 59.56500 40.86200
H  4.07700 58.27100 39.47500
H  2.55500 56.68900 41.50800
H  4.37300 59.63700 41.34700
H  5.33500 58.40300 42.27100
H  3.61300 58.42200 42.40800
H  1.52500 55.60500 39.17800
H  2.26100 56.92700 38.43700
H  0.32800 58.18600 38.91600
H  0.57900 58.04700 40.53600
H  -0.17900 56.64600 39.51400
H  1.09700 50.76400 41.32000
H  1.33000 52.20400 42.43600
H  1.96100 50.72700 42.92200
H  6.19500 48.45500 41.02000
H  6.73000 46.20700 37.20600
H  5.08600 46.07400 37.58400
H  6.29400 45.05600 38.43200

