158

Mg 27.37800 49.89900 26.33800
C  25.56700 51.23700 29.04000
C  29.50600 48.53200 28.62100
C  29.37300 49.25700 23.71000
C  25.18200 51.55300 24.16000
N  27.52400 49.94800 28.62200
C  26.66500 50.58500 29.49300
C  26.98600 50.25800 31.03600
C  28.42500 49.65500 30.81300
C  28.50900 49.27000 29.22900
C  29.66500 50.62700 31.26400
C  25.96300 49.24700 31.69000
C  25.23600 49.72700 32.94600
H  26.09000 50.25300 34.12200
N  29.15600 48.91400 26.17200
C  29.92600 48.39000 27.25300
C  31.02400 47.65400 26.71700
C  31.00100 47.82900 25.32600
C  29.84800 48.72400 25.00100
C  31.85300 46.72700 27.58600
C  31.90300 47.30200 24.17800
O  31.75300 47.62200 23.01600
C  32.96300 46.33400 24.59300
N  27.31600 50.33800 24.23000
C  28.26900 50.02900 23.34500
C  27.87600 50.39600 21.86900
C  26.44500 51.01100 22.08100
C  26.31300 50.99600 23.61400
C  28.86500 51.30100 21.02700
C  25.24100 50.28200 21.44300
C  24.24300 51.24700 20.81100
N  25.78400 51.11400 26.53700
C  24.91800 51.68300 25.53500
C  23.81000 52.42800 26.19700
C  24.10800 52.17900 27.51400
C  25.21900 51.37500 27.69800
C  22.76600 53.01700 25.51800
C  23.55900 52.49900 28.81900
O  22.59900 53.14600 29.05800
C  24.52100 51.85100 29.90300
C  25.01200 52.94300 30.80500
O  25.78800 53.80900 30.48100
O  24.34900 53.03000 32.01500
C  24.78200 54.12700 32.86600
H  30.30900 48.18700 29.27600
H  30.01100 49.12000 22.83400
H  24.39700 51.95200 23.51500
H  26.97700 51.19900 31.58600
H  28.46800 48.66000 31.25800
H  30.31500 50.72900 30.39500
H  30.11300 50.21200 32.16700
H  29.35300 51.60500 31.63200
H  26.45600 48.31400 31.96300
H  25.16000 49.13400 30.96200
H  24.61200 48.92400 33.33900
H  24.57000 50.50600 32.57600
H  31.65500 46.79200 28.65600
H  32.91400 46.92700 27.43300
H  31.52100 45.73100 27.29500
H  33.80200 46.80900 25.10100
H  33.38300 45.85500 23.70800
H  32.57300 45.42200 25.04500
H  27.84400 49.50600 21.24200
H  26.52800 52.05800 21.78800
H  29.80000 51.45100 21.56700
H  28.54000 52.26200 20.62700
H  28.98000 50.75800 20.08900
H  24.81100 49.56800 22.14500
H  25.71600 49.61800 20.72000
H  23.53500 51.58600 21.56700
H  23.74800 50.74500 19.98000
H  24.64600 52.17100 20.39700
H  22.34500 52.38000 24.74000
H  23.12900 53.92300 25.03200
H  21.92300 53.40400 26.09000
H  23.91600 51.12000 30.43900
H  24.74400 55.05200 32.29000
H  25.73800 53.90300 33.33900
H  24.03000 54.19900 33.65200
Mg -1.13300 34.22300 27.60200
C  -3.10100 32.44600 29.90600
C  0.26400 35.98200 30.20000
C  0.11600 36.20900 25.37900
C  -2.75200 32.37000 24.97500
N  -1.53900 34.34200 29.69000
C  -2.39400 33.50900 30.40500
C  -2.23300 33.75100 31.95500
C  -1.45100 35.16500 31.99600
C  -0.85500 35.19400 30.59200
C  -2.35800 36.47400 32.20000
C  -1.47600 32.54500 32.75400
C  -2.17600 32.12500 34.11200
H  -1.45200 31.73700 35.52800
N  0.09100 35.77800 27.74600
C  0.75500 36.32300 28.93000
C  1.69900 37.30700 28.56500
C  1.67200 37.41500 27.15200
C  0.56500 36.47900 26.69400
C  2.60400 38.10300 29.53600
C  2.58300 38.14500 26.15400
O  2.36400 38.16800 24.95400
C  3.75500 38.93100 26.59500
N  -1.57500 34.49000 25.43200
C  -0.78400 35.37300 24.77500
C  -0.79300 35.19100 23.24300
C  -1.58900 33.75300 23.17800
C  -1.99000 33.49200 24.61300
C  -1.51700 36.33700 22.43600
C  -0.62000 32.67100 22.54500
C  -1.16500 31.79800 21.47900
N  -2.66400 32.75600 27.45100
C  -3.13200 32.08400 26.27600
C  -3.99400 31.01800 26.72800
C  -4.01700 31.08700 28.12600
C  -3.19000 32.15400 28.53300
C  -4.66400 30.06800 25.81500
C  -4.46600 30.41300 29.35500
O  -5.12300 29.40600 29.53000
C  -4.06700 31.37400 30.53000
C  -5.25300 32.00400 31.17800
O  -5.73000 33.08600 30.95200
O  -5.75000 31.09900 32.15400
C  -6.62000 31.61500 33.17000
H  0.72100 36.48000 31.05800
H  0.39400 36.93300 24.61100
H  -3.18700 31.87100 24.10700
H  -3.25800 33.90000 32.29400
H  -0.65400 35.04700 32.73000
H  -3.29900 36.15400 32.64900
H  -2.69600 36.99200 31.30200
H  -1.85000 37.19900 32.83500
H  -0.40900 32.70900 32.90500
H  -1.47200 31.74200 32.01800
H  -2.75100 31.22400 33.90000
H  -2.90400 32.91800 34.28400
H  2.09400 38.23900 30.49000
H  2.67300 39.10600 29.11600
H  3.56500 37.60000 29.64600
H  4.49500 38.27300 27.05000
H  3.46700 39.75300 27.25100
H  4.26100 39.42600 25.76600
H  0.26800 35.14100 22.99800
H  -2.55100 33.95900 22.70900
H  -1.45900 37.21500 23.08100
H  -2.52600 36.01500 22.18200
H  -0.87600 36.55900 21.58300
H  -0.26800 31.96500 23.29700
H  0.21800 33.22500 22.12000
H  -1.23500 30.80400 21.92100
H  -0.50400 31.78500 20.61200
H  -2.18400 32.10300 21.24100
H  -3.97600 29.86000 24.99500
H  -5.56200 30.55600 25.43600
H  -4.90700 29.13000 26.31400
H  -3.53000 30.83100 31.30700
H  -6.02900 31.86600 34.05100
H  -7.22500 30.75900 33.46800
H  -7.26600 32.42700 32.83600

