158

Mg 28.71900 60.01600 41.87400
C  25.89000 58.12000 41.02900
C  30.64500 57.74400 40.03200
C  31.50300 62.13700 42.14600
C  26.61000 62.47100 43.03900
N  28.28500 58.30700 40.55500
C  27.08300 57.69300 40.46900
C  27.10600 56.55400 39.49800
C  28.72100 56.28200 39.27900
C  29.24000 57.47400 40.05000
C  29.31300 54.90800 39.63900
C  26.28100 56.90300 38.19200
C  25.45500 55.76400 37.69600
H  25.96500 55.29000 36.38400
N  30.81100 59.91300 41.28300
C  31.34400 58.82800 40.61100
C  32.78500 58.99800 40.57800
C  33.11100 60.22100 41.23400
C  31.79500 60.87100 41.55400
C  33.76200 58.09500 39.92700
C  34.55700 60.83800 41.47600
O  35.58700 60.14200 41.13900
C  34.71100 62.19400 42.05400
N  29.01900 62.00000 42.30000
C  30.24500 62.67500 42.39000
C  30.05500 64.06100 43.02900
C  28.58900 64.05600 43.51400
C  27.97700 62.78600 42.83400
C  30.98300 64.57200 44.24200
C  27.64600 65.33800 43.26900
C  27.39700 66.15200 44.55900
N  26.68400 60.29300 42.16000
C  25.95400 61.28000 42.62800
C  24.55500 60.96000 42.67100
C  24.54100 59.73100 42.10400
C  25.81500 59.36300 41.73100
C  23.43000 61.80100 43.23800
C  23.58100 58.68100 41.78200
O  22.33600 58.57300 42.02700
C  24.46700 57.66100 41.07600
C  24.27700 56.38300 41.81600
O  24.62600 56.25800 42.97600
O  23.56700 55.45900 41.13500
C  23.48400 54.01800 41.64800
H  31.19300 56.95300 39.51600
H  32.31700 62.85000 42.29100
H  25.95100 63.17200 43.55600
H  26.59100 55.71000 39.95800
H  29.06600 56.35800 38.24800
H  29.87000 55.27300 40.50200
H  30.07700 54.44500 39.01500
H  28.52600 54.22200 39.95300
H  27.04300 57.22800 37.48400
H  25.59100 57.73200 38.35100
H  24.39800 55.98800 37.55300
H  25.46900 54.84800 38.28600
H  34.35900 58.70600 39.25000
H  33.40600 57.21200 39.39600
H  34.44900 57.65500 40.65000
H  34.33400 62.89500 41.31000
H  35.78000 62.27900 42.24600
H  34.17700 62.35400 42.99000
H  30.10800 64.78300 42.21500
H  28.55200 63.76400 44.56400
H  31.63300 65.39000 43.93200
H  31.68300 63.74100 44.32200
H  30.52700 64.86700 45.18700
H  26.67900 65.22400 42.78100
H  28.28400 65.97500 42.65600
H  26.33800 66.39700 44.64500
H  27.89700 67.11600 44.46700
H  27.63500 65.57900 45.45500
H  23.20700 62.48900 42.42300
H  23.78400 62.34700 44.11300
H  22.54300 61.19700 43.42800
H  24.01300 57.60100 40.08600
H  24.40400 53.70000 42.13800
H  23.31400 53.25600 40.88800
H  22.73900 53.97300 42.44300
Mg 25.70500 51.11000 26.27700
C  23.57500 52.00000 28.97300
C  27.82600 49.84700 28.54800
C  27.71800 50.31500 23.70000
C  23.41400 52.38000 24.07500
N  25.56100 50.74200 28.53800
C  24.69200 51.30100 29.43600
C  25.14700 51.02600 30.88200
C  26.56100 50.37700 30.70900
C  26.64800 50.29100 29.13800
C  27.81200 51.07400 31.51600
C  24.06500 50.17200 31.70200
C  23.36600 50.81300 32.92800
H  24.16800 51.59100 33.98400
N  27.48600 50.29500 26.15000
C  28.23800 49.86600 27.17200
C  29.50600 49.38000 26.62500
C  29.49000 49.66000 25.28200
C  28.18600 50.12900 24.97500
C  30.64800 48.84500 27.51900
C  30.65100 49.48700 24.35000
O  30.58100 49.89100 23.18900
C  31.94600 48.83700 24.77100
N  25.61300 51.36500 24.20100
C  26.53500 50.91000 23.30800
C  26.04200 51.09900 21.87200
C  24.54500 51.34800 22.10200
C  24.53300 51.73500 23.58500
C  26.79400 52.33100 21.06400
C  23.63300 50.10600 21.80500
C  22.42100 50.34600 20.92900
N  23.91600 52.10800 26.46200
C  23.07700 52.51900 25.42200
C  21.88200 53.12800 26.11400
C  22.06300 52.89900 27.48000
C  23.27300 52.25700 27.62100
C  20.71200 53.77200 25.41100
C  21.50600 53.18000 28.72500
O  20.53100 53.83400 28.99900
C  22.45300 52.54900 29.82800
C  22.86400 53.66500 30.63900
O  23.64900 54.52500 30.31600
O  22.06100 53.60100 31.71900
C  21.91500 54.76500 32.65700
H  28.54300 49.42700 29.25600
H  28.34300 49.95300 22.88000
H  22.79200 52.67000 23.22600
H  25.20200 52.02700 31.31100
H  26.54400 49.33300 31.02300
H  28.38300 51.75000 30.87900
H  28.47500 50.27200 31.84100
H  27.50600 51.56400 32.44000
H  24.49400 49.20100 31.95000
H  23.32300 50.00600 30.92100
H  22.77000 50.02600 33.39100
H  22.59500 51.52000 32.62300
H  31.54800 49.45000 27.40000
H  30.79300 47.78500 27.30900
H  30.38800 49.00600 28.56500
H  32.57300 49.46600 25.40300
H  32.44200 48.65100 23.81900
H  31.60900 47.96600 25.33300
H  26.21800 50.16900 21.33100
H  24.31300 52.23200 21.50800
H  27.77600 52.67700 21.38700
H  26.23700 53.26500 20.99200
H  26.97600 51.92800 20.06800
H  23.22700 49.68400 22.72400
H  24.13700 49.27500 21.31200
H  22.53100 49.77800 20.00500
H  22.28300 51.42500 20.85500
H  21.61700 49.74800 21.35800
H  21.01300 54.34200 24.53200
H  20.11100 54.38000 26.08700
H  20.00900 53.02800 25.03900
H  21.95400 51.75600 30.38500
H  22.63800 54.69700 33.47000
H  20.88900 54.83000 33.01600
H  22.17000 55.71900 32.19500

