158

Mg 24.42400 -5.67200 45.61800
C  26.35600 -3.18500 44.17300
C  21.91200 -4.74800 43.47600
C  22.82000 -8.63000 46.25400
C  27.28100 -6.87400 47.30300
N  24.19000 -4.12900 43.94300
C  25.05100 -3.12200 43.72100
C  24.46600 -2.00100 42.78200
C  22.97500 -2.49200 42.63800
C  22.99400 -3.92000 43.42400
C  21.83700 -1.54900 43.21300
C  25.33800 -1.72100 41.47100
C  25.44900 -0.30800 40.81000
H  24.79800 -0.16300 39.42500
N  22.54500 -6.53000 45.01300
C  21.68300 -5.94800 44.18900
C  20.48000 -6.74200 44.11700
C  20.63300 -7.82600 45.08200
C  22.05200 -7.70400 45.53700
C  19.34700 -6.31200 43.33400
C  19.53200 -8.75200 45.52000
O  18.34400 -8.52000 45.20800
C  19.89900 -9.79000 46.54700
N  24.90600 -7.47100 46.63500
C  24.07000 -8.56400 46.78600
C  24.81400 -9.77500 47.43100
C  26.09600 -9.08500 47.95800
C  26.11900 -7.68200 47.29100
C  23.92200 -10.46400 48.46100
C  27.32800 -9.97700 47.66300
C  28.19300 -10.08300 48.93000
N  26.39200 -5.12600 45.84600
C  27.40500 -5.61400 46.65000
C  28.64700 -4.90800 46.41700
C  28.24600 -3.90300 45.49900
C  26.87100 -4.08200 45.16000
C  29.98600 -5.18000 47.10100
C  28.72200 -2.72700 44.75600
O  29.86200 -2.29800 44.66500
C  27.57700 -2.22800 43.87500
C  27.33700 -0.84500 44.40700
O  26.54000 -0.54800 45.28100
O  27.92600 0.08000 43.61900
C  27.39800 1.48500 43.64600
H  21.09600 -4.43100 42.82400
H  22.41000 -9.58500 46.59100
H  28.21600 -7.21800 47.75000
H  24.41100 -1.14300 43.45300
H  22.74600 -2.83900 41.63000
H  22.38600 -0.62700 43.40500
H  21.36400 -1.91100 44.12600
H  21.00500 -1.37500 42.53000
H  24.75800 -2.23800 40.70600
H  26.30100 -2.20600 41.62700
H  26.46400 0.06200 40.66500
H  24.81100 0.29300 41.45800
H  18.64600 -7.09400 43.04200
H  19.66000 -5.80800 42.41900
H  18.88800 -5.51100 43.91400
H  19.06400 -10.26600 47.06000
H  20.49900 -9.52800 47.41900
H  20.51500 -10.56000 46.08300
H  25.11000 -10.50200 46.67400
H  26.04400 -8.95400 49.03900
H  22.94700 -9.98200 48.52300
H  24.20700 -10.56700 49.50800
H  23.62500 -11.47000 48.16300
H  27.94000 -9.45700 46.92600
H  27.03800 -10.97000 47.32100
H  28.47500 -9.06500 49.19700
H  29.15800 -10.51300 48.66200
H  27.68100 -10.64000 49.71400
H  30.63900 -4.30800 47.09000
H  30.54000 -6.08800 46.86400
H  29.75000 -5.45100 48.13000
H  27.95600 -2.24400 42.85300
H  28.24500 2.10300 43.94500
H  26.68900 1.70600 44.44400
H  27.07200 1.78000 42.64900
Mg 47.45500 16.84900 28.75900
C  45.32800 16.69400 31.63600
C  49.70700 18.54500 30.43300
C  48.78900 17.66300 25.84500
C  44.65200 15.60700 26.89100
N  47.64300 17.38800 30.86900
C  46.66900 17.34600 31.83000
C  47.13800 17.83400 33.19700
C  48.47500 18.49600 32.77000
C  48.72100 18.07400 31.31500
C  48.39900 20.07900 32.89200
C  47.25200 16.58000 34.12600
C  46.70200 16.70500 35.56500
H  46.38400 18.12400 36.02900
N  49.13700 17.80600 28.26000
C  50.00700 18.37300 29.06600
C  51.20100 18.86800 28.42300
C  50.84000 18.66300 27.02700
C  49.57500 17.98300 27.00300
C  52.43700 19.55400 29.00500
C  51.68500 19.07100 25.81700
O  51.43700 18.58900 24.68100
C  52.91900 19.83200 25.93400
N  46.79800 16.66500 26.57200
C  47.63500 17.01600 25.61800
C  47.03900 16.76900 24.24900
C  45.85700 15.79400 24.61900
C  45.71800 16.02700 26.12900
C  46.39300 17.95600 23.54000
C  46.21200 14.32200 24.26900
C  45.34400 13.75000 23.16900
N  45.43700 16.17500 29.13400
C  44.50800 15.64800 28.28900
C  43.27000 15.33300 29.01400
C  43.59100 15.76700 30.36600
C  44.94500 16.18900 30.37700
C  41.94900 14.82300 28.39000
C  43.14700 15.87300 31.70800
O  42.02700 15.54000 32.18700
C  44.20900 16.47300 32.64100
C  43.62100 17.71200 33.23400
O  43.79800 18.82600 32.72800
O  42.83700 17.42600 34.33700
C  41.94500 18.48400 34.72400
H  50.41100 19.10200 31.05500
H  49.33400 17.88900 24.92600
H  43.97100 15.06000 26.23600
H  46.56500 18.71300 33.49200
H  49.27200 18.20500 33.45300
H  49.08600 20.37800 33.68300
H  47.41700 20.41000 33.22800
H  48.66500 20.50000 31.92200
H  48.29000 16.25100 34.17700
H  46.69500 15.71300 33.77200
H  47.48400 16.30600 36.21100
H  45.69700 16.28900 35.63900
H  53.33000 19.01600 28.68800
H  52.42700 19.47600 30.09200
H  52.48600 20.60200 28.70900
H  53.56300 19.20400 26.54900
H  52.76900 20.80900 26.39400
H  53.36700 20.11200 24.98100
H  47.80900 16.27100 23.66000
H  44.85800 15.96700 24.22100
H  45.46300 17.73100 23.01800
H  47.12000 18.27800 22.79600
H  46.21900 18.72200 24.29600
H  45.96000 13.72300 25.14400
H  47.27900 14.21900 24.06700
H  44.65800 14.45100 22.69300
H  44.78600 12.88800 23.53400
H  46.00100 13.42000 22.36500
H  41.57300 13.96200 28.94200
H  42.19800 14.54500 27.36600
H  41.14400 15.55000 28.50100
H  44.40400 15.70200 33.38500
H  41.60400 19.13200 33.91700
H  42.39900 18.97600 35.58500
H  41.04700 18.07700 35.18900

