158

Mg 0.18900 7.35300 26.02500
C  1.32600 9.21400 28.90200
C  0.49600 4.48300 28.03800
C  -0.44400 5.51500 23.46600
C  0.64000 10.25000 24.10100
N  0.74900 6.92500 28.17600
C  1.02000 7.85300 29.11600
C  1.16400 7.21300 30.49900
C  1.35700 5.70900 30.12700
C  0.69500 5.68800 28.69800
C  2.83800 5.30300 30.32500
C  -0.05100 7.61200 31.43700
C  0.16700 7.77900 32.94100
H  1.41000 7.07800 33.48300
N  0.00300 5.28000 25.80800
C  0.27000 4.22700 26.67300
C  0.14500 2.94600 25.99800
C  -0.18000 3.27800 24.62900
C  -0.25000 4.73600 24.61800
C  0.15100 1.59700 26.85700
C  -0.50300 2.34700 23.44500
O  -1.01200 2.69800 22.35700
C  -0.41800 0.89400 23.66300
N  0.01900 7.87300 24.03000
C  -0.33800 6.90300 23.15400
C  -0.53900 7.50000 21.75800
C  -0.20300 9.02000 21.90800
C  0.23300 9.07300 23.42200
C  0.14300 6.93800 20.51400
C  -1.26500 10.02400 21.45000
C  -0.91000 10.85900 20.21200
N  0.68000 9.39500 26.39800
C  0.74200 10.42400 25.49500
C  1.19700 11.65000 26.17300
C  1.50800 11.23400 27.48100
C  1.12000 9.86700 27.59900
C  1.30700 13.07800 25.63000
C  1.99800 11.63800 28.75200
O  2.50900 12.68700 29.07300
C  1.78600 10.42600 29.73600
C  2.91600 10.29700 30.73200
O  3.91900 9.59900 30.57900
O  2.73800 11.15600 31.81000
C  3.85300 11.17000 32.77900
H  0.80000 3.65600 28.68200
H  -0.64800 4.92800 22.56800
H  0.70900 11.15300 23.49000
H  2.11100 7.50200 30.95400
H  0.65000 5.21000 30.79000
H  3.43400 6.20500 30.46200
H  3.21900 4.67400 29.52100
H  2.92200 4.74500 31.25800
H  -0.80700 6.83300 31.34700
H  -0.53900 8.56100 31.21700
H  -0.70100 7.43500 33.50300
H  0.40900 8.83200 33.09000
H  0.69800 1.68400 27.79600
H  0.35200 0.82100 26.11700
H  -0.84100 1.23700 27.12700
H  -1.10300 0.58400 24.45200
H  0.63900 0.74400 23.88300
H  -0.74600 0.35100 22.77600
H  -1.62000 7.35500 21.76200
H  0.78800 9.16800 21.47800
H  0.55000 7.63800 19.78400
H  -0.72000 6.43800 20.07300
H  1.06300 6.38000 20.68600
H  -1.34600 10.67000 22.32500
H  -2.17900 9.52700 21.12500
H  0.08700 10.59500 19.86000
H  -1.11900 11.91600 20.38100
H  -1.56900 10.40900 19.47000
H  1.45200 13.11900 24.55000
H  2.09900 13.67900 26.07600
H  0.37300 13.52300 25.97200
H  0.98900 10.80700 30.37500
H  3.99300 12.23700 32.95500
H  4.75700 10.60800 32.54500
H  3.34800 10.85100 33.69100
Mg -4.71200 24.96800 25.85000
C  -3.22100 26.51700 28.64100
C  -5.92300 22.58600 27.94100
C  -5.71600 23.24400 23.14000
C  -2.81400 27.18000 23.88900
N  -4.68800 24.71000 27.98900
C  -4.15600 25.49400 28.91900
C  -4.64100 25.18400 30.43100
C  -5.52600 23.86600 30.13100
C  -5.37100 23.67800 28.59000
C  -5.28100 22.61600 31.08300
C  -5.40800 26.38500 30.96300
C  -4.85900 27.16500 32.25800
H  -4.45500 26.20200 33.42600
N  -5.73100 23.14900 25.54600
C  -6.03700 22.28500 26.55300
C  -6.60800 21.03600 25.90600
C  -6.71300 21.28300 24.48400
C  -6.08100 22.62100 24.31400
C  -7.18200 19.88300 26.73100
C  -7.23200 20.32700 23.44600
O  -7.00800 20.49800 22.29900
C  -7.97100 19.10800 23.77800
N  -4.45600 25.32100 23.79000
C  -5.03600 24.43900 22.90900
C  -4.67100 24.95600 21.51200
C  -3.84400 26.28300 21.71500
C  -3.74900 26.38900 23.24500
C  -4.00600 23.88500 20.61000
C  -4.55700 27.55700 21.19700
C  -3.91600 28.15000 19.92000
N  -3.37800 26.67500 26.09200
C  -2.63200 27.36300 25.21900
C  -1.79100 28.32700 25.99500
C  -2.01700 28.02900 27.36500
C  -2.88500 26.95600 27.33700
C  -0.91300 29.44600 25.46100
C  -1.56600 28.31100 28.69500
O  -0.80800 29.08900 29.20900
C  -2.34800 27.29900 29.59500
C  -1.43900 26.37800 30.34400
O  -0.95700 25.31200 29.91800
O  -1.25000 26.91500 31.56900
C  -0.27100 26.24800 32.48900
H  -6.31800 21.80100 28.58900
H  -6.09200 22.84900 22.19500
H  -2.09300 27.72900 23.27900
H  -3.81000 24.82300 31.03700
H  -6.61200 23.94000 30.19400
H  -6.19800 22.21500 31.51400
H  -4.51000 22.76600 31.83900
H  -4.89600 21.82300 30.44200
H  -6.41000 26.07200 31.25800
H  -5.35800 27.14300 30.18100
H  -5.68200 27.76400 32.64700
H  -4.08800 27.90100 32.02600
H  -8.26000 19.95300 26.87200
H  -6.74700 19.88200 27.73100
H  -6.79500 19.01000 26.20500
H  -8.33300 18.75100 22.81400
H  -8.79500 19.37600 24.43900
H  -7.29200 18.31100 24.08000
H  -5.63600 25.20900 21.07400
H  -2.84600 26.27300 21.27600
H  -3.81200 23.00900 21.23000
H  -3.04100 24.25400 20.26400
H  -4.66400 23.63200 19.77900
H  -4.64400 28.35400 21.93500
H  -5.55900 27.33900 20.82800
H  -3.44600 29.12200 20.07400
H  -4.70400 28.18200 19.16800
H  -3.14900 27.44500 19.59800
H  -1.03700 29.57500 24.38600
H  0.11300 29.17100 25.70800
H  -1.10800 30.43500 25.87600
H  -3.02700 27.92100 30.17700
H  0.73000 26.67200 32.40600
H  -0.22100 25.17800 32.28500
H  -0.69400 26.38100 33.48400

