158

Mg -1.14300 18.00700 27.55000
C  -1.85300 15.80700 30.18200
C  -2.05700 20.67900 29.67000
C  -1.14300 20.02600 24.84800
C  -0.90500 15.28100 25.40100
N  -1.80200 18.18700 29.62200
C  -2.01700 17.14400 30.51000
C  -2.44200 17.72300 31.89900
C  -2.63200 19.23700 31.57000
C  -2.13100 19.35900 30.18900
C  -4.10100 19.77500 31.85100
C  -1.44600 17.44200 33.09900
C  -2.10900 17.09800 34.49300
H  -1.06300 17.07200 35.58900
N  -1.34100 20.08900 27.30700
C  -1.68300 20.96900 28.29200
C  -1.59900 22.31200 27.67700
C  -1.29600 22.23500 26.27900
C  -1.17300 20.72600 26.06600
C  -2.05100 23.55800 28.40300
C  -1.26100 23.26500 25.23700
O  -1.12000 22.90700 24.07100
C  -1.49300 24.69700 25.55500
N  -1.19200 17.66600 25.44200
C  -1.17900 18.64400 24.56700
C  -0.95500 18.19000 23.11800
C  -0.57200 16.72200 23.40700
C  -0.97500 16.51900 24.82000
C  -2.19500 18.46800 22.11300
C  0.95700 16.31900 23.11200
C  2.07800 17.15800 23.74400
N  -1.23000 15.91600 27.74000
C  -1.13800 14.96900 26.75000
C  -1.35500 13.67800 27.37000
C  -1.60500 13.94400 28.72800
C  -1.50300 15.33600 28.90600
C  -1.51100 12.45300 26.58800
C  -1.97800 13.37100 30.05700
O  -2.26500 12.23700 30.46200
C  -1.97300 14.52100 31.05400
C  -0.70200 14.34200 31.81000
O  0.40600 14.38900 31.32200
O  -0.87400 14.19500 33.12800
C  0.28400 13.84500 33.98800
H  -2.38100 21.44600 30.37600
H  -0.81400 20.69000 24.04500
H  -0.77500 14.47400 24.67700
H  -3.36100 17.31300 32.31800
H  -2.11600 19.93300 32.23200
H  -4.76900 19.00700 32.24100
H  -4.45100 20.01700 30.84800
H  -4.06100 20.63500 32.52100
H  -0.82800 18.33500 33.19600
H  -0.75200 16.61100 32.97300
H  -2.64500 16.15900 34.36000
H  -2.89200 17.85100 34.57900
H  -1.44600 24.42200 28.13000
H  -1.97500 23.35600 29.47100
H  -3.11400 23.77300 28.29100
H  -2.46600 24.93700 25.98400
H  -1.46200 25.31500 24.65700
H  -0.66600 25.14100 26.10800
H  -0.01100 18.58500 22.74400
H  -1.24500 16.13700 22.78100
H  -2.75700 19.30300 22.53100
H  -2.76400 17.55200 21.95400
H  -1.77300 18.66900 21.12800
H  1.16900 16.29200 22.04400
H  0.99900 15.25400 23.34100
H  1.54200 17.81700 24.42700
H  2.69200 17.80000 23.11200
H  2.80600 16.54200 24.27100
H  -2.01600 12.81000 25.69000
H  -2.07300 11.70600 27.14800
H  -0.58000 11.96200 26.30500
H  -2.87000 14.49900 31.67100
H  0.30300 12.77300 34.18600
H  0.29900 14.25200 34.99900
H  1.25400 14.09100 33.55700
Mg 24.65100 -4.94100 45.81000
C  26.84400 -2.50200 44.28600
C  22.30300 -4.14000 43.66100
C  23.19200 -7.73800 46.88200
C  27.46600 -5.69900 48.03900
N  24.69500 -3.46500 44.15600
C  25.57800 -2.58500 43.69100
C  25.00900 -1.72300 42.50500
C  23.44300 -2.11100 42.58500
C  23.41600 -3.31900 43.57100
C  22.47400 -0.94500 42.86600
C  25.81400 -1.90500 41.18500
C  26.08700 -0.61600 40.37200
H  25.78400 -0.65800 38.84100
N  22.97100 -5.81700 45.36600
C  22.07400 -5.28600 44.45600
C  20.92600 -6.19200 44.45900
C  21.24100 -7.25300 45.37500
C  22.49500 -6.95400 45.93500
C  19.73700 -6.09600 43.47600
C  20.31300 -8.48700 45.57700
O  19.10300 -8.45700 45.26700
C  20.76800 -9.67300 46.29400
N  25.36700 -6.64900 47.14300
C  24.46500 -7.57000 47.37700
C  24.95700 -8.47500 48.55000
C  26.25900 -7.76300 49.04000
C  26.39900 -6.62200 47.98900
C  23.88200 -8.62900 49.67300
C  27.56100 -8.66100 49.27000
C  28.14100 -8.59600 50.73800
N  26.71900 -4.25200 46.12800
C  27.70200 -4.65100 47.05500
C  28.88700 -3.85300 46.92500
C  28.59500 -2.98300 45.88300
C  27.31700 -3.27500 45.42500
C  30.06900 -3.91200 47.84200
C  29.09300 -1.76600 45.08300
O  29.99900 -1.02100 45.17800
C  28.07600 -1.62700 43.91500
C  27.76000 -0.13100 43.79800
O  27.07700 0.47700 44.57500
O  28.49000 0.40300 42.78000
C  28.15300 1.80200 42.62400
H  21.59200 -3.91900 42.86100
H  22.74200 -8.62300 47.33800
H  28.21500 -5.96200 48.78900
H  25.12900 -0.65200 42.66800
H  23.12500 -2.51300 41.62300
H  21.83600 -1.13800 43.72900
H  21.73300 -0.90700 42.06700
H  22.85600 0.07400 42.92200
H  25.22300 -2.65200 40.65600
H  26.73500 -2.44200 41.41200
H  27.13400 -0.31500 40.33200
H  25.47600 0.15900 40.83300
H  19.81100 -6.97800 42.84000
H  19.62900 -5.28300 42.75800
H  18.84200 -6.25500 44.07700
H  20.80300 -9.67100 47.38300
H  21.72500 -9.98300 45.87600
H  20.14300 -10.50500 45.96900
H  25.23500 -9.48000 48.23200
H  26.01400 -7.17700 49.92600
H  23.54000 -9.66300 49.72500
H  22.97300 -8.03300 49.60000
H  24.28500 -8.45100 50.67000
H  28.30800 -8.31000 48.55800
H  27.48200 -9.70100 48.95400
H  27.45100 -9.23900 51.28500
H  28.31000 -7.61200 51.17500
H  29.09000 -9.12900 50.69100
H  30.92900 -3.73600 47.19700
H  30.03400 -4.92200 48.25200
H  30.00200 -3.19400 48.66000
H  28.45100 -2.04200 42.98000
H  29.05200 2.12300 42.09700
H  27.99400 2.35200 43.55200
H  27.35000 1.89700 41.89400

