158

Mg 50.07700 45.19600 41.67900
C  46.86500 45.95000 40.61700
C  49.68100 41.99900 40.60300
C  53.41600 44.71500 41.94700
C  50.72300 48.76000 42.04100
N  48.42700 44.11800 40.70700
C  47.21000 44.63000 40.30000
C  46.34500 43.59900 39.58000
C  47.23400 42.33000 39.63100
C  48.53700 42.80300 40.36700
C  46.57000 41.17500 40.40200
C  46.11700 44.08900 38.04500
C  44.74900 44.06600 37.51300
H  44.57000 43.43000 36.10400
N  51.36600 43.50600 41.43100
C  51.00600 42.30000 40.99600
C  52.09800 41.44100 41.10800
C  53.18200 42.18900 41.57800
C  52.72200 43.50200 41.57400
C  51.91400 40.03000 40.67400
C  54.63800 41.73500 41.82700
O  54.88800 40.54700 41.77000
C  55.82700 42.60600 42.12200
N  51.74000 46.52300 41.97600
C  53.01900 46.00900 42.05000
C  54.03800 47.01900 42.64100
C  53.29300 48.38000 42.20600
C  51.82200 47.87900 42.19700
C  54.30600 46.90600 44.19100
C  53.84800 48.84900 40.86500
C  55.04700 49.81400 40.90200
N  49.01100 47.03400 41.53000
C  49.37400 48.33500 41.75100
C  48.15900 49.11800 41.69600
C  47.18600 48.21100 41.26700
C  47.77800 46.94800 41.13000
C  48.02400 50.62000 41.93300
C  45.80600 48.14900 40.83000
O  44.95900 48.99800 40.79200
C  45.58200 46.75300 40.34900
C  44.35000 46.13400 40.91300
O  44.22600 45.74900 42.04700
O  43.36700 46.03900 39.92200
C  42.18000 45.23700 40.34800
H  49.39400 40.97600 40.35100
H  54.41800 44.58600 42.36300
H  50.90800 49.83600 42.02400
H  45.41200 43.56500 40.14300
H  47.42200 41.90000 38.64800
H  45.54400 41.34000 40.73200
H  47.12900 40.94000 41.30800
H  46.58400 40.24700 39.83100
H  46.73700 43.41500 37.45400
H  46.50000 45.10600 37.96100
H  44.39900 45.09100 37.38500
H  44.04100 43.64900 38.22800
H  50.93500 39.65100 40.96500
H  52.65700 39.39600 41.15800
H  52.14200 39.87000 39.62000
H  55.66300 43.14000 43.05800
H  55.81600 43.37100 41.34600
H  56.74600 42.01900 42.11300
H  54.97700 47.03700 42.08800
H  53.47000 49.14100 42.96500
H  55.30100 47.22200 44.50200
H  54.35700 45.91700 44.64500
H  53.52200 47.47100 44.69600
H  53.09600 49.17000 40.14300
H  54.12400 47.97700 40.27200
H  54.97000 50.51100 40.06700
H  55.93500 49.18200 40.89100
H  55.08400 50.37400 41.83600
H  48.48200 51.34100 41.25500
H  48.31600 50.88900 42.94800
H  46.95000 50.80100 41.89600
H  45.42700 46.91900 39.28300
H  41.29800 45.59900 39.81900
H  41.94400 45.23100 41.41200
H  42.36000 44.18400 40.13200
Mg 42.03100 40.91300 26.96300
C  41.28900 43.10700 29.52200
C  43.26800 38.70600 29.33000
C  42.53000 38.55900 24.50000
C  41.10600 43.20400 24.61400
N  42.30100 40.99000 29.23700
C  41.82500 41.96200 30.07700
C  41.90000 41.57000 31.51800
C  42.74300 40.23600 31.51000
C  42.71200 39.91600 29.95400
C  44.15500 40.20900 32.10300
C  40.42500 41.46200 32.16800
C  40.29800 42.31300 33.43500
H  39.71100 41.57800 34.66300
N  42.81900 38.89400 26.87100
C  43.27200 38.17400 27.95000
C  43.51700 36.80800 27.53200
C  43.19000 36.71200 26.14600
C  42.78000 38.08600 25.78600
C  43.95500 35.74600 28.44600
C  43.16100 35.47800 25.07500
O  42.85600 35.60100 23.86100
C  43.68300 34.15900 25.55700
N  41.98900 40.92800 24.83900
C  42.10800 39.90000 23.98700
C  41.73400 40.17100 22.56000
C  41.39600 41.66600 22.63900
C  41.46800 41.98600 24.14700
C  42.73500 39.81100 21.48600
C  39.98700 42.00300 22.16500
C  39.92200 43.30000 21.42000
N  41.40500 42.85400 27.04100
C  41.01300 43.63400 26.00000
C  40.45900 44.88700 26.51500
C  40.51300 44.70500 27.91300
C  41.13900 43.45900 28.17900
C  39.99200 46.06500 25.77700
C  40.15000 45.29500 29.22000
O  39.56000 46.35700 29.47300
C  40.75300 44.31300 30.27400
C  41.75300 45.05000 31.13200
O  42.98600 45.14000 31.00100
O  41.15100 45.51600 32.27500
C  41.96400 46.06500 33.34300
H  43.54800 38.02200 30.13400
H  42.58900 37.94200 23.60100
H  40.63900 43.85100 23.86900
H  42.44600 42.34100 32.06100
H  42.18400 39.49500 32.08000
H  44.40400 41.06700 32.72800
H  44.77600 40.12900 31.21000
H  44.14700 39.23800 32.59700
H  40.26700 40.41100 32.40700
H  39.71000 41.75700 31.39900
H  39.64200 43.18300 33.39500
H  41.24700 42.78300 33.69700
H  44.92300 35.38400 28.10000
H  43.28100 34.89400 28.36500
H  44.02000 35.98800 29.50700
H  44.74100 34.11700 25.81400
H  43.57800 33.39800 24.78400
H  43.06600 33.77400 26.36900
H  40.84600 39.57000 22.36400
H  42.18400 42.16100 22.07200
H  42.94800 40.68700 20.87300
H  42.27600 38.99900 20.92200
H  43.64400 39.37900 21.90400
H  39.32800 41.98700 23.03200
H  39.58100 41.19200 21.56000
H  39.50100 43.03400 20.45100
H  40.93800 43.68700 21.33700
H  39.36800 44.11400 21.88900
H  40.74800 46.83900 25.64200
H  39.20700 46.56500 26.34300
H  39.60700 45.84900 24.78000
H  40.05400 43.76100 30.90300
H  42.56500 45.24300 33.73200
H  41.38000 46.57600 34.10800
H  42.59700 46.87000 32.96800

