158

Mg 7.59900 3.27800 27.60500
C  9.12600 2.00800 30.52200
C  5.65700 5.37500 29.65600
C  6.19600 4.36900 24.87400
C  9.07800 0.60200 25.82900
N  7.44100 3.66000 29.82200
C  8.18700 3.04500 30.80000
C  7.89300 3.62500 32.18900
C  6.78500 4.65000 31.94000
C  6.57600 4.54700 30.36700
C  5.46200 4.33500 32.69800
C  9.12700 4.17500 32.95600
C  8.79700 4.85200 34.25700
H  9.90300 4.87100 35.38200
N  6.18100 4.74300 27.34200
C  5.45900 5.46100 28.27600
C  4.54300 6.28600 27.58000
C  4.82800 6.10100 26.20800
C  5.80600 4.99700 26.06900
C  3.51100 7.13600 28.24700
C  4.27000 6.90400 25.07800
O  4.63500 6.69900 23.93000
C  3.31100 7.97900 25.37700
N  7.49700 2.46200 25.66400
C  6.89800 3.20300 24.71900
C  6.94700 2.48700 23.37200
C  7.88500 1.26700 23.64900
C  8.20500 1.41300 25.08400
C  5.64800 2.12100 22.66200
C  9.15500 1.11700 22.73500
C  9.30300 -0.15900 21.95900
N  8.87300 1.72800 28.00100
C  9.38700 0.69900 27.20900
C  10.22400 -0.15800 27.90900
C  10.09400 0.28700 29.25500
C  9.33200 1.47300 29.23400
C  11.02900 -1.28300 27.33100
C  10.60100 0.04700 30.61600
O  11.34400 -0.81000 31.05500
C  9.92000 1.17700 31.50000
C  9.06300 0.57200 32.55600
O  7.96000 0.10100 32.27900
O  9.61900 0.59000 33.84500
C  8.80700 0.22800 35.06500
H  5.13600 6.11100 30.27200
H  5.66300 4.75700 24.00300
H  9.42400 -0.21800 25.19600
H  7.48800 2.85600 32.84700
H  7.01600 5.64200 32.32800
H  5.67600 3.76300 33.60100
H  4.79400 3.72700 32.08800
H  5.02300 5.30200 32.94500
H  9.55600 5.01200 32.40400
H  9.92600 3.47500 33.20100
H  7.84800 4.56500 34.71000
H  8.69400 5.89700 33.96500
H  3.50600 8.19100 27.97000
H  3.63200 7.14900 29.33000
H  2.53600 6.78300 27.91100
H  3.79900 8.78000 25.93200
H  2.36900 7.58000 25.75300
H  3.06100 8.38200 24.39500
H  7.41700 3.25800 22.76200
H  7.40500 0.29300 23.55500
H  5.46000 2.76600 21.80400
H  4.74700 2.40100 23.20600
H  5.61400 1.09400 22.29700
H  10.06800 1.42500 23.24400
H  9.02300 1.91500 22.00500
H  9.15900 -0.18000 20.87900
H  8.76500 -0.97400 22.44400
H  10.33400 -0.51300 21.95700
H  11.40500 -0.94800 26.36400
H  10.39500 -2.16800 27.30100
H  11.92300 -1.35600 27.95000
H  10.75500 1.79400 31.83400
H  8.60900 -0.84400 35.07200
H  7.88700 0.81200 35.04400
H  9.48400 0.42900 35.89500
Mg 47.00800 16.82600 28.16900
C  45.24100 16.05200 31.03500
C  49.37000 18.54100 30.28700
C  48.64800 17.88400 25.45800
C  44.35800 15.67000 26.21500
N  47.20000 17.35400 30.44400
C  46.38300 16.80200 31.40000
C  46.85600 17.14300 32.79200
C  48.05800 18.16600 32.44000
C  48.30900 17.94400 30.98900
C  47.77700 19.61000 32.82000
C  47.29400 15.95000 33.65900
C  47.97400 16.29100 35.06800
H  48.01600 17.77500 35.61400
N  48.77900 18.00100 27.85600
C  49.59500 18.49500 28.87800
C  50.78300 19.16900 28.21200
C  50.62300 18.92800 26.78400
C  49.31300 18.23900 26.65900
C  51.92100 19.86400 28.89500
C  51.48200 19.44700 25.59900
O  51.15500 19.31700 24.43000
C  52.87500 20.04900 25.84900
N  46.49400 17.02500 26.15200
C  47.38700 17.37200 25.20600
C  46.81700 17.14200 23.79100
C  45.63000 16.23400 24.08000
C  45.43800 16.31200 25.54600
C  46.71200 18.39300 22.89700
C  45.66800 14.69900 23.64800
C  46.31100 13.69200 24.59400
N  45.23500 16.04300 28.50700
C  44.21500 15.49500 27.63700
C  43.18500 14.91400 28.38200
C  43.58500 15.09200 29.68200
C  44.80300 15.83700 29.74300
C  41.82300 14.32500 27.93900
C  43.12700 14.89700 31.01100
O  42.16000 14.34700 31.46200
C  44.06800 15.62000 31.93400
C  43.29400 16.72300 32.55300
O  42.73200 17.56900 31.89300
O  43.27700 16.72100 33.98300
C  42.47600 17.78200 34.52900
H  50.11500 18.88400 31.00800
H  49.22600 18.08900 24.55400
H  43.61300 15.10600 25.65000
H  46.12300 17.64800 33.42200
H  48.97300 17.81000 32.91300
H  47.90200 20.29000 31.97700
H  48.60100 19.72700 33.52400
H  46.84700 19.73100 33.37500
H  48.02900 15.40000 33.07000
H  46.33500 15.43200 33.69100
H  48.97500 15.87200 34.96300
H  47.47500 15.66600 35.80800
H  52.79600 19.21300 28.91400
H  51.64500 20.14300 29.91200
H  52.16700 20.75300 28.31400
H  52.82000 21.04000 26.29900
H  53.41800 20.28800 24.93400
H  53.48600 19.37200 26.44700
H  47.54900 16.48100 23.32600
H  44.80700 16.61300 23.47400
H  47.36400 18.25800 22.03500
H  47.12700 19.15900 23.55300
H  45.69800 18.65800 22.59500
H  46.14600 14.62700 22.67100
H  44.64700 14.34000 23.52700
H  45.44000 13.22100 25.05100
H  46.92900 14.23800 25.30700
H  46.90300 12.86900 24.19200
H  41.32200 14.64300 27.02500
H  41.07000 14.50800 28.70500
H  41.85900 13.24200 27.81900
H  44.31900 14.91100 32.72300
H  43.10200 18.63400 34.79300
H  42.11600 17.32800 35.45200
H  41.55300 18.11500 34.05400

