158

Mg 26.20400 0.71000 29.37200
C  28.11500 0.19500 32.02200
C  23.27400 0.56700 31.33800
C  24.24100 0.95200 26.57900
C  28.91200 0.04900 27.36600
N  25.79800 0.27800 31.45400
C  26.77000 0.31500 32.36300
C  26.21500 0.59900 33.76800
C  24.65700 0.71700 33.51900
C  24.51200 0.42900 32.01400
C  23.70400 -0.07800 34.48200
C  26.77200 1.83800 34.48400
C  26.09200 2.23100 35.83100
H  26.71400 2.85500 37.05200
N  24.02100 0.70100 29.04400
C  23.03900 0.67000 29.97100
C  21.73300 0.81700 29.31800
C  21.92100 0.86900 27.93600
C  23.42800 0.83000 27.78200
C  20.53100 0.91400 30.14700
C  20.94700 1.14400 26.81600
O  21.27200 1.17800 25.63500
C  19.47200 1.38000 27.20300
N  26.53300 0.46700 27.25100
C  25.59200 0.73300 26.33800
C  26.15800 0.66100 24.91300
C  27.65200 0.39200 25.20300
C  27.69300 0.19600 26.69500
C  25.57800 -0.40900 23.92700
C  28.52100 1.65000 24.71100
C  28.62900 2.87000 25.63800
N  28.12000 0.23900 29.58000
C  29.16200 0.02300 28.68700
C  30.39800 -0.24900 29.41000
C  30.05700 -0.15300 30.77800
C  28.69300 0.09600 30.80800
C  31.79300 -0.43100 28.89200
C  30.44500 -0.25900 32.16400
O  31.54400 -0.55300 32.60900
C  29.26400 0.11400 33.03500
C  29.12300 -0.90400 34.14500
O  28.80500 -2.03700 34.01200
O  29.31900 -0.23400 35.35500
C  29.46700 -0.98100 36.60400
H  22.38900 0.73600 31.95400
H  23.60700 1.24400 25.73900
H  29.64700 -0.11100 26.57400
H  26.41600 -0.29400 34.35900
H  24.48900 1.79000 33.61400
H  23.16900 -0.82900 33.90100
H  23.02100 0.55300 35.05100
H  24.30600 -0.53500 35.26800
H  26.69400 2.62100 33.73000
H  27.85400 1.73000 34.57100
H  25.93400 1.21000 36.17700
H  25.13100 2.69700 35.61500
H  19.75100 0.37800 29.60600
H  20.18300 1.94100 30.25300
H  20.59600 0.34600 31.07500
H  18.90000 1.67700 26.32400
H  19.62900 2.20500 27.89800
H  19.00400 0.52000 27.68100
H  25.94800 1.65900 24.52800
H  28.02000 -0.56500 24.83500
H  25.44400 -0.06600 22.90200
H  24.68700 -0.82000 24.40100
H  26.32300 -1.17900 23.72400
H  28.23100 2.06400 23.74600
H  29.51000 1.22500 24.54000
H  28.34200 2.63300 26.66200
H  28.03100 3.67500 25.21200
H  29.64400 3.26000 25.72100
H  32.16300 0.43400 28.34200
H  31.65900 -1.32600 28.28400
H  32.49200 -0.58700 29.71300
H  29.53400 1.10400 33.40200
H  28.92200 -0.43000 37.37100
H  30.51700 -1.11100 36.86600
H  28.99300 -1.96100 36.65500
Mg 40.95600 8.81400 29.38900
C  42.78500 10.22600 32.11800
C  38.91500 7.23600 31.69000
C  39.28800 7.43200 26.90900
C  43.56900 9.70700 27.25200
N  40.74300 8.96000 31.65900
C  41.65800 9.47900 32.55400
C  41.37700 9.03300 33.95300
C  40.35400 7.85300 33.70100
C  39.98700 8.01000 32.27100
C  40.73800 6.40300 34.15500
C  40.85800 10.16700 34.91400
C  40.47500 9.63200 36.27500
H  41.24600 10.29200 37.50100
N  39.21100 7.71900 29.27900
C  38.50300 7.19700 30.32900
C  37.37100 6.34400 29.83800
C  37.35700 6.61300 28.40700
C  38.66900 7.20300 28.11300
C  36.58300 5.48900 30.75700
C  36.31900 6.34700 27.42900
O  36.51300 6.38900 26.23200
C  34.94400 6.05800 27.79200
N  41.44400 8.53400 27.39800
C  40.50800 8.01600 26.53000
C  40.95800 8.23600 25.02000
C  42.38100 8.94400 25.17500
C  42.48300 9.13100 26.68900
C  41.08400 6.99600 24.12900
C  42.52100 10.33700 24.37100
C  41.84000 11.50400 24.96300
N  42.75100 9.82400 29.57200
C  43.75900 10.08100 28.60000
C  44.84900 10.83700 29.21700
C  44.49000 11.00400 30.57500
C  43.24200 10.33200 30.75300
C  46.10200 11.37800 28.55400
C  44.95900 11.49700 31.91200
O  45.94700 12.16200 32.21000
C  43.88300 11.00100 32.97100
C  44.63000 10.02900 33.94900
O  44.92100 8.90400 33.78100
O  44.85300 10.72600 35.13100
C  45.66900 10.03100 36.12400
H  38.31300 6.71300 32.43500
H  38.72200 7.26800 25.99000
H  44.39700 10.02400 26.61500
H  42.29200 8.69200 34.43800
H  39.40500 8.06800 34.19300
H  41.74700 6.55900 34.53800
H  40.75900 5.56300 33.46000
H  40.29100 6.16800 35.12000
H  40.02800 10.57200 34.33600
H  41.68400 10.87600 34.94900
H  40.69500 8.57000 36.38900
H  39.42200 9.90900 36.32600
H  36.93200 5.30100 31.77300
H  36.38500 4.49000 30.36900
H  35.61500 5.98600 30.81900
H  34.96500 5.34700 28.61700
H  34.51000 5.66800 26.87100
H  34.40800 6.99900 27.91500
H  40.22400 8.89400 24.55300
H  43.20400 8.26500 24.95100
H  42.04500 6.85400 23.63700
H  40.38000 7.23400 23.33100
H  40.80900 6.10000 24.68500
H  42.19000 10.29000 23.33300
H  43.59100 10.51600 24.26400
H  42.42100 12.38400 25.23700
H  41.19700 11.18200 25.78200
H  41.05400 11.82300 24.27900
H  45.90900 11.59300 27.50300
H  46.83400 10.59600 28.75900
H  46.46100 12.26000 29.08500
H  43.59200 11.91900 33.48200
H  45.24200 9.11900 36.54400
H  46.08100 10.55800 36.98500
H  46.56400 9.69500 35.60000

