158

Mg -1.63000 16.55200 26.55900
C  -2.31400 14.21400 29.18600
C  -2.06100 19.06700 28.72500
C  -1.55500 18.63800 23.98200
C  -1.87800 13.80200 24.27100
N  -2.24800 16.59200 28.74900
C  -2.23300 15.55500 29.62400
C  -2.22800 16.14900 31.12800
C  -2.13600 17.66500 30.88300
C  -2.13600 17.83900 29.37300
C  -3.31100 18.54200 31.49700
C  -1.05100 15.55800 32.00600
C  -0.54700 16.42700 33.15100
H  -0.58700 15.76000 34.59500
N  -1.63500 18.61000 26.37600
C  -1.80600 19.51100 27.39500
C  -1.72400 20.85800 26.91100
C  -1.34700 20.75000 25.56000
C  -1.55800 19.29200 25.23800
C  -1.84300 21.97700 27.90000
C  -0.89100 21.85800 24.64700
O  -0.47000 21.63000 23.53000
C  -0.72900 23.22900 25.12300
N  -1.86500 16.25200 24.39100
C  -1.76600 17.29400 23.55500
C  -1.66000 16.84500 22.05700
C  -1.75900 15.26300 22.18200
C  -1.74800 15.05600 23.69300
C  -2.63700 17.46000 21.01000
C  -0.58500 14.44300 21.56300
C  0.80500 14.87500 22.18100
N  -2.01800 14.48200 26.68600
C  -2.05200 13.51600 25.67100
C  -2.30900 12.21800 26.26600
C  -2.45500 12.41500 27.63900
C  -2.17200 13.83200 27.85100
C  -2.48500 10.87600 25.59300
C  -2.61200 11.69800 28.89900
O  -2.76000 10.50600 29.24300
C  -2.49800 12.89300 29.93500
C  -1.41800 12.52500 30.83900
O  -0.19300 12.77300 30.75400
O  -1.93200 11.75100 31.80200
C  -1.03200 11.26000 32.88400
H  -2.15700 19.96300 29.34200
H  -1.52200 19.30200 23.11600
H  -2.03800 12.93800 23.62400
H  -3.10500 15.83700 31.69500
H  -1.17500 18.09200 31.17000
H  -3.95500 19.01600 30.75600
H  -2.93900 19.35200 32.12500
H  -4.00600 17.98100 32.12200
H  -0.17500 15.49900 31.36100
H  -1.28900 14.55900 32.37300
H  -1.17300 17.31400 33.25600
H  0.41100 16.87700 32.89000
H  -2.48700 21.84400 28.76800
H  -2.24100 22.77400 27.27200
H  -0.86400 22.30500 28.24900
H  -1.67200 23.73100 25.33600
H  -0.20100 23.87200 24.41900
H  -0.09700 23.24300 26.01100
H  -0.67400 16.97500 21.61000
H  -2.63200 14.82100 21.70300
H  -3.22600 18.10500 21.66200
H  -3.25400 16.68200 20.56200
H  -2.08200 18.05400 20.28400
H  -0.62300 14.57000 20.48100
H  -0.75900 13.37600 21.70600
H  1.33000 15.45200 21.42000
H  1.24300 13.88100 22.27400
H  0.70900 15.46800 23.09000
H  -3.36900 10.76000 24.96600
H  -2.60400 10.17600 26.42000
H  -1.64200 10.35600 25.13900
H  -3.40500 12.84800 30.53900
H  -0.40200 12.06100 33.27100
H  -0.29200 10.62800 32.39400
H  -1.69600 10.88100 33.66000
Mg 1.16800 42.72600 25.68900
C  2.35700 42.75700 28.97500
C  -1.82400 41.43000 26.90300
C  0.10100 42.65200 22.49900
C  4.38900 43.42200 24.54700
N  0.36800 42.14400 27.70700
C  1.04800 42.33500 28.90300
C  0.17000 42.07200 30.14200
C  -1.15300 41.55700 29.43500
C  -0.89400 41.72100 27.95100
C  -1.55400 40.12900 29.80000
C  -0.03300 43.38900 31.03400
C  0.58000 43.45800 32.44600
H  -0.36200 43.06600 33.60800
N  -0.53500 42.06000 24.85600
C  -1.68400 41.59500 25.47500
C  -2.72600 41.32400 24.53200
C  -2.17000 41.66800 23.22000
C  -0.78000 42.13600 23.48200
C  -4.08400 40.83700 25.02600
C  -3.00400 41.63900 21.89500
O  -2.52100 42.24600 20.89600
C  -4.28400 40.95600 21.71700
N  2.09900 43.08100 23.84500
C  1.36200 43.09100 22.65600
C  2.26900 43.40000 21.50600
C  3.60600 43.92500 22.13700
C  3.36200 43.47700 23.56500
C  2.40100 42.20100 20.53200
C  4.05400 45.35200 21.99700
C  3.96400 45.88300 20.52800
N  2.89400 43.10500 26.50100
C  4.18200 43.25100 25.89600
C  5.19100 43.39400 26.85700
C  4.52500 43.12800 28.03400
C  3.13700 43.08900 27.82300
C  6.61800 43.79500 26.57200
C  4.79000 43.00100 29.39300
O  5.82700 42.88200 29.96300
C  3.37900 42.90200 30.11100
C  3.43000 41.75700 31.05400
O  2.86900 40.65500 30.93800
O  4.18200 42.10000 32.16300
C  4.26800 41.09500 33.26000
H  -2.72800 40.93900 27.26800
H  -0.39400 42.55700 21.53000
H  5.37300 43.68200 24.15300
H  0.59600 41.34600 30.83400
H  -2.00100 42.20000 29.67400
H  -1.70800 39.47700 28.94000
H  -2.56800 40.21800 30.18800
H  -0.92900 39.63600 30.54500
H  -1.10300 43.57000 31.13400
H  0.24700 44.27300 30.46200
H  0.95900 44.46500 32.62500
H  1.43300 42.78700 32.34200
H  -4.25300 41.18100 26.04600
H  -4.20800 39.75600 25.09300
H  -4.89600 41.16100 24.37500
H  -4.17100 40.31800 20.84100
H  -5.09800 41.65800 21.53500
H  -4.47200 40.24500 22.52200
H  1.72900 44.22300 21.03700
H  4.42400 43.28100 21.81300
H  1.41900 41.82000 20.25200
H  2.91300 41.37700 21.02900
H  2.83600 42.51500 19.58300
H  5.12800 45.37900 22.18300
H  3.32500 45.98400 22.50400
H  3.27400 46.69800 20.30900
H  3.74600 45.08400 19.81900
H  4.97400 46.10800 20.18400
H  6.98300 43.27200 25.68800
H  7.31600 43.59200 27.38500
H  6.62500 44.87500 26.42700
H  3.28800 43.80100 30.72000
H  5.33500 41.06100 33.47700
H  3.85700 40.11500 33.01600
H  3.82500 41.44800 34.19200

