158

Mg 16.87800 52.02800 25.25900
C  18.73900 50.94600 27.99800
C  14.31600 52.91600 27.44600
C  15.33900 53.06500 22.53900
C  19.35000 50.52900 23.09300
N  16.52800 51.83100 27.51600
C  17.50300 51.51200 28.41000
C  17.01900 51.75100 29.78800
C  15.51300 52.30900 29.60600
C  15.41300 52.32400 28.10200
C  14.41200 51.31500 30.29700
C  17.88600 52.81400 30.52900
C  17.48600 53.36900 31.96700
H  16.47000 52.62500 32.86300
N  15.08500 52.89700 25.05600
C  14.17700 53.20600 26.06600
C  13.00000 53.67400 25.36500
C  13.35900 53.78200 23.98000
C  14.68500 53.21900 23.79600
C  11.68700 53.97400 26.07600
C  12.48600 54.27600 22.85300
O  12.85000 54.55300 21.72300
C  11.00300 54.56200 23.03500
N  17.36300 51.97200 23.10800
C  16.53000 52.44500 22.21800
C  17.08800 52.40700 20.78900
C  18.42500 51.75900 21.01700
C  18.43300 51.39100 22.51700
C  16.15200 51.72200 19.84100
C  19.53600 52.78700 20.70600
C  20.85600 52.19800 20.27700
N  18.63600 50.90300 25.44100
C  19.47900 50.31000 24.53800
C  20.58100 49.70800 25.24800
C  20.37600 49.91700 26.54800
C  19.13400 50.59800 26.64500
C  21.82700 49.04600 24.68300
C  20.94300 49.79100 27.90900
O  21.99300 49.33900 28.32000
C  19.91000 50.45900 28.89200
C  19.37700 49.60000 29.96800
O  18.68500 48.69000 29.71600
O  19.98400 49.88900 31.12400
C  19.38600 49.24100 32.34600
H  13.46900 53.35700 27.97500
H  14.80800 53.44400 21.66300
H  20.20400 50.27600 22.46200
H  17.00700 50.83400 30.37600
H  15.37900 53.30200 30.03400
H  13.70400 50.80700 29.64100
H  13.85700 51.91900 31.01400
H  14.85600 50.54000 30.92100
H  18.08000 53.64500 29.85100
H  18.85400 52.33600 30.67900
H  17.01500 54.34400 31.83400
H  18.35100 53.51000 32.61500
H  11.99200 54.36400 27.04700
H  11.10600 53.05600 26.16800
H  11.13800 54.82700 25.67700
H  10.96500 55.36200 23.77400
H  10.43300 53.67900 23.32600
H  10.65700 54.89700 22.05700
H  17.09300 53.45700 20.49900
H  18.56600 50.93400 20.31900
H  15.79600 50.88600 20.44300
H  16.65000 51.47700 18.90300
H  15.18200 52.21700 19.80300
H  19.72000 53.29300 21.65400
H  19.24800 53.50300 19.93600
H  21.21300 52.62400 19.33900
H  20.77200 51.11200 20.32600
H  21.58800 52.52800 21.01400
H  22.04000 49.23900 23.63200
H  21.55100 47.99600 24.59200
H  22.71700 49.12700 25.30800
H  20.26200 51.38100 29.35600
H  18.99900 48.23500 32.18500
H  18.45400 49.76800 32.55100
H  20.15800 49.21400 33.11500
Mg -12.91700 16.26300 41.74800
C  -10.16400 14.29000 41.03100
C  -11.40000 18.92500 40.16100
C  -15.96600 17.86700 41.59500
C  -14.60000 13.39000 42.75000
N  -11.00500 16.54800 40.62500
C  -10.00800 15.60900 40.49500
C  -8.74800 16.24800 39.90700
C  -9.14300 17.73100 39.70000
C  -10.54200 17.78600 40.30400
C  -8.19500 18.72900 40.48000
C  -8.08100 15.56400 38.68100
C  -6.60100 15.18700 38.83300
H  -5.59300 15.82200 37.78900
N  -13.56500 18.18000 41.24600
C  -12.81500 19.08700 40.49900
C  -13.55900 20.26500 40.31300
C  -14.90200 20.01900 40.90200
C  -14.83300 18.64100 41.28900
C  -13.00300 21.53400 39.61800
C  -15.97400 20.93400 41.08300
O  -15.85600 22.04800 40.58700
C  -17.25400 20.67300 41.91100
N  -15.03000 15.70300 42.15300
C  -16.09000 16.46200 41.90400
C  -17.46100 15.81100 42.21300
C  -16.92400 14.37200 42.61400
C  -15.45200 14.47500 42.50700
C  -18.26400 16.59800 43.26200
C  -17.58700 13.22200 41.91200
C  -18.59900 12.39400 42.74500
N  -12.48700 14.20800 42.06800
C  -13.23900 13.15200 42.49700
C  -12.44900 11.94400 42.46400
C  -11.28200 12.37400 41.95000
C  -11.32300 13.73300 41.64700
C  -12.91000 10.59400 42.86700
C  -9.93000 11.87400 41.54000
O  -9.41900 10.75700 41.55000
C  -9.13600 13.11400 41.02900
C  -7.84200 13.50800 41.69800
O  -7.80100 14.20000 42.71200
O  -6.78500 12.87700 41.10100
C  -5.48000 13.30800 41.64200
H  -10.90800 19.75600 39.64900
H  -16.94800 18.32700 41.46600
H  -15.09600 12.42400 42.86900
H  -8.03800 16.11300 40.72300
H  -9.13500 17.99100 38.64100
H  -8.84600 19.53500 40.81900
H  -7.41500 19.17900 39.86600
H  -7.80400 18.32300 41.41300
H  -8.15500 16.05000 37.70900
H  -8.65000 14.65500 38.48700
H  -6.66900 14.13400 38.56000
H  -6.25600 15.44100 39.83600
H  -13.73500 22.22900 39.20600
H  -12.21800 21.27000 38.90900
H  -12.42700 22.18500 40.27600
H  -17.91600 20.00000 41.36500
H  -17.70400 21.64700 42.10300
H  -17.16900 20.14400 42.86100
H  -18.00300 15.69700 41.27400
H  -17.01400 14.08600 43.66200
H  -17.94600 17.57400 43.62900
H  -18.54500 15.99900 44.12800
H  -19.16700 16.85900 42.71000
H  -16.76300 12.59300 41.57400
H  -18.19400 13.66000 41.12000
H  -18.34100 11.44500 43.21400
H  -19.40100 12.01800 42.11000
H  -18.99700 13.00500 43.55600
H  -13.04000 9.95400 41.99400
H  -13.91100 10.62600 43.29800
H  -12.09200 10.23100 43.48900
H  -8.84500 13.06400 39.98000
H  -5.49800 14.37800 41.85200
H  -4.76600 13.04800 40.86100
H  -5.17500 12.73300 42.51600

