158

Mg 23.50300 -6.57700 46.17000
C  25.93000 -4.40800 44.97800
C  21.20500 -4.92900 44.06700
C  21.19400 -8.84700 46.99800
C  25.89700 -8.38200 47.86300
N  23.69800 -5.07900 44.41400
C  24.75900 -4.21100 44.30700
C  24.42000 -3.11600 43.23400
C  22.83100 -3.14700 43.32600
C  22.56400 -4.47900 43.97600
C  22.16400 -1.88100 44.11200
C  25.15800 -3.33700 41.88300
C  26.01400 -2.16100 41.30900
H  25.41800 -1.37600 40.24200
N  21.44800 -6.84300 45.68800
C  20.74300 -6.00800 44.86200
C  19.37700 -6.46800 44.79900
C  19.28400 -7.63100 45.58900
C  20.64200 -7.87600 46.16400
C  18.28500 -5.92600 43.80800
C  18.04000 -8.56500 45.77400
O  16.96500 -8.27600 45.36400
C  18.14800 -9.97600 46.43300
N  23.59400 -8.39600 47.21700
C  22.45900 -9.13700 47.47200
C  22.84000 -10.44900 48.19600
C  24.45500 -10.32400 48.48100
C  24.64400 -8.93300 47.95000
C  22.03500 -10.97200 49.46100
C  25.29500 -11.39800 47.87400
C  26.57700 -11.81700 48.59100
N  25.43000 -6.47900 46.46400
C  26.32200 -7.25000 47.17400
C  27.66000 -6.72600 47.01400
C  27.53400 -5.54100 46.26200
C  26.17400 -5.45000 45.85800
C  28.86200 -7.27400 47.53700
C  28.32700 -4.37800 45.82800
O  29.47400 -3.98900 45.97000
C  27.27500 -3.60000 44.94000
C  27.24300 -2.24100 45.49100
O  26.51400 -1.80700 46.37900
O  28.19900 -1.51600 44.85000
C  28.20800 -0.02400 45.16200
H  20.49100 -4.24100 43.60900
H  20.63000 -9.71600 47.34500
H  26.69400 -8.91500 48.38500
H  24.77600 -2.12100 43.50200
H  22.35600 -3.15400 42.34500
H  22.83600 -1.07200 43.82600
H  22.11900 -2.00300 45.19400
H  21.20100 -1.59900 43.68600
H  24.46500 -3.69600 41.12200
H  25.79500 -4.21000 42.03000
H  26.86900 -2.73100 40.94600
H  26.46000 -1.49700 42.04900
H  18.24800 -6.32700 42.79500
H  18.40600 -4.85100 43.67200
H  17.27200 -6.04500 44.19300
H  17.24900 -10.58700 46.35800
H  18.43000 -9.79900 47.47000
H  18.95600 -10.47500 45.89800
H  22.75000 -11.17600 47.38900
H  24.58800 -10.40000 49.56000
H  22.69700 -11.11400 50.31400
H  21.55400 -11.93200 49.27800
H  21.26700 -10.26600 49.77700
H  25.51100 -11.00800 46.88000
H  24.71600 -12.31500 47.76100
H  27.34200 -11.21300 48.10400
H  26.71100 -12.89900 48.56000
H  26.56300 -11.47100 49.62400
H  28.80200 -7.54500 48.59100
H  29.69000 -6.58700 47.36300
H  29.08900 -8.16100 46.94600
H  27.65700 -3.51100 43.92300
H  28.91700 0.42200 44.46500
H  28.53300 0.20100 46.17700
H  27.23100 0.45300 45.07300
Mg 42.95100 42.00300 26.64200
C  42.35100 44.24000 29.33500
C  43.96700 39.75700 29.03500
C  43.91500 40.14000 24.23300
C  42.44400 44.77700 24.46000
N  43.12000 42.03100 28.90000
C  42.76800 42.99700 29.83900
C  42.78400 42.49600 31.26800
C  43.64000 41.23000 31.07700
C  43.54200 40.91800 29.57300
C  45.12700 41.19300 31.57800
C  41.46400 42.30800 32.00400
C  41.25300 43.00700 33.36400
H  42.01800 42.40900 34.52000
N  43.81500 40.20500 26.58700
C  44.02900 39.36800 27.66000
C  44.50800 38.11400 27.17200
C  44.40800 38.11300 25.75300
C  44.05800 39.53500 25.45000
C  45.02700 36.95200 28.06400
C  44.59500 37.07100 24.68600
O  44.64900 37.28700 23.48900
C  44.86400 35.68000 24.97600
N  43.34000 42.50800 24.61200
C  43.71000 41.43800 23.76300
C  43.45400 41.82700 22.28400
C  42.97400 43.30500 22.38200
C  42.91900 43.59100 23.87100
C  44.56400 41.53300 21.24300
C  41.51600 43.52800 21.75300
C  40.35500 42.85000 22.54800
N  42.52900 44.07100 26.79100
C  42.23000 44.98600 25.83600
C  41.66700 46.08000 26.38300
C  41.68400 45.93500 27.77600
C  42.24500 44.64000 28.02900
C  41.33300 47.40000 25.71000
C  41.39900 46.56500 29.05500
O  41.04800 47.70600 29.39400
C  41.86700 45.48400 30.13400
C  42.84300 46.00600 31.09900
O  43.95000 46.27900 30.72300
O  42.35100 46.00900 32.38700
C  43.39600 46.51600 33.33600
H  44.26700 39.00100 29.76300
H  44.03500 39.50100 23.35600
H  42.15300 45.48700 23.68400
H  43.36600 43.17700 31.88800
H  43.17500 40.39400 31.60000
H  45.17600 40.48800 32.40700
H  45.57300 42.09400 32.00100
H  45.78200 40.82800 30.78700
H  41.27500 41.26000 32.23700
H  40.57200 42.50900 31.41200
H  40.19000 43.06700 33.59500
H  41.59000 44.04200 33.30400
H  44.26100 36.20200 28.26200
H  45.24200 37.28600 29.07900
H  45.91500 36.57900 27.55400
H  45.76100 35.73700 25.59200
H  45.07200 35.02800 24.12700
H  44.03500 35.30800 25.57700
H  42.64400 41.16200 21.98200
H  43.66700 44.03400 21.96200
H  44.10900 41.00500 20.40400
H  45.37800 40.99200 21.72600
H  45.02000 42.42200 20.80900
H  41.46000 43.25000 20.70000
H  41.29300 44.59100 21.83700
H  39.75700 43.53500 23.15000
H  40.73600 42.14100 23.28400
H  39.77100 42.19000 21.90600
H  40.86200 47.20800 24.74600
H  42.25400 47.93500 25.47800
H  40.70200 47.97100 26.39100
H  40.92600 45.32000 30.65900
H  42.99100 46.27100 34.31800
H  43.52100 47.59100 33.20200
H  44.34700 45.99600 33.22500

