158

Mg 47.76200 24.50500 29.15000
C  48.85400 26.91400 31.41500
C  46.81000 22.47600 31.66900
C  46.90700 22.22600 26.84800
C  49.14700 26.56200 26.56500
N  47.69300 24.77500 31.24300
C  48.16900 25.80900 31.96700
C  47.68300 25.66700 33.44400
C  47.22200 24.19700 33.58100
C  47.24800 23.79700 32.07800
C  47.99000 23.16800 34.45700
C  46.55600 26.70800 33.81600
C  46.85500 27.78200 34.86500
H  45.79800 28.04000 35.99000
N  46.87200 22.66300 29.23700
C  46.58600 21.92400 30.39300
C  46.06800 20.62200 30.11300
C  46.00100 20.56000 28.67400
C  46.57600 21.85300 28.16700
C  45.55700 19.67100 31.15500
C  45.47400 19.49400 27.83900
O  45.33400 19.70700 26.63900
C  45.03000 18.18700 28.42000
N  48.03100 24.40700 26.97800
C  47.53200 23.38200 26.26000
C  47.84200 23.52800 24.73100
C  48.19500 24.99000 24.66900
C  48.39600 25.38900 26.11400
C  49.05500 22.61700 24.32000
C  47.05700 25.78800 24.03400
C  46.91300 25.72000 22.50800
N  48.84100 26.32800 28.99900
C  49.38100 27.00900 27.84800
C  50.10500 28.14300 28.34600
C  49.96500 28.14100 29.75300
C  49.17100 27.07700 30.07100
C  50.89100 29.17700 27.61900
C  50.27400 28.76100 30.98300
O  50.97800 29.76600 31.25600
C  49.47400 28.06100 32.13500
C  50.44600 27.67900 33.17900
O  51.20300 26.73700 33.20600
O  50.20800 28.58200 34.21100
C  51.13800 28.32800 35.33100
H  46.53400 21.96000 32.59100
H  46.68700 21.53300 26.03300
H  49.55100 27.08900 25.69800
H  48.58700 25.71500 34.05000
H  46.18900 24.24500 33.92600
H  48.94000 23.56000 34.82200
H  48.27100 22.31100 33.84500
H  47.40400 22.78600 35.29200
H  45.63400 26.23000 34.14700
H  46.22900 27.07600 32.84400
H  47.05700 28.73700 34.38000
H  47.76500 27.43500 35.35500
H  45.85800 18.68100 30.81200
H  44.46700 19.64200 31.13800
H  45.94500 19.94800 32.13500
H  45.83900 17.51500 28.71000
H  44.47300 17.57700 27.70900
H  44.29700 18.37700 29.20400
H  47.01700 23.26200 24.07100
H  49.07500 25.27900 24.09500
H  49.62500 22.09500 25.08900
H  49.82400 23.19000 23.80100
H  48.54700 21.78700 23.83000
H  47.19400 26.83000 24.32500
H  46.20000 25.49300 24.64000
H  47.62100 25.03200 22.04600
H  47.12700 26.73200 22.16300
H  45.85400 25.47300 22.43500
H  50.52700 29.21400 26.59200
H  51.96800 29.01200 27.59300
H  50.68400 30.13000 28.10500
H  48.59200 28.59200 32.49400
H  52.17300 28.09500 35.08200
H  50.73000 27.49000 35.89700
H  51.22900 29.19900 35.98000
Mg 8.91700 48.81600 26.12900
C  7.11600 49.13100 28.93800
C  11.70000 49.98900 27.56600
C  10.58300 48.46200 23.08200
C  5.83100 48.63400 24.18900
N  9.32400 49.49500 28.05600
C  8.50800 49.40800 29.13700
C  9.26900 49.96200 30.42400
C  10.58500 50.57800 29.84700
C  10.51800 50.05700 28.33800
C  10.77900 52.06200 30.01400
C  9.62700 48.81500 31.39300
C  9.01300 48.90700 32.73700
H  8.99000 47.64400 33.49300
N  10.88400 48.99600 25.45200
C  11.92000 49.48800 26.27200
C  13.17200 49.31600 25.50500
C  12.89500 48.78600 24.17000
C  11.37500 48.67800 24.19600
C  14.54000 49.43300 26.16400
C  13.82100 48.23800 23.09800
O  13.36000 47.76200 22.03500
C  15.29700 48.32500 23.26000
N  8.25700 48.62300 23.85000
C  9.16800 48.48200 22.83500
C  8.45100 48.15200 21.46000
C  7.00300 48.60800 21.79800
C  6.94600 48.59600 23.36300
C  8.96400 48.71800 20.10400
C  5.98800 47.52800 21.22400
C  5.27100 47.94800 19.97600
N  6.90300 48.84700 26.44800
C  5.78300 48.62700 25.61100
C  4.55000 48.71000 26.45800
C  5.05400 48.91100 27.77900
C  6.45300 48.96500 27.69700
C  3.21100 48.46600 25.96500
C  4.69100 48.98800 29.12400
O  3.56100 48.89700 29.65000
C  6.00400 49.13100 29.94900
C  6.05200 47.99000 30.92900
O  6.78200 47.00300 30.82100
O  5.13100 48.24300 31.92700
C  4.83900 47.05100 32.72700
H  12.60600 50.37600 28.03700
H  11.08900 48.43300 22.11400
H  4.87700 48.46700 23.68400
H  8.69600 50.63000 31.06500
H  11.48100 50.10400 30.24900
H  10.11800 52.46200 30.78200
H  10.63800 52.62800 29.09300
H  11.78400 52.19100 30.41600
H  10.68500 48.77800 31.65100
H  9.30800 47.86400 30.96600
H  8.05700 49.43000 32.76300
H  9.54400 49.66400 33.31400
H  14.97100 48.43100 26.15500
H  14.33100 49.74000 27.18800
H  15.12200 50.23800 25.71500
H  15.64300 49.35800 23.23000
H  15.79900 47.90900 22.38600
H  15.71200 47.72700 24.07000
H  8.52500 47.06600 21.39700
H  6.80400 49.62300 21.45700
H  9.83100 49.31900 20.37900
H  8.24100 49.44000 19.72400
H  9.21800 47.96900 19.35400
H  5.19500 47.17500 21.88400
H  6.50500 46.59200 21.01100
H  5.39600 49.02200 19.83500
H  4.20800 47.72600 20.06600
H  5.83600 47.48500 19.16800
H  2.49100 48.99500 26.59000
H  2.93600 47.41200 26.00900
H  3.06700 48.76700 24.92700
H  5.95900 50.06100 30.51700
H  3.76600 46.85800 32.74000
H  5.09900 47.35500 33.74000
H  5.40300 46.16000 32.45000

