158

Mg 9.11900 4.39500 27.50700
C  10.02000 2.59800 30.35600
C  7.16500 6.40000 29.35200
C  8.43400 6.24000 24.75400
C  10.51400 1.98700 25.51100
N  8.58100 4.36400 29.60200
C  9.20500 3.66600 30.65500
C  8.88000 4.32700 32.04900
C  7.83500 5.47300 31.67300
C  7.77400 5.37100 30.09400
C  6.48200 5.45400 32.46700
C  10.13200 4.60900 32.94400
C  9.65700 5.27200 34.22100
H  10.08200 4.62800 35.55100
N  7.98800 6.16600 27.11200
C  7.20700 6.82100 28.04900
C  6.36900 7.82100 27.41500
C  6.93400 7.87600 26.11700
C  7.86800 6.71900 25.92900
C  5.37700 8.68700 28.13300
C  6.69500 8.94300 25.00800
O  7.25500 8.87500 23.88200
C  5.67500 10.03000 25.17500
N  9.43800 4.13900 25.46600
C  9.15900 5.04300 24.48400
C  9.44800 4.51000 23.06700
C  9.99100 3.08300 23.34100
C  9.93200 3.03500 24.87200
C  8.20800 4.65400 22.11800
C  11.30300 2.72500 22.63300
C  11.30500 1.41100 21.87500
N  10.06500 2.57800 27.77000
C  10.66700 1.72000 26.88500
C  11.35400 0.60700 27.59100
C  11.15600 1.00000 28.98100
C  10.32300 2.08900 29.01500
C  12.06700 -0.56600 27.07800
C  11.51900 0.66600 30.32000
O  12.18700 -0.31100 30.63900
C  10.82100 1.67600 31.24500
C  9.96900 0.96100 32.20300
O  8.84400 0.59700 32.00800
O  10.57300 0.82100 33.40600
C  9.84200 0.22900 34.51500
H  6.58700 7.00900 30.05100
H  8.12600 6.71600 23.82000
H  11.00600 1.22800 24.89900
H  8.37800 3.59600 32.68200
H  8.24700 6.46900 31.83500
H  5.65600 5.42100 31.75600
H  6.24000 6.36800 33.00800
H  6.45700 4.64900 33.20100
H  10.75400 5.23900 32.30900
H  10.70500 3.70500 33.15100
H  8.56800 5.30400 34.21200
H  10.13100 6.25300 34.18300
H  5.59800 9.74000 27.95400
H  5.46700 8.58000 29.21400
H  4.35100 8.39700 27.90600
H  5.74500 10.74700 24.35700
H  6.04300 10.54300 26.06300
H  4.73500 9.50400 25.33900
H  10.24400 5.11700 22.63500
H  9.23500 2.36600 23.02100
H  7.99000 3.65400 21.74200
H  8.47300 5.25300 21.24700
H  7.39700 5.09300 22.70000
H  12.18600 2.76000 23.27200
H  11.51500 3.52500 21.92400
H  10.31600 1.02000 21.63500
H  11.78800 0.76200 22.60500
H  11.78000 1.43300 20.89500
H  11.40000 -1.08500 26.38900
H  12.38000 -1.17700 27.92500
H  12.96000 -0.25100 26.53800
H  11.62100 2.10500 31.84900
H  9.07600 0.95800 34.78000
H  10.40200 -0.07600 35.39900
H  9.30600 -0.65200 34.16100
Mg -5.78500 25.77100 25.71700
C  -4.69500 27.34500 28.72800
C  -7.64700 23.50100 27.86000
C  -6.41700 23.89100 23.11800
C  -3.34300 27.61600 24.02500
N  -6.03900 25.33000 28.07400
C  -5.54700 26.20600 28.99200
C  -6.10700 25.80100 30.37700
C  -7.05100 24.60200 30.13300
C  -6.91700 24.43000 28.60000
C  -6.63100 23.25600 30.81000
C  -6.81700 26.98800 31.10400
C  -6.39800 27.32600 32.54700
H  -5.85900 26.26700 33.54100
N  -6.95000 24.00000 25.43900
C  -7.64800 23.23600 26.44600
C  -8.40500 22.16600 25.78300
C  -8.01400 22.17600 24.40600
C  -7.06900 23.36000 24.27300
C  -9.36400 21.22600 26.50100
C  -8.40800 21.32700 23.19900
O  -7.98800 21.47300 22.00600
C  -9.38600 20.25400 23.38800
N  -5.02000 25.79500 23.76600
C  -5.47900 24.87600 22.82900
C  -4.79200 25.12600 21.44900
C  -3.74400 26.26300 21.81000
C  -4.07500 26.68900 23.25400
C  -4.05400 23.81300 20.89500
C  -3.69800 27.47100 20.96300
C  -2.30300 27.70700 20.22000
N  -4.22100 27.15600 26.23200
C  -3.38800 27.87800 25.39600
C  -2.82800 28.97000 26.08800
C  -3.32600 28.81500 27.38700
C  -4.17800 27.68500 27.44300
C  -1.87000 30.00900 25.53500
C  -3.20300 29.28500 28.78500
O  -2.45400 30.17200 29.17400
C  -4.04000 28.36800 29.61600
C  -2.98600 27.70200 30.53400
O  -2.26000 26.76900 30.19900
O  -3.10000 28.21000 31.80200
C  -2.16100 27.60400 32.81500
H  -8.37700 22.93600 28.44300
H  -6.52300 23.33600 22.18400
H  -2.57200 28.25000 23.58200
H  -5.27300 25.50000 31.01000
H  -8.09700 24.75700 30.39600
H  -6.06900 23.41400 31.73000
H  -6.00500 22.59800 30.20800
H  -7.51100 22.70900 31.14800
H  -7.87400 26.72300 31.10400
H  -6.73000 27.94100 30.58200
H  -7.08800 27.96000 33.10400
H  -5.46600 27.87100 32.40200
H  -9.27100 21.29000 27.58500
H  -9.07600 20.23000 26.16700
H  -10.37800 21.44600 26.16500
H  -9.84400 20.07000 22.41600
H  -10.13900 20.47600 24.14500
H  -8.82900 19.39600 23.76300
H  -5.55500 25.46900 20.75000
H  -2.71300 25.90800 21.79800
H  -4.63600 23.37600 20.08400
H  -3.80800 23.17700 21.74600
H  -3.20800 24.07900 20.26200
H  -3.78200 28.42000 21.49100
H  -4.46800 27.34100 20.20300
H  -1.56000 27.25200 20.87400
H  -2.24200 28.78300 20.05400
H  -2.21200 27.11200 19.31100
H  -2.16200 30.37200 24.55000
H  -0.86000 29.60800 25.44800
H  -1.81800 30.86900 26.20300
H  -4.68100 28.93200 30.29300
H  -1.31200 28.28800 32.82100
H  -1.82100 26.59700 32.57400
H  -2.65100 27.52400 33.78600

