158

Mg 55.27300 23.23100 45.41700
C  53.00800 25.62500 44.53100
C  52.92500 20.88100 44.27900
C  57.68300 20.91500 45.17900
C  57.62900 25.66300 46.17700
N  53.15000 23.27500 44.70100
C  52.35100 24.38800 44.34800
C  51.04000 24.03800 43.70300
C  51.08700 22.55100 44.04000
C  52.46600 22.19100 44.32000
C  50.13300 22.00900 45.12300
C  50.92500 24.33400 42.19300
C  49.62800 24.83800 41.68900
H  48.90600 24.09700 40.52000
N  55.34300 21.14800 44.82900
C  54.27400 20.41500 44.42400
C  54.68600 19.02000 44.14500
C  56.12900 19.03900 44.34600
C  56.42100 20.37000 44.79300
C  53.72600 18.00200 43.61300
C  56.99600 17.92700 43.92400
O  56.53100 16.89800 43.49000
C  58.51700 17.90700 44.02500
N  57.40300 23.31100 45.45600
C  58.12200 22.20900 45.40600
C  59.57200 22.40000 45.88200
C  59.63600 23.92400 46.00100
C  58.11000 24.35800 45.86700
C  59.87900 21.69200 47.23800
C  60.34400 24.69300 44.78800
C  60.92100 26.08300 45.23100
N  55.34900 25.27100 45.54000
C  56.29800 26.15100 45.85500
C  55.71300 27.57500 45.86700
C  54.48100 27.30300 45.35800
C  54.31600 25.93000 45.10400
C  56.39600 28.83200 46.15000
C  53.28300 28.06400 44.89500
O  53.04600 29.22600 44.81200
C  52.39500 27.04300 44.23800
C  52.47100 27.58900 42.87900
O  53.51900 27.58400 42.23500
O  51.20300 27.96000 42.42900
C  51.23800 28.25900 41.00300
H  52.15100 20.19000 43.93900
H  58.41400 20.10300 45.17100
H  58.30300 26.45700 46.50500
H  50.25600 24.56600 44.24500
H  50.72600 21.99100 43.17800
H  49.30600 22.68100 45.35200
H  50.58400 21.91200 46.11000
H  49.78400 21.06300 44.70900
H  51.32600 23.41800 41.75800
H  51.60300 25.09700 41.81000
H  49.80000 25.87900 41.41700
H  48.87400 24.91500 42.47200
H  53.68200 18.12100 42.53100
H  52.77100 18.24500 44.07900
H  53.98700 16.99800 43.95000
H  58.97200 18.63700 43.35500
H  58.77300 16.93200 43.61100
H  58.94000 17.94500 45.02900
H  60.12600 22.01300 45.02700
H  60.06400 24.24500 46.95000
H  59.08100 20.99600 47.49600
H  60.02700 22.23000 48.17400
H  60.83600 21.17600 47.15300
H  59.55100 24.82300 44.05200
H  61.15700 24.08600 44.39000
H  61.01100 26.14900 46.31500
H  60.31500 26.86700 44.77800
H  61.97100 26.13300 44.94200
H  56.80100 29.17400 45.19700
H  57.15900 28.77300 46.92600
H  55.60500 29.49200 46.50600
H  51.40100 27.23700 44.64000
H  51.92200 29.07800 40.78100
H  50.24500 28.67600 40.83800
H  51.46700 27.28800 40.56300
Mg -11.77000 38.74700 40.77200
C  -9.90200 35.81900 39.98200
C  -9.12400 40.57400 39.30000
C  -13.71500 41.47800 40.61500
C  -14.40300 36.64900 41.44400
N  -9.72900 38.29700 39.72200
C  -9.23000 37.01600 39.48100
C  -7.97800 37.03700 38.61100
C  -7.66300 38.58900 38.59600
C  -8.88300 39.22300 39.31300
C  -6.33500 38.99300 39.24600
C  -8.22600 36.38500 37.23900
C  -6.96800 35.62800 36.74400
H  -6.39600 36.02300 35.40000
N  -11.38300 40.81400 40.34600
C  -10.22300 41.39900 39.81800
C  -10.47200 42.85500 39.84800
C  -11.80400 43.07200 39.98600
C  -12.38700 41.75700 40.30100
C  -9.32800 43.71200 39.36300
C  -12.53900 44.42600 39.96800
O  -11.78400 45.39600 40.02600
C  -14.02200 44.67800 40.08500
N  -13.72500 39.04500 40.92300
C  -14.27700 40.27700 41.04800
C  -15.84200 40.16600 41.22000
C  -16.05900 38.59800 41.20700
C  -14.61600 38.03400 41.27300
C  -16.56900 40.82900 42.44200
C  -16.75300 38.09400 39.88800
C  -17.59900 36.80200 40.06700
N  -12.11700 36.67900 40.90700
C  -13.19700 35.96200 41.27400
C  -12.92000 34.57800 41.32700
C  -11.66700 34.46500 40.85600
C  -11.19300 35.74700 40.59900
C  -13.93300 33.48900 41.57900
C  -10.59400 33.55300 40.59500
O  -10.56400 32.35200 40.68900
C  -9.38600 34.35700 39.98200
C  -8.32300 34.09500 40.92000
O  -7.54400 33.14900 40.74500
O  -8.07500 35.17800 41.79600
C  -6.89700 35.11500 42.73800
H  -8.47700 41.20200 38.68400
H  -14.45000 42.28500 40.62500
H  -15.27100 36.03600 41.69500
H  -7.27100 36.51300 39.25500
H  -7.57800 38.91000 37.55800
H  -5.58900 39.55200 38.68300
H  -5.83100 38.13400 39.69000
H  -6.55700 39.75400 39.99400
H  -8.60200 37.13100 36.53900
H  -9.07900 35.70800 37.29100
H  -7.19400 34.56500 36.66100
H  -6.13000 35.65300 37.44100
H  -8.32700 43.35900 39.61200
H  -9.36100 44.73400 39.74000
H  -9.36900 43.76400 38.27500
H  -14.27700 45.69500 39.78700
H  -14.33600 44.45800 41.10500
H  -14.68800 44.13400 39.41400
H  -16.28300 40.66900 40.36000
H  -16.67900 38.23000 42.02500
H  -17.22300 41.64200 42.12500
H  -15.80900 41.24600 43.10300
H  -17.15900 40.08800 42.98300
H  -15.93100 37.91500 39.19400
H  -17.42900 38.82400 39.44300
H  -17.89400 36.63700 41.10300
H  -17.03800 35.99600 39.59400
H  -18.59900 36.84300 39.63700
H  -14.72300 33.55300 40.83000
H  -14.24900 33.58500 42.61800
H  -13.60200 32.46400 41.41100
H  -9.05500 33.92900 39.03600
H  -6.33000 34.20500 42.54400
H  -7.22700 35.29400 43.76100
H  -6.21700 35.89600 42.39700

