158

Mg 46.44600 23.94700 28.19700
C  47.05400 26.12100 30.78100
C  45.86300 21.40300 30.42900
C  46.25300 21.88800 25.56400
C  47.19800 26.61900 26.03800
N  46.47000 23.78800 30.26700
C  46.69500 24.84000 31.21300
C  46.46700 24.33700 32.64300
C  46.32800 22.76000 32.44900
C  46.13800 22.65600 30.96700
C  47.64600 22.00000 32.86000
C  45.22900 25.03100 33.26700
C  45.61700 25.68700 34.68400
H  44.49700 25.89400 35.76700
N  46.08300 21.93600 28.02200
C  45.82100 21.04300 29.04000
C  45.44300 19.78900 28.47500
C  45.51500 19.90500 27.02500
C  45.95600 21.28300 26.82600
C  45.21300 18.58700 29.38400
C  45.27400 18.86700 25.98600
O  45.35800 19.20100 24.78200
C  45.02000 17.43300 26.32900
N  46.62200 24.19500 26.13900
C  46.48400 23.27000 25.27500
C  46.62000 23.72700 23.80300
C  46.47900 25.27400 23.97000
C  46.76400 25.38200 25.44800
C  47.93700 23.27000 23.11700
C  45.18100 25.91000 23.48700
C  43.99800 25.74800 24.34800
N  47.01500 25.97600 28.30900
C  47.38200 26.93000 27.39200
C  47.90800 28.11700 27.94200
C  47.80300 27.83200 29.31400
C  47.24500 26.54200 29.46900
C  48.40700 29.39300 27.25800
C  48.14500 28.40300 30.60400
O  48.65900 29.49500 30.89500
C  47.56300 27.30500 31.62100
C  48.65300 26.98100 32.63900
O  49.50500 26.09500 32.46700
O  48.47000 27.75100 33.77200
C  49.60100 27.52800 34.76000
H  45.79400 20.64100 31.20800
H  46.31400 21.23800 24.68900
H  47.44600 27.46100 25.38900
H  47.38000 24.57700 33.18700
H  45.45300 22.38300 32.97800
H  48.55200 22.59800 32.76500
H  47.76200 21.06200 32.31700
H  47.66600 21.67000 33.89800
H  44.41800 24.35200 33.52700
H  44.98000 25.75400 32.49000
H  46.09300 26.60800 34.34800
H  46.51600 25.23600 35.10400
H  44.23400 18.12500 29.25500
H  45.22800 18.73900 30.46300
H  45.97800 17.84200 29.16300
H  45.94100 16.95000 26.65500
H  44.87300 17.04000 25.32300
H  44.14600 17.27600 26.96000
H  45.79100 23.33800 23.21200
H  47.34900 25.71200 23.48200
H  48.77100 23.93200 23.34800
H  47.83200 23.01800 22.06200
H  48.35800 22.41900 23.65300
H  45.18800 25.53100 22.46500
H  45.55600 26.93200 23.43400
H  44.01800 26.59400 25.03500
H  44.06700 24.81200 24.90200
H  43.17000 25.82500 23.64400
H  48.35400 30.32600 27.81700
H  47.94400 29.58100 26.28900
H  49.41000 29.15300 26.90400
H  46.68500 27.69300 32.13700
H  49.72600 26.48100 35.03600
H  49.28100 27.98300 35.69700
H  50.53900 27.94100 34.38800
Mg 8.95500 48.29800 27.71800
C  7.08600 47.89100 30.64900
C  11.65900 48.90900 29.78100
C  10.73800 49.33700 25.08100
C  6.05900 48.70400 25.95000
N  9.24800 48.67100 29.95800
C  8.42900 48.18400 30.91800
C  9.07600 48.26700 32.36800
C  10.49800 48.80900 32.12400
C  10.49000 48.74700 30.49200
C  10.85800 50.22500 32.65200
C  8.98700 46.98800 33.28000
C  8.40400 47.18100 34.67200
H  8.50100 45.94300 35.59000
N  10.94500 48.85300 27.46700
C  11.90400 48.91500 28.42000
C  13.18000 49.18300 27.82900
C  12.91100 49.31700 26.42000
C  11.48400 49.16800 26.23700
C  14.46200 49.37600 28.67200
C  13.92700 49.50600 25.31000
O  13.51400 49.66000 24.13100
C  15.35000 49.48900 25.63200
N  8.50800 48.91500 25.71300
C  9.44300 49.28300 24.83300
C  8.75100 49.78700 23.59600
C  7.23600 49.48800 23.87300
C  7.27300 48.93300 25.25100
C  9.11300 51.21800 23.06300
C  6.53100 48.56800 22.84500
C  6.86200 48.76400 21.33100
N  6.92100 48.11900 28.08000
C  5.83700 48.27700 27.25300
C  4.62000 48.01200 28.04000
C  5.05800 47.89900 29.38300
C  6.47800 47.91300 29.34400
C  3.25500 48.03900 27.51200
C  4.64000 47.78200 30.78600
O  3.51600 47.73300 31.31000
C  5.92800 47.68300 31.63200
C  5.87200 46.21400 32.21000
O  6.12500 45.12300 31.68800
O  5.47600 46.32500 33.52300
C  5.40800 45.09100 34.27100
H  12.47200 49.16400 30.46400
H  11.27300 49.58300 24.16100
H  5.14600 48.90300 25.38600
H  8.48000 49.04200 32.85100
H  11.26300 48.13200 32.50200
H  10.07000 50.60400 33.30300
H  11.00400 50.95500 31.85600
H  11.78900 50.23900 33.21900
H  9.96400 46.58700 33.54900
H  8.50900 46.14200 32.78600
H  7.40700 47.58700 34.50400
H  8.96000 47.98100 35.16000
H  14.57200 50.46000 28.64300
H  15.33600 49.02100 28.12600
H  14.39200 48.94700 29.67100
H  15.71300 50.18900 26.38500
H  15.84200 49.81000 24.71400
H  15.66400 48.49200 25.94000
H  8.99700 49.06400 22.81800
H  6.76000 50.46200 23.98800
H  8.23900 51.83700 23.26800
H  9.37100 51.30400 22.00800
H  9.85000 51.74300 23.67100
H  5.48500 48.87300 22.87100
H  6.68300 47.52300 23.11200
H  7.27400 49.76700 21.22100
H  5.93300 48.81000 20.76200
H  7.52300 47.99500 20.93200
H  3.22200 48.93100 26.88700
H  2.45800 48.03600 28.25600
H  3.20800 47.12600 26.91900
H  5.97100 48.42700 32.42700
H  4.62200 44.39700 33.97200
H  5.35300 45.37500 35.32200
H  6.32600 44.52800 34.10200

