158

Mg 47.67200 16.21500 27.58000
C  45.75300 16.25700 30.56000
C  50.06500 17.99600 29.25200
C  49.24500 16.43200 24.76300
C  44.80900 14.87500 26.00500
N  47.82700 16.90700 29.70500
C  47.02400 16.74200 30.79700
C  47.64200 17.22600 32.10200
C  48.93300 18.08100 31.57700
C  48.94200 17.60300 30.01300
C  48.78500 19.60500 31.62900
C  48.06300 15.97400 33.02300
C  47.68900 16.23000 34.55900
H  47.74400 17.62300 35.16500
N  49.53700 17.00700 27.12000
C  50.37800 17.65100 27.92600
C  51.50200 18.09300 27.17500
C  51.32600 17.59200 25.84600
C  49.95000 16.99200 25.82600
C  52.69900 18.61700 27.95000
C  52.17300 17.62800 24.61000
O  51.92800 16.91700 23.55500
C  53.49900 18.41600 24.64600
N  47.04200 15.74300 25.64500
C  47.92800 15.89300 24.62900
C  47.26200 15.41200 23.23200
C  45.89400 14.83800 23.68100
C  45.89500 15.12300 25.18900
C  47.22000 16.60200 22.28500
C  45.73200 13.29200 23.41100
C  44.84800 12.78600 22.23500
N  45.63700 15.70600 28.08700
C  44.70700 15.15400 27.38900
C  43.53000 14.86600 28.28100
C  43.94300 15.25300 29.51700
C  45.18800 15.82700 29.32600
C  42.21700 14.19600 27.91700
C  43.58600 15.29500 30.91400
O  42.51900 14.99300 31.40600
C  44.72600 15.91500 31.65300
C  44.15400 17.01900 32.50100
O  43.78100 18.11200 32.04200
O  44.06300 16.71900 33.85800
C  43.59500 17.72900 34.75600
H  50.76100 18.57300 29.86400
H  49.75400 16.45800 23.79800
H  43.98000 14.33200 25.54600
H  46.93500 17.97700 32.45500
H  49.88700 17.68900 31.92900
H  47.95500 19.81900 32.30200
H  48.46300 20.05300 30.68800
H  49.74600 20.08100 31.82400
H  49.11000 15.67700 32.95900
H  47.36700 15.17200 32.77400
H  48.35500 15.66300 35.21000
H  46.70800 15.78000 34.70600
H  53.32000 17.83200 28.38100
H  52.41400 19.34700 28.70700
H  53.35200 19.17000 27.27500
H  53.39800 19.30500 25.26800
H  53.73700 18.69300 23.61900
H  54.30100 17.79100 25.03800
H  47.91700 14.68200 22.75600
H  45.02900 15.39400 23.31800
H  47.84800 17.46500 22.51000
H  46.19900 16.96800 22.39600
H  47.54700 16.16600 21.34100
H  45.40700 12.74000 24.29300
H  46.74400 12.93200 23.22900
H  45.41300 12.08600 21.61900
H  44.41500 13.58900 21.63800
H  43.93700 12.23700 22.47300
H  42.30100 13.15500 28.23000
H  41.92600 14.33700 26.87600
H  41.34000 14.57400 28.44300
H  45.11400 15.17800 32.35600
H  43.07400 17.22400 35.56800
H  42.92800 18.45600 34.29200
H  44.42700 18.28500 35.18800
Mg 6.29500 54.90900 41.19400
C  6.13000 51.39900 40.97200
C  9.52500 54.82200 40.01400
C  6.34000 58.21900 41.10200
C  3.13100 54.85400 42.68600
N  7.57200 53.27800 40.35300
C  7.34600 51.94500 40.46800
C  8.55800 51.14900 40.10800
C  9.72400 52.24500 40.06100
C  8.93300 53.53100 40.19300
C  10.93900 52.13700 41.07500
C  8.37100 50.23100 38.81300
C  7.55700 50.80400 37.58800
H  8.13900 50.98400 36.19200
N  7.63500 56.27900 40.45600
C  8.91800 56.08100 40.06600
C  9.53000 57.33800 39.70000
C  8.64000 58.39300 39.96700
C  7.47000 57.64800 40.54300
C  10.92200 57.40900 39.14700
C  8.84600 59.82000 39.68300
O  9.86700 60.17700 39.16700
C  7.71700 60.82000 39.70500
N  4.81300 56.31800 41.65600
C  5.20200 57.63400 41.70600
C  4.11600 58.53100 42.25500
C  3.08500 57.43000 42.73600
C  3.72000 56.13000 42.39600
C  4.54700 59.46400 43.39200
C  1.77300 57.44800 41.98800
C  0.96400 58.75200 42.23100
N  4.79300 53.41300 41.58400
C  3.61400 53.51900 42.32000
C  3.14000 52.19500 42.66400
C  4.11100 51.35400 42.10100
C  5.10400 52.14500 41.41600
C  1.78900 51.95700 43.47100
C  4.50800 49.93900 42.05100
O  4.05800 48.82900 42.45500
C  5.80100 49.93500 41.29500
C  5.57700 49.00000 40.04400
O  5.02000 49.39200 39.03100
O  5.95400 47.67700 40.27700
C  5.60400 46.81000 39.17700
H  10.58100 54.57200 39.88700
H  6.40400 59.30700 41.03800
H  2.14800 54.71500 43.14200
H  8.80700 50.58900 41.00900
H  10.13400 52.34400 39.05600
H  11.08100 53.00900 41.71500
H  11.90000 51.97000 40.58900
H  10.65100 51.28900 41.69600
H  7.90800 49.26000 38.98900
H  9.36400 50.06200 38.39600
H  7.20900 51.82300 37.75600
H  6.59000 50.31700 37.46000
H  11.29400 56.43300 38.83500
H  11.49500 57.81600 39.98000
H  11.01700 57.93200 38.19500
H  7.86600 61.60000 38.95900
H  7.62600 61.21500 40.71700
H  6.79900 60.32500 39.38700
H  3.76600 59.02400 41.34800
H  2.88500 57.26700 43.79500
H  4.65100 59.07900 44.40600
H  3.81700 60.27200 43.33400
H  5.43800 60.03200 43.12500
H  1.19900 56.60100 42.36300
H  1.95500 57.18100 40.94700
H  0.10400 58.35600 42.77000
H  0.67300 59.32800 41.35300
H  1.38400 59.47200 42.93300
H  0.92100 52.39000 42.97600
H  2.01000 52.47900 44.40200
H  1.66400 50.89200 43.67000
H  6.56900 49.43000 41.88000
H  6.01000 47.21700 38.25000
H  4.52300 46.68900 39.10300
H  6.05200 45.81600 39.18400

