158

Mg 26.31200 49.85600 27.09200
C  24.22800 51.39400 29.42000
C  28.43000 49.15800 29.65000
C  28.46500 48.74500 24.76100
C  24.16500 51.05600 24.49400
N  26.28300 50.19900 29.25200
C  25.30000 50.71300 30.00600
C  25.57800 50.53500 31.49200
C  27.08600 50.24000 31.49700
C  27.21700 49.76900 30.08800
C  28.04500 51.39000 31.97100
C  24.64400 49.44800 32.21700
C  23.92400 49.89800 33.50000
H  24.64900 50.48300 34.68400
N  28.15000 49.03500 27.20800
C  28.85900 48.75500 28.36000
C  30.13000 48.17000 28.04300
C  30.19200 48.08400 26.61400
C  28.86300 48.59600 26.10000
C  31.02100 47.68700 29.20800
C  31.33300 47.63900 25.70200
O  31.10300 47.50600 24.49500
C  32.73700 47.39200 26.16800
N  26.45200 50.10900 24.84800
C  27.36300 49.47200 24.17600
C  27.06100 49.54800 22.64300
C  25.55200 49.91400 22.65900
C  25.30700 50.34100 24.06800
C  28.00600 50.54600 21.92500
C  24.61100 48.74200 22.19100
C  24.77400 47.33100 22.97400
N  24.55400 51.08400 26.92300
C  23.78200 51.48800 25.81500
C  22.64100 52.31900 26.26900
C  22.74400 52.20200 27.66100
C  23.91200 51.47400 28.01300
C  21.48700 52.90500 25.41500
C  22.13900 52.67000 28.94600
O  21.21100 53.44200 29.20900
C  23.02400 52.07800 30.12100
C  23.38300 53.26900 31.08800
O  23.94100 54.25500 30.78800
O  22.80900 52.98300 32.35900
C  23.01200 54.13800 33.27500
H  29.14800 48.90700 30.43400
H  29.05700 48.17700 24.04000
H  23.53300 51.35900 23.65700
H  25.38600 51.51400 31.93200
H  27.26100 49.37200 32.13200
H  28.92500 50.99400 32.47800
H  27.46700 52.01600 32.65100
H  28.42700 51.93900 31.11100
H  25.31600 48.65000 32.53000
H  23.99200 49.07000 31.42900
H  23.46200 48.97500 33.84900
H  23.10400 50.56700 33.23700
H  30.50000 47.22400 30.04700
H  31.35000 48.61600 29.67500
H  31.78500 47.05700 28.75300
H  33.45800 47.57600 25.37200
H  32.84700 46.31300 26.28100
H  32.93200 47.92000 27.10200
H  27.16000 48.56300 22.18600
H  25.49000 50.68000 21.88500
H  27.43700 51.41300 21.58700
H  28.55100 50.03700 21.13000
H  28.77300 50.94400 22.58900
H  24.85800 48.64800 21.13400
H  23.56600 48.99400 22.37400
H  25.00100 46.52800 22.27300
H  23.84300 47.21500 23.52800
H  25.57600 47.43900 23.70400
H  21.07900 52.14900 24.74400
H  21.95400 53.66500 24.78900
H  20.66200 53.39200 25.93500
H  22.35500 51.41900 30.67600
H  22.96000 55.08600 32.74000
H  24.05800 54.23100 33.56900
H  22.34800 54.01500 34.13100
Mg -11.22300 39.93000 39.02300
C  -10.40100 36.40200 38.81800
C  -7.85200 40.48600 38.79500
C  -12.05800 42.99700 38.35600
C  -14.59300 38.87600 39.14700
N  -9.37900 38.52500 38.96000
C  -9.26100 37.18300 38.86500
C  -7.84600 36.71700 38.76400
C  -7.03700 38.06200 39.02000
C  -8.12800 39.12700 38.88400
C  -6.14900 37.98600 40.29600
C  -7.59400 36.06400 37.31100
C  -7.86900 36.88100 36.00200
H  -8.92000 36.49300 34.95200
N  -10.04900 41.62600 38.60400
C  -8.66800 41.66500 38.61300
C  -8.29000 43.05600 38.37100
C  -9.51300 43.79200 38.24700
C  -10.63200 42.82800 38.35200
C  -6.85100 43.57800 38.31700
C  -9.64400 45.30900 38.03800
O  -8.63300 46.06800 38.09300
C  -10.97400 45.98100 37.84000
N  -13.10100 40.81800 38.79400
C  -13.17400 42.15000 38.49400
C  -14.63900 42.65600 38.58800
C  -15.43900 41.37600 38.92100
C  -14.34700 40.27000 38.98000
C  -14.96800 43.90800 39.55700
C  -16.55100 41.00700 37.86500
C  -17.92200 40.65500 38.46400
N  -12.29400 38.13600 39.13300
C  -13.64400 37.79600 39.06400
C  -13.90500 36.48500 38.99600
C  -12.67000 35.84900 38.88500
C  -11.71200 36.90200 38.96100
C  -15.23400 35.81800 39.20000
C  -12.00200 34.53800 38.73500
O  -12.39200 33.37300 38.59900
C  -10.52900 34.94900 38.72700
C  -9.89300 34.18200 39.80100
O  -10.12800 34.25400 40.97600
O  -9.04700 33.29800 39.17400
C  -8.27500 32.55600 40.18600
H  -6.80600 40.79400 38.73300
H  -12.42500 43.99200 38.09600
H  -15.63000 38.53600 39.10000
H  -7.59000 35.95200 39.49700
H  -6.40800 38.23100 38.14700
H  -5.09900 38.00800 40.00600
H  -6.20300 37.03200 40.82100
H  -6.51600 38.75800 40.97200
H  -8.21000 35.16600 37.26800
H  -6.57000 35.70600 37.20400
H  -6.96000 36.85400 35.40200
H  -8.17500 37.91800 36.14100
H  -6.16800 42.78200 38.01900
H  -6.49900 43.93000 39.28600
H  -6.70800 44.46700 37.70300
H  -11.46200 45.81100 38.79900
H  -11.52200 45.75200 36.92500
H  -10.79000 47.05500 37.86700
H  -14.79600 42.89900 37.53700
H  -15.89900 41.36600 39.91000
H  -15.66100 43.59900 40.33900
H  -15.47400 44.68800 38.98800
H  -14.06700 44.33500 39.99800
H  -16.17700 40.08500 37.41900
H  -16.50400 41.73800 37.05800
H  -17.92000 40.93600 39.51700
H  -18.10300 39.58000 38.46400
H  -18.74300 41.11500 37.91300
H  -15.61000 35.77500 38.17800
H  -15.80600 36.45900 39.87000
H  -15.00700 34.82900 39.59800
H  -10.13200 34.47900 37.82700
H  -8.77300 31.59900 40.33800
H  -8.12600 32.98600 41.17600
H  -7.34600 32.15900 39.77700

