158

Mg 16.32400 52.28900 24.83200
C  17.89500 51.28600 27.76900
C  13.46300 52.86100 26.66700
C  14.54400 52.74700 22.03200
C  19.04200 50.94600 23.06700
N  15.72000 52.03000 27.04200
C  16.57100 51.77100 28.02700
C  15.83700 52.06100 29.41200
C  14.42400 52.47400 28.99900
C  14.50300 52.38100 27.45700
C  13.33900 51.49800 29.59200
C  16.56300 53.26700 30.03900
C  16.83500 53.28900 31.53100
H  16.00100 52.36400 32.45100
N  14.25800 52.81500 24.33000
C  13.30000 53.10500 25.23200
C  12.05200 53.50700 24.55600
C  12.35900 53.48100 23.23300
C  13.79100 52.94200 23.11900
C  10.86000 53.87200 25.41800
C  11.47600 53.79700 22.10700
O  11.92100 53.77300 20.92300
C  10.02200 54.17300 22.23800
N  16.72700 51.80600 22.76100
C  15.85200 52.14800 21.76400
C  16.40300 51.88800 20.34700
C  17.81000 51.50400 20.68100
C  17.91200 51.37900 22.27500
C  15.64000 50.80800 19.57200
C  18.88600 52.44900 20.03500
C  19.21300 53.69800 20.88500
N  18.27900 51.36700 25.29900
C  19.17900 50.81100 24.43500
C  20.25000 50.29400 25.23300
C  19.80800 50.46500 26.52100
C  18.53900 51.02700 26.54200
C  21.54200 49.75900 24.81900
C  20.12800 50.37200 27.95300
O  21.10100 49.85400 28.48600
C  18.93700 50.98000 28.80800
C  18.46800 49.88500 29.65900
O  17.59400 49.03200 29.38500
O  19.16600 49.90000 30.79900
C  18.87300 48.84800 31.79300
H  12.58700 53.02200 27.29900
H  14.06700 53.19400 21.15700
H  19.74800 50.48900 22.37000
H  15.89000 51.13400 29.98300
H  14.20300 53.49400 29.31500
H  13.78200 50.54700 29.88700
H  12.53800 51.27600 28.88600
H  12.96000 51.96100 30.50300
H  16.24900 54.25600 29.70600
H  17.55100 53.23500 29.57900
H  16.56100 54.30400 31.82300
H  17.87500 53.06300 31.76500
H  10.11800 53.07500 25.37700
H  10.27400 54.72300 25.07100
H  11.03800 54.12000 26.46400
H  9.82300 55.20000 22.54700
H  9.45800 53.55000 22.93200
H  9.49000 54.25200 21.28900
H  16.41400 52.89700 19.93600
H  18.04300 50.52100 20.27100
H  15.16000 51.25600 18.70300
H  14.79600 50.47900 20.17900
H  16.18700 50.00500 19.07700
H  18.67900 52.74100 19.00500
H  19.85200 51.96100 19.90200
H  18.40400 53.85900 21.59700
H  19.18600 54.47400 20.11900
H  20.17100 53.66200 21.40400
H  21.97200 50.58500 24.25200
H  21.26900 48.87400 24.24600
H  22.16000 49.60400 25.70400
H  19.36200 51.74800 29.45600
H  17.80300 48.87000 32.00100
H  19.29500 49.06000 32.77500
H  19.27200 47.90800 31.41100
Mg -1.52200 34.68800 27.35000
C  -3.28600 32.77200 29.99800
C  -0.29000 36.63600 29.80000
C  -0.84800 36.68400 24.97500
C  -3.41100 32.63600 25.07800
N  -1.84300 34.71100 29.68600
C  -2.49000 33.86100 30.49000
C  -2.18000 34.19000 32.00200
C  -1.24500 35.43000 31.89200
C  -1.10000 35.64600 30.36400
C  -1.68200 36.67800 32.65800
C  -1.45100 33.07200 32.77000
C  -2.21900 32.18400 33.72700
H  -1.69200 32.08700 35.21000
N  -0.57700 36.33200 27.39900
C  -0.08300 37.03200 28.49000
C  0.58900 38.22100 27.98300
C  0.46600 38.25500 26.57100
C  -0.35600 37.07300 26.26500
C  1.54200 39.06400 28.84400
C  1.04400 39.20900 25.59600
O  0.95800 39.09500 24.36600
C  1.57700 40.43700 26.04100
N  -2.14100 34.65300 25.26200
C  -1.62400 35.63000 24.51200
C  -1.96700 35.37300 23.00100
C  -2.48600 33.91700 23.06600
C  -2.69800 33.70200 24.54200
C  -3.01500 36.38300 22.44800
C  -1.53900 32.80600 22.41800
C  -0.34800 32.33300 23.36000
N  -2.99200 32.99200 27.46600
C  -3.59500 32.39200 26.44400
C  -4.30600 31.23500 26.91400
C  -4.31200 31.31700 28.37700
C  -3.44800 32.44100 28.62900
C  -4.97500 30.20400 25.95600
C  -4.79900 30.78500 29.64900
O  -5.47100 29.78000 29.89500
C  -4.11500 31.71800 30.72100
C  -5.14100 32.29100 31.59500
O  -5.88800 33.20900 31.29200
O  -5.21600 31.62600 32.77700
C  -6.25900 31.92400 33.71300
H  0.32600 37.11700 30.56400
H  -0.66200 37.40500 24.17600
H  -3.72500 31.96400 24.27700
H  -3.10800 34.55400 32.44300
H  -0.23700 35.24400 32.26300
H  -2.65300 36.96200 32.25100
H  -0.80900 37.33000 32.68800
H  -1.98100 36.37600 33.66200
H  -0.56900 33.41300 33.31300
H  -1.25900 32.40500 31.93000
H  -2.14300 31.21000 33.24200
H  -3.22800 32.57500 33.85700
H  2.37800 39.50100 28.29800
H  1.95600 38.58500 29.73200
H  1.08300 40.01700 29.10900
H  1.05800 40.85800 26.90100
H  1.71100 41.11800 25.20000
H  2.57100 40.08600 26.31800
H  -0.98200 35.35600 22.53500
H  -3.40000 33.74500 22.49800
H  -2.49700 36.84200 21.60500
H  -3.37200 37.07200 23.21300
H  -3.88200 35.85400 22.05100
H  -0.98200 33.11900 21.53500
H  -1.97800 31.85900 22.10300
H  -0.32700 32.87700 24.30500
H  0.62900 32.30400 22.87600
H  -0.45600 31.34500 23.80700
H  -4.31300 29.51400 25.43300
H  -5.41500 30.67900 25.07900
H  -5.68500 29.58600 26.50500
H  -3.57000 30.99500 31.32800
H  -6.86400 32.78300 33.42200
H  -5.80100 32.19600 34.66400
H  -6.83900 31.03600 33.96400

