158

Mg -3.17100 17.06000 27.07500
C  -3.55400 14.87000 29.84700
C  -3.17700 19.74100 29.35400
C  -2.89000 19.09800 24.55300
C  -3.45100 14.32900 25.02800
N  -3.16200 17.27300 29.37400
C  -3.33400 16.24400 30.26300
C  -3.33600 16.78500 31.67400
C  -3.36300 18.33900 31.46200
C  -3.22800 18.48500 29.97100
C  -4.50800 19.22300 32.25100
C  -2.14600 16.25500 32.53500
C  -1.70700 16.98400 33.74700
H  -1.55700 16.10200 35.02700
N  -2.91000 19.09100 27.00300
C  -2.99300 20.02700 28.00700
C  -2.85500 21.33300 27.45400
C  -2.57500 21.12600 26.08800
C  -2.84700 19.71200 25.81900
C  -2.92000 22.57400 28.31800
C  -2.10500 22.07200 25.02300
O  -1.81600 21.75600 23.87700
C  -1.78800 23.45500 25.39800
N  -3.22300 16.71700 25.13000
C  -3.09800 17.76600 24.27400
C  -3.16400 17.25700 22.78300
C  -3.17600 15.70000 22.93900
C  -3.28600 15.53500 24.45000
C  -4.21100 17.85600 21.78600
C  -2.11700 14.86100 22.26200
C  -0.67800 15.04400 22.78500
N  -3.39600 14.97200 27.33100
C  -3.50200 14.00600 26.36900
C  -3.75000 12.73100 26.98100
C  -3.80600 13.01500 28.39900
C  -3.53800 14.39900 28.51700
C  -3.91900 11.37400 26.34600
C  -3.99400 12.47200 29.74800
O  -4.20200 11.34900 30.16700
C  -3.86700 13.65100 30.74000
C  -2.70500 13.22400 31.56500
O  -1.54600 13.36700 31.29400
O  -3.19400 12.63700 32.77600
C  -2.16900 11.89500 33.50200
H  -3.37100 20.60000 30.00000
H  -2.87600 19.66600 23.62100
H  -3.83200 13.49800 24.43000
H  -4.18200 16.32400 32.18300
H  -2.44000 18.73700 31.88200
H  -4.92700 19.89900 31.50700
H  -4.04600 19.81900 33.03800
H  -5.24800 18.53000 32.65300
H  -1.29800 16.04100 31.88500
H  -2.69100 15.43200 32.99600
H  -2.48900 17.72200 33.92200
H  -0.74300 17.45800 33.55600
H  -3.35500 22.40300 29.30300
H  -3.65900 23.21400 27.83700
H  -1.96900 23.10500 28.36000
H  -2.68100 23.86800 25.86800
H  -1.36000 23.98000 24.54400
H  -1.01700 23.54900 26.16200
H  -2.21100 17.46300 22.29500
H  -4.12700 15.32100 22.56300
H  -3.70100 18.32800 20.94600
H  -4.81600 18.66400 22.19700
H  -4.72800 17.10400 21.19000
H  -2.20400 14.96800 21.18000
H  -2.35600 13.81400 22.44400
H  -0.11500 15.57400 22.01600
H  -0.20600 14.12800 23.13900
H  -0.79300 15.66800 23.67200
H  -4.88600 11.26700 25.85400
H  -4.00800 10.58300 27.09100
H  -3.16700 11.23000 25.57100
H  -4.67700 13.77000 31.46000
H  -1.36700 11.61100 32.82100
H  -2.60400 10.99100 33.92800
H  -1.73700 12.50900 34.29200
Mg 47.65600 16.45300 28.77200
C  45.62200 15.98000 31.78100
C  49.79100 18.20600 30.72600
C  49.22100 17.28900 25.92800
C  45.02300 15.08200 26.89800
N  47.62500 17.06500 31.09100
C  46.78500 16.76000 32.05400
C  47.36500 17.20600 33.41900
C  48.66300 18.01400 33.01000
C  48.68800 17.85700 31.46600
C  48.81200 19.42800 33.52600
C  47.57900 15.98200 34.33700
C  47.91000 16.19400 35.80900
H  47.70200 17.63900 36.52000
N  49.34600 17.42500 28.37500
C  50.14300 18.18300 29.29900
C  51.35400 18.50700 28.64000
C  51.14100 18.21500 27.29100
C  49.81800 17.59700 27.13800
C  52.51300 19.14100 29.33700
C  52.09200 18.38100 26.01400
O  51.84100 17.96700 24.91200
C  53.47600 18.75600 26.22700
N  47.10900 16.29700 26.58500
C  47.97100 16.67800 25.61200
C  47.32200 16.39000 24.19600
C  46.14600 15.42300 24.53100
C  46.06400 15.57200 26.09100
C  46.76700 17.68500 23.59700
C  46.44800 13.93400 24.23700
C  45.73300 13.10600 23.13200
N  45.76800 15.68000 29.18900
C  44.82700 15.09400 28.28000
C  43.64800 14.62900 29.02700
C  43.96100 14.92500 30.33500
C  45.25000 15.49800 30.43700
C  42.37200 14.04200 28.34600
C  43.40100 14.85300 31.64000
O  42.36200 14.38000 32.08700
C  44.49000 15.46700 32.58500
C  43.88200 16.62800 33.31500
O  43.71300 17.71700 32.80000
O  43.61700 16.36800 34.66700
C  42.97700 17.49800 35.35700
H  50.54100 18.68100 31.36200
H  49.70500 17.48900 24.97000
H  44.18100 14.68700 26.32600
H  46.62200 17.83500 33.90800
H  49.51000 17.42000 33.35300
H  48.69700 20.19600 32.76200
H  49.79300 19.61400 33.96400
H  48.10000 19.51300 34.34700
H  48.32900 15.26800 33.99700
H  46.62900 15.44600 34.33000
H  48.88000 15.71900 35.95800
H  47.21200 15.52000 36.30500
H  52.36300 19.13600 30.41600
H  52.75900 20.15100 29.00900
H  53.38900 18.52300 29.13700
H  53.85100 17.84700 26.69800
H  53.46500 19.63300 26.87400
H  54.03800 19.08300 25.35200
H  48.02400 15.94300 23.49300
H  45.14700 15.65600 24.16200
H  47.67000 18.14700 23.19800
H  46.33100 18.32400 24.36500
H  46.09800 17.53900 22.75000
H  46.27400 13.29500 25.10200
H  47.52200 13.98400 24.05900
H  46.48400 12.73400 22.43400
H  44.79700 13.50100 22.73900
H  45.39500 12.11200 23.42500
H  42.57600 13.07400 27.88900
H  41.99200 14.74000 27.60100
H  41.58800 14.00800 29.10300
H  44.89500 14.74400 33.29400
H  42.62700 17.02500 36.27500
H  42.14200 17.89200 34.77900
H  43.63500 18.28600 35.72200

