158

Mg 8.59800 3.82700 26.80500
C  9.58400 2.41300 29.67600
C  6.18300 5.63600 28.67100
C  7.40000 5.47800 23.98200
C  10.19500 1.52000 24.88200
N  8.01500 4.05700 28.86400
C  8.60800 3.32600 29.81100
C  7.96200 3.72800 31.18700
C  6.55100 4.19600 30.73000
C  6.90500 4.58200 29.35500
C  5.36400 3.16200 30.87700
C  8.79800 4.87800 31.96600
C  8.87900 4.75200 33.51400
H  10.21700 4.66200 34.28200
N  7.17900 5.40700 26.39200
C  6.32800 6.05000 27.27300
C  5.51700 7.03800 26.64300
C  5.96600 7.10200 25.29400
C  6.95600 5.99300 25.17700
C  4.49700 7.91300 27.38500
C  5.57300 8.08800 24.19700
O  5.79700 7.94100 23.01500
C  4.84300 9.29000 24.57700
N  8.82900 3.53600 24.66500
C  8.27100 4.30000 23.73900
C  8.36600 3.49800 22.36700
C  9.34300 2.35700 22.74600
C  9.45100 2.43000 24.18300
C  6.98300 3.00400 21.87400
C  10.68400 2.35900 21.95500
C  10.92600 1.09700 21.18100
N  9.77700 2.34800 27.14500
C  10.43100 1.50000 26.32300
C  11.16900 0.58800 27.03900
C  10.93500 0.91000 28.42400
C  10.05600 1.99700 28.43400
C  12.00200 -0.45700 26.39300
C  11.18300 0.51700 29.84200
O  11.81600 -0.41500 30.34100
C  10.32000 1.52200 30.71800
C  9.50300 0.86300 31.73400
O  8.56800 0.11800 31.44200
O  9.79600 1.29900 32.97000
C  9.25200 0.53000 34.08500
H  5.50600 6.20600 29.31100
H  6.89300 5.64700 23.02900
H  10.59200 0.70200 24.27700
H  7.89400 2.87500 31.86200
H  6.30800 5.06500 31.34200
H  5.61600 2.20400 31.33200
H  4.88700 3.18300 29.89700
H  4.71300 3.65000 31.60200
H  8.34800 5.86000 31.82500
H  9.81200 4.98300 31.57800
H  8.45700 3.75400 33.63500
H  8.15700 5.40800 34.00100
H  4.40200 7.53600 28.40300
H  3.52500 7.80200 26.90300
H  4.82400 8.94800 27.48200
H  4.92800 10.12100 23.87700
H  5.48900 9.45100 25.44000
H  3.82300 9.06300 24.88400
H  8.80900 4.21000 21.67000
H  8.77700 1.46800 22.46900
H  6.16700 3.10600 22.58800
H  7.01700 1.98900 21.48000
H  6.59300 3.58100 21.03500
H  11.55500 2.47200 22.60000
H  10.65100 3.08400 21.14200
H  10.55900 1.12600 20.15500
H  10.47200 0.20600 21.61500
H  12.01200 1.03200 21.11100
H  12.28500 -1.24500 27.09100
H  12.95300 -0.10700 25.99200
H  11.46800 -0.94400 25.57700
H  11.08300 2.09400 31.24700
H  10.06400 -0.01500 34.56700
H  8.50400 -0.20400 33.78700
H  8.93800 1.23700 34.85300
Mg 45.22700 5.50300 48.76900
C  42.80600 7.97700 47.91000
C  42.73200 3.19800 47.80100
C  47.58700 3.14500 48.80000
C  47.60800 8.02300 48.73800
N  42.99200 5.55500 47.84800
C  42.20600 6.67700 47.83300
C  40.76200 6.32200 47.50300
C  40.81400 4.80700 47.68700
C  42.23500 4.47400 47.83700
C  39.89700 4.27400 48.81200
C  40.34700 6.77200 46.00000
C  38.85600 6.77400 45.63400
H  38.46700 6.56500 44.17300
N  45.20900 3.48500 48.39600
C  44.06400 2.73400 48.06000
C  44.57200 1.33100 48.03800
C  45.91900 1.26100 48.33700
C  46.26800 2.67000 48.53500
C  43.61300 0.21400 47.66800
C  46.69600 -0.05500 48.22100
O  46.29400 -1.06600 47.67900
C  48.08500 -0.16100 48.82200
N  47.27300 5.61900 48.75100
C  48.07300 4.47500 48.87600
C  49.49600 4.77100 49.04600
C  49.44600 6.37100 49.27100
C  47.99500 6.72900 48.76400
C  50.15800 4.03500 50.21400
C  50.68800 7.09700 48.56700
C  51.00800 8.45200 49.23900
N  45.21700 7.55200 48.40300
C  46.28200 8.43000 48.46600
C  45.82900 9.77400 48.32000
C  44.43700 9.68300 48.10000
C  44.12000 8.32000 48.16700
C  46.69500 10.94400 48.44000
C  43.24700 10.39700 48.01000
O  43.03600 11.60600 48.06100
C  42.08400 9.30500 47.88300
C  41.15300 9.66000 49.06700
O  41.14500 9.17300 50.17300
O  40.10200 10.34100 48.52700
C  38.99800 10.43300 49.36900
H  41.94600 2.44100 47.83500
H  48.32100 2.34100 48.88600
H  48.28600 8.82400 49.03900
H  40.06800 6.82400 48.17700
H  40.33100 4.38500 46.80500
H  40.52900 3.74000 49.52200
H  39.16500 3.60600 48.35800
H  39.46500 5.09500 49.38400
H  41.03600 6.31100 45.29300
H  40.62900 7.80100 45.77800
H  38.36200 7.70300 45.91600
H  38.38000 6.08400 46.33000
H  43.77700 -0.75300 48.14300
H  43.58300 0.07100 46.58800
H  42.59200 0.47400 47.94700
H  48.83400 0.32900 48.20000
H  48.33500 -1.20800 48.99700
H  47.95100 0.42200 49.73300
H  50.07300 4.56400 48.14400
H  49.34600 6.60500 50.33000
H  49.41500 3.35000 50.62200
H  50.56100 4.55700 51.08200
H  50.99400 3.42500 49.87200
H  50.48200 7.33200 47.52300
H  51.53900 6.42500 48.45500
H  52.03800 8.34800 49.58000
H  50.29700 8.69800 50.02800
H  51.08700 9.24000 48.49000
H  47.43300 10.96900 47.63800
H  47.32100 10.91800 49.33200
H  46.18500 11.90500 48.36800
H  41.55200 9.55400 46.96400
H  38.54700 9.45400 49.20400
H  38.38700 11.16200 48.83700
H  39.17500 10.64000 50.42500

