158

Mg 6.85000 57.41200 41.86200
C  5.77900 54.08000 41.92900
C  9.83000 56.30600 40.51700
C  7.75400 60.66200 41.71000
C  3.66000 58.39200 43.02400
N  7.51600 55.35500 40.87900
C  7.02400 54.13000 41.24200
C  7.86600 53.02100 40.63700
C  9.25000 53.80500 40.63900
C  8.82800 55.26000 40.63400
C  10.11100 53.55400 41.86900
C  7.44900 52.60600 39.26900
C  7.47000 51.10900 38.86600
H  6.52200 50.56600 37.77300
N  8.53300 58.35800 41.13700
C  9.69300 57.76300 40.68500
C  10.65400 58.77200 40.41900
C  10.12500 60.03700 40.87100
C  8.74400 59.78100 41.19600
C  12.06900 58.49500 39.90400
C  10.79400 61.41700 40.71500
O  11.97800 61.48100 40.35200
C  10.09400 62.71100 40.95100
N  5.72300 59.26700 41.99800
C  6.42900 60.41900 42.13200
C  5.50000 61.54100 42.56400
C  4.17000 60.85600 42.98100
C  4.54700 59.41000 42.62800
C  6.13700 62.44200 43.67100
C  2.98600 61.37200 42.11500
C  1.65400 61.39900 42.95300
N  5.07900 56.46300 42.36700
C  3.90900 56.98300 42.92500
C  2.99100 55.92700 43.24600
C  3.77900 54.73300 43.05200
C  4.96400 55.13200 42.35900
C  1.59700 56.07800 43.72600
C  3.75800 53.33200 43.22100
O  2.86100 52.60500 43.68500
C  5.13900 52.84600 42.61400
C  4.88000 51.72700 41.71100
O  4.23700 51.78700 40.68300
O  5.19300 50.49700 42.14600
C  4.61200 49.29100 41.58600
H  10.85000 55.98400 40.29800
H  8.06500 61.70900 41.72000
H  2.71700 58.56400 43.54800
H  7.80900 52.15200 41.29300
H  9.88700 53.57900 39.78300
H  9.63600 52.95600 42.64600
H  10.28500 54.47400 42.42800
H  11.10000 53.11700 41.72800
H  7.92400 53.15200 38.45300
H  6.40200 52.87600 39.13700
H  7.21600 50.59400 39.79300
H  8.49000 50.86300 38.57100
H  12.27600 57.42900 39.99900
H  12.81300 58.92700 40.57400
H  12.26500 58.82000 38.88100
H  10.01900 62.94500 42.01300
H  9.16800 62.75600 40.37700
H  10.70900 63.54700 40.61600
H  5.27700 62.18000 41.71000
H  4.00400 60.97500 44.05200
H  6.91900 61.98100 44.27400
H  5.39600 63.01700 44.22600
H  6.71600 63.21700 43.16900
H  2.87100 60.74900 41.22800
H  3.08400 62.38400 41.72400
H  1.70900 62.17500 43.71600
H  1.54100 60.50100 43.56000
H  0.66600 61.40600 42.49100
H  1.69600 55.75800 44.76300
H  0.93500 55.51800 43.06600
H  1.26100 57.11500 43.72600
H  5.67700 52.45500 43.47700
H  5.08100 48.41100 42.02600
H  4.91500 49.34700 40.54000
H  3.52600 49.23700 41.65100
Mg 0.17100 42.34900 25.76300
C  2.58100 42.40000 28.32300
C  -2.02800 41.25300 28.13300
C  -2.10200 42.29800 23.48400
C  2.71500 43.15800 23.44800
N  0.31700 41.77600 27.97900
C  1.35200 41.99500 28.88100
C  0.87300 42.06300 30.31200
C  -0.51400 41.42200 30.24300
C  -0.77400 41.49000 28.70100
C  -0.71000 39.96200 30.68500
C  0.92900 43.50800 30.96100
C  1.88400 43.57700 32.19600
H  1.82600 42.48500 33.27600
N  -1.78000 41.83500 25.80100
C  -2.48700 41.35400 26.81400
C  -3.82300 41.00300 26.42100
C  -3.91500 41.52400 25.10300
C  -2.58000 41.99300 24.74600
C  -4.76900 40.43500 27.39800
C  -5.18400 41.58400 24.23200
O  -5.07400 42.04500 23.06500
C  -6.57400 41.13200 24.67400
N  0.26400 42.82700 23.73700
C  -0.84100 42.68400 22.97300
C  -0.50300 43.04700 21.50500
C  1.03500 43.44700 21.58600
C  1.42400 43.13400 22.97700
C  -0.91300 41.98200 20.52800
C  1.37000 44.92300 21.18600
C  1.01900 46.12900 22.14000
N  2.15600 42.59400 25.75900
C  3.06600 42.89900 24.78500
C  4.37700 43.04900 25.38800
C  4.22700 42.78200 26.74000
C  2.87200 42.57500 26.94400
C  5.59700 43.40000 24.56700
C  4.96300 42.66600 27.96300
O  6.19100 42.81800 28.20200
C  3.93900 42.51800 29.08000
C  4.33500 41.30000 29.87300
O  4.28400 40.13100 29.46600
O  4.83600 41.69300 31.10800
C  5.33200 40.61300 31.96600
H  -2.77800 40.89800 28.84200
H  -2.83300 42.10600 22.69500
H  3.46400 43.42200 22.69900
H  1.55100 41.36800 30.80800
H  -1.34000 41.98100 30.68400
H  0.12300 39.75100 31.35500
H  -0.94200 39.20700 29.93200
H  -1.57500 39.91400 31.34700
H  -0.06700 43.94100 31.05800
H  1.34200 44.17600 30.20600
H  1.72500 44.55700 32.64800
H  2.85400 43.59200 31.70000
H  -4.41700 39.61100 28.01800
H  -5.70500 40.08300 26.96500
H  -4.92900 41.26000 28.09200
H  -6.65200 40.07100 24.91100
H  -7.33100 41.49200 23.97700
H  -6.72400 41.59900 25.64700
H  -1.17000 43.90100 21.39300
H  1.63100 42.89100 20.86100
H  -1.35700 41.07800 20.94500
H  0.01200 41.64300 20.06300
H  -1.66400 42.36800 19.83900
H  0.94200 45.04600 20.19100
H  2.45200 45.02500 21.09400
H  1.71100 46.39900 22.93800
H  0.02400 46.02000 22.57200
H  0.84000 46.99000 21.49700
H  6.55300 43.34100 25.08700
H  5.45700 44.43900 24.26900
H  5.56600 42.85400 23.62400
H  3.88800 43.42200 29.68600
H  6.20100 40.15600 31.49400
H  4.63800 39.79300 32.15500
H  5.51700 41.13400 32.90600

