158

Mg 27.52500 49.69100 26.96600
C  25.58300 50.58400 29.75200
C  30.15800 49.15600 29.21800
C  29.51000 48.61200 24.39400
C  24.98000 50.45500 24.89100
N  27.77900 49.87400 29.24800
C  26.86400 50.20100 30.15900
C  27.26800 49.82400 31.59200
C  28.78300 49.56800 31.42900
C  28.93600 49.59100 29.86300
C  29.74100 50.65100 31.95400
C  26.44500 48.70400 32.29300
C  25.49500 49.11600 33.51100
H  25.80200 48.47000 34.87500
N  29.55600 48.99100 26.86300
C  30.45600 48.84400 27.86100
C  31.71700 48.19800 27.30400
C  31.60400 48.29500 25.88000
C  30.17200 48.63600 25.66000
C  32.84500 47.80300 28.19800
C  32.51600 48.01000 24.85200
O  32.28400 48.27000 23.63000
C  33.84200 47.48300 25.18300
N  27.33200 49.69000 24.99000
C  28.23200 49.10900 24.11800
C  27.68400 49.07300 22.66200
C  26.25500 49.62500 22.83000
C  26.19800 49.99400 24.36000
C  28.57700 49.82400 21.62700
C  25.04300 48.60900 22.48600
C  23.82000 49.20200 21.76500
N  25.67900 50.44800 27.18000
C  24.75800 50.74500 26.25500
C  23.60500 51.29400 26.85900
C  23.83100 51.20800 28.29500
C  25.11000 50.65900 28.40300
C  22.27300 51.70100 26.21600
C  23.30300 51.48400 29.66100
O  22.20300 51.80800 30.03600
C  24.49300 51.11800 30.66600
C  24.78300 52.33900 31.47100
O  25.62600 53.23900 31.29100
O  23.98200 52.20200 32.52700
C  24.08700 53.38300 33.41700
H  30.97800 49.05300 29.93200
H  30.07300 48.18800 23.56000
H  24.08300 50.73300 24.33400
H  27.10000 50.73800 32.16200
H  29.15200 48.56800 31.65700
H  29.24200 51.42600 32.53600
H  30.27400 51.08400 31.10800
H  30.45400 50.12000 32.58400
H  27.19400 48.07400 32.77200
H  25.92500 48.07400 31.57100
H  24.51700 48.76100 33.18600
H  25.25800 50.17600 33.60300
H  32.53800 47.55600 29.21400
H  33.51700 48.65900 28.26900
H  33.32600 46.88100 27.87000
H  34.20200 48.09100 26.01300
H  34.49100 47.58800 24.31300
H  33.78000 46.42900 25.45500
H  27.66800 48.03100 22.34500
H  26.19900 50.51600 22.20400
H  29.50800 50.15400 22.08700
H  28.13400 50.64200 21.05800
H  28.95800 49.07900 20.92800
H  24.68100 48.09000 23.37400
H  25.41700 47.89800 21.75000
H  24.04100 50.19600 21.37500
H  23.01200 49.43300 22.46000
H  23.42900 48.52300 21.00800
H  22.26500 51.38400 25.17300
H  22.15100 52.77400 26.37000
H  21.43700 51.28800 26.78000
H  24.06200 50.39100 31.35300
H  24.02700 54.39600 33.01800
H  24.95500 53.41400 34.07500
H  23.30400 53.41000 34.17400
Mg 10.55700 46.77300 25.51400
C  8.39900 47.22700 28.11100
C  13.13500 47.80300 27.47400
C  12.55000 46.35400 22.87800
C  7.83300 46.09500 23.38500
N  10.67400 47.70400 27.49100
C  9.77700 47.48000 28.44900
C  10.36400 47.67000 29.81100
C  11.81100 48.27000 29.50300
C  11.86100 47.87200 28.05000
C  11.86800 49.78300 29.75400
C  10.37400 46.27200 30.62900
C  11.29300 45.93100 31.78200
H  10.60100 45.12100 32.84500
N  12.53200 46.97400 25.21800
C  13.49100 47.36400 26.13100
C  14.87000 47.15100 25.65900
C  14.70400 46.60900 24.38400
C  13.17500 46.59900 24.09500
C  16.09000 47.64200 26.38000
C  15.69800 46.27900 23.33700
O  15.42500 45.82100 22.21300
C  17.17600 46.36000 23.69500
N  10.20500 46.45200 23.32200
C  11.23800 46.26100 22.46100
C  10.84000 46.05700 21.04900
C  9.29500 45.92100 21.22000
C  9.03200 46.18200 22.72600
C  11.26200 47.21700 20.24300
C  8.78400 44.54900 20.69300
C  8.23200 44.60100 19.23000
N  8.50200 46.72400 25.66600
C  7.48300 46.34600 24.73400
C  6.22300 46.35000 25.39500
C  6.52700 46.63000 26.75700
C  7.90700 46.87200 26.85800
C  4.84800 46.19300 24.88500
C  5.96700 46.69500 28.04400
O  4.78500 46.54900 28.45600
C  7.17000 46.95900 28.96000
C  7.27100 45.64400 29.78200
O  7.90800 44.66900 29.38400
O  6.59400 45.76300 31.00300
C  6.68000 44.49800 31.85400
H  14.01200 48.05200 28.07500
H  13.25400 46.40900 22.04500
H  6.88200 46.01400 22.85300
H  9.70000 48.44000 30.20300
H  12.57200 47.68200 30.01700
H  10.87400 50.22200 29.67700
H  12.41600 50.29300 28.96200
H  12.16700 50.03000 30.77300
H  10.36700 45.33800 30.06800
H  9.37100 46.37800 31.04300
H  11.67000 46.83900 32.25300
H  12.23400 45.47100 31.48100
H  16.00500 47.49300 27.45700
H  16.06800 48.71700 26.20000
H  17.04400 47.23300 26.04800
H  17.94600 46.15800 22.95100
H  17.28300 45.57900 24.44800
H  17.30800 47.40100 23.99100
H  11.23200 45.12600 20.63900
H  8.77500 46.71100 20.67800
H  12.15400 46.97000 19.66800
H  11.59500 48.08900 20.80600
H  10.46300 47.39500 19.52300
H  7.93400 44.11900 21.22200
H  9.50600 43.74300 20.82700
H  7.87400 45.60500 19.00100
H  7.43500 43.87500 19.06500
H  8.96600 44.27200 18.49500
H  4.90900 46.58400 23.86900
H  4.03600 46.76400 25.33600
H  4.53900 45.14900 24.83200
H  7.01300 47.63000 29.80500
H  7.63600 43.99700 31.70000
H  5.93900 43.73200 31.62500
H  6.50900 44.64800 32.92000

