158

Mg 53.85000 23.17900 44.33800
C  50.90200 24.97000 43.51000
C  52.20400 20.29900 43.25100
C  56.70200 21.62700 44.48600
C  55.35000 26.23400 45.14600
N  51.82200 22.72500 43.07000
C  50.72700 23.65500 43.12500
C  49.43100 22.83300 42.81500
C  49.91000 21.33400 43.04900
C  51.40600 21.43600 43.18200
C  49.13200 20.57000 44.25400
C  49.04200 23.24800 41.34800
C  47.60200 23.46300 41.10200
H  47.05200 22.96700 39.73400
N  54.38800 21.20500 43.90000
C  53.60200 20.12100 43.52800
C  54.47500 18.96300 43.34200
C  55.82600 19.42000 43.58700
C  55.67200 20.80900 43.97000
C  54.08400 17.62300 42.76100
C  57.12300 18.57200 43.44300
O  56.98100 17.42600 43.02100
C  58.60200 19.02300 43.74400
N  55.77700 23.82600 44.73100
C  56.81900 23.01400 44.72600
C  58.15000 23.72100 45.01000
C  57.73400 25.22300 45.27200
C  56.23400 25.10800 45.01100
C  59.03400 23.06400 46.05500
C  58.46700 26.32100 44.39700
C  59.96300 26.13700 44.19100
N  53.30600 25.26200 44.42500
C  53.97500 26.31900 44.77900
C  53.13600 27.50100 44.90300
C  51.86800 26.97100 44.42700
C  52.06300 25.63600 44.09100
C  53.47300 28.89200 45.48000
C  50.46900 27.32000 44.24300
O  49.89900 28.37700 44.39600
C  49.86400 26.05300 43.52400
C  49.58800 26.44400 42.18300
O  50.33000 26.44000 41.20200
O  48.28700 26.89200 42.16300
C  47.76400 27.35800 40.86900
H  51.63600 19.46100 42.84100
H  57.73300 21.27900 44.58100
H  55.78200 27.17500 45.49200
H  48.63000 23.04300 43.52300
H  49.71500 20.72600 42.16600
H  48.69600 19.62700 43.92200
H  48.31200 21.19600 44.60500
H  49.79600 20.38000 45.09800
H  49.34900 22.53000 40.58800
H  49.54400 24.14700 40.99200
H  47.37300 24.51400 41.27800
H  46.99600 22.88500 41.80000
H  54.67600 17.43000 41.86600
H  53.05200 17.63000 42.41000
H  54.31800 16.78200 43.41300
H  58.82600 19.31700 44.76900
H  58.69200 19.85100 43.04100
H  59.22400 18.18700 43.42600
H  58.64600 23.67800 44.04000
H  57.80300 25.38400 46.34800
H  59.99400 22.63300 45.77100
H  58.47900 22.25600 46.53100
H  59.42300 23.86700 46.68000
H  58.20800 27.25500 44.89500
H  57.89300 26.28700 43.47100
H  60.54200 26.67000 44.94600
H  60.24200 26.58000 43.23500
H  60.18400 25.07300 44.27600
H  53.17000 28.86200 46.52600
H  52.92300 29.65600 44.93100
H  54.54400 29.08800 45.53600
H  48.94700 25.85000 44.07700
H  48.04900 28.40900 40.91100
H  46.67800 27.28100 40.92700
H  48.18500 26.76900 40.05400
Mg 47.81400 15.46900 28.16000
C  45.54300 15.31900 30.78200
C  49.79600 17.47100 30.17300
C  50.08300 15.67800 25.65600
C  45.47800 13.91200 26.18800
N  47.58100 16.35700 30.20600
C  46.73400 15.93900 31.12900
C  47.08400 16.47300 32.53200
C  48.35400 17.34300 32.22000
C  48.58600 17.09200 30.72800
C  48.43400 18.81600 32.68800
C  47.29100 15.35700 33.60200
C  46.52300 15.58000 34.94100
H  46.52500 16.99800 35.56900
N  49.71100 16.39200 27.96600
C  50.33100 17.17800 28.91400
C  51.69900 17.56600 28.40400
C  51.77100 16.99300 27.06900
C  50.50700 16.31400 26.83600
C  52.73300 18.34500 29.27500
C  52.98900 17.08500 26.07300
O  53.03400 16.58800 24.95800
C  54.18700 17.92300 26.49600
N  47.83200 14.87900 26.27900
C  48.79800 15.11900 25.36800
C  48.32000 14.72100 23.97200
C  47.10900 13.76200 24.15700
C  46.82000 14.12600 25.66400
C  48.10500 15.96000 23.11100
C  47.19500 12.26900 23.81600
C  46.92500 11.24200 24.96400
N  45.84900 14.73300 28.33800
C  45.04400 14.13200 27.48500
C  43.79800 13.66400 28.18600
C  43.98600 14.15400 29.48700
C  45.22300 14.78600 29.54200
C  42.64700 12.83000 27.64700
C  43.47600 14.11100 30.78900
O  42.43300 13.55300 31.20500
C  44.32600 15.02500 31.70200
C  43.68100 16.18600 32.33000
O  43.71700 17.33900 31.90400
O  42.91500 15.75900 33.39200
C  42.20600 16.81800 34.16600
H  50.46500 18.02700 30.83200
H  50.67400 15.68500 24.73800
H  44.71100 13.53500 25.50700
H  46.30200 17.18700 32.79000
H  49.22000 16.79100 32.58500
H  47.53700 19.05800 33.25800
H  48.26200 19.40100 31.78500
H  49.33700 19.12400 33.21500
H  48.33900 15.26700 33.88900
H  46.94000 14.38400 33.26000
H  46.80000 14.97200 35.80300
H  45.49500 15.40700 34.62200
H  53.17800 19.21100 28.78500
H  53.59200 17.71600 29.50900
H  52.35000 18.70200 30.23100
H  53.81800 18.90600 26.78700
H  54.89300 17.99500 25.66900
H  54.56000 17.51800 27.43700
H  49.20700 14.18000 23.64200
H  46.32300 14.15200 23.51000
H  48.24200 16.73700 23.86300
H  47.09500 16.10600 22.72700
H  48.86000 16.01400 22.32600
H  48.15200 12.06100 23.33900
H  46.46600 12.11500 23.02100
H  46.83900 11.74300 25.92800
H  47.72500 10.50700 25.05100
H  45.97300 10.80600 24.66400
H  42.60300 11.81700 28.04700
H  42.77200 12.78300 26.56500
H  41.65100 13.23900 27.81700
H  44.60000 14.26300 32.43100
H  41.70000 17.47900 33.46300
H  42.85500 17.45300 34.77000
H  41.38500 16.49100 34.80500

