158

Mg 6.97900 2.92900 28.14500
C  8.57700 1.51400 30.95200
C  5.47900 5.18700 30.09400
C  5.31100 3.80500 25.45200
C  8.53100 0.29200 26.12500
N  7.09000 3.22200 30.34500
C  7.75800 2.63100 31.32900
C  7.53600 3.28400 32.72800
C  6.44500 4.40500 32.34600
C  6.27400 4.25500 30.81200
C  5.09900 4.25200 33.16300
C  8.87000 3.98400 33.24200
C  9.38200 3.32500 34.54500
H  10.02700 4.21900 35.68900
N  5.65500 4.40100 27.80000
C  5.12800 5.28500 28.71300
C  4.31900 6.23800 28.05100
C  4.19200 5.78800 26.69900
C  5.02800 4.59400 26.62800
C  3.67300 7.40300 28.73800
C  3.39200 6.35000 25.50800
O  3.30900 5.70900 24.43100
C  2.70600 7.72500 25.65700
N  6.87700 2.08000 26.15700
C  6.16200 2.71400 25.21400
C  6.30200 2.21000 23.79000
C  7.40000 1.09800 23.96100
C  7.68000 1.14800 25.48000
C  4.94500 1.60400 23.12100
C  8.58900 1.41900 23.02200
C  9.15600 0.11100 22.42400
N  8.25900 1.22000 28.42500
C  8.83300 0.34000 27.53800
C  9.79700 -0.55000 28.25800
C  9.66700 -0.16000 29.62600
C  8.72300 0.94600 29.63300
C  10.84500 -1.56900 27.71100
C  10.09800 -0.41300 30.98900
O  10.85300 -1.26400 31.47900
C  9.41800 0.64800 31.90000
C  8.55000 -0.07700 32.93200
O  7.47800 -0.57800 32.75100
O  9.19600 -0.23200 34.08400
C  8.49900 -0.73700 35.25900
H  4.97300 5.95200 30.68700
H  4.85500 4.10700 24.50600
H  8.95700 -0.45200 25.44800
H  7.06000 2.55000 33.37800
H  6.71500 5.40400 32.68900
H  5.26500 3.73600 34.10900
H  4.48100 3.65800 32.49000
H  4.50100 5.14200 33.35600
H  8.76000 5.06200 33.36500
H  9.65000 3.87600 32.48800
H  10.26400 2.74900 34.26300
H  8.61400 2.65300 34.92800
H  3.95200 8.37300 28.32700
H  4.00300 7.37000 29.77700
H  2.60100 7.20400 28.74400
H  2.18300 7.86200 24.71000
H  3.52800 8.42900 25.78200
H  1.96100 7.63600 26.44800
H  6.72200 2.85600 23.01900
H  6.99000 0.10500 23.77500
H  4.07300 1.74100 23.76100
H  4.96200 0.53000 22.93800
H  4.84600 2.21700 22.22600
H  9.39000 1.92900 23.55500
H  8.38800 2.03500 22.14500
H  8.91800 -0.78500 22.99700
H  10.18400 0.13800 22.06100
H  8.54200 0.05400 21.52500
H  11.42000 -1.92000 28.56800
H  11.40500 -1.01400 26.95900
H  10.43700 -2.41900 27.16400
H  10.23500 1.17900 32.38800
H  7.88000 -1.61200 35.06000
H  7.99400 0.13900 35.66500
H  9.32500 -0.93500 35.94100
Mg 36.08200 49.66300 25.81700
C  36.01100 47.67700 28.71800
C  34.43300 52.11400 27.31300
C  35.53100 51.07400 22.76600
C  37.73500 46.95300 24.24400
N  35.33000 49.83100 27.77900
C  35.52700 48.97700 28.87900
C  34.97700 49.68100 30.20900
C  34.42100 51.00400 29.66200
C  34.68500 50.95300 28.10100
C  32.89300 51.20300 29.92100
C  36.20200 49.87800 31.19300
C  36.00200 49.41300 32.65200
H  34.57000 49.20800 33.14700
N  35.26200 51.48800 25.14600
C  34.60500 52.37700 25.95000
C  34.13400 53.51100 25.09800
C  34.54100 53.24700 23.78100
C  35.14600 51.92000 23.82400
C  33.31300 54.64200 25.61800
C  34.55600 54.09800 22.55300
O  35.12700 53.78300 21.51600
C  33.85600 55.41700 22.59000
N  36.57700 49.08700 23.83900
C  36.27200 49.89500 22.78100
C  36.93400 49.42800 21.50400
C  37.73800 48.10900 21.90900
C  37.35800 48.07300 23.47500
C  36.05300 49.16200 20.23600
C  39.24500 48.11700 21.56600
C  40.17100 49.18100 22.13800
N  36.73200 47.75500 26.26400
C  37.39200 46.76400 25.52800
C  37.55200 45.57400 26.33800
C  37.06800 45.89500 27.61000
C  36.58500 47.20900 27.51400
C  38.14900 44.35400 25.85200
C  36.79400 45.34700 28.92300
O  36.91700 44.21200 29.32200
C  36.25700 46.54000 29.78000
C  35.06200 46.16600 30.60800
O  33.89700 46.41300 30.36300
O  35.47500 45.66200 31.80300
C  34.56200 45.23200 32.80700
H  33.90900 52.88200 27.88700
H  35.21000 51.52900 21.82700
H  38.31800 46.15100 23.78600
H  34.20500 49.03400 30.62500
H  34.90100 51.87300 30.11200
H  32.66600 52.08700 30.51700
H  32.38100 50.35500 30.37700
H  32.24100 51.27400 29.05100
H  36.42600 50.93800 31.07400
H  37.08300 49.32800 30.86400
H  36.49100 50.11500 33.32700
H  36.45100 48.42300 32.73900
H  33.05800 54.40100 26.65000
H  32.33400 54.86100 25.19100
H  33.85500 55.58800 25.61400
H  34.40000 55.98100 23.34800
H  32.78600 55.37000 22.79100
H  33.90700 56.01700 21.68100
H  37.74300 50.15600 21.44000
H  37.20200 47.28300 21.44200
H  36.28400 48.20300 19.77400
H  36.18100 49.91100 19.45500
H  34.98900 49.13700 20.47400
H  39.30300 48.28900 20.49100
H  39.55700 47.07600 21.65000
H  40.45000 49.73200 21.24000
H  41.03700 48.69200 22.58600
H  39.65600 49.80200 22.87100
H  37.41400 43.78600 25.28300
H  38.61000 43.76500 26.64500
H  38.99700 44.58300 25.20600
H  37.05100 46.86900 30.45000
H  33.54300 45.28800 32.42300
H  34.68600 45.90200 33.65800
H  34.79200 44.21900 33.13600

