158

Mg 54.59900 24.25000 44.59800
C  51.78300 26.32000 43.87500
C  52.57700 21.54800 43.68200
C  57.33400 22.26300 44.59600
C  56.36400 27.14700 45.33200
N  52.39400 23.97400 43.56800
C  51.44800 25.01600 43.53700
C  50.04900 24.42600 43.51700
C  50.35200 22.85600 43.64000
C  51.87000 22.74200 43.59900
C  49.76200 22.25000 44.91200
C  49.29400 24.69800 42.19400
C  49.98000 24.85800 40.77600
H  49.60200 24.01900 39.54000
N  54.91100 22.22300 44.23300
C  53.97200 21.23900 43.89400
C  54.56700 19.92200 43.72100
C  55.92500 20.05100 44.04700
C  56.14400 21.57500 44.32300
C  53.67800 18.70000 43.49300
C  56.91500 18.84600 44.13700
O  56.59700 17.67900 43.94300
C  58.31200 19.02900 44.60400
N  56.59300 24.67700 44.76000
C  57.58800 23.68500 44.77600
C  58.94500 24.23200 45.20000
C  58.61500 25.80600 45.43200
C  57.10800 25.96200 45.13000
C  59.76000 23.50700 46.30100
C  59.65600 26.79900 44.79800
C  60.28700 27.95000 45.70000
N  54.23100 26.33800 44.55400
C  55.00900 27.28200 45.08200
C  54.21400 28.47500 45.23000
C  52.97200 28.18300 44.75700
C  52.98500 26.82800 44.38900
C  54.83800 29.75900 45.80300
C  51.66700 28.70400 44.44900
O  51.24800 29.83400 44.67100
C  50.82800 27.51600 43.90300
C  50.33000 27.94900 42.52600
O  50.93100 27.95500 41.46700
O  49.00700 28.16800 42.68200
C  48.24600 28.61500 41.50400
H  51.81100 20.78400 43.52900
H  58.24400 21.66600 44.68300
H  56.85000 27.98100 45.84200
H  49.46200 24.83500 44.33900
H  49.93700 22.28800 42.80700
H  50.47000 22.03500 45.71200
H  49.22300 21.31100 44.78600
H  49.01600 22.90000 45.36900
H  48.71700 25.59100 42.43400
H  48.59200 23.89600 41.96600
H  51.05400 24.69400 40.86800
H  49.78000 25.92200 40.64700
H  53.61100 18.58300 42.41200
H  52.66200 18.88500 43.84100
H  54.11600 17.82100 43.96600
H  58.37200 19.39300 45.63000
H  58.71400 19.77600 43.91900
H  58.87400 18.09800 44.52700
H  59.54400 24.05100 44.30800
H  58.71400 25.98800 46.50200
H  59.23700 22.55600 46.39900
H  59.82200 23.99100 47.27600
H  60.76600 23.30400 45.93300
H  59.15500 27.26800 43.95100
H  60.52500 26.20600 44.51300
H  61.37100 28.04900 45.66200
H  59.99500 27.85300 46.74500
H  59.88800 28.92800 45.43000
H  53.95000 30.31800 46.09900
H  55.37900 30.19900 44.96500
H  55.43100 29.46000 46.66800
H  49.99200 27.24100 44.54600
H  48.77600 29.48600 41.11600
H  47.22400 28.89700 41.75400
H  48.24400 27.86500 40.71300
Mg 6.80600 53.38600 41.09200
C  6.33500 49.92300 40.61400
C  9.92000 52.92800 39.94800
C  7.00300 56.68200 40.94800
C  3.45500 53.55900 42.18600
N  8.01600 51.57000 40.23700
C  7.60800 50.28100 40.15500
C  8.78800 49.39900 39.66300
C  10.02100 50.35500 39.74200
C  9.29600 51.68900 39.91000
C  11.13000 50.04300 40.80700
C  8.65300 48.78600 38.20700
C  8.33900 49.82700 37.08100
H  7.20500 49.42600 36.24500
N  8.30400 54.65300 40.50500
C  9.53400 54.24500 40.12700
C  10.33700 55.41600 39.84200
C  9.52000 56.56200 40.08400
C  8.21500 56.00900 40.50000
C  11.74200 55.50900 39.18300
C  10.03000 57.97600 40.06900
O  11.20800 58.17200 39.86800
C  9.15800 59.10900 40.36500
N  5.38600 54.89800 41.32300
C  5.71400 56.20000 41.26600
C  4.56800 57.10500 41.78200
C  3.51000 56.13200 42.38500
C  4.12200 54.74600 41.92300
C  5.01100 58.16100 42.92700
C  2.00200 56.44600 42.03800
C  0.95400 56.30200 43.27300
N  5.17000 52.06300 41.31900
C  3.88000 52.26000 41.82400
C  3.15800 51.02800 41.96700
C  4.15100 50.08900 41.57900
C  5.29700 50.74700 41.16100
C  1.76800 50.72800 42.50600
C  4.32700 48.62700 41.49400
O  3.58200 47.69000 41.79900
C  5.81600 48.44900 41.00700
C  5.65600 47.55100 39.81900
O  5.00300 47.84700 38.87200
O  6.35000 46.37500 39.95500
C  6.37700 45.52200 38.68000
H  10.93800 52.78500 39.57900
H  6.95600 57.75600 41.13800
H  2.46000 53.67300 42.62000
H  8.81500 48.54400 40.33900
H  10.44000 50.42500 38.73800
H  11.05700 50.77800 41.60800
H  12.12200 50.03100 40.35400
H  10.87900 49.10300 41.29800
H  7.79200 48.12500 38.31300
H  9.54100 48.20400 37.96300
H  9.20900 49.87400 36.42700
H  8.24200 50.83700 37.47800
H  11.97700 54.58500 38.65400
H  12.52700 55.69200 39.91600
H  11.83300 56.29300 38.43200
H  8.28600 59.09700 39.71200
H  9.75400 60.02100 40.33800
H  8.82900 59.04100 41.40200
H  4.17200 57.67600 40.94200
H  3.62600 55.99500 43.46000
H  6.01700 57.99000 43.31200
H  4.37300 58.10300 43.80900
H  5.06300 59.15900 42.49200
H  1.67700 55.69900 41.31500
H  1.95700 57.42700 41.56400
H  0.30900 57.17800 43.34400
H  1.55100 56.26300 44.18300
H  0.34900 55.39600 43.31200
H  1.48400 49.75400 42.10900
H  1.03300 51.49200 42.25300
H  1.66200 50.67700 43.59000
H  6.35800 47.83500 41.72600
H  7.43100 45.26700 38.57300
H  6.15400 46.00300 37.72700
H  5.68600 44.68000 38.71800

