158

Mg -1.95500 17.28500 26.89100
C  -2.29300 15.27000 29.84900
C  -2.39400 20.02100 28.83500
C  -1.96500 19.03500 24.13300
C  -1.97000 14.25200 25.04100
N  -2.60300 17.55400 29.05800
C  -2.52600 16.66200 30.07400
C  -2.94900 17.28400 31.39600
C  -3.07500 18.80200 31.00900
C  -2.62200 18.78800 29.54800
C  -4.43900 19.44500 31.21800
C  -2.00000 17.15200 32.67400
C  -2.72900 16.94900 34.01900
H  -2.04100 16.17100 35.17200
N  -2.05600 19.25600 26.55900
C  -2.29600 20.25400 27.40800
C  -2.32700 21.59400 26.65400
C  -2.14700 21.26400 25.33400
C  -2.08000 19.75500 25.32600
C  -2.65900 22.87800 27.37400
C  -2.08700 22.22000 24.09800
O  -2.25200 21.85400 22.95700
C  -1.73800 23.71500 24.34900
N  -2.17900 16.73600 24.84700
C  -1.92200 17.67500 23.93600
C  -1.84900 17.00600 22.54800
C  -1.31400 15.60200 22.90400
C  -1.90200 15.50700 24.33500
C  -3.17500 16.93900 21.67700
C  0.20100 15.48400 22.92800
C  0.93100 15.41000 21.60600
N  -2.17000 15.16500 27.29300
C  -2.17700 14.05800 26.40200
C  -2.34800 12.81000 27.17800
C  -2.35100 13.26400 28.54500
C  -2.34800 14.66700 28.53500
C  -2.42300 11.46300 26.58300
C  -2.34900 12.80400 29.95100
O  -2.31700 11.65800 30.34900
C  -2.38000 14.13900 30.79400
C  -1.12800 14.09300 31.57700
O  0.00500 14.24100 31.14400
O  -1.49500 13.78100 32.82500
C  -0.30300 13.68700 33.71200
H  -2.48100 20.92400 29.44300
H  -1.82600 19.56500 23.18800
H  -1.65200 13.38700 24.45600
H  -3.93200 16.83400 31.53700
H  -2.35700 19.42600 31.54100
H  -5.02300 18.95400 31.99700
H  -4.94300 19.45000 30.25200
H  -4.33900 20.50200 31.46700
H  -1.50400 18.11500 32.79700
H  -1.15100 16.49100 32.50200
H  -3.72600 16.63500 33.71000
H  -2.85100 17.95700 34.41500
H  -3.03700 22.63000 28.36600
H  -3.54300 23.34400 26.93700
H  -1.80600 23.55400 27.31700
H  -0.99900 23.74100 25.14900
H  -2.63000 24.23200 24.70200
H  -1.34200 24.28300 23.50700
H  -1.10800 17.49400 21.91600
H  -1.65000 14.80800 22.23700
H  -3.09400 16.04000 21.06500
H  -3.16100 17.72300 20.91900
H  -3.96700 17.10000 22.40800
H  0.39600 14.53400 23.42700
H  0.61500 16.25100 23.58300
H  0.21100 15.36200 20.78900
H  1.66700 14.61600 21.73300
H  1.59300 16.27400 21.54500
H  -1.44000 11.00200 26.48000
H  -2.99300 11.45400 25.65400
H  -3.02300 10.94600 27.33200
H  -3.27700 14.00600 31.40000
H  0.06700 14.70700 33.81500
H  0.48700 12.98700 33.43900
H  -0.61500 13.39900 34.71600
Mg 26.11500 0.02800 29.21100
C  27.90900 0.02100 32.09600
C  23.21200 -0.06900 31.23600
C  24.19300 -0.31600 26.47100
C  29.01700 -0.27000 27.30100
N  25.61300 -0.13700 31.47000
C  26.57600 0.08000 32.35000
C  25.92900 0.43900 33.72100
C  24.42000 0.24700 33.50500
C  24.35000 -0.06800 31.99200
C  23.90400 -0.82400 34.54500
C  26.24400 1.95200 34.39000
C  27.03800 1.87400 35.72500
H  26.40900 2.41900 37.02000
N  24.00300 -0.13500 28.88900
C  23.04200 -0.10600 29.83200
C  21.73500 -0.03800 29.21600
C  22.01700 -0.10000 27.80900
C  23.44600 -0.14700 27.66100
C  20.38000 0.06600 29.93900
C  20.97600 -0.13300 26.71200
O  21.32000 -0.15100 25.54000
C  19.51200 -0.16800 26.96100
N  26.55200 -0.37600 27.14000
C  25.57500 -0.49600 26.25300
C  26.19600 -0.66700 24.79700
C  27.70000 -0.25800 25.06500
C  27.78000 -0.24400 26.57000
C  25.85800 -2.06600 24.06700
C  28.04300 1.16900 24.45000
C  29.38600 1.22100 23.73500
N  28.10900 -0.04800 29.58400
C  29.18100 -0.17600 28.70100
C  30.41200 -0.19100 29.51100
C  29.94200 -0.18800 30.86100
C  28.53100 -0.06700 30.85000
C  31.80600 -0.55200 28.95100
C  30.41600 -0.17400 32.22100
O  31.54500 -0.26500 32.68800
C  29.15600 0.05200 33.09900
C  29.05900 -0.89800 34.25800
O  28.32300 -1.90100 34.25500
O  29.81300 -0.57500 35.30300
C  29.60900 -1.37300 36.55400
H  22.35600 0.35500 31.76500
H  23.67800 -0.31600 25.50800
H  29.86000 -0.39700 26.61900
H  26.32700 -0.22400 34.48900
H  23.79600 1.13200 33.62600
H  23.88700 -1.78100 34.02400
H  22.89500 -0.52300 34.82500
H  24.53200 -0.92300 35.43000
H  25.32200 2.51700 34.52400
H  26.76600 2.65600 33.74300
H  27.91800 2.48000 35.50800
H  27.37300 0.84600 35.86000
H  19.65800 0.77200 29.53000
H  20.51100 0.49500 30.93300
H  19.98000 -0.94600 30.01600
H  19.18000 -0.94800 27.64700
H  19.10200 -0.39500 25.97700
H  19.11700 0.80500 27.25100
H  25.65500 0.05200 24.18200
H  28.38100 -0.99000 24.63100
H  26.02200 -2.07300 22.98900
H  24.79600 -2.21700 24.26200
H  26.46800 -2.82400 24.55900
H  28.00800 1.95600 25.20400
H  27.24700 1.43700 23.75600
H  29.95000 0.32700 23.99800
H  29.95700 2.13100 23.91900
H  29.25000 1.04100 22.66800
H  31.91100 -0.34800 27.88600
H  32.01100 -1.58400 29.23400
H  32.55700 0.06900 29.43900
H  29.09800 1.03500 33.56700
H  30.51600 -1.19700 37.13300
H  29.34200 -2.42100 36.42100
H  28.74900 -0.90600 37.03400

