158

Mg 8.52400 2.02800 27.58500
C  10.19800 0.96500 30.42800
C  6.93000 4.35900 29.56500
C  7.07300 3.09800 24.79400
C  10.16000 -0.46200 25.78000
N  8.60000 2.57800 29.80000
C  9.31800 2.00700 30.73700
C  9.06200 2.67600 32.14300
C  8.05800 3.79200 31.79400
C  7.81000 3.60600 30.28800
C  6.81700 3.99700 32.57100
C  10.28100 3.15900 32.93100
C  10.07700 4.25600 34.07500
H  10.52400 3.89700 35.46400
N  7.23500 3.50700 27.20300
C  6.67300 4.33400 28.20000
C  5.73000 5.17600 27.53500
C  5.83300 4.92300 26.08200
C  6.67400 3.74900 25.99000
C  4.73100 6.14400 28.11700
C  5.03400 5.51600 24.92500
O  5.25300 5.13800 23.78700
C  3.90400 6.60600 25.09500
N  8.60800 1.46300 25.58200
C  7.94600 2.08500 24.60100
C  8.19600 1.49400 23.26100
C  9.10600 0.27700 23.57900
C  9.34300 0.43700 25.03900
C  6.87600 1.08500 22.45300
C  10.37400 0.18200 22.69000
C  10.15300 -0.32200 21.34000
N  9.86300 0.56300 27.97500
C  10.39700 -0.42600 27.14200
C  11.23500 -1.31800 27.87900
C  11.23000 -0.76500 29.20000
C  10.33000 0.33100 29.20100
C  12.03300 -2.54600 27.32600
C  11.71900 -0.87700 30.58800
O  12.51300 -1.66300 31.07800
C  11.06400 0.19300 31.43600
C  10.23500 -0.34900 32.48100
O  9.16000 -0.95300 32.31900
O  10.80400 -0.25500 33.76200
C  9.91000 -0.81600 34.88300
H  6.47800 5.12400 30.20100
H  6.62800 3.40600 23.84600
H  10.70200 -1.20600 25.19300
H  8.51000 2.03300 32.82900
H  8.60400 4.73600 31.78400
H  5.99700 3.54700 32.01000
H  6.59500 5.05200 32.73100
H  6.87700 3.55500 33.56500
H  10.95100 3.57100 32.17600
H  10.79000 2.28900 33.34500
H  9.03400 4.51100 34.26400
H  10.55900 5.15600 33.69200
H  4.98600 7.07800 27.61700
H  4.95000 6.21800 29.18200
H  3.67500 5.89200 28.01700
H  3.42800 6.96500 24.18200
H  4.27800 7.56900 25.44100
H  3.14600 6.21300 25.77300
H  8.74000 2.26800 22.72000
H  8.55700 -0.66500 23.59400
H  6.00800 1.10000 23.11200
H  6.86000 0.06200 22.07800
H  6.79100 1.74200 21.58700
H  11.02300 -0.54600 23.17600
H  10.83000 1.17100 22.63700
H  10.20300 0.45500 20.57700
H  9.14200 -0.70700 21.47300
H  10.85600 -1.10400 21.05200
H  11.34500 -3.33200 27.01400
H  12.65800 -2.76300 28.19300
H  12.74100 -2.14500 26.60000
H  11.79200 0.85600 31.90400
H  9.57300 0.07300 35.41700
H  10.57400 -1.30200 35.59800
H  9.05100 -1.44100 34.63900
Mg 47.32500 45.17000 43.14500
C  43.89400 44.74800 42.65500
C  47.81000 41.90300 42.21700
C  50.54900 45.88400 43.36000
C  46.67400 48.69400 43.54200
N  45.94300 43.60300 42.26400
C  44.59700 43.58800 42.34700
C  44.01100 42.17800 42.10300
C  45.29000 41.26800 42.09700
C  46.42400 42.30700 42.24800
C  45.19500 40.05100 43.07400
C  43.20400 42.06800 40.83100
C  43.71800 42.80500 39.59300
H  43.52100 42.11200 38.24400
N  49.02500 43.95900 42.85900
C  49.04800 42.58900 42.46200
C  50.43900 42.13000 42.57000
C  51.28500 43.30300 42.84400
C  50.34200 44.50800 42.96400
C  50.72900 40.65100 42.29600
C  52.78100 43.29600 42.94800
O  53.38900 42.25400 42.65800
C  53.47100 44.57000 43.28400
N  48.45200 46.99900 43.51200
C  49.76000 46.98000 43.63500
C  50.31000 48.41500 43.94100
C  48.97300 49.28800 44.03700
C  47.95900 48.25800 43.66300
C  51.24700 48.49100 45.23000
C  49.00800 50.58100 43.10800
C  48.27800 51.82600 43.77200
N  45.66900 46.58100 42.95800
C  45.53500 47.87000 43.29900
C  44.15100 48.27900 43.35000
C  43.47600 47.08400 43.11700
C  44.42000 46.06800 42.90300
C  43.62800 49.61600 43.78700
C  42.17000 46.40400 43.03000
O  41.05900 46.79100 43.17000
C  42.34600 44.86000 42.76100
C  41.73200 44.14100 43.89400
O  40.69400 43.56700 43.75900
O  42.51900 44.19800 45.03800
C  41.99500 43.61600 46.20300
H  47.92700 40.83000 42.05200
H  51.55900 46.17800 43.65600
H  46.40900 49.74300 43.69000
H  43.38800 41.93300 42.96400
H  45.42900 40.71300 41.16900
H  44.18300 39.67900 42.91100
H  45.46600 40.33600 44.09000
H  45.82800 39.29400 42.61200
H  42.15300 42.23500 41.06500
H  43.25400 41.01900 40.54100
H  44.74700 43.16000 39.65100
H  43.10000 43.70200 39.63600
H  50.29600 40.21600 43.19700
H  51.79800 40.44300 42.34200
H  50.25800 40.30200 41.37800
H  53.25000 45.26000 42.47000
H  54.53100 44.46900 43.51600
H  52.98500 44.84000 44.22200
H  50.83100 48.70400 43.02800
H  48.70200 49.55700 45.05800
H  52.27700 48.75600 44.99400
H  51.38800 47.59100 45.82800
H  50.91100 49.16100 46.02100
H  48.55800 50.33200 42.14700
H  50.07400 50.73400 42.93800
H  48.94100 52.68900 43.83400
H  47.85200 51.53400 44.73200
H  47.49900 52.04400 43.04000
H  43.19500 49.41300 44.76600
H  42.85500 49.95700 43.09800
H  44.32300 50.45300 43.84600
H  41.89600 44.66200 41.78800
H  42.60500 43.98500 47.02800
H  41.99100 42.52600 46.19300
H  40.96500 43.93300 46.37000

