158

Mg 0.10200 7.78700 26.98000
C  0.95700 9.91800 29.53700
C  0.57200 5.02000 29.14200
C  0.11600 5.83500 24.24200
C  0.72000 10.59600 24.73700
N  0.90000 7.51100 29.06200
C  0.78400 8.55000 29.95200
C  0.70700 8.07000 31.37900
C  1.01200 6.53100 31.30500
C  0.79900 6.30500 29.72900
C  2.34400 6.02000 31.90500
C  -0.62700 8.36100 32.05800
C  -0.51300 8.82700 33.50400
H  0.52400 8.30100 34.48100
N  0.23800 5.68800 26.69900
C  0.30400 4.79400 27.74100
C  0.21500 3.49000 27.07600
C  0.10500 3.66100 25.66700
C  0.08000 5.12800 25.49900
C  0.27000 2.28700 27.92000
C  0.03500 2.71000 24.51600
O  -0.25200 3.03100 23.38800
C  -0.00800 1.24300 24.82900
N  0.29900 8.15700 24.75500
C  0.18000 7.17100 23.84900
C  0.32600 7.74100 22.43200
C  0.42200 9.28800 22.60500
C  0.42700 9.38600 24.14000
C  1.47500 7.16300 21.57100
C  -0.76100 10.17700 21.99300
C  -2.01900 10.39100 22.80000
N  0.62600 9.82800 27.08100
C  0.80700 10.83100 26.15100
C  1.09700 12.09900 26.76700
C  1.21800 11.82100 28.13000
C  0.85900 10.44100 28.25700
C  1.41000 13.42600 26.02500
C  1.58800 12.32100 29.43600
O  1.84900 13.45000 29.82100
C  1.43800 11.08800 30.43500
C  2.66800 10.76100 31.11400
O  3.70600 10.21200 30.71100
O  2.50800 11.14200 32.49200
C  3.81500 11.12300 33.26400
H  0.57500 4.16300 29.82000
H  -0.15400 5.32100 23.31800
H  0.71000 11.49900 24.12400
H  1.54500 8.44200 31.96900
H  0.19400 5.99600 31.78900
H  2.11800 5.32100 32.71000
H  2.95500 6.81100 32.33900
H  2.83400 5.46900 31.10200
H  -1.39700 7.59400 31.97900
H  -1.13800 9.20700 31.59900
H  -1.48800 8.75700 33.98600
H  -0.22700 9.87800 33.44400
H  -0.59500 1.62500 27.90800
H  0.24000 2.47200 28.99400
H  1.23600 1.82600 27.71400
H  0.13600 0.62300 23.94400
H  -0.98700 0.94400 25.20300
H  0.74700 0.87900 25.52500
H  -0.59700 7.51500 21.89900
H  1.36300 9.73700 22.28700
H  0.89000 6.66900 20.79600
H  2.18500 6.52100 22.09300
H  2.04700 7.90600 21.01600
H  -1.11700 9.72300 21.06800
H  -0.44100 11.14600 21.61100
H  -2.13700 9.59500 23.53400
H  -2.86600 10.28500 22.12300
H  -2.03300 11.38700 23.24400
H  1.76900 13.21300 25.01800
H  2.13800 14.04500 26.54900
H  0.46700 13.95500 25.88900
H  0.58900 11.06200 31.11800
H  4.27900 12.06900 32.98500
H  4.66400 10.47500 33.04800
H  3.65100 11.07500 34.34100
Mg 0.60100 43.26900 25.60500
C  1.85400 43.19100 28.90500
C  -2.47600 42.42000 26.89300
C  -0.63000 42.98200 22.46500
C  3.75600 43.66300 24.37800
N  -0.21900 43.02200 27.71700
C  0.46400 43.14100 28.90000
C  -0.40200 42.85100 30.06800
C  -1.75500 42.41000 29.40200
C  -1.50300 42.61200 27.92900
C  -2.28900 40.98500 29.71700
C  -0.54100 44.09100 31.00100
C  -0.02600 43.94800 32.44900
H  -1.17600 43.87900 33.46700
N  -1.30500 42.86100 24.72100
C  -2.40500 42.50000 25.49100
C  -3.48200 42.10500 24.56300
C  -3.03400 42.30000 23.22600
C  -1.62200 42.77500 23.40900
C  -4.75500 41.48200 24.95200
C  -3.65600 42.00400 21.90900
O  -3.00500 42.04100 20.85400
C  -5.03000 41.58000 21.70300
N  1.48000 43.13600 23.71800
C  0.72700 43.14900 22.56300
C  1.58800 43.35900 21.25100
C  2.93000 43.73800 21.91900
C  2.76600 43.42700 23.45200
C  1.57600 41.99800 20.48000
C  3.18300 45.21500 21.74600
C  3.51600 45.72700 20.29300
N  2.42500 43.33700 26.46900
C  3.70000 43.64400 25.81800
C  4.64000 43.65900 26.88000
C  4.00900 43.38900 28.06700
C  2.63000 43.26100 27.79000
C  6.22400 43.77900 26.72700
C  4.23000 43.23500 29.49100
O  5.32400 43.23600 30.08600
C  2.79300 43.03400 30.10800
C  2.68000 41.72500 30.71500
O  2.23600 40.68500 30.25800
O  2.98600 41.81900 32.04600
C  2.31500 40.90600 33.00300
H  -3.49400 42.06900 27.07500
H  -1.10600 43.16900 21.50000
H  4.76600 43.73500 23.97100
H  0.04900 42.04100 30.64100
H  -2.54600 43.10600 29.68300
H  -2.48700 40.49800 28.76200
H  -3.15700 40.94300 30.37600
H  -1.47800 40.42100 30.17800
H  -1.61800 44.22500 31.10000
H  -0.10300 44.96200 30.51300
H  0.65600 44.75300 32.72400
H  0.48300 42.98500 32.48900
H  -5.12300 40.88000 24.12200
H  -5.27100 42.41900 25.15800
H  -4.54500 40.82800 25.79800
H  -5.72100 41.95300 22.45800
H  -4.95600 40.49300 21.68200
H  -5.48200 42.05700 20.83300
H  1.30300 44.15300 20.56100
H  3.78700 43.35200 21.36600
H  1.20200 42.13500 19.46500
H  0.92300 41.29400 20.99500
H  2.60100 41.64900 20.35400
H  4.15100 45.39200 22.21600
H  2.41500 45.87100 22.15500
H  3.24900 44.91900 19.61200
H  4.58700 45.92500 20.33600
H  2.89400 46.57300 20.00200
H  6.58200 44.08200 25.74300
H  6.68500 42.81600 26.94600
H  6.49900 44.46000 27.53300
H  2.62400 43.83100 30.83200
H  3.11700 40.43400 33.57000
H  1.71000 40.11600 32.55700
H  1.64800 41.54800 33.57800

