158

Mg 25.30900 1.06900 30.40300
C  27.23500 1.06700 33.25800
C  22.46000 1.49500 32.34000
C  23.36000 1.10600 27.59300
C  28.00200 0.56800 28.47600
N  24.86600 1.27500 32.57200
C  25.88500 1.38800 33.48200
C  25.27600 1.77800 34.90700
C  23.73400 1.78800 34.59800
C  23.65400 1.48200 33.14400
C  22.83200 0.99500 35.62000
C  25.93000 3.08800 35.57600
C  26.56600 2.90000 36.94400
H  26.35900 4.00800 37.98500
N  23.25400 1.18300 30.08700
C  22.27000 1.38300 30.99600
C  21.02000 1.49500 30.32000
C  21.26100 1.47100 28.99000
C  22.68900 1.32100 28.83500
C  19.70800 1.62500 31.07700
C  20.26100 1.50400 27.83800
O  20.52500 1.34200 26.65100
C  18.81800 2.00700 28.12200
N  25.61500 0.90600 28.32600
C  24.71000 0.89800 27.35700
C  25.34200 0.77300 25.95700
C  26.86500 0.84400 26.30000
C  26.85400 0.73600 27.79000
C  24.86900 -0.59800 25.25500
C  27.63700 2.08400 25.72700
C  26.99600 3.40100 26.05300
N  27.26500 0.87300 30.72500
C  28.27600 0.59200 29.85200
C  29.53700 0.47400 30.60800
C  29.13700 0.68000 31.94000
C  27.75500 0.91300 31.96000
C  30.87000 0.19300 30.11200
C  29.68700 0.79500 33.27800
O  30.84300 0.72900 33.70700
C  28.45100 1.03600 34.23400
C  28.42400 -0.10700 35.17200
O  27.91300 -1.19000 34.93100
O  28.95000 0.25900 36.42500
C  28.77400 -0.65700 37.50000
H  21.55100 1.73500 32.89500
H  22.83200 1.22700 26.64500
H  28.87800 0.46000 27.83400
H  25.40400 1.06900 35.72400
H  23.43500 2.83400 34.53300
H  21.82000 1.38800 35.72400
H  23.32600 0.95400 36.59100
H  22.57600 0.00600 35.24000
H  25.10400 3.79700 35.50700
H  26.70200 3.37600 34.86200
H  27.63400 2.97000 36.73900
H  26.34700 1.91300 37.35100
H  19.02600 0.81700 30.81000
H  19.38700 2.64000 30.84500
H  19.82900 1.48800 32.15200
H  18.36400 1.91300 27.13500
H  18.80700 2.99400 28.58300
H  18.22100 1.32000 28.72100
H  25.09300 1.66400 25.38100
H  27.35700 -0.00800 25.83100
H  23.96100 -1.00900 25.69700
H  25.62900 -1.37900 25.28100
H  24.68400 -0.52200 24.18400
H  27.76100 2.02800 24.64500
H  28.58400 2.16500 26.26000
H  26.79500 3.91500 25.11300
H  27.63500 4.09700 26.59600
H  26.05600 3.42300 26.60600
H  30.86200 -0.88200 29.93200
H  31.55700 0.66800 30.81300
H  31.04300 0.70600 29.16700
H  28.61300 1.96200 34.78700
H  27.95700 -0.38000 38.16500
H  29.66200 -0.67600 38.13200
H  28.61400 -1.67600 37.14600
Mg 44.11800 3.68500 46.81400
C  42.17300 6.51400 47.14300
C  41.19400 1.89800 46.47200
C  45.88900 1.03600 45.57400
C  46.99300 5.59100 46.75000
N  41.91400 4.22200 46.64600
C  41.34500 5.40600 46.99600
C  39.80800 5.20800 47.28400
C  39.57300 3.66800 47.14900
C  40.99400 3.23100 46.87100
C  38.98000 3.06100 48.40400
C  38.87000 6.16600 46.47600
C  38.93800 5.88300 44.95600
H  39.13400 7.08100 43.96400
N  43.59100 1.63700 46.22600
C  42.30600 1.08700 46.13900
C  42.43200 -0.25700 45.79100
C  43.79400 -0.50700 45.52900
C  44.50400 0.77400 45.79900
C  41.19100 -1.14000 45.58500
C  44.25900 -1.81400 44.95200
O  43.47900 -2.75500 44.79000
C  45.70700 -2.16700 44.63800
N  46.25400 3.32000 46.43000
C  46.69000 2.11000 45.97600
C  48.16300 2.31200 45.60000
C  48.66100 3.67600 46.26900
C  47.24200 4.21600 46.62500
C  49.07700 1.16700 45.71800
C  49.44500 4.50500 45.18300
C  50.87300 4.98500 45.63700
N  44.56200 5.60500 46.86500
C  45.75300 6.24800 46.79800
C  45.50900 7.67300 47.08800
C  44.13400 7.81800 47.15400
C  43.57900 6.56300 47.02600
C  46.47500 8.67100 47.21000
C  43.04900 8.70400 47.43300
O  43.13000 9.90400 47.78500
C  41.77600 7.91200 47.49100
C  41.01900 8.14800 48.78400
O  41.32900 7.68600 49.88200
O  39.84800 8.85000 48.46100
C  38.98500 9.08400 49.68800
H  40.25600 1.33800 46.46200
H  46.39800 0.25100 45.01100
H  47.87400 6.23000 46.66500
H  39.62400 5.56100 48.29900
H  38.93700 3.34100 46.32600
H  38.65600 3.68900 49.23500
H  39.66300 2.42900 48.97200
H  38.05500 2.50900 48.23700
H  39.25800 7.17300 46.63000
H  37.82600 6.10100 46.78000
H  38.03300 5.43600 44.54400
H  39.74200 5.15100 44.88300
H  41.19200 -1.97900 46.28100
H  41.20700 -1.63300 44.61300
H  40.22900 -0.62800 45.59100
H  46.29100 -1.80900 45.48600
H  46.05000 -1.75900 43.68700
H  45.86900 -3.23600 44.50000
H  48.00500 2.59500 44.55900
H  49.11200 3.47100 47.24000
H  49.24400 0.86700 44.68400
H  48.66800 0.40000 46.37600
H  50.02400 1.48400 46.15600
H  48.86500 5.39000 44.92000
H  49.60300 3.97000 44.24600
H  50.68500 6.00800 45.96500
H  51.46700 5.05200 44.72600
H  51.44000 4.43400 46.38700
H  47.24400 8.51800 46.45300
H  46.91100 8.67200 48.20900
H  46.09200 9.65800 46.94700
H  41.08400 8.26600 46.72600
H  39.17100 10.13900 49.88800
H  39.18900 8.56800 50.62600
H  37.94300 8.90500 49.42200

