158

Mg 29.84000 59.06300 39.85100
C  27.19200 57.42600 38.45200
C  31.92400 56.45700 38.95200
C  32.60100 61.06800 40.12200
C  27.82000 62.05700 39.94400
N  29.55000 57.14100 38.75900
C  28.38800 56.62800 38.34600
C  28.48700 55.17900 37.85100
C  29.96300 54.86800 38.41600
C  30.55200 56.22500 38.67300
C  29.90300 54.03900 39.71200
C  28.30800 55.18200 36.27300
C  27.23000 54.31100 35.72000
H  26.32500 54.96200 34.66600
N  31.96200 58.71000 39.74200
C  32.63300 57.62600 39.34400
C  34.02900 57.73800 39.57800
C  34.31100 59.03200 40.00900
C  32.91100 59.65400 39.99500
C  35.01700 56.66400 39.21000
C  35.73000 59.60200 40.32800
O  36.70900 58.88100 40.13500
C  35.91500 60.94800 40.88700
N  30.06000 61.22600 40.14000
C  31.37600 61.71300 40.16900
C  31.29100 63.25900 40.21900
C  29.78300 63.55600 40.38200
C  29.16500 62.21100 40.05800
C  32.09200 63.89600 41.41900
C  29.18500 64.79000 39.57600
C  28.95800 66.07300 40.37600
N  27.85100 59.55600 39.54800
C  27.11400 60.80000 39.67700
C  25.71300 60.49400 39.35300
C  25.70400 59.16900 38.94400
C  27.06200 58.68500 38.97900
C  24.59900 61.58700 39.21900
C  24.81700 58.13000 38.37700
O  23.57300 58.10900 38.18300
C  25.71200 56.89600 38.14000
C  25.43500 55.72200 39.10700
O  25.91700 55.59500 40.25300
O  24.62300 54.82900 38.46500
C  24.36600 53.62600 39.32400
H  32.45900 55.50900 38.86600
H  33.47600 61.72100 40.14300
H  27.22200 62.95800 40.09200
H  27.68400 54.60500 38.31500
H  30.53700 54.27100 37.70600
H  29.19700 54.48900 40.41000
H  30.90500 54.09500 40.13800
H  29.66500 52.97900 39.62400
H  29.27100 55.02800 35.78700
H  28.06400 56.19300 35.94700
H  26.59700 53.94100 36.52700
H  27.75700 53.51100 35.19900
H  35.74800 56.64500 40.01900
H  35.45600 56.67600 38.21300
H  34.47600 55.71800 39.22700
H  36.93800 61.05000 41.25000
H  35.26600 61.21200 41.72200
H  35.76700 61.62000 40.04100
H  31.59800 63.65200 39.25000
H  29.53700 63.74900 41.42600
H  31.55200 64.53800 42.11500
H  33.00000 64.35300 41.02300
H  32.45500 63.06600 42.02500
H  28.30000 64.48600 39.01700
H  29.88200 65.10100 38.79800
H  29.60300 66.86700 39.99800
H  29.26600 65.98500 41.41800
H  27.88000 66.20700 40.46200
H  25.07400 62.56400 39.12900
H  24.00800 61.52500 40.13300
H  23.91900 61.47200 38.37500
H  25.46400 56.58000 37.12700
H  23.82600 52.89100 38.72700
H  23.75800 53.98600 40.15400
H  25.26600 53.17700 39.74300
Mg -0.72600 34.58700 26.73500
C  -2.58600 32.86900 29.28900
C  0.26100 36.78000 29.24100
C  0.41000 36.62400 24.41600
C  -2.48100 32.64500 24.42800
N  -0.98700 34.62800 28.98500
C  -1.74800 33.83500 29.77100
C  -1.57600 34.06900 31.23100
C  -0.74900 35.41200 31.29700
C  -0.36200 35.59200 29.81100
C  -1.31800 36.61200 31.97000
C  -0.79400 32.87200 31.97100
C  -1.29900 32.49500 33.28200
H  -0.19400 32.25400 34.43000
N  0.32000 36.42700 26.77300
C  0.64700 37.11100 27.90200
C  1.45300 38.30200 27.46300
C  1.46800 38.32400 26.06500
C  0.77600 37.05200 25.71500
C  2.03000 39.19400 28.54000
C  2.05200 39.37500 25.04700
O  2.10800 39.22800 23.88200
C  2.50400 40.60000 25.63300
N  -1.33000 34.83400 24.65800
C  -0.50900 35.66400 23.91600
C  -0.64200 35.35300 22.38400
C  -1.19300 33.88900 22.51600
C  -1.76500 33.75200 23.95600
C  -1.49000 36.31900 21.58600
C  -0.24700 32.69000 22.08600
C  0.73500 32.07600 23.17400
N  -2.23900 33.17600 26.76000
C  -2.76400 32.39800 25.75700
C  -3.56900 31.31100 26.26300
C  -3.55900 31.51900 27.66100
C  -2.72400 32.61300 27.90700
C  -4.43900 30.28400 25.56000
C  -4.13200 31.01200 28.86300
O  -4.93000 30.15500 29.11000
C  -3.43100 31.84600 30.01600
C  -4.55400 32.37200 30.79400
O  -5.18000 33.40200 30.54100
O  -4.85300 31.50000 31.84900
C  -5.77500 32.06100 32.90800
H  0.58600 37.50800 29.98700
H  0.84400 37.15700 23.56800
H  -2.81300 32.02400 23.59300
H  -2.50600 34.23700 31.77400
H  0.18000 35.34400 31.86300
H  -2.04400 36.41000 32.75700
H  -1.79800 37.34100 31.31600
H  -0.48500 37.09000 32.48600
H  0.25600 33.13700 32.09400
H  -0.75600 31.96500 31.36800
H  -1.68500 31.49500 33.08600
H  -2.05300 33.18600 33.65800
H  2.54100 40.08600 28.17700
H  2.74500 38.68000 29.18300
H  1.23600 39.70800 29.08200
H  3.47800 40.39300 26.07700
H  1.87800 41.07700 26.38700
H  2.59300 41.29700 24.80000
H  0.38300 35.48600 22.03600
H  -2.02900 33.78300 21.82500
H  -1.92800 37.06600 22.24900
H  -2.32900 35.77900 21.14800
H  -1.00900 36.83900 20.75700
H  0.28100 33.20500 21.28300
H  -0.78300 31.87700 21.59700
H  0.47800 32.48600 24.15100
H  1.79200 32.26800 22.99000
H  0.63300 30.99400 23.26100
H  -5.45000 30.67100 25.68500
H  -4.36300 29.29200 26.00500
H  -4.20700 30.28800 24.49500
H  -2.98200 31.13000 30.70500
H  -6.64900 32.60400 32.54700
H  -5.09700 32.68000 33.49400
H  -6.06600 31.23900 33.56200

