158

Mg 10.17700 47.60800 26.34400
C  8.44800 47.75100 29.48400
C  12.63200 49.43000 27.89800
C  11.72800 47.77800 23.42300
C  7.10600 46.99800 24.77900
N  10.54900 48.37800 28.40800
C  9.71200 48.28600 29.52600
C  10.38500 48.67400 30.85600
C  11.61400 49.52600 30.30500
C  11.58600 49.18200 28.78200
C  11.39800 51.04500 30.46300
C  10.85400 47.40000 31.69300
C  10.27300 47.45500 33.17500
H  10.39300 46.23400 34.06200
N  12.03900 48.23400 25.77700
C  12.90800 48.93500 26.58700
C  14.14000 48.99200 25.92000
C  13.92000 48.56300 24.58400
C  12.49200 48.20400 24.51700
C  15.45800 49.49900 26.50900
C  14.83500 48.19200 23.47400
O  14.52600 47.52200 22.47700
C  16.34600 48.52700 23.56200
N  9.54400 47.42700 24.33300
C  10.34000 47.37700 23.30100
C  9.57700 47.09800 21.95500
C  8.14300 46.75900 22.46200
C  8.23700 47.06500 23.98000
C  9.72100 48.21000 20.93100
C  7.41800 45.44000 22.15000
C  7.97600 44.15700 22.93800
N  8.21200 47.37700 27.02500
C  7.07600 47.04500 26.28600
C  5.95600 46.69400 27.13400
C  6.45700 46.94900 28.43100
C  7.77500 47.41100 28.30400
C  4.64400 46.10700 26.62400
C  6.11800 46.89200 29.75500
O  4.99800 46.68600 30.23600
C  7.42500 47.36000 30.58800
C  7.75500 46.16400 31.38600
O  8.43900 45.22000 31.09400
O  7.01900 46.23800 32.54300
C  6.80800 45.01800 33.39500
H  13.47000 50.00900 28.29000
H  12.21400 47.87300 22.44900
H  6.13900 46.95000 24.27400
H  9.71300 49.24400 31.49800
H  12.55200 49.38100 30.84100
H  10.71100 51.34100 31.25600
H  10.88500 51.48700 29.60900
H  12.34300 51.57800 30.57100
H  11.94200 47.37900 31.63500
H  10.57900 46.51900 31.11200
H  9.22800 47.69600 32.97900
H  10.82100 48.20700 33.74300
H  15.41900 49.76800 27.56500
H  15.76300 50.35800 25.91000
H  16.27300 48.81700 26.26600
H  16.78100 48.38600 22.57300
H  16.81300 47.90500 24.32700
H  16.35000 49.58300 23.82900
H  10.04600 46.16800 21.63500
H  7.50100 47.49100 21.97200
H  10.78000 48.43900 20.80700
H  9.27900 49.10500 21.36700
H  9.19100 47.91900 20.02400
H  7.59800 45.31100 21.08300
H  6.33100 45.39000 22.21900
H  8.52400 44.46300 23.83000
H  8.55200 43.57200 22.22100
H  7.09800 43.55700 23.17500
H  4.75200 45.34700 25.85100
H  4.07900 46.92500 26.17600
H  3.92300 45.79500 27.38000
H  7.20000 48.14200 31.31300
H  5.77100 44.72200 33.24200
H  6.93700 45.31800 34.43500
H  7.52800 44.22700 33.18400
Mg -1.17800 33.95800 26.32200
C  -2.91800 32.41800 28.82800
C  0.34700 36.03200 28.72500
C  0.42800 35.43600 23.89800
C  -2.84100 31.88700 23.97500
N  -1.19700 34.17400 28.53700
C  -1.99800 33.37600 29.28600
C  -1.77200 33.79200 30.76700
C  -0.91500 35.07100 30.75500
C  -0.55000 35.14100 29.25300
C  -1.64800 36.35100 31.28000
C  -1.15000 32.58300 31.61000
C  -1.97800 32.18200 32.83300
H  -1.16600 31.93700 34.10900
N  0.24700 35.49200 26.26000
C  0.71200 36.26300 27.33000
C  1.77600 37.17200 26.84400
C  1.98100 36.83400 25.44200
C  0.90800 35.87000 25.16500
C  2.56000 38.10000 27.75000
C  2.99600 37.15700 24.38000
O  3.00300 36.72800 23.24600
C  4.11100 38.01300 24.72600
N  -1.37400 33.79700 24.22000
C  -0.61500 34.53300 23.43800
C  -0.86600 34.20400 21.94400
C  -1.76000 32.98200 21.96500
C  -1.99900 32.84700 23.48300
C  -1.36600 35.42100 21.11300
C  -1.20500 31.81300 21.23800
C  -0.53600 30.70900 22.09800
N  -2.71300 32.62900 26.32100
C  -3.24900 31.79600 25.31300
C  -4.16300 30.80300 25.84100
C  -4.04800 31.04800 27.24900
C  -3.19100 32.14100 27.47500
C  -4.93500 29.77600 25.02900
C  -4.64800 30.59500 28.49600
O  -5.51700 29.77800 28.65800
C  -3.85000 31.45100 29.61300
C  -4.82400 32.26000 30.37100
O  -5.46900 33.18300 29.87800
O  -4.97800 31.74200 31.70300
C  -6.12100 32.37700 32.36500
H  0.92700 36.53900 29.49900
H  0.91700 35.76600 22.97900
H  -3.30500 31.27700 23.19700
H  -2.80600 33.99100 31.05000
H  -0.03400 34.92100 31.38000
H  -1.81000 37.07400 30.48000
H  -0.99700 36.78600 32.03800
H  -2.60800 36.14600 31.75400
H  -0.07700 32.60400 31.79800
H  -1.16200 31.72600 30.93600
H  -2.43100 31.23000 32.55600
H  -2.70900 32.95900 33.05700
H  2.13600 38.20100 28.74900
H  2.54600 39.10800 27.33500
H  3.60200 37.79600 27.85100
H  3.86900 38.62700 25.59300
H  4.37200 38.63500 23.86900
H  5.02200 37.45900 24.94800
H  0.11800 33.94800 21.54900
H  -2.70500 33.02600 21.42500
H  -1.30600 36.35400 21.67200
H  -2.42500 35.18600 21.00200
H  -0.82600 35.43700 20.16600
H  -0.54900 32.15000 20.43500
H  -1.98800 31.27500 20.70400
H  -1.19200 29.85000 22.23900
H  -0.27400 31.11100 23.07600
H  0.34400 30.39600 21.53500
H  -4.30900 29.31000 24.26900
H  -5.64700 30.41200 24.50200
H  -5.49900 29.02800 25.58500
H  -3.39200 30.86000 30.40600
H  -5.65800 33.25400 32.81700
H  -6.61800 31.81500 33.15600
H  -6.84500 32.80200 31.66900

