158

Mg -0.02400 7.19600 26.29400
C  0.88900 9.15100 29.02800
C  0.11600 4.33200 28.22300
C  -0.32700 5.41400 23.47200
C  0.49600 10.03400 24.31700
N  0.49700 6.84100 28.32200
C  0.64600 7.77800 29.32500
C  0.59800 7.14900 30.66100
C  0.28200 5.65400 30.42500
C  0.25100 5.61000 28.89000
C  1.25100 4.54100 31.06200
C  -0.56300 7.84900 31.54500
C  -0.19200 8.13200 33.01700
H  1.01500 7.27500 33.53700
N  -0.05000 5.10400 25.91500
C  0.05400 4.10200 26.82500
C  -0.15400 2.87400 26.10500
C  -0.35000 3.19100 24.74500
C  -0.21700 4.60100 24.63500
C  -0.32700 1.52900 26.80800
C  -0.58100 2.23100 23.55600
O  -0.71300 2.55600 22.36300
C  -0.87300 0.79400 23.86300
N  0.02200 7.68600 24.27500
C  -0.20500 6.78600 23.30100
C  -0.17300 7.39600 21.88800
C  -0.24700 8.91700 22.21600
C  0.17800 8.89100 23.65300
C  0.99400 7.05500 20.93900
C  -1.59800 9.66800 21.86300
C  -2.92900 9.08800 22.40100
N  0.46900 9.25100 26.62400
C  0.63500 10.22900 25.71900
C  1.12400 11.49300 26.31700
C  1.12600 11.11100 27.68600
C  0.83400 9.71600 27.77600
C  1.45600 12.76600 25.72500
C  1.39600 11.70700 28.96600
O  1.73500 12.82000 29.35700
C  1.22200 10.41000 29.92300
C  2.35700 10.22400 30.85900
O  3.38400 9.71000 30.41300
O  2.09400 10.75600 32.11200
C  3.36100 11.10400 32.77800
H  -0.01200 3.39000 28.76100
H  -0.29700 4.96800 22.47600
H  0.61800 10.95700 23.74700
H  1.49800 7.51300 31.15700
H  -0.72200 5.45200 30.79800
H  1.83400 3.99200 30.32200
H  0.82200 3.70600 31.61600
H  2.03000 5.03300 31.64400
H  -1.45800 7.23200 31.61400
H  -0.87300 8.78500 31.08000
H  -1.10300 8.02300 33.60600
H  0.05500 9.18600 33.15200
H  -1.27400 1.22200 26.36200
H  -0.52300 1.61500 27.87700
H  0.52100 0.90400 26.53000
H  -1.71900 0.58700 24.51900
H  -0.00100 0.26900 24.25200
H  -1.05400 0.26700 22.92600
H  -1.16100 7.13700 21.50800
H  0.53500 9.45500 21.68100
H  1.44600 7.92900 20.47000
H  0.73500 6.35100 20.14800
H  1.76500 6.65700 21.59900
H  -1.77000 9.93000 20.81900
H  -1.63900 10.53900 22.51800
H  -3.60800 9.11900 21.55000
H  -3.41900 9.62600 23.21300
H  -2.95200 8.04200 22.70800
H  2.05300 12.52200 24.84700
H  1.99400 13.47100 26.35800
H  0.53200 13.25200 25.41200
H  0.44800 10.67500 30.64400
H  3.51200 10.46200 33.64500
H  3.16100 12.12600 33.10000
H  4.29000 11.07400 32.20900
Mg -5.79400 24.93500 26.11000
C  -4.52000 26.66900 28.91200
C  -7.40300 22.89200 28.21000
C  -7.02000 23.37500 23.39300
C  -3.79300 26.92200 24.00100
N  -6.01900 24.85800 28.36300
C  -5.43100 25.67000 29.30500
C  -5.79600 25.20000 30.70800
C  -6.42300 23.81300 30.41900
C  -6.60200 23.80100 28.87800
C  -5.64100 22.59200 31.07800
C  -6.79400 26.20900 31.35000
C  -6.85600 26.36100 32.90200
H  -6.19700 25.29600 33.79600
N  -7.07100 23.47100 25.84400
C  -7.69700 22.73200 26.88200
C  -8.64700 21.81500 26.28500
C  -8.57900 21.96500 24.88600
C  -7.48000 22.92500 24.67100
C  -9.49600 20.88500 27.11500
C  -9.31400 21.27400 23.80500
O  -9.02500 21.42600 22.64500
C  -10.46000 20.35400 24.14700
N  -5.59400 25.25600 24.02500
C  -6.09500 24.42600 23.13600
C  -5.90400 24.87600 21.63100
C  -4.93900 26.11600 21.92400
C  -4.82200 26.18400 23.41400
C  -5.26400 23.74500 20.69700
C  -5.38600 27.45100 21.31400
C  -4.60800 27.91400 20.01700
N  -4.40300 26.45000 26.35400
C  -3.60900 27.14100 25.41000
C  -2.60500 27.92800 26.19600
C  -2.97300 27.81300 27.48900
C  -4.02600 26.91700 27.55300
C  -1.60000 28.88000 25.58000
C  -2.70400 28.37800 28.87100
O  -1.87400 29.21900 29.28400
C  -3.64000 27.55300 29.81900
C  -2.82100 26.67900 30.69300
O  -2.38200 25.59500 30.36300
O  -2.70200 27.24600 31.91900
C  -1.99000 26.32600 32.87200
H  -7.92200 22.23800 28.91400
H  -7.26000 22.80700 22.49200
H  -3.14200 27.59000 23.43300
H  -4.96900 25.22800 31.41700
H  -7.44700 23.79700 30.79100
H  -6.32700 22.13100 31.78900
H  -4.76700 22.91400 31.64500
H  -5.53400 21.86300 30.27500
H  -7.79300 26.03000 30.95200
H  -6.48800 27.18200 30.96300
H  -7.90000 26.49200 33.18300
H  -6.34700 27.29300 33.14900
H  -9.35400 19.93700 26.59600
H  -10.56000 21.12300 27.12200
H  -9.18000 20.70100 28.14200
H  -11.03000 19.96100 23.30400
H  -11.12500 20.77400 24.90100
H  -9.98900 19.40700 24.41100
H  -6.93500 25.19300 21.47400
H  -3.92400 25.84800 21.62800
H  -4.30800 24.08300 20.29800
H  -6.04200 23.48100 19.98100
H  -5.11600 22.84200 21.28900
H  -5.24300 28.20100 22.09200
H  -6.46000 27.52200 21.13900
H  -3.87300 27.12000 19.88600
H  -4.04400 28.80500 20.29500
H  -5.29300 28.05000 19.18000
H  -0.68600 28.80200 26.16900
H  -1.96500 29.89200 25.75500
H  -1.42600 28.71200 24.51800
H  -4.20500 28.26300 30.42200
H  -1.13800 25.77400 32.47600
H  -2.76800 25.70400 33.31300
H  -1.52600 27.02300 33.57000

