158

Mg 26.21100 0.76000 29.05200
C  28.20400 0.44100 31.74900
C  23.49600 1.26900 31.17700
C  24.22000 0.64100 26.34200
C  28.91600 -0.33800 26.95900
N  25.92600 0.70100 31.30000
C  26.92800 0.81300 32.08800
C  26.50600 1.02300 33.53800
C  24.91300 1.20100 33.39500
C  24.75500 1.13500 31.86300
C  24.05200 0.25900 34.26800
C  27.23800 2.20700 34.19200
C  26.67100 2.92500 35.45000
H  27.46500 2.78400 36.72900
N  24.13800 0.95300 28.77200
C  23.20100 1.01000 29.82600
C  21.95200 0.81100 29.23600
C  22.06200 0.73000 27.82300
C  23.50500 0.87200 27.57100
C  20.64000 0.98000 29.96000
C  21.00600 0.60800 26.80200
O  21.27400 0.67100 25.62000
C  19.62700 0.29000 27.16300
N  26.51700 0.12900 26.90600
C  25.55700 0.39300 26.02200
C  25.99500 0.13500 24.58400
C  27.53200 -0.07200 24.73000
C  27.69800 -0.12800 26.29700
C  25.35300 -1.10300 23.91100
C  28.42100 1.02700 23.92200
C  28.33300 0.84700 22.43800
N  28.10000 0.21100 29.28300
C  29.09500 -0.22500 28.38200
C  30.32400 -0.49600 29.09700
C  30.03200 -0.21500 30.40200
C  28.66600 0.16200 30.50300
C  31.64900 -1.04200 28.49200
C  30.59700 -0.10300 31.74100
O  31.71700 -0.46800 32.19600
C  29.44200 0.33700 32.68500
C  29.25900 -0.64200 33.80300
O  28.82300 -1.76800 33.64700
O  29.70300 -0.23800 35.02700
C  29.76700 -1.25300 36.08600
H  22.61600 1.45300 31.79700
H  23.55900 0.51200 25.48200
H  29.72700 -0.69600 26.32200
H  26.74800 0.13900 34.12700
H  24.48400 2.19000 33.55200
H  23.70600 -0.64600 33.76700
H  23.17100 0.87100 34.46100
H  24.53300 0.07100 35.22800
H  27.58700 2.92900 33.45400
H  28.10200 1.71000 34.63500
H  25.62300 2.66500 35.60300
H  26.67000 3.96800 35.13200
H  20.07500 1.76200 29.45300
H  20.74200 1.20400 31.02200
H  19.98500 0.11400 29.87200
H  19.07300 1.19100 27.42800
H  19.71600 -0.43300 27.97400
H  19.12000 -0.17400 26.31700
H  25.76100 1.08900 24.11100
H  27.77800 -1.08700 24.41800
H  24.66700 -1.61400 24.58700
H  26.01500 -1.81900 23.42400
H  24.71000 -0.72200 23.11800
H  29.45000 0.78900 24.19200
H  28.18100 2.04600 24.22300
H  28.35500 1.74600 21.82200
H  27.48500 0.24900 22.10300
H  29.23400 0.32200 22.12300
H  31.55100 -2.12600 28.42100
H  32.45600 -0.87100 29.20500
H  31.85800 -0.72600 27.47000
H  29.62200 1.27400 33.21300
H  30.80400 -1.27600 36.42100
H  29.39900 -2.23200 35.77900
H  29.02100 -0.99300 36.83600
Mg -5.45500 24.86400 25.57200
C  -3.75000 26.36300 28.20800
C  -6.93500 22.80000 27.86600
C  -6.92800 23.35200 23.01500
C  -3.66800 27.09300 23.37200
N  -5.33200 24.64600 27.84000
C  -4.67600 25.49800 28.69500
C  -5.23500 25.31900 30.14600
C  -5.95400 23.89500 30.01900
C  -6.12300 23.74600 28.47700
C  -5.12600 22.76700 30.63900
C  -5.96800 26.60100 30.54400
C  -5.43300 27.32300 31.79000
H  -5.06900 26.50200 32.99500
N  -6.73200 23.26300 25.47300
C  -7.16700 22.51600 26.51800
C  -7.97000 21.47000 25.97400
C  -7.99400 21.61200 24.57300
C  -7.15600 22.78500 24.27800
C  -8.65100 20.41500 26.90000
C  -8.75700 20.77500 23.58800
O  -8.54100 20.79900 22.39200
C  -9.80600 19.72500 23.99900
N  -5.22000 25.06600 23.48900
C  -6.03200 24.40100 22.61100
C  -5.87400 24.97700 21.19200
C  -4.84100 26.07400 21.31300
C  -4.59600 26.13000 22.83400
C  -5.47100 23.99100 20.07100
C  -5.29400 27.42500 20.81400
C  -5.51300 27.51000 19.30100
N  -3.91200 26.32000 25.63800
C  -3.27200 27.09300 24.72100
C  -2.20600 27.89700 25.30500
C  -2.39700 27.64000 26.66300
C  -3.48200 26.75900 26.83300
C  -1.29300 28.78100 24.58800
C  -1.87300 27.98900 27.94800
O  -0.88700 28.66800 28.28900
C  -2.89800 27.35300 29.01400
C  -2.21200 26.64600 30.13600
O  -1.85600 25.49900 30.16500
O  -2.01600 27.53300 31.15500
C  -1.19700 27.16800 32.30600
H  -7.48100 22.20000 28.59700
H  -7.42200 22.85900 22.17500
H  -3.03800 27.64000 22.66700
H  -4.34000 25.33700 30.76700
H  -6.94200 23.91300 30.47800
H  -4.65000 23.13800 31.54600
H  -4.41600 22.36700 29.91400
H  -5.81500 21.96600 30.90500
H  -7.03900 26.52900 30.73400
H  -5.87400 27.34100 29.75000
H  -6.25300 27.95800 32.12400
H  -4.74300 28.13100 31.54600
H  -9.71900 20.63500 26.89400
H  -8.41800 20.39600 27.96500
H  -8.49100 19.46600 26.38900
H  -9.52700 18.82100 24.53900
H  -10.20100 19.26900 23.09100
H  -10.62600 20.20200 24.53500
H  -6.88400 25.25700 20.89200
H  -3.88000 25.89300 20.83200
H  -6.09400 24.28100 19.22500
H  -5.70300 22.95700 20.32500
H  -4.39500 24.14700 19.99100
H  -4.47600 28.10600 21.04900
H  -6.14600 27.69700 21.43800
H  -5.52200 26.47800 18.94900
H  -4.72300 28.08900 18.82400
H  -6.46900 28.03400 19.28500
H  -1.84600 29.10000 23.70500
H  -0.38200 28.31900 24.20600
H  -1.04000 29.58000 25.28500
H  -3.49500 28.18600 29.38600
H  -0.21600 27.07200 31.84100
H  -1.46100 26.21300 32.76000
H  -1.17200 27.91300 33.10100

