158

Mg 16.74900 -1.87500 27.92200
C  15.81200 0.08400 30.71200
C  19.28200 -3.16600 29.89500
C  18.17000 -3.20300 25.18600
C  14.56500 0.05900 25.87900
N  17.46500 -1.48500 30.00500
C  16.85800 -0.80200 30.98700
C  17.28000 -1.18000 32.45700
C  18.59400 -2.01600 32.12000
C  18.50100 -2.21100 30.58000
C  19.85500 -1.27600 32.45400
C  16.14000 -1.73500 33.35900
C  16.07200 -1.17200 34.72300
H  17.31600 -0.46500 35.41100
N  18.35600 -3.06600 27.61100
C  19.20500 -3.62500 28.57000
C  20.14000 -4.57500 27.90400
C  19.80800 -4.57400 26.55600
C  18.73800 -3.58800 26.42900
C  21.19800 -5.34300 28.67700
C  20.46700 -5.27800 25.38500
O  20.16800 -5.09500 24.24400
C  21.56500 -6.31000 25.69700
N  16.41700 -1.56500 25.83100
C  17.10400 -2.33100 24.89300
C  16.68300 -1.93200 23.45300
C  15.33100 -1.10000 23.72600
C  15.41500 -0.86500 25.24700
C  17.66100 -1.16800 22.50600
C  14.00900 -1.87800 23.45500
C  13.57400 -1.72100 21.99900
N  15.39900 -0.34000 28.19400
C  14.60600 0.37700 27.26400
C  13.84800 1.39600 27.98300
C  14.28900 1.30300 29.32800
C  15.24600 0.27400 29.40600
C  12.83100 2.34700 27.43900
C  14.02200 1.86600 30.63600
O  13.16700 2.73600 31.00300
C  15.02500 1.03700 31.63800
C  15.81300 1.98900 32.44900
O  16.91800 2.53000 32.14100
O  15.14700 2.28300 33.62300
C  15.73400 3.25800 34.51700
H  20.11800 -3.56100 30.47600
H  18.37700 -3.70500 24.23900
H  13.99800 0.76000 25.26400
H  17.57200 -0.21700 32.87800
H  18.59800 -3.01100 32.56500
H  19.57900 -0.68700 33.32900
H  20.13000 -0.60400 31.64100
H  20.67500 -1.93800 32.73400
H  16.32700 -2.80700 33.42800
H  15.18900 -1.69800 32.82800
H  15.77100 -2.01300 35.34800
H  15.16300 -0.57700 34.80300
H  20.89600 -6.38800 28.60200
H  21.12300 -5.34900 29.76500
H  22.17300 -5.04500 28.29200
H  21.32800 -6.88500 26.59300
H  22.44500 -5.67300 25.78000
H  21.57200 -6.93600 24.80500
H  16.35400 -2.87500 23.01600
H  15.31800 -0.14900 23.19300
H  17.99300 -1.70100 21.61600
H  18.55600 -1.07600 23.12100
H  17.25800 -0.18700 22.25100
H  13.28400 -1.69400 24.24800
H  14.28100 -2.93200 23.50200
H  12.49900 -1.56300 21.91500
H  13.70500 -2.64900 21.44100
H  14.01800 -0.81000 21.59700
H  12.84400 3.25500 28.04200
H  11.89400 1.81300 27.59400
H  13.14900 2.62700 26.43400
H  14.34600 0.38200 32.18400
H  15.48300 4.25800 34.16400
H  16.79000 3.11900 34.74700
H  15.18800 3.03200 35.43300
Mg -4.72400 25.28800 26.31600
C  -3.55700 26.75800 29.25600
C  -6.92100 23.44300 28.07600
C  -5.69200 23.99400 23.36800
C  -2.31500 27.23400 24.52900
N  -5.14100 25.12600 28.41900
C  -4.58700 25.80300 29.44700
C  -5.17300 25.45500 30.77900
C  -5.83800 24.08700 30.30400
C  -6.02800 24.21800 28.84300
C  -5.11800 22.81400 30.66100
C  -6.10700 26.61500 31.39100
C  -6.21700 26.66600 32.96200
H  -5.64900 25.46800 33.72300
N  -6.09000 23.84200 25.82800
C  -6.99300 23.31600 26.66500
C  -7.96500 22.60200 25.89200
C  -7.61700 22.70600 24.50500
C  -6.44200 23.61700 24.52600
C  -9.02600 21.83700 26.59800
C  -8.34200 22.12900 23.30100
O  -7.96900 22.42200 22.19900
C  -9.55000 21.22800 23.39600
N  -3.99000 25.57800 24.14600
C  -4.54900 24.74500 23.17200
C  -4.01400 25.23000 21.77200
C  -2.97400 26.32400 22.15900
C  -3.01500 26.36500 23.66900
C  -3.49600 23.99700 20.95900
C  -3.25800 27.64100 21.39200
C  -2.17100 28.27400 20.61400
N  -3.28800 26.78500 26.75000
C  -2.36900 27.41200 25.96600
C  -1.57200 28.24200 26.78300
C  -2.00500 28.03100 28.11000
C  -2.95600 27.07600 28.03500
C  -0.60600 29.23900 26.20400
C  -1.88400 28.51500 29.44500
O  -1.17300 29.39200 29.95200
C  -2.87900 27.66100 30.26800
C  -2.05200 26.81600 31.15000
O  -1.41900 25.85100 30.85400
O  -2.06900 27.36700 32.39200
C  -1.14200 26.92400 33.41500
H  -7.57700 22.74700 28.60300
H  -5.92600 23.48200 22.43200
H  -1.52500 27.91100 24.19800
H  -4.25400 25.25300 31.32700
H  -6.85100 24.09200 30.70700
H  -5.13500 22.20600 29.75700
H  -5.68900 22.30200 31.43500
H  -4.06800 23.00900 30.88300
H  -7.12400 26.37300 31.08200
H  -5.88000 27.61600 31.02400
H  -7.20600 26.90600 33.35100
H  -5.60800 27.52700 33.23900
H  -9.99500 21.80300 26.10000
H  -9.31600 22.11400 27.61200
H  -8.63800 20.81900 26.59000
H  -9.48700 20.53800 24.23800
H  -9.49700 20.66800 22.46200
H  -10.38300 21.92700 23.48000
H  -4.93000 25.70800 21.42700
H  -1.95200 26.10800 21.84700
H  -2.43100 24.08500 20.74300
H  -4.17800 23.83000 20.12500
H  -3.65000 23.03700 21.45100
H  -3.66700 28.37100 22.09100
H  -4.08200 27.51400 20.69000
H  -1.88700 27.66700 19.75400
H  -1.36600 28.63500 21.25300
H  -2.49800 29.20200 20.14500
H  0.30800 28.78600 25.81800
H  -0.41600 29.82700 27.10200
H  -1.05000 29.82400 25.39900
H  -3.59800 28.31700 30.76000
H  -1.38300 25.88600 33.64600
H  -1.39600 27.49500 34.30800
H  -0.06700 26.97800 33.24700

