158

Mg 25.83500 1.21400 29.66600
C  27.85800 1.06300 32.47200
C  23.04700 1.46000 31.67600
C  23.95000 1.72100 26.97200
C  28.70000 0.50600 27.62900
N  25.49700 1.08300 31.78200
C  26.49600 1.23600 32.73100
C  25.94300 1.32500 34.16500
C  24.34900 1.24800 34.00700
C  24.27300 1.25400 32.39400
C  23.63300 -0.02800 34.47400
C  26.38600 2.67200 34.80300
C  26.96000 2.53300 36.24400
H  26.62600 3.60800 37.28100
N  23.77800 1.47000 29.34400
C  22.82200 1.63700 30.30000
C  21.54700 1.90100 29.72400
C  21.72800 1.90200 28.32500
C  23.22900 1.74200 28.18800
C  20.29500 2.00900 30.45200
C  20.77800 2.01200 27.13400
O  21.15900 2.01600 25.96200
C  19.30100 2.01900 27.34200
N  26.26500 0.91300 27.57200
C  25.35000 1.36800 26.70800
C  25.91900 1.44800 25.20900
C  27.49600 1.19700 25.46900
C  27.50700 0.82700 26.95900
C  25.27100 0.59400 24.10600
C  28.45800 2.35300 25.11000
C  29.44800 2.06800 23.95400
N  27.79500 0.75900 29.93300
C  28.80300 0.54500 29.05600
C  30.05200 0.32300 29.81700
C  29.72200 0.57600 31.13400
C  28.37100 0.85900 31.18000
C  31.43400 0.12500 29.18300
C  30.29400 0.69700 32.48400
O  31.44200 0.50700 32.83200
C  29.11400 1.11500 33.41900
C  28.98800 0.09700 34.54800
O  28.41600 -0.94200 34.56600
O  29.57300 0.67900 35.69000
C  29.50200 -0.23100 36.80600
H  22.23500 1.46900 32.40700
H  23.47000 1.90800 26.00900
H  29.59400 0.34500 27.02300
H  26.20100 0.51500 34.84700
H  23.89800 2.17400 34.36300
H  22.81400 0.27000 35.12900
H  24.36000 -0.75800 34.82700
H  23.25500 -0.58000 33.61400
H  25.64000 3.45800 34.68200
H  27.29000 3.04600 34.32300
H  28.04100 2.41400 36.16600
H  26.67800 1.64400 36.80700
H  19.77300 2.77100 29.87400
H  20.50100 2.37800 31.45700
H  19.75400 1.06300 30.47100
H  19.08700 1.01400 27.70400
H  18.87300 1.96400 26.34100
H  18.80200 2.69700 28.03400
H  25.72900 2.50400 25.01300
H  27.83800 0.32100 24.91800
H  24.88900 1.21400 23.29500
H  24.41300 0.02800 24.47000
H  25.91800 -0.21600 23.76900
H  29.08100 2.62700 25.96200
H  27.81800 3.21400 24.92000
H  29.67800 2.82200 23.20200
H  29.08800 1.16700 23.45800
H  30.38400 1.80800 24.45000
H  32.29100 -0.04600 29.83400
H  31.82700 0.92900 28.56000
H  31.42600 -0.77600 28.57000
H  29.18700 2.06900 33.94200
H  30.16900 0.06500 37.61600
H  29.63900 -1.28000 36.54500
H  28.53300 0.00700 37.24300
Mg -12.69000 15.77100 42.43400
C  -9.48900 14.38300 42.49800
C  -11.32200 18.58300 40.84000
C  -15.77300 16.97900 41.93300
C  -13.98900 12.61200 43.18900
N  -10.65000 16.34200 41.69700
C  -9.47800 15.61700 41.89200
C  -8.31100 16.23100 41.12000
C  -8.93500 17.65100 40.71200
C  -10.44000 17.55200 41.11700
C  -8.39200 18.96800 41.34300
C  -8.02800 15.36400 39.82200
C  -6.54300 15.27000 39.40200
H  -6.16700 16.10500 38.20500
N  -13.42900 17.59200 41.51400
C  -12.70400 18.59800 40.94200
C  -13.66900 19.64500 40.45400
C  -15.00900 19.22700 40.91500
C  -14.79900 17.86700 41.46600
C  -13.24100 21.07800 39.91300
C  -16.28800 19.99200 40.67700
O  -16.35600 21.08600 40.13900
C  -17.63800 19.53800 41.20600
N  -14.59000 14.85300 42.39200
C  -15.71000 15.63500 42.25100
C  -16.95100 14.74500 42.49400
C  -16.38700 13.29700 42.77600
C  -14.87000 13.60300 42.76400
C  -17.89900 15.37000 43.53300
C  -16.81400 12.19000 41.75200
C  -18.01100 11.27600 42.28300
N  -11.89700 13.85100 42.93700
C  -12.52300 12.67300 43.25700
C  -11.54600 11.71600 43.59400
C  -10.29400 12.33800 43.25400
C  -10.61100 13.64900 42.82900
C  -11.75900 10.35300 44.19800
C  -8.79500 12.15500 43.24400
O  -8.05600 11.18900 43.53500
C  -8.20200 13.52000 42.64800
C  -7.14200 14.14400 43.60700
O  -7.28600 14.75000 44.64300
O  -5.87500 13.89700 43.01700
C  -4.76400 14.62600 43.64900
H  -11.06600 19.59600 40.52200
H  -16.79900 17.30800 41.75800
H  -14.38200 11.63100 43.46600
H  -7.52700 16.27300 41.87700
H  -9.01800 17.81100 39.63700
H  -9.11300 19.08100 42.15200
H  -8.46400 19.75800 40.59600
H  -7.38600 18.90300 41.75900
H  -8.53600 15.69400 38.91600
H  -8.50100 14.39000 39.94900
H  -6.33700 14.22000 39.19900
H  -6.00000 15.62200 40.27900
H  -13.98200 21.82400 40.20000
H  -12.99700 21.11300 38.85100
H  -12.36100 21.48600 40.41100
H  -18.00300 18.62300 40.73900
H  -18.29800 20.38500 41.02100
H  -17.45400 19.51600 42.28000
H  -17.55600 14.80300 41.59000
H  -16.47400 12.99300 43.81900
H  -18.92300 15.26100 43.17500
H  -17.67800 16.41000 43.77500
H  -17.80400 14.89700 44.51100
H  -15.99900 11.57100 41.37800
H  -17.22000 12.78000 40.93100
H  -17.64300 10.25200 42.34400
H  -18.74600 11.38400 41.48500
H  -18.36100 11.51500 43.28700
H  -11.91300 9.48800 43.55300
H  -12.62200 10.41700 44.86200
H  -10.88700 10.14600 44.81800
H  -7.68600 13.23400 41.73200
H  -4.23100 14.12000 44.45400
H  -5.03300 15.66300 43.84800
H  -4.01800 14.56700 42.85600

