158

Mg 17.11700 52.40000 26.38800
C  19.10900 50.81500 28.79100
C  14.93300 53.37200 28.92400
C  15.07300 53.79700 24.07400
C  19.19700 51.06500 23.85000
N  17.02600 52.09600 28.52900
C  18.00500 51.55100 29.32200
C  17.78400 51.78100 30.86700
C  16.28400 52.13100 30.84500
C  16.02700 52.56300 29.34300
C  15.39100 51.06700 31.32700
C  18.62900 52.94600 31.39400
C  19.28400 52.65100 32.75900
H  18.36200 52.07100 33.91800
N  15.32300 53.48800 26.47800
C  14.66400 53.80500 27.60500
C  13.50800 54.62700 27.37800
C  13.61500 54.87500 25.95900
C  14.69100 54.03600 25.39500
C  12.53800 55.23800 28.37900
C  12.78800 55.84300 25.25800
O  12.77800 55.94500 24.04900
C  11.88500 56.84800 25.95400
N  17.11600 52.34800 24.35300
C  16.23200 53.06600 23.57600
C  16.38200 52.94300 22.08400
C  17.82000 52.25100 22.04000
C  18.10900 51.92300 23.52200
C  15.25500 52.15200 21.34100
C  18.99900 53.15000 21.30800
C  20.03200 52.45400 20.40800
N  18.84800 51.15700 26.26600
C  19.56300 50.71300 25.18600
C  20.66400 49.90600 25.72600
C  20.53100 49.89600 27.12400
C  19.39400 50.64400 27.39300
C  21.81600 49.21200 24.93200
C  21.13800 49.50100 28.34800
O  22.17400 48.95000 28.62600
C  20.24500 50.21200 29.49100
C  19.81800 49.22400 30.48100
O  18.82600 48.44600 30.38300
O  20.53700 49.44000 31.63700
C  20.00200 48.63000 32.79800
H  14.35200 53.70000 29.78800
H  14.51300 54.36000 23.32500
H  19.70900 50.67400 22.96800
H  17.96000 50.87700 31.45100
H  16.11300 52.96500 31.52600
H  14.61300 51.38700 32.02000
H  16.02900 50.48500 31.99100
H  14.96200 50.47300 30.52100
H  17.95400 53.80100 31.37900
H  19.52700 53.10300 30.79600
H  19.70100 53.60200 33.08900
H  20.10100 51.93400 32.67400
H  12.91800 56.23600 28.59800
H  12.48700 54.62200 29.27600
H  11.48200 55.24100 28.10600
H  10.98600 56.30500 26.24700
H  11.67800 57.58500 25.17700
H  12.41200 57.36300 26.75700
H  16.27400 53.93900 21.65500
H  17.62100 51.28500 21.57600
H  15.73300 51.71600 20.46500
H  14.56300 52.96900 21.13200
H  14.67100 51.46700 21.95600
H  19.57400 53.65900 22.08100
H  18.54300 53.91700 20.68200
H  19.77100 52.40800 19.35100
H  20.24200 51.49500 20.88000
H  21.04000 52.85200 20.52300
H  21.61900 49.39500 23.87600
H  21.74700 48.14800 25.16200
H  22.75400 49.69600 25.20200
H  20.92400 50.91700 29.97100
H  20.25000 47.60100 32.53800
H  18.92800 48.68200 32.97700
H  20.59100 48.92200 33.66700
Mg -12.11500 16.08900 42.28100
C  -9.29300 14.18100 41.64100
C  -10.78400 18.75000 40.38600
C  -15.21600 17.59500 42.13200
C  -13.73100 13.09100 43.26600
N  -10.25000 16.30600 41.07400
C  -9.24300 15.38900 40.90500
C  -8.09400 15.94000 40.19500
C  -8.47500 17.40200 39.80300
C  -9.96000 17.55300 40.42300
C  -7.48300 18.34000 40.41200
C  -7.69100 15.01300 39.03700
C  -6.19600 14.59500 38.85000
H  -5.47400 15.28000 37.63000
N  -12.82200 18.01700 41.63400
C  -12.10800 19.00100 40.97400
C  -12.92900 20.15600 40.79200
C  -14.23800 19.85800 41.30600
C  -14.16700 18.42200 41.72700
C  -12.40100 21.52300 40.11400
C  -15.36200 20.81700 41.45800
O  -15.14000 21.95000 41.16600
C  -16.69500 20.46900 41.84000
N  -14.22100 15.52100 42.75300
C  -15.30800 16.26200 42.55800
C  -16.67500 15.49300 42.71800
C  -16.12600 14.12100 43.17600
C  -14.55100 14.25200 43.08900
C  -17.86700 16.09200 43.55800
C  -16.59600 12.89900 42.28900
C  -16.90400 11.56100 43.01200
N  -11.58900 14.08600 42.62900
C  -12.30800 13.02700 43.07200
C  -11.43200 11.91600 43.37200
C  -10.13900 12.35200 42.85400
C  -10.35800 13.64000 42.35700
C  -11.89700 10.56700 43.72500
C  -8.83400 11.95600 42.63400
O  -8.18300 10.94800 42.90100
C  -8.23500 13.14800 41.82000
C  -7.00800 13.59100 42.49900
O  -6.94600 14.18300 43.52700
O  -5.85600 13.17800 41.79700
C  -4.63200 13.73300 42.34800
H  -10.35700 19.55000 39.77800
H  -16.20100 18.02200 41.93000
H  -14.23400 12.15400 43.51100
H  -7.23700 15.96000 40.86800
H  -8.66000 17.67600 38.76400
H  -6.97200 17.93800 41.28700
H  -8.04600 19.17500 40.82900
H  -6.76500 18.56800 39.62500
H  -7.92900 15.43500 38.06100
H  -8.23600 14.07600 39.14800
H  -6.05300 13.51600 38.79200
H  -5.72000 14.96900 39.75700
H  -12.75800 22.43100 40.59900
H  -12.56000 21.49100 39.03600
H  -11.33700 21.56000 40.34800
H  -17.40700 21.29400 41.80000
H  -16.68700 19.95100 42.79900
H  -17.14600 19.81200 41.09700
H  -17.02000 15.40700 41.68700
H  -16.44000 13.90400 44.19700
H  -18.35400 15.27000 44.08300
H  -18.46800 16.61200 42.81300
H  -17.64600 16.96100 44.17900
H  -15.85500 12.69800 41.51500
H  -17.48300 13.18300 41.72300
H  -17.98200 11.40400 43.03100
H  -16.60600 11.67600 44.05500
H  -16.50100 10.63500 42.60100
H  -11.06100 9.91000 43.48800
H  -12.80200 10.32000 43.17000
H  -12.36200 10.55900 44.71000
H  -7.97900 12.74200 40.84200
H  -4.68500 14.81300 42.20900
H  -3.70500 13.39700 41.88500
H  -4.46100 13.50300 43.39900

