158

Mg 46.96900 25.96700 29.29500
C  47.78700 27.93600 32.06200
C  45.92100 23.47400 31.52100
C  45.93000 24.27200 26.63700
C  48.04100 28.45000 27.20600
N  46.80400 25.80200 31.56700
C  47.19200 26.72700 32.49700
C  46.68200 26.31900 33.88700
C  46.20200 24.87100 33.65600
C  46.28400 24.71500 32.13600
C  46.98000 23.82700 34.47800
C  45.63100 27.23100 34.47400
C  45.98700 27.95800 35.82300
H  46.39100 27.06700 37.02400
N  46.18600 24.08900 29.09700
C  45.82400 23.24100 30.13400
C  45.31800 22.00800 29.54500
C  45.14000 22.25400 28.11700
C  45.77900 23.57900 27.91300
C  44.98500 20.77400 30.39200
C  44.57600 21.35200 27.05300
O  44.61000 21.61600 25.84800
C  43.99900 20.11800 27.43200
N  47.22700 26.13400 27.11400
C  46.55800 25.39400 26.26400
C  46.53200 25.89800 24.83600
C  47.18300 27.32100 25.05400
C  47.47300 27.34100 26.57900
C  47.29700 25.01600 23.78500
C  46.29600 28.52200 24.63600
C  47.06900 29.63300 23.96000
N  47.96300 27.68500 29.50800
C  48.28300 28.58300 28.57700
C  48.91300 29.70100 29.22200
C  48.76800 29.48700 30.57700
C  48.14400 28.29500 30.74100
C  49.46400 30.89000 28.50300
C  49.00400 30.04900 31.92700
O  49.61500 31.06800 32.31900
C  48.32000 29.02100 32.97900
C  49.46300 28.39500 33.76900
O  50.28700 27.69900 33.25400
O  49.27700 28.76600 35.10700
C  50.29900 28.25100 35.99300
H  45.51000 22.75500 32.23300
H  45.50000 23.77000 25.76700
H  48.37900 29.16600 26.45400
H  47.45800 26.36900 34.65100
H  45.14700 24.71200 33.87900
H  47.48700 23.09900 33.84500
H  46.17600 23.39600 35.07400
H  47.73900 24.21700 35.15700
H  44.73500 26.63500 34.64700
H  45.44600 28.09100 33.83000
H  45.01500 28.37800 36.08100
H  46.72500 28.75800 35.75800
H  44.90200 19.83700 29.84100
H  43.99500 20.99400 30.79200
H  45.50900 20.61600 31.33400
H  44.72800 19.40500 27.81700
H  43.51000 19.62400 26.59300
H  43.26900 20.28900 28.22300
H  45.46600 25.96200 24.61800
H  48.11000 27.30300 24.48100
H  47.13400 25.11500 22.71200
H  47.22300 23.97000 24.08300
H  48.34700 25.30900 23.76400
H  45.85600 28.89300 25.56200
H  45.46600 28.18500 24.01400
H  46.54800 29.88600 23.03700
H  48.10200 29.33600 23.78100
H  47.05000 30.50100 24.62000
H  49.10600 31.74700 29.07300
H  49.21000 30.97000 27.44700
H  50.53800 30.92400 28.68900
H  47.60600 29.48800 33.65700
H  50.98400 29.00700 36.37800
H  50.89600 27.42200 35.61400
H  49.77300 27.92500 36.89000
Mg 10.23900 46.74400 25.54500
C  7.96800 46.90000 28.18200
C  12.66800 48.08200 27.59200
C  12.28600 46.68500 22.94600
C  7.53300 46.22600 23.40000
N  10.33200 47.45700 27.62400
C  9.28300 47.21200 28.54600
C  9.79400 47.55200 29.95100
C  11.17800 48.24800 29.74400
C  11.46300 47.87200 28.28800
C  11.15600 49.87800 29.84200
C  9.73500 46.28200 30.92500
C  9.35300 46.55500 32.39200
H  9.65900 45.55800 33.42200
N  12.18900 47.21400 25.31200
C  13.00500 47.71800 26.30400
C  14.35800 47.96300 25.75500
C  14.33200 47.43000 24.38400
C  12.87900 47.14500 24.16800
C  15.50700 48.58600 26.57100
C  15.54900 47.20500 23.44100
O  15.45200 46.68700 22.36700
C  16.97100 47.53200 23.84600
N  10.00500 46.49100 23.38100
C  10.98200 46.43500 22.52000
C  10.41900 46.09500 21.06100
C  8.86500 45.79900 21.40200
C  8.81500 46.19700 22.85900
C  10.76700 47.22300 20.05100
C  8.40600 44.31100 20.98100
C  7.50400 44.34400 19.75000
N  8.19000 46.61200 25.64300
C  7.20900 46.47300 24.71400
C  5.89500 46.54100 25.33600
C  6.18100 46.65100 26.72900
C  7.53000 46.70600 26.85900
C  4.64200 46.43600 24.62600
C  5.57000 46.72900 28.04000
O  4.38100 46.77900 28.31800
C  6.73200 46.79400 29.01900
C  6.53600 45.50900 29.80200
O  6.89200 44.38800 29.49200
O  5.89300 45.73800 30.93600
C  5.55000 44.58300 31.77000
H  13.49000 48.43700 28.21700
H  13.04500 46.51200 22.18000
H  6.71700 46.10800 22.68400
H  9.02800 48.24700 30.29500
H  11.99200 47.78800 30.30400
H  11.58700 50.29500 28.93200
H  11.84800 50.15500 30.63700
H  10.15000 50.23900 30.05400
H  10.75700 45.91100 30.83600
H  9.04700 45.56600 30.47600
H  8.26500 46.60500 32.41200
H  9.78200 47.50500 32.71200
H  15.27900 48.91700 27.58400
H  15.81400 49.52900 26.11800
H  16.36200 47.91100 26.62100
H  17.74800 47.58400 23.08300
H  17.11800 46.78100 24.62300
H  16.95600 48.45700 24.42300
H  10.92100 45.17800 20.75300
H  8.17700 46.44400 20.85500
H  11.51700 46.86700 19.34500
H  11.13100 48.20200 20.36000
H  9.86300 47.34900 19.45500
H  7.87400 43.86800 21.82400
H  9.32500 43.72900 20.91100
H  8.13600 43.86100 19.00500
H  7.08700 45.31700 19.48800
H  6.62100 43.76000 20.01100
H  4.45800 45.41100 24.30300
H  4.60300 47.11500 23.77400
H  3.84800 46.76200 25.29700
H  6.69400 47.64200 29.70300
H  6.53200 44.37500 32.19300
H  5.25200 43.65600 31.28100
H  4.84000 44.91200 32.52900

