158

Mg 44.38600 3.42900 47.24800
C  42.28300 6.23300 47.45900
C  41.42600 1.47600 47.53600
C  46.23200 0.83100 46.76400
C  47.12300 5.59700 47.29900
N  42.11600 3.80200 47.33500
C  41.51700 5.08500 47.47200
C  40.01900 4.94600 47.19100
C  39.71500 3.47300 47.62900
C  41.15900 2.83400 47.46600
C  38.95800 3.36500 48.93000
C  39.79800 5.29100 45.69800
C  38.78000 6.39200 45.36700
H  38.02200 6.47000 44.04000
N  43.90600 1.41700 46.98700
C  42.73000 0.82200 47.35000
C  42.92900 -0.62800 47.32600
C  44.25200 -0.87400 46.89100
C  44.87300 0.48000 46.83900
C  41.86700 -1.64300 47.61800
C  44.87100 -2.32600 46.64000
O  44.12300 -3.29300 46.73300
C  46.35300 -2.60600 46.32800
N  46.43400 3.32300 46.93600
C  46.95300 2.06300 46.74500
C  48.48200 2.18900 46.87100
C  48.75800 3.68800 47.09500
C  47.38400 4.22100 47.07200
C  49.17100 1.41400 48.07300
C  49.58300 4.38600 45.93200
C  50.82900 5.07800 46.53400
N  44.72000 5.51100 47.32300
C  45.85600 6.20900 47.37400
C  45.51900 7.58800 47.48500
C  44.17000 7.75000 47.42400
C  43.69200 6.39500 47.37600
C  46.59000 8.75500 47.52500
C  42.99800 8.63000 47.48900
O  42.89700 9.80400 47.58400
C  41.73800 7.67700 47.34700
C  40.64000 7.95200 48.38100
O  40.58600 7.35700 49.44300
O  39.81800 8.97300 48.01800
C  38.73100 9.38500 48.91500
H  40.61300 0.82000 47.85300
H  46.82800 -0.07500 46.63600
H  47.95500 6.30100 47.36800
H  39.51400 5.56200 47.93600
H  39.14700 2.88100 46.91100
H  38.69700 4.32300 49.37800
H  39.60200 2.83200 49.63000
H  37.98900 2.88700 48.78700
H  39.46400 4.40100 45.16600
H  40.71900 5.57100 45.18600
H  39.33300 7.32900 45.42800
H  38.11800 6.40000 46.23200
H  42.15200 -2.40000 48.34800
H  41.65900 -2.09900 46.65000
H  41.01700 -1.13700 48.07700
H  47.10400 -2.31300 47.06200
H  46.49000 -1.99000 45.43900
H  46.49600 -3.65200 46.05600
H  48.98400 1.79100 45.98900
H  49.23100 3.93700 48.04500
H  49.31400 0.35100 47.87500
H  48.48400 1.46800 48.91800
H  50.08700 1.92100 48.37400
H  49.05000 5.14700 45.36100
H  49.84400 3.70100 45.12500
H  50.73500 5.27300 47.60200
H  51.07500 5.97300 45.96300
H  51.67500 4.39200 46.49900
H  46.21000 9.53100 48.19000
H  46.77900 9.15000 46.52700
H  47.44300 8.30900 48.03700
H  41.40900 7.89000 46.33000
H  37.89700 8.68400 48.87700
H  38.48500 10.37000 48.51900
H  38.99300 9.52900 49.96300
Mg -10.67000 39.64200 41.76900
C  -9.44000 36.54600 40.37000
C  -8.14600 41.28500 40.17600
C  -12.39200 42.35200 42.31900
C  -13.62600 37.64100 42.57100
N  -9.07100 38.96900 40.32700
C  -8.65500 37.69800 40.00900
C  -7.30200 37.72000 39.30900
C  -6.96300 39.25900 39.18000
C  -8.09600 39.93900 39.91400
C  -5.50600 39.62700 39.63400
C  -7.37000 36.99600 37.84800
C  -6.52600 35.71700 37.77200
H  -5.46300 35.64400 36.65700
N  -10.31500 41.58200 41.37500
C  -9.25400 42.09300 40.67500
C  -9.33000 43.57100 40.63800
C  -10.64100 43.89600 41.15300
C  -11.18300 42.59400 41.72300
C  -8.27900 44.57400 40.09300
C  -11.36100 45.24400 41.07100
O  -10.84500 46.12600 40.35000
C  -12.58000 45.59800 41.84100
N  -12.71900 39.92200 42.41000
C  -13.12500 41.17300 42.67600
C  -14.59500 41.17100 43.15200
C  -14.94200 39.67200 43.30500
C  -13.68400 39.03400 42.67300
C  -14.89100 42.06400 44.39900
C  -16.27900 39.19300 42.56200
C  -17.36100 38.46800 43.34500
N  -11.33100 37.49200 41.70700
C  -12.52100 36.88400 42.08900
C  -12.46000 35.44000 41.80900
C  -11.25200 35.29700 41.21400
C  -10.65800 36.59000 41.10100
C  -13.45200 34.40000 42.15200
C  -10.35700 34.30300 40.68700
O  -10.48900 33.09400 40.51700
C  -9.10500 35.06100 40.29500
C  -8.01500 34.65000 41.25900
O  -7.80800 35.19000 42.33100
O  -7.33100 33.55600 40.77000
C  -6.36700 32.84400 41.65600
H  -7.28900 41.88300 39.86000
H  -13.02500 43.22600 42.48300
H  -14.41200 36.94400 42.86900
H  -6.58700 37.25200 39.98500
H  -6.97600 39.52700 38.12400
H  -5.09600 38.66100 39.92700
H  -5.46400 40.38200 40.42000
H  -4.92600 39.91400 38.75800
H  -7.05400 37.65800 37.04200
H  -8.44100 36.81100 37.77400
H  -7.09500 34.81700 37.53500
H  -6.07900 35.52400 38.74700
H  -7.40500 44.01000 39.76600
H  -7.98900 45.38200 40.76500
H  -8.75600 45.00500 39.21300
H  -13.47700 45.31500 41.29100
H  -12.62500 46.68000 41.97200
H  -12.54100 45.07300 42.79500
H  -15.20500 41.61300 42.36300
H  -14.89600 39.38500 44.35500
H  -15.52300 42.89700 44.09300
H  -13.98200 42.35900 44.92500
H  -15.50400 41.50500 45.10700
H  -15.95400 38.50500 41.78100
H  -16.74600 40.04800 42.07400
H  -18.34600 38.92700 43.43000
H  -17.10700 38.19200 44.36800
H  -17.63700 37.57500 42.78500
H  -13.34800 34.04500 43.17800
H  -13.34400 33.48600 41.56900
H  -14.42200 34.84500 41.92800
H  -8.83200 34.63500 39.33000
H  -5.78200 33.61100 42.16400
H  -5.66100 32.24300 41.08300
H  -6.88000 32.22900 42.39400

