158

Mg 0.08500 7.22200 26.96700
C  0.85700 9.43100 29.45400
C  -0.05400 4.61500 29.32500
C  -0.50200 5.03700 24.50200
C  0.20200 9.87400 24.70400
N  0.65400 7.07000 29.07500
C  0.81800 8.12300 29.96600
C  0.86400 7.67500 31.44200
C  0.79800 6.10100 31.29400
C  0.36000 5.92500 29.79100
C  2.15300 5.34800 31.41500
C  -0.31000 8.12200 32.32500
C  -0.02700 8.30700 33.84200
H  -0.71100 7.49300 35.02000
N  -0.21200 5.08100 26.86300
C  -0.24300 4.19300 27.93700
C  -0.52500 2.90300 27.48700
C  -0.60500 2.94700 26.01000
C  -0.42100 4.40200 25.72600
C  -0.73800 1.79300 28.43400
C  -0.84700 1.85000 25.00300
O  -0.76200 2.00500 23.82700
C  -0.89700 0.50500 25.55800
N  0.11100 7.40500 24.88800
C  -0.29100 6.34700 24.07500
C  -0.59400 6.81800 22.61900
C  -0.55900 8.32500 22.75600
C  -0.04200 8.58400 24.16500
C  0.45500 6.30000 21.66600
C  -1.89600 9.11000 22.49000
C  -1.73200 10.11400 21.39200
N  0.57600 9.20300 27.02300
C  0.65500 10.18600 25.98700
C  0.96300 11.40400 26.53100
C  1.10000 11.15300 27.87400
C  0.86300 9.83100 28.10400
C  1.15700 12.67500 25.74000
C  1.38600 11.74900 29.18800
O  1.67700 12.92600 29.48800
C  1.04500 10.73900 30.22400
C  2.22400 10.60100 31.08800
O  3.37500 10.28600 30.72900
O  1.93900 11.01800 32.34100
C  2.95300 11.28200 33.37100
H  -0.05800 3.92400 30.17000
H  -0.76500 4.40200 23.65400
H  -0.06000 10.66100 23.99300
H  1.81700 7.76700 31.96400
H  0.10400 5.57100 31.94700
H  2.09700 4.98300 32.44000
H  2.96000 6.01600 31.11300
H  2.17400 4.54800 30.67500
H  -1.07900 7.34900 32.30100
H  -0.80800 8.99300 31.90000
H  -0.03700 9.38900 33.97600
H  1.01300 8.07900 34.07500
H  -1.78100 1.53800 28.62000
H  -0.12000 1.93700 29.32100
H  -0.19900 0.98000 27.94600
H  -1.87000 0.22200 25.96100
H  0.01500 0.41700 26.14900
H  -0.72700 -0.13200 24.69000
H  -1.56900 6.54300 22.21800
H  0.27300 8.55200 22.09000
H  0.75100 7.05600 20.94000
H  0.03100 5.43200 21.16100
H  1.28000 6.12900 22.35800
H  -2.29600 9.57600 23.39000
H  -2.74100 8.48800 22.19700
H  -2.66000 10.10000 20.82100
H  -0.90400 9.83200 20.74100
H  -1.46200 11.10600 21.75300
H  1.94800 12.49000 25.01300
H  1.52700 13.42600 26.43800
H  0.24700 12.88500 25.17700
H  0.17900 11.04600 30.81200
H  3.76200 12.00100 33.24100
H  3.29200 10.28000 33.63400
H  2.50100 11.74500 34.24800
Mg 48.93500 35.30100 27.21500
C  47.01500 33.87400 29.94600
C  49.20800 38.10000 29.23800
C  49.87300 37.07600 24.50000
C  48.13800 32.51500 25.27700
N  48.23700 35.86100 29.39800
C  47.59600 35.06500 30.27800
C  47.86100 35.63300 31.64800
C  48.14700 37.14900 31.35700
C  48.60100 37.03000 29.89100
C  46.98300 38.08300 31.58100
C  49.11300 34.93600 32.35500
C  48.93200 34.68500 33.86000
H  49.75200 35.48700 34.81000
N  49.61900 37.23400 26.94300
C  49.64400 38.26700 27.94700
C  50.25200 39.45100 27.35300
C  50.56600 39.17300 25.91600
C  50.03300 37.78000 25.77000
C  50.57900 40.75600 28.17300
C  51.19200 40.03200 24.93600
O  51.31300 39.64000 23.79900
C  51.76400 41.47600 25.25600
N  49.00900 34.82100 25.24400
C  49.46300 35.79100 24.30000
C  49.65100 35.06800 22.89600
C  49.25200 33.57500 23.28800
C  48.71300 33.65700 24.71800
C  48.95500 35.61900 21.65100
C  50.57300 32.67300 23.27000
C  50.37400 31.30500 22.54900
N  47.86900 33.44200 27.55700
C  47.62900 32.41700 26.64400
C  46.99700 31.34500 27.38400
C  46.60100 31.88100 28.59500
C  47.25100 33.17100 28.69800
C  46.70100 29.91800 26.88400
C  45.87200 31.63200 29.79000
O  45.11600 30.71300 30.11300
C  45.98000 32.99700 30.68500
C  46.43900 32.53000 32.02300
O  47.46800 31.86500 32.23900
O  45.51500 32.89900 32.98500
C  45.89800 32.51300 34.39600
H  49.37500 38.95900 29.89100
H  50.39100 37.42400 23.60300
H  48.03200 31.58400 24.71500
H  46.91100 35.49600 32.16400
H  49.01900 37.45500 31.93500
H  47.18700 39.12800 31.81300
H  46.45100 37.66600 32.43700
H  46.37400 38.08100 30.67700
H  50.02000 35.52400 32.21800
H  49.33100 34.00800 31.82700
H  49.02900 33.61600 34.05200
H  47.90600 34.99300 34.06100
H  50.15400 41.62900 27.67800
H  51.63100 41.00300 28.31600
H  50.03100 40.90500 29.10400
H  52.12100 41.95000 24.34200
H  52.52400 41.46500 26.03800
H  50.90300 42.12600 25.41200
H  50.72800 35.18700 22.77300
H  48.47300 33.15000 22.65500
H  49.53200 36.41400 21.17900
H  48.07400 36.13900 22.02900
H  48.66300 34.95900 20.83400
H  50.96700 32.39600 24.24800
H  51.36200 33.15200 22.69000
H  50.93700 31.30400 21.61600
H  49.32500 31.07300 22.36300
H  50.72100 30.42300 23.08600
H  45.85100 29.93900 26.20100
H  46.45700 29.31200 27.75600
H  47.59800 29.60000 26.35200
H  44.99700 33.42300 30.88500
H  46.35800 33.36400 34.89800
H  46.60200 31.68200 34.44100
H  44.98600 32.26400 34.93700

