158

Mg 9.08900 3.92200 27.59000
C  10.44600 2.42900 30.31600
C  7.36900 6.20600 29.68500
C  8.22400 5.72900 24.92500
C  10.51500 1.52400 25.54200
N  8.73600 4.08300 29.73800
C  9.56300 3.46900 30.71300
C  9.19700 3.96400 32.12400
C  8.13500 5.10800 31.88600
C  8.00500 5.14500 30.31900
C  6.77600 4.83400 32.59900
C  10.42100 4.45600 33.03500
C  10.05900 5.11500 34.31000
H  10.44500 4.46400 35.65200
N  7.93500 5.68700 27.31600
C  7.29600 6.41700 28.24200
C  6.61100 7.59200 27.61500
C  6.96500 7.52200 26.25300
C  7.75900 6.29400 26.13900
C  5.78600 8.66600 28.34900
C  6.73600 8.57000 25.10200
O  7.02000 8.31400 23.95500
C  6.02400 9.84900 25.35100
N  9.20700 3.60400 25.48400
C  8.83700 4.51200 24.57100
C  8.98100 3.98200 23.16700
C  9.69400 2.63000 23.37900
C  9.90800 2.60600 24.89100
C  7.66000 4.04200 22.39500
C  11.06300 2.36700 22.60600
C  11.09300 1.14400 21.69500
N  10.28200 2.23100 27.78000
C  10.82500 1.37500 26.91300
C  11.75800 0.49500 27.62600
C  11.64300 0.82300 28.93000
C  10.75500 1.97700 28.98300
C  12.58000 -0.60900 26.92800
C  12.02900 0.49600 30.24400
O  12.75100 -0.38800 30.60600
C  11.32200 1.50000 31.18300
C  10.55000 0.93700 32.23800
O  9.34400 0.65800 32.18400
O  11.40800 0.66000 33.27500
C  10.75900 0.43700 34.51100
H  6.92200 7.10400 30.11600
H  7.76300 6.21500 24.06200
H  11.06700 0.85700 24.87600
H  8.82800 3.07700 32.63800
H  8.54400 5.98600 32.38700
H  5.96600 4.79800 31.86900
H  6.70500 5.69900 33.25700
H  6.86500 3.90300 33.15900
H  10.98400 5.05300 32.31700
H  11.18500 3.71000 33.25300
H  8.97700 5.21500 34.39600
H  10.59200 6.05200 34.14600
H  6.09700 9.68600 28.12100
H  5.90100 8.60000 29.43100
H  4.70600 8.53900 28.27700
H  5.90800 10.27100 24.35300
H  6.67500 10.51200 25.92200
H  5.06100 9.76400 25.85600
H  9.61600 4.64700 22.58200
H  8.91600 1.92800 23.07800
H  7.62800 4.79500 21.60800
H  6.77400 4.21500 23.00500
H  7.55100 3.11200 21.83700
H  11.93100 2.21400 23.24700
H  11.21000 3.27600 22.02200
H  11.94400 1.23900 21.02100
H  10.21500 0.97300 21.07200
H  11.23100 0.25300 22.30700
H  11.87800 -1.30600 26.47000
H  13.21100 -1.19100 27.60000
H  13.07500 -0.05900 26.12800
H  12.11800 2.13900 31.56400
H  11.27300 1.07000 35.23500
H  10.96600 -0.60900 34.73700
H  9.71500 0.72700 34.62800
Mg 26.51300 50.05900 26.11800
C  24.58400 51.35300 28.73700
C  28.99900 49.42800 28.24500
C  28.31000 48.82700 23.45900
C  24.14000 51.36200 23.88900
N  26.79100 50.62100 28.22300
C  25.81300 50.96000 29.15100
C  26.24300 50.65300 30.61200
C  27.77100 50.32600 30.37900
C  27.88300 50.07700 28.81700
C  28.52400 51.63500 30.75000
C  25.52600 49.42500 31.25300
C  25.23700 49.37300 32.75600
H  26.04500 50.16400 33.71400
N  28.35200 49.27500 25.85100
C  29.24600 49.06700 26.90200
C  30.42300 48.42800 26.45200
C  30.18800 48.11100 25.06000
C  28.96000 48.80300 24.69600
C  31.58300 48.16800 27.38100
C  31.03400 47.38700 24.14300
O  30.82500 47.40300 22.98400
C  32.24400 46.66200 24.55000
N  26.31500 50.15100 23.92200
C  27.06400 49.34000 23.09500
C  26.49800 49.41600 21.65800
C  25.07700 50.02000 21.87000
C  25.15800 50.51000 23.31900
C  27.37400 50.34800 20.74500
C  23.81500 49.19400 21.55500
C  24.00200 47.70300 21.91700
N  24.67900 51.01000 26.21400
C  23.85200 51.50200 25.22300
C  22.76600 52.21200 25.88200
C  22.91600 52.02000 27.23800
C  24.14100 51.43900 27.37000
C  21.69400 52.97200 25.23300
C  22.35200 52.27100 28.53400
O  21.25800 52.77200 28.75500
C  23.35500 51.75200 29.64000
C  23.58100 52.82900 30.56600
O  24.33600 53.74000 30.35400
O  22.76100 52.76800 31.65700
C  23.04100 53.71200 32.73300
H  29.64500 49.07900 29.05300
H  28.69900 48.42000 22.52300
H  23.40800 51.84600 23.23900
H  25.91800 51.51500 31.19500
H  28.08900 49.48300 30.99200
H  28.87700 52.08900 29.82300
H  29.47500 51.49800 31.26500
H  27.91600 52.37200 31.27500
H  26.14600 48.58500 30.93900
H  24.53200 49.24800 30.84200
H  25.46800 48.36200 33.09200
H  24.16700 49.54000 32.87500
H  32.60700 48.12700 27.01200
H  31.31100 47.28300 27.95500
H  31.68100 48.93800 28.14600
H  32.70900 46.13400 23.71700
H  31.84900 45.89200 25.21300
H  32.96700 47.30200 25.05600
H  26.54900 48.45200 21.15100
H  25.01400 50.86200 21.18100
H  26.86300 51.09400 20.13700
H  28.18700 49.86400 20.20300
H  27.91300 50.94800 21.47900
H  23.61800 49.18600 20.48300
H  22.90200 49.61200 21.97800
H  24.21800 47.10500 21.03200
H  23.08800 47.28800 22.34200
H  24.79300 47.62000 22.66200
H  21.58900 52.74500 24.17200
H  21.85700 54.03600 25.40600
H  20.80100 52.62900 25.75500
H  22.95900 50.89300 30.18200
H  22.09400 53.69100 33.27300
H  23.30800 54.73000 32.45300
H  23.88700 53.48400 33.38100

