158

Mg 45.01300 4.77500 48.41200
C  42.76100 7.40100 47.77400
C  42.39500 2.52200 47.77800
C  47.24400 2.27600 48.06400
C  47.53700 7.16000 48.31800
N  42.75200 4.99800 47.80100
C  42.13000 6.16900 47.58000
C  40.69300 5.89600 47.16300
C  40.53700 4.34100 47.36300
C  41.98100 3.89900 47.60200
C  39.65100 3.94600 48.55300
C  40.48900 6.31100 45.64100
C  39.32700 7.13300 45.32700
H  38.82200 7.02800 43.89100
N  44.86400 2.69200 48.19600
C  43.70700 1.97900 48.03700
C  44.01100 0.61400 47.94000
C  45.46800 0.44900 48.00700
C  45.91500 1.85200 48.12100
C  43.00500 -0.45700 47.75300
C  46.21700 -0.88000 47.93800
O  45.65400 -2.00200 47.77800
C  47.71700 -0.83000 48.14400
N  47.08000 4.75100 48.38100
C  47.76800 3.55500 48.08100
C  49.31000 3.87200 47.91700
C  49.41400 5.30200 48.35700
C  47.91900 5.80600 48.37300
C  50.15400 2.83700 48.72800
C  50.43300 6.21200 47.52500
C  51.20300 7.27200 48.31400
N  45.21300 6.82200 48.10600
C  46.20700 7.67100 48.21300
C  45.76200 9.03700 48.07300
C  44.43500 8.94800 47.93200
C  44.09600 7.61800 47.93600
C  46.63600 10.21600 48.13500
C  43.24300 9.79600 47.75700
O  43.12400 10.99200 47.81100
C  42.13900 8.83500 47.54600
C  41.13600 9.09400 48.63200
O  41.23000 8.65400 49.77000
O  40.17800 9.97300 48.20000
C  39.22700 10.37700 49.20900
H  41.62800 1.76500 47.60000
H  48.02700 1.59700 47.72100
H  48.22800 7.97500 48.54500
H  40.00800 6.34400 47.88300
H  40.15000 3.78200 46.51100
H  38.88800 4.71400 48.68000
H  40.26300 3.91800 49.45400
H  39.01900 3.08500 48.33400
H  40.49900 5.43000 44.99900
H  41.30400 7.00100 45.42100
H  39.70400 8.14800 45.45700
H  38.45900 6.99300 45.97100
H  43.39100 -1.30000 48.32600
H  42.91700 -0.71100 46.69600
H  42.02400 -0.22800 48.16700
H  47.95500 -1.88900 48.23700
H  48.08300 -0.28200 49.01300
H  48.16300 -0.53500 47.19400
H  49.60500 3.78300 46.87200
H  49.76000 5.26500 49.39000
H  50.92300 2.37100 48.11100
H  49.54700 2.08000 49.22300
H  50.63300 3.32400 49.57800
H  49.80600 6.73100 46.80100
H  51.05600 5.50600 46.97400
H  50.97000 8.27000 47.94200
H  52.28200 7.15100 48.21200
H  51.13900 7.24800 49.40200
H  46.36200 10.59900 49.11800
H  46.47800 10.89200 47.29500
H  47.69800 9.98900 48.22300
H  41.66500 8.99400 46.57700
H  39.34600 11.40600 49.54800
H  39.18900 9.74500 50.09700
H  38.25200 10.36300 48.72100
Mg 6.21200 53.29500 41.23300
C  5.33500 49.85000 40.99000
C  9.04500 52.63400 39.91300
C  6.48300 56.65300 40.72500
C  2.79500 53.86900 41.76100
N  7.00300 51.38400 40.22800
C  6.54300 50.11500 40.40200
C  7.63300 49.20500 39.78900
C  8.94200 50.01800 39.99200
C  8.27900 51.45000 39.96800
C  9.84100 49.74000 41.21600
C  7.27300 48.85700 38.34900
C  7.74200 49.68600 37.12900
H  6.88700 49.76700 35.85800
N  7.60200 54.45000 40.48400
C  8.79200 53.96000 40.05400
C  9.72900 55.07700 39.82300
C  9.05200 56.25200 40.15300
C  7.66100 55.86500 40.49600
C  11.08600 54.91800 39.21800
C  9.66100 57.71300 40.15600
O  10.88800 57.75900 39.85400
C  8.95600 58.93100 40.54200
N  4.81500 55.00600 41.17700
C  5.21900 56.26600 41.04700
C  4.10100 57.27600 41.06500
C  2.88500 56.35400 41.42800
C  3.50300 54.97300 41.36900
C  4.32900 58.42600 42.14200
C  1.68700 56.62200 40.44700
C  1.56100 55.71200 39.27500
N  4.52700 52.12300 41.64200
C  3.19300 52.49200 41.83200
C  2.30200 51.35800 42.13900
C  3.16100 50.25400 41.88600
C  4.43800 50.81300 41.46700
C  0.87300 51.38800 42.63300
C  3.23400 48.81200 41.71600
O  2.38600 47.92400 41.94400
C  4.67000 48.50600 41.23000
C  4.63900 47.61200 39.97300
O  4.08500 47.87000 38.92100
O  5.34100 46.40400 40.25600
C  5.25800 45.47600 39.08900
H  10.08500 52.39600 39.68000
H  6.63600 57.72700 40.59900
H  1.75900 54.19000 41.89100
H  7.88000 48.37200 40.44700
H  9.56100 50.01000 39.09500
H  10.83900 49.68400 40.78000
H  9.59100 48.76100 41.62500
H  9.81300 50.54000 41.95500
H  6.20200 48.66200 38.29500
H  7.75800 47.89500 38.17900
H  8.72100 49.35000 36.78900
H  7.77000 50.74100 37.40300
H  11.23200 55.74300 38.52000
H  11.17700 53.96100 38.70400
H  11.81400 54.93500 40.02900
H  9.60800 59.79600 40.42200
H  8.63800 58.69800 41.55800
H  8.15300 59.02300 39.81100
H  3.88700 57.69100 40.08000
H  2.65200 56.40000 42.49200
H  3.59600 58.48400 42.94600
H  4.19400 59.33500 41.55500
H  5.38300 58.50200 42.40700
H  1.57300 57.67200 40.17800
H  0.83300 56.45500 41.10400
H  2.58300 55.43300 39.01900
H  1.19300 56.26900 38.41400
H  0.90100 54.88500 39.54000
H  0.34100 52.17200 42.09500
H  0.78400 51.36200 43.71900
H  0.40400 50.44100 42.36500
H  5.17500 47.95300 42.02200
H  5.63100 44.50000 39.40000
H  5.91100 45.69400 38.24400
H  4.23200 45.34900 38.74300

