158

Mg 17.34700 -1.09000 27.76300
C  16.04000 1.01100 30.33300
C  18.96600 -2.81900 30.14800
C  19.05300 -2.61800 25.33000
C  15.99800 1.05100 25.40800
N  17.50400 -0.83400 29.91500
C  16.97900 0.08900 30.78200
C  17.42800 -0.21300 32.27200
C  18.51300 -1.29600 32.07800
C  18.28200 -1.68600 30.62800
C  19.98500 -0.98900 32.40700
C  16.35900 -0.62400 33.20100
C  16.41200 -0.07400 34.66800
H  17.73600 0.50100 35.28800
N  18.61900 -2.72600 27.76200
C  19.05300 -3.31600 28.85100
C  19.72100 -4.51200 28.44000
C  19.85600 -4.53100 26.99600
C  19.21000 -3.24400 26.64700
C  20.26100 -5.41100 29.45300
C  20.53100 -5.45900 25.97700
O  20.56800 -5.24800 24.76400
C  21.25400 -6.76200 26.46000
N  17.45400 -0.86000 25.68500
C  18.25600 -1.58200 24.88400
C  18.07000 -1.24300 23.39000
C  16.83400 -0.19600 23.45300
C  16.72400 -0.05100 24.92800
C  19.32900 -0.69400 22.71200
C  15.52800 -0.50300 22.65700
C  14.48200 -1.57600 23.16500
N  16.21100 0.72700 27.81700
C  15.69500 1.38300 26.78100
C  14.83400 2.45000 27.26400
C  14.87000 2.24800 28.65400
C  15.76700 1.24100 28.93400
C  14.02400 3.41600 26.54700
C  14.41100 2.79400 29.87200
O  13.62900 3.71500 30.13900
C  15.21800 2.02900 31.03400
C  15.97400 3.05700 31.74600
O  16.76500 3.84300 31.18000
O  15.60000 3.11300 33.07900
C  16.36300 3.99300 33.96200
H  19.50500 -3.40500 30.89600
H  19.58800 -3.14400 24.53700
H  15.71000 1.69700 24.57700
H  17.85800 0.70600 32.67000
H  18.22300 -2.10000 32.75500
H  20.54200 -0.82900 31.48400
H  20.48700 -1.88100 32.78100
H  20.14300 -0.21000 33.15200
H  16.21000 -1.69500 33.34100
H  15.40000 -0.22500 32.87000
H  16.10100 -0.95000 35.23700
H  15.61900 0.65100 34.85500
H  21.20300 -5.06100 29.87500
H  20.41100 -6.36000 28.93800
H  19.59700 -5.50300 30.31300
H  20.55900 -7.58000 26.64800
H  21.74300 -6.59600 27.41900
H  21.97700 -7.14000 25.73600
H  17.72300 -2.17800 22.95200
H  17.22200 0.75300 23.08300
H  19.16700 0.30400 22.30500
H  19.68800 -1.30500 21.88400
H  20.11300 -0.70400 23.46900
H  15.69500 -0.89900 21.65500
H  15.13000 0.49200 22.45900
H  13.68300 -0.98200 23.60700
H  14.83800 -2.31100 23.88800
H  14.02900 -2.04500 22.29100
H  13.82000 3.02900 25.54900
H  14.52800 4.37900 26.46800
H  13.06800 3.54400 27.05500
H  14.37400 1.62000 31.59000
H  17.30000 4.38800 33.56800
H  16.57400 3.66300 34.97900
H  15.78400 4.89700 34.14700
Mg 25.87800 1.15500 29.26200
C  27.83200 0.75000 32.13100
C  23.14000 1.55800 31.26600
C  24.13500 1.37600 26.43800
C  28.78600 0.22300 27.40800
N  25.58800 0.97400 31.51800
C  26.55300 1.04700 32.44600
C  25.96200 1.30700 33.82700
C  24.40900 1.33500 33.54800
C  24.33900 1.29100 32.03700
C  23.57300 0.21000 34.30200
C  26.45400 2.58100 34.50400
C  26.91600 2.51600 35.99000
H  26.37100 3.61700 36.97700
N  23.92500 1.39200 28.89400
C  22.88800 1.59000 29.81600
C  21.61200 1.84500 29.15800
C  21.87200 1.75600 27.75700
C  23.35600 1.51900 27.63200
C  20.37400 2.15800 29.98700
C  20.92400 1.87600 26.59600
O  21.29000 1.65300 25.44200
C  19.47100 2.19500 26.73300
N  26.41400 0.78500 27.23700
C  25.49200 1.01300 26.22800
C  26.12600 0.82000 24.91300
C  27.64200 0.62700 25.22100
C  27.63300 0.49900 26.71700
C  25.53000 -0.33500 23.98800
C  28.64100 1.78000 24.73900
C  28.48600 3.16800 25.29100
N  27.86200 0.50600 29.60600
C  28.89900 0.21200 28.76100
C  30.12300 0.07700 29.53300
C  29.73000 0.37400 30.85100
C  28.33800 0.52500 30.82600
C  31.47400 -0.23000 29.06900
C  30.25300 0.61100 32.17700
O  31.41300 0.57000 32.60000
C  29.05500 0.81800 33.07000
C  28.98600 -0.15800 34.16200
O  28.83600 -1.36900 34.03700
O  29.12700 0.53700 35.33700
C  29.44400 -0.31600 36.47400
H  22.26400 1.75500 31.88700
H  23.60200 1.48300 25.49000
H  29.66100 0.01300 26.78900
H  26.16500 0.42100 34.42800
H  24.05600 2.31700 33.86300
H  23.07000 -0.42400 33.57300
H  22.78800 0.65600 34.91200
H  24.20600 -0.39500 34.95100
H  25.61300 3.27300 34.50200
H  27.19100 3.02100 33.83200
H  27.99500 2.65200 35.91000
H  26.88300 1.58600 36.55600
H  20.32700 3.22500 30.20800
H  20.42400 1.66700 30.95900
H  19.48100 1.92800 29.40500
H  18.88500 1.95800 25.84600
H  19.18300 3.13800 27.19900
H  19.20800 1.42100 27.45300
H  26.04000 1.75600 24.36100
H  28.01500 -0.38500 25.07000
H  24.96500 -0.99800 24.64300
H  26.34500 -0.86400 23.49300
H  24.84500 0.11300 23.26700
H  28.50500 1.83100 23.65900
H  29.61700 1.30000 24.81800
H  27.81300 3.17700 26.14900
H  28.20500 3.94600 24.58100
H  29.41800 3.51900 25.73400
H  31.44900 -1.29900 28.85500
H  32.27000 -0.09900 29.80200
H  31.68900 0.36400 28.18100
H  29.22000 1.80700 33.49900
H  28.65000 -0.37100 37.21800
H  30.21800 0.05500 37.14500
H  29.74500 -1.33100 36.21500

