158

Mg 17.27400 -1.18300 27.36500
C  16.13800 0.50600 30.25100
C  19.27000 -2.97400 29.45700
C  18.84100 -2.39500 24.62800
C  15.71200 1.26600 25.44800
N  17.61100 -1.18600 29.69200
C  17.06200 -0.46900 30.63400
C  17.61400 -0.67200 31.97800
C  18.62600 -1.84600 31.66400
C  18.52100 -2.03300 30.15100
C  20.08900 -1.59700 32.28500
C  16.56900 -1.03300 33.03400
C  16.53500 -0.13900 34.30000
H  17.83200 0.23100 34.87900
N  18.70300 -2.62300 27.05500
C  19.44500 -3.28800 28.05300
C  20.30300 -4.27400 27.40700
C  20.12900 -4.17800 26.01400
C  19.10900 -3.09300 25.79700
C  21.17300 -5.25800 28.21400
C  20.73600 -4.97100 24.85900
O  20.35000 -4.88300 23.70200
C  21.87500 -5.96100 25.23500
N  17.38700 -0.59500 25.39400
C  18.15200 -1.19900 24.45000
C  18.08200 -0.42000 23.04700
C  17.07800 0.70200 23.44700
C  16.69900 0.47500 24.89600
C  19.45700 -0.02000 22.32700
C  15.80500 0.72700 22.51700
C  16.12700 0.74600 20.99100
N  16.04800 0.50400 27.69400
C  15.41500 1.32000 26.84300
C  14.65400 2.28600 27.52600
C  14.89800 2.06700 28.88500
C  15.79600 0.92700 28.92500
C  14.02100 3.43300 26.91900
C  14.63600 2.56200 30.19500
O  13.98800 3.52700 30.54300
C  15.30800 1.51300 31.19300
C  16.13000 2.34400 32.13200
O  17.33600 2.50900 32.10900
O  15.26500 2.94600 32.99300
C  15.78100 4.11200 33.72100
H  19.91000 -3.54900 30.12900
H  19.51500 -2.59100 23.79200
H  15.30700 2.10400 24.87700
H  18.07700 0.26700 32.28200
H  18.28400 -2.79000 32.08800
H  20.48700 -2.39600 32.91000
H  19.88800 -0.73200 32.91700
H  20.78000 -1.30600 31.49400
H  16.58900 -2.07000 33.36800
H  15.62800 -0.81700 32.52800
H  16.01200 -0.79000 35.00100
H  16.11900 0.79000 33.91000
H  21.10300 -6.32100 27.98100
H  20.74900 -5.31700 29.21700
H  22.18400 -4.88100 28.36500
H  21.54100 -6.86800 25.73900
H  22.50000 -5.47500 25.98400
H  22.53300 -6.08400 24.37500
H  17.66900 -1.22600 22.44100
H  17.65000 1.61300 23.27100
H  20.26400 0.20000 23.02600
H  19.32500 0.85200 21.68700
H  19.86400 -0.92800 21.88300
H  15.21400 1.59200 22.82100
H  15.22900 -0.15700 22.79400
H  16.06100 -0.31500 20.74900
H  17.04300 1.30900 20.81400
H  15.27900 1.18300 20.46300
H  14.51500 3.76500 26.00500
H  14.03900 4.25000 27.64100
H  13.02200 3.14300 26.59600
H  14.53000 0.96000 31.71800
H  14.95000 4.80400 33.58500
H  16.61100 4.68600 33.31000
H  16.05000 3.92900 34.76200
Mg 25.42000 1.54600 29.38800
C  27.23500 1.37700 32.46900
C  22.64900 1.46800 31.21200
C  23.84100 1.71900 26.50100
C  28.54900 0.92200 27.75100
N  24.97100 1.63200 31.58700
C  25.87500 1.56900 32.64700
C  25.09200 1.69100 34.00900
C  23.57900 1.62700 33.56100
C  23.70400 1.49600 32.04500
C  22.75700 0.51900 34.21400
C  25.43700 2.90000 34.85100
C  25.93300 2.63700 36.32800
H  25.56300 3.50000 37.50600
N  23.50400 1.48200 28.91300
C  22.48700 1.53300 29.75600
C  21.28300 1.73700 29.04300
C  21.58800 1.73400 27.66900
C  23.05700 1.72100 27.62700
C  19.91400 1.63700 29.76200
C  20.71400 1.93900 26.47600
O  21.10000 1.71600 25.33000
C  19.28700 2.47900 26.64500
N  26.09000 1.22900 27.35300
C  25.20400 1.50000 26.29700
C  25.93800 1.68100 24.97700
C  27.42500 1.38200 25.42100
C  27.39500 1.12900 26.92600
C  25.48700 0.66300 23.87000
C  28.37600 2.44000 24.97100
C  29.85300 2.03000 24.80400
N  27.43100 1.21600 29.95800
C  28.54100 0.87900 29.14800
C  29.79700 0.82900 29.96900
C  29.28000 0.96500 31.29000
C  27.87200 1.17400 31.26600
C  31.19000 0.60000 29.41100
C  29.67400 1.11400 32.65700
O  30.80400 1.03500 33.10200
C  28.34300 1.25800 33.50800
C  28.20900 0.06100 34.31700
O  28.07200 -1.07600 33.95100
O  28.21900 0.44600 35.61100
C  28.09300 -0.60600 36.61700
H  21.68300 1.43600 31.72000
H  23.43500 1.88900 25.50100
H  29.54100 0.82400 27.30500
H  25.30200 0.84200 34.66000
H  22.98200 2.52200 33.74000
H  21.90000 0.92500 34.75100
H  23.26700 0.00900 35.03100
H  22.36900 -0.25200 33.54900
H  24.51700 3.48300 34.82800
H  26.07200 3.63900 34.36200
H  27.02300 2.64000 36.29700
H  25.79200 1.62900 36.72000
H  19.67000 2.69800 29.79700
H  20.03300 1.12100 30.71500
H  19.25500 1.05400 29.11700
H  18.70000 1.68900 27.11400
H  18.74600 2.76300 25.74200
H  19.44600 3.42600 27.16200
H  25.86800 2.72900 24.68600
H  27.73600 0.40200 25.05800
H  24.99800 1.25200 23.09500
H  24.68400 0.00400 24.19800
H  26.37000 0.14400 23.49800
H  28.30600 3.21000 25.73900
H  27.99900 2.79600 24.01200
H  30.33000 2.63900 24.03600
H  30.04900 1.00900 24.47700
H  30.34000 2.22300 25.76000
H  31.24000 -0.46900 29.61800
H  31.96900 1.19900 29.88300
H  31.33600 0.89600 28.37200
H  28.44500 2.18500 34.07100
H  28.17200 -1.65500 36.33200
H  27.16000 -0.63800 37.18000
H  28.71700 -0.40100 37.48700

