158

Mg 43.40200 2.81100 48.02400
C  41.23000 5.48200 47.15000
C  40.95200 0.50600 47.65000
C  45.73800 0.41100 48.28200
C  46.05500 5.26000 47.84100
N  41.32000 3.01000 47.23100
C  40.58700 4.18100 47.20800
C  39.06500 3.82100 47.05900
C  39.02000 2.26800 47.38300
C  40.53200 1.87100 47.47000
C  38.18100 2.02300 48.80200
C  38.55900 4.19500 45.59500
C  37.66500 5.45300 45.60800
H  37.77100 6.38600 44.35600
N  43.38800 0.75500 47.90000
C  42.24700 0.00800 47.74800
C  42.57500 -1.38400 47.97300
C  43.97100 -1.44300 48.21500
C  44.49000 -0.11400 48.10100
C  41.67300 -2.47900 47.89300
C  44.75300 -2.72900 48.56200
O  44.16400 -3.79000 48.60300
C  46.22000 -2.82200 48.61600
N  45.52800 2.83300 47.82600
C  46.20500 1.72000 48.13100
C  47.71000 2.03500 48.34800
C  47.83600 3.42500 47.73100
C  46.40000 3.90100 47.79300
C  48.14600 1.98900 49.83000
C  48.33500 3.41800 46.25700
C  49.79800 3.65100 46.04300
N  43.64400 5.03100 47.70600
C  44.76400 5.80300 47.77100
C  44.33000 7.25100 47.72100
C  42.97600 7.15700 47.46200
C  42.61400 5.78000 47.34600
C  45.21600 8.43800 48.06500
C  41.79400 7.96400 47.35000
O  41.51500 9.16300 47.29400
C  40.60100 6.84800 47.10600
C  39.60400 7.00300 48.14900
O  39.70500 6.58300 49.31600
O  38.66200 7.89000 47.70900
C  37.81200 8.40000 48.77900
H  40.11200 -0.19200 47.64600
H  46.60100 -0.22200 48.49500
H  46.86000 5.98900 47.72700
H  38.47900 4.35800 47.80500
H  38.46500 1.70400 46.63300
H  37.50300 2.84600 49.02600
H  38.84400 1.99000 49.66700
H  37.71200 1.03900 48.78300
H  37.97400 3.39000 45.15200
H  39.42400 4.38400 44.95800
H  37.67900 6.12600 46.46500
H  36.62600 5.12600 45.57300
H  41.82900 -2.94700 46.92100
H  40.62600 -2.21500 48.03600
H  41.83200 -3.23400 48.66400
H  46.52900 -2.30700 47.70600
H  46.48700 -3.87700 48.68500
H  46.54200 -2.35400 49.54600
H  48.30400 1.38400 47.70600
H  48.52900 4.06400 48.27900
H  47.28800 1.69000 50.43200
H  48.74800 2.81900 50.20100
H  48.83700 1.15100 49.92300
H  47.71400 4.14700 45.73700
H  47.98200 2.51300 45.76300
H  49.84800 4.43700 45.28900
H  50.33800 2.98700 45.36800
H  50.42600 3.86200 46.90800
H  45.97700 8.54200 47.29100
H  45.59400 8.17900 49.05300
H  44.56000 9.30200 47.95200
H  40.22700 7.03100 46.09800
H  37.09100 8.97000 48.19300
H  38.28000 9.09200 49.47900
H  37.25600 7.58900 49.25000
Mg 26.21800 51.13400 25.30700
C  24.16700 52.52000 27.76400
C  28.37600 50.12000 27.79900
C  28.20900 50.15800 22.86600
C  24.04000 52.63000 22.89500
N  26.26000 51.32600 27.44200
C  25.26800 51.84800 28.27700
C  25.52500 51.63500 29.79200
C  26.97200 51.04900 29.73200
C  27.25500 50.79400 28.21900
C  28.04100 51.97300 30.15300
C  24.53100 50.64800 30.57100
C  24.01300 51.02400 31.91700
H  25.08200 51.45400 32.91600
N  28.07000 50.25900 25.32400
C  28.75800 49.90900 26.45700
C  29.99500 49.34700 26.05300
C  29.99500 49.33600 24.62700
C  28.72600 49.97300 24.17700
C  31.11100 49.08400 27.04700
C  31.11500 49.08400 23.73500
O  31.10300 49.43400 22.55800
C  32.30900 48.34700 24.17100
N  26.02900 51.24000 23.14500
C  26.98100 50.72900 22.41600
C  26.67600 50.73300 20.87900
C  25.31000 51.53500 20.92600
C  25.05400 51.81900 22.40600
C  27.84200 51.23100 19.93000
C  24.05500 50.78300 20.34900
C  23.19200 51.50000 19.20500
N  24.47300 52.40000 25.20300
C  23.74300 52.89100 24.23900
C  22.55700 53.53400 24.77000
C  22.71800 53.43100 26.14000
C  23.90600 52.79600 26.36700
C  21.46700 54.14300 24.10100
C  22.07800 53.71700 27.39000
O  20.97300 54.24100 27.59900
C  22.94800 53.12000 28.52100
C  23.35800 54.12400 29.54700
O  24.40100 54.73300 29.67100
O  22.26600 54.45700 30.32900
C  22.57600 55.14700 31.58400
H  28.94500 49.73500 28.64800
H  28.92000 50.00100 22.05200
H  23.47900 52.96800 22.02200
H  25.48500 52.59900 30.30000
H  27.06000 50.16700 30.36700
H  28.79300 52.14500 29.38300
H  28.50000 51.57200 31.05600
H  27.67500 52.95000 30.46700
H  24.97000 49.65100 30.60100
H  23.61000 50.57700 29.99200
H  23.39800 50.18100 32.23100
H  23.43400 51.92900 31.73400
H  31.41200 48.03700 27.05300
H  30.88500 49.41300 28.06200
H  32.06700 49.55600 26.82100
H  32.89100 47.98300 23.32400
H  32.06100 47.55200 24.87400
H  32.87100 49.01700 24.82100
H  26.49300 49.75800 20.42800
H  25.34600 52.43800 20.31700
H  28.05700 50.51600 19.13600
H  28.79600 51.25100 20.45600
H  27.60800 52.23700 19.58100
H  23.39300 50.53300 21.17800
H  24.38000 49.87100 19.84800
H  22.18400 51.36500 19.59800
H  23.34300 50.80200 18.38200
H  23.33500 52.53300 18.88700
H  21.76300 55.11900 23.71500
H  20.70100 54.34000 24.85100
H  21.26800 53.45600 23.27900
H  22.37900 52.38500 29.09100
H  22.71900 56.21800 31.44000
H  23.40900 54.67800 32.10800
H  21.64500 55.05200 32.14200

