158

Mg 9.65300 48.47200 25.53700
C  7.61200 48.79200 28.40800
C  12.32500 49.57700 27.47300
C  11.56700 48.32800 22.84100
C  6.81400 47.76200 23.63700
N  9.90100 49.27100 27.63400
C  8.99700 49.14900 28.62200
C  9.56600 49.45800 30.04100
C  11.03500 49.94900 29.65100
C  11.10800 49.54600 28.16200
C  11.25500 51.51100 29.79800
C  9.60600 48.23000 30.96300
C  9.42200 48.55900 32.46100
H  8.94000 47.37600 33.27200
N  11.64200 49.05300 25.15300
C  12.59200 49.30100 26.10500
C  13.89600 49.29500 25.48400
C  13.71200 48.90000 24.11600
C  12.28500 48.80400 23.95600
C  15.24700 49.64400 26.16700
C  14.76500 48.84400 22.99800
O  14.49000 48.69400 21.82300
C  16.24400 48.83100 23.28800
N  9.22000 48.30200 23.56600
C  10.23800 48.08100 22.69800
C  9.78300 47.59400 21.29400
C  8.33900 47.14600 21.64400
C  8.04700 47.76100 23.01500
C  9.86100 48.63400 20.14400
C  8.03000 45.62500 21.61700
C  7.89600 44.77900 22.88500
N  7.59300 48.29500 25.89600
C  6.52900 48.08300 24.98600
C  5.29700 48.13300 25.76500
C  5.66000 48.41400 27.08600
C  7.03100 48.52300 27.13400
C  3.86700 47.85200 25.22900
C  5.12300 48.51300 28.41800
O  3.95900 48.34400 28.82900
C  6.39800 48.60200 29.31000
C  6.29900 47.29600 30.05300
O  6.49500 46.16200 29.56700
O  5.68700 47.52900 31.28700
C  5.30500 46.33900 32.08900
H  13.18200 49.87900 28.07800
H  12.14500 48.16500 21.92900
H  5.95600 47.58800 22.98300
H  9.02800 50.22500 30.59800
H  11.86300 49.53200 30.22400
H  12.15900 51.73100 30.36600
H  10.42800 52.04600 30.26400
H  11.37000 51.93200 28.79900
H  10.61200 47.81400 30.91900
H  8.95400 47.46000 30.55100
H  8.61000 49.28000 32.55700
H  10.33200 48.96700 32.89900
H  15.01300 49.83600 27.21400
H  15.71900 50.52900 25.74000
H  15.88900 48.76400 26.19600
H  16.52400 49.78100 23.74500
H  16.75500 48.56900 22.36200
H  16.29800 48.05100 24.04700
H  10.34600 46.73400 20.93200
H  7.64000 47.65500 20.98000
H  10.69100 49.32800 20.27000
H  8.87300 49.07800 20.01800
H  10.17500 48.08800 19.25400
H  8.78500 45.13100 21.00500
H  7.09700 45.59700 21.05500
H  8.58800 45.13700 23.64700
H  8.12600 43.73100 22.69300
H  6.90300 44.79200 23.33300
H  3.44900 47.54100 26.18600
H  3.78400 46.97100 24.59200
H  3.23400 48.66600 24.87300
H  6.25400 49.37900 30.06100
H  5.97000 45.50700 31.85500
H  4.23800 46.15500 31.96300
H  5.43100 46.37300 33.17100
Mg -1.38300 34.23600 26.62900
C  -3.19800 32.46200 29.16700
C  0.12500 36.09500 29.23700
C  -0.13800 36.28800 24.30800
C  -3.00000 32.48800 24.22400
N  -1.57700 34.23200 28.92300
C  -2.25400 33.40200 29.73900
C  -2.08700 33.59800 31.25700
C  -1.09600 34.84700 31.23300
C  -0.78300 35.04000 29.64400
C  -1.55500 36.14300 31.89600
C  -1.47200 32.37400 31.92600
C  -2.14000 31.81100 33.16900
H  -1.42900 31.92600 34.48200
N  -0.20100 36.00200 26.72600
C  0.41300 36.52300 27.87500
C  1.18400 37.69700 27.51700
C  1.09700 37.69500 26.12800
C  0.29100 36.64300 25.63800
C  1.91600 38.56000 28.49800
C  1.55400 38.73100 25.14100
O  1.32500 38.77400 23.93400
C  2.31400 39.93900 25.57500
N  -1.64000 34.38300 24.57900
C  -0.92700 35.27400 23.84200
C  -0.96300 34.95900 22.33400
C  -1.74100 33.52700 22.35000
C  -2.22800 33.47900 23.75900
C  -1.75400 36.11300 21.57500
C  -0.96800 32.26100 21.93800
C  0.36200 31.84900 22.57500
N  -2.83300 32.83000 26.64300
C  -3.41600 32.27000 25.61900
C  -4.34300 31.30300 26.08000
C  -4.26900 31.32300 27.46500
C  -3.37400 32.34000 27.74700
C  -5.11600 30.38400 25.24200
C  -4.75000 30.67500 28.65700
O  -5.54500 29.70900 28.76200
C  -4.08700 31.42800 29.87600
C  -5.05600 32.05200 30.76100
O  -5.51300 33.22800 30.73200
O  -5.46500 31.15400 31.76400
C  -6.40600 31.69800 32.71000
H  0.49100 36.70900 30.06200
H  0.40000 36.63500 23.42300
H  -3.43300 31.80100 23.49300
H  -3.05000 33.87000 31.69000
H  -0.11000 34.64000 31.64900
H  -0.64900 36.51000 32.37900
H  -2.32100 35.92200 32.63900
H  -1.75800 36.92400 31.16300
H  -0.44500 32.62500 32.19100
H  -1.46500 31.60000 31.15800
H  -2.36900 30.75800 33.00000
H  -3.16000 32.18400 33.25500
H  2.43600 39.45700 28.16200
H  2.67900 37.95100 28.98300
H  1.24400 38.81300 29.31700
H  2.41700 40.59600 24.71200
H  3.29000 39.57800 25.90000
H  1.81900 40.50000 26.36800
H  0.02200 34.78200 21.90400
H  -2.64600 33.69000 21.76400
H  -1.79300 36.99000 22.22100
H  -2.77900 35.76900 21.43600
H  -1.33500 36.35200 20.59800
H  -0.90400 32.51900 20.88100
H  -1.66100 31.46000 22.19800
H  0.34100 32.40600 23.51200
H  1.29800 32.14800 22.10300
H  0.45200 30.82100 22.92600
H  -4.63600 30.16400 24.28800
H  -6.11200 30.76000 25.00800
H  -5.12800 29.38300 25.67200
H  -3.47600 30.71000 30.42300
H  -7.25400 32.26900 32.33100
H  -5.96300 32.48500 33.32100
H  -6.71600 30.85100 33.32300

