158

Mg -2.75600 17.18000 25.79400
C  -2.99500 14.94800 28.52200
C  -2.98500 19.75600 28.03500
C  -2.53700 19.32900 23.13900
C  -2.98100 14.53500 23.61200
N  -3.00200 17.30300 28.04000
C  -2.97400 16.26100 28.90200
C  -3.08300 16.85500 30.30900
C  -3.17800 18.40800 30.12400
C  -3.02400 18.56200 28.63200
C  -4.50800 19.03800 30.77500
C  -1.92800 16.40500 31.23200
C  -1.62500 17.17300 32.51700
H  -1.08100 16.37900 33.70800
N  -2.76600 19.24100 25.58600
C  -2.81700 20.15200 26.65400
C  -2.74000 21.53100 26.08400
C  -2.55400 21.37500 24.67000
C  -2.65700 19.96300 24.42700
C  -2.94500 22.73900 26.98400
C  -2.21000 22.40000 23.60400
O  -1.75500 22.19100 22.44000
C  -2.29000 23.85300 24.02000
N  -3.01900 17.01100 23.68400
C  -2.83900 18.01900 22.78700
C  -2.92600 17.48500 21.31200
C  -3.01500 15.88300 21.50300
C  -2.99300 15.78100 23.03600
C  -3.98600 18.07200 20.37400
C  -2.06200 14.98000 20.68100
C  -2.61100 14.36800 19.35100
N  -3.03200 15.21200 25.94100
C  -2.96600 14.25400 24.99100
C  -2.94200 12.88200 25.57200
C  -2.94500 13.15700 26.95100
C  -3.01900 14.56500 27.14600
C  -2.88100 11.53200 24.87900
C  -3.02800 12.48300 28.26500
O  -3.13600 11.28700 28.50000
C  -3.14500 13.61000 29.28700
C  -2.09400 13.36200 30.22700
O  -0.89200 13.71900 30.11900
O  -2.50300 12.58300 31.25200
C  -1.52000 11.94700 32.10600
H  -3.09300 20.57400 28.75000
H  -2.40800 19.94600 22.24700
H  -3.08600 13.78200 22.82800
H  -3.89700 16.34800 30.82700
H  -2.33200 18.89900 30.60600
H  -4.56000 19.53700 31.74300
H  -5.30200 18.29400 30.83900
H  -4.85700 19.89700 30.20100
H  -1.02200 16.65200 30.67900
H  -2.09500 15.38000 31.56300
H  -2.47900 17.70100 32.94100
H  -0.71900 17.76500 32.38800
H  -3.29800 22.49200 27.98500
H  -3.67900 23.44300 26.59300
H  -2.01600 23.27100 27.18900
H  -3.32800 24.07400 24.27100
H  -1.78400 24.50400 23.30700
H  -1.74300 23.83600 24.96300
H  -1.97500 17.62300 20.79800
H  -4.00700 15.60900 21.14400
H  -4.92600 17.52000 20.40800
H  -3.57000 17.87800 19.38600
H  -4.29100 19.11500 20.46300
H  -1.71300 14.15400 21.30100
H  -1.10700 15.45100 20.44700
H  -3.51300 14.97100 19.24700
H  -2.78200 13.31400 19.57400
H  -1.93700 14.42100 18.49600
H  -2.43300 11.50900 23.88600
H  -3.86400 11.07200 24.97800
H  -2.24300 10.85700 25.44900
H  -4.11700 13.46900 29.76100
H  -2.11700 11.47600 32.88700
H  -0.78700 12.66700 32.47000
H  -0.91300 11.14700 31.68200
Mg -12.05700 16.63700 41.57200
C  -9.07000 14.87100 40.81900
C  -10.43400 19.47900 40.00700
C  -14.95100 18.17700 41.63200
C  -13.47500 13.66200 42.75900
N  -10.00400 17.15700 40.60300
C  -8.99700 16.27900 40.42900
C  -7.73400 16.91200 39.80000
C  -8.12500 18.38400 39.48900
C  -9.61800 18.35100 40.05100
C  -7.23100 19.48700 40.20900
C  -7.24100 16.17400 38.48500
C  -5.72200 16.15600 38.18800
H  -5.23100 16.97000 37.02700
N  -12.58100 18.52200 40.98600
C  -11.81900 19.57100 40.39500
C  -12.71100 20.62400 40.11400
C  -13.94500 20.41000 40.66300
C  -13.88300 19.00200 41.10600
C  -12.24800 21.79400 39.26700
C  -15.14200 21.38900 40.96000
O  -15.16100 22.56800 40.44300
C  -16.33600 21.05000 41.78900
N  -13.94700 15.98700 42.11000
C  -14.99300 16.85500 42.08500
C  -16.35500 16.01900 42.38200
C  -15.75600 14.54900 42.68800
C  -14.25800 14.75600 42.60200
C  -17.24900 16.71400 43.44400
C  -16.40400 13.46200 41.81100
C  -17.29400 12.53200 42.58200
N  -11.41700 14.72800 42.01100
C  -12.08600 13.60700 42.53100
C  -11.18800 12.53100 42.61200
C  -10.00700 13.02500 42.01600
C  -10.24600 14.29500 41.52400
C  -11.30500 11.20400 43.21500
C  -8.63200 12.53300 41.66800
O  -8.21000 11.40300 41.86100
C  -7.96800 13.80000 40.87400
C  -6.82100 14.24100 41.68900
O  -6.78200 14.58500 42.87800
O  -5.81200 14.28900 40.76700
C  -4.48500 14.48000 41.41800
H  -10.02400 20.32200 39.44800
H  -15.82600 18.68200 41.21800
H  -13.97700 12.82800 43.25400
H  -6.89300 16.86900 40.49200
H  -8.26900 18.71800 38.46200
H  -7.83000 20.16500 40.81700
H  -6.56900 20.00900 39.51900
H  -6.47400 19.03100 40.84700
H  -7.61900 16.66800 37.58900
H  -7.51500 15.12300 38.38800
H  -5.32600 15.14100 38.21700
H  -5.18300 16.49500 39.07300
H  -13.06400 21.96300 38.56400
H  -11.37800 21.46400 38.69900
H  -11.99200 22.68300 39.84400
H  -16.79600 22.00900 42.02800
H  -16.10300 20.54000 42.72400
H  -16.94600 20.51700 41.06000
H  -16.91700 15.99600 41.44800
H  -15.95400 14.27000 43.72300
H  -17.24500 17.79800 43.32600
H  -17.05900 16.41000 44.47300
H  -18.27600 16.50500 43.14400
H  -15.65400 12.85600 41.30300
H  -16.96400 13.95600 41.01700
H  -18.33400 12.61800 42.26800
H  -17.29000 12.84800 43.62500
H  -16.92400 11.51000 42.49600
H  -12.01900 11.32500 44.03000
H  -10.35500 10.90100 43.65600
H  -11.65200 10.43000 42.53000
H  -7.69800 13.25000 39.97300
H  -3.75700 14.36800 40.61400
H  -4.35000 13.81600 42.27200
H  -4.24300 15.48700 41.75700

