158

Mg 43.82100 3.72200 47.06200
C  41.92900 6.76100 47.13800
C  40.97400 2.01700 46.94400
C  45.76000 1.07800 46.66700
C  46.76100 5.82900 46.82700
N  41.69900 4.35300 47.00700
C  41.13200 5.61300 47.08400
C  39.64100 5.46000 47.26700
C  39.38300 3.87500 47.49800
C  40.74700 3.36500 47.09300
C  39.07600 3.57400 48.97400
C  38.76100 6.00000 46.05200
C  39.20500 5.53600 44.58100
H  39.35200 6.72300 43.62100
N  43.42700 1.84100 46.76000
C  42.16000 1.33900 46.72000
C  42.31700 -0.16200 46.60300
C  43.68500 -0.55200 46.60800
C  44.36800 0.85600 46.68700
C  41.04300 -1.07800 46.49800
C  44.23100 -1.99200 46.58400
O  43.56900 -2.99700 46.32400
C  45.67400 -2.18000 46.76700
N  45.95800 3.44200 46.76800
C  46.53800 2.24100 46.61000
C  48.09400 2.26200 46.53300
C  48.35900 3.81500 46.36400
C  46.93800 4.41300 46.64000
C  48.75000 1.75500 47.79800
C  48.87500 4.28500 45.00000
C  49.77700 3.47800 44.06000
N  44.34000 5.91400 46.99000
C  45.55100 6.55700 46.92100
C  45.24600 7.97700 46.99200
C  43.86300 8.12700 47.09700
C  43.35800 6.89200 47.03800
C  46.30600 9.07000 46.94000
C  42.77600 9.11800 47.14000
O  42.74400 10.32500 47.04000
C  41.53400 8.26600 47.23600
C  40.78500 8.58000 48.46800
O  40.87800 7.98300 49.52500
O  39.94200 9.64500 48.30600
C  38.97300 9.91500 49.37500
H  40.12400 1.33200 46.94700
H  46.28400 0.16400 46.37800
H  47.64900 6.44900 46.68500
H  39.30800 6.05800 48.11500
H  38.59400 3.42300 46.89600
H  39.90800 3.07100 49.46500
H  38.24000 2.87800 48.90400
H  38.82700 4.48500 49.52000
H  38.70200 7.08400 46.14500
H  37.74200 5.61700 46.08900
H  38.44400 4.85600 44.19700
H  40.17000 5.03300 44.62800
H  40.34500 -0.86700 47.30800
H  41.13300 -2.14000 46.26800
H  40.53600 -0.65800 45.63000
H  45.93900 -1.54500 47.61300
H  46.17600 -2.03000 45.81100
H  45.82000 -3.16400 47.21200
H  48.48800 1.65800 45.71600
H  49.08800 4.25900 47.04200
H  49.42100 0.96700 47.45700
H  47.98600 1.37400 48.47600
H  49.30300 2.46500 48.41200
H  49.42400 5.21800 45.12900
H  48.04700 4.66100 44.40000
H  49.43900 3.75200 43.06100
H  49.61300 2.41700 44.25000
H  50.81400 3.73800 44.27600
H  46.51000 9.55600 47.89400
H  46.00900 9.89800 46.29600
H  47.22000 8.62100 46.55000
H  40.94300 8.52400 46.35800
H  38.93800 10.96200 49.67400
H  39.09900 9.34500 50.29600
H  37.99900 9.75300 48.91400
Mg 54.50800 24.77400 44.00800
C  51.42300 26.75400 43.36300
C  52.72600 22.06400 42.84900
C  57.36800 23.10200 43.89400
C  56.07800 27.70800 44.91900
N  52.23400 24.47600 43.22100
C  51.20100 25.36500 43.06400
C  49.97700 24.68500 42.37000
C  50.35700 23.19000 42.60700
C  51.88300 23.24100 42.85300
C  49.70000 22.50700 43.85800
C  50.00500 24.97800 40.84500
C  51.34300 25.22700 40.12300
H  51.37700 26.01400 38.76300
N  54.96900 22.82300 43.45200
C  54.06700 21.88200 43.08300
C  54.75700 20.63800 42.99800
C  56.16600 20.84700 43.22600
C  56.23200 22.29200 43.54100
C  54.14500 19.27800 42.65300
C  57.22600 19.82200 43.20300
O  57.02900 18.65100 42.89300
C  58.69300 20.28600 43.30600
N  56.47300 25.36800 44.21700
C  57.49400 24.46200 44.27700
C  58.87300 25.14500 44.46200
C  58.42600 26.66600 44.79200
C  56.86800 26.57800 44.61900
C  59.66900 24.62000 45.59900
C  59.05300 27.73100 43.81100
C  59.41300 29.11300 44.42100
N  53.91100 26.75300 44.21200
C  54.68000 27.80400 44.68500
C  53.75200 28.96300 44.84500
C  52.54000 28.55000 44.30600
C  52.63000 27.23200 43.92600
C  54.04100 30.26600 45.51000
C  51.14400 29.04300 44.02800
O  50.69900 30.16000 44.18900
C  50.39700 27.81200 43.45900
C  49.73300 28.14100 42.15800
O  50.36400 28.52500 41.19900
O  48.37700 28.07400 42.30000
C  47.63600 28.42800 41.05800
H  52.22700 21.15800 42.49900
H  58.33900 22.61100 43.98200
H  56.58900 28.62000 45.23500
H  49.02000 24.93800 42.82500
H  50.17000 22.58100 41.72200
H  50.19900 21.54600 43.97600
H  48.63700 22.36900 43.65500
H  49.86800 23.03500 44.79600
H  49.46100 25.91300 40.71100
H  49.52900 24.23200 40.20900
H  51.67500 24.21500 39.89200
H  52.03100 25.77600 40.76500
H  54.17500 18.96900 41.60900
H  53.06700 19.29400 42.81700
H  54.43800 18.50100 43.35800
H  59.18200 20.42100 44.27000
H  58.74500 21.22000 42.74600
H  59.26400 19.52200 42.78000
H  59.21600 25.04300 43.43200
H  58.63400 27.03400 45.79600
H  59.81200 25.34200 46.40300
H  60.68000 24.41700 45.24700
H  59.18900 23.74000 46.02700
H  58.34400 27.92600 43.00700
H  59.93900 27.32100 43.32400
H  59.59000 28.87500 45.47000
H  58.43300 29.58800 44.38900
H  60.09900 29.77400 43.89100
H  53.33000 30.46800 46.31200
H  54.08700 31.03200 44.73600
H  55.00800 30.15500 46.00200
H  49.66700 27.60000 44.23900
H  47.80400 29.48100 40.83000
H  46.58500 28.14100 41.09500
H  48.10100 27.88100 40.23800

