158

Mg 47.54500 16.26200 29.46800
C  45.61900 16.04200 32.22500
C  49.97900 18.01900 31.37700
C  49.43700 16.75500 26.59000
C  45.02200 14.91300 27.47700
N  47.73300 17.02600 31.55500
C  46.83300 16.68900 32.50000
C  47.24800 17.35400 33.89700
C  48.52600 18.19200 33.58900
C  48.73900 17.80600 32.05700
C  48.43200 19.69200 33.87400
C  47.52600 16.18700 34.91500
C  48.12500 16.62000 36.24300
H  48.09700 18.04200 36.90100
N  49.43500 17.19500 29.03400
C  50.31100 17.68700 29.98000
C  51.64300 17.90200 29.33800
C  51.52900 17.58900 27.95000
C  50.05800 17.18900 27.78000
C  52.85500 18.35300 30.07000
C  52.51900 17.60200 26.71200
O  52.22800 17.20600 25.60700
C  53.98300 18.15300 27.00700
N  47.17200 16.02700 27.25400
C  48.15700 16.23000 26.32500
C  47.56600 16.03100 24.95800
C  46.24500 15.20800 25.14800
C  46.13200 15.33100 26.70800
C  47.54000 17.32000 24.03800
C  46.26400 13.71700 24.62700
C  44.92900 13.38200 23.90400
N  45.78600 15.47700 29.74000
C  44.82300 14.97600 28.84700
C  43.69800 14.50200 29.67400
C  43.98300 14.96900 30.98300
C  45.25000 15.49800 30.95900
C  42.50500 13.78900 29.13300
C  43.33300 15.11100 32.27100
O  42.26600 14.70000 32.66800
C  44.47000 15.79800 33.17800
C  43.97100 17.07500 33.83000
O  43.79400 18.15600 33.26300
O  44.02400 16.92900 35.19900
C  43.80200 18.10400 36.03300
H  50.81700 18.47100 31.91200
H  49.94500 16.88000 25.63200
H  44.22400 14.37900 26.95600
H  46.44600 18.01700 34.22200
H  49.45500 17.85800 34.05000
H  48.50200 20.20000 32.91300
H  49.27500 20.08800 34.44100
H  47.50800 19.99200 34.36800
H  48.22100 15.52700 34.39600
H  46.58700 15.66000 35.08400
H  49.21200 16.55300 36.21000
H  47.67500 15.93900 36.96600
H  52.61900 18.94000 30.95700
H  53.46100 19.07800 29.52600
H  53.49400 17.50100 30.30000
H  54.64900 18.24900 26.14900
H  54.50200 17.59900 27.78900
H  53.92500 19.11000 27.52600
H  48.32300 15.41700 24.47100
H  45.40800 15.77700 24.74300
H  47.66900 18.20900 24.65500
H  46.58000 17.31500 23.52200
H  48.34300 17.26700 23.30200
H  46.35100 13.15000 25.55400
H  47.11100 13.54400 23.96400
H  44.85400 13.94700 22.97500
H  44.03800 13.65200 24.47100
H  44.86300 12.31100 23.71400
H  42.58600 12.82800 29.64100
H  42.42500 13.62000 28.06000
H  41.56400 14.23200 29.45800
H  44.69200 15.00000 33.88700
H  44.77600 18.50000 36.32300
H  43.19000 17.77000 36.87200
H  43.21200 18.88400 35.55400
Mg 36.40000 48.97700 24.25400
C  36.42000 47.32000 27.45700
C  35.14000 51.70300 25.93600
C  35.62500 50.29400 21.21100
C  37.25000 45.96800 22.71500
N  35.77900 49.40700 26.47100
C  35.92500 48.63200 27.59200
C  35.72900 49.44100 28.88700
C  35.36500 50.82600 28.32700
C  35.38500 50.64300 26.82900
C  34.06400 51.47700 28.93600
C  36.99300 49.40600 29.86900
C  36.84200 48.96700 31.31600
H  35.48400 49.07100 31.96500
N  35.48300 50.75300 23.65400
C  35.11200 51.75500 24.51500
C  34.61800 52.90600 23.71400
C  34.80000 52.57100 22.36600
C  35.30400 51.17000 22.33200
C  34.08800 54.15800 24.32500
C  34.47100 53.41200 21.13200
O  34.73200 53.05200 20.03400
C  33.96900 54.82300 21.28700
N  36.40300 48.24400 22.27000
C  36.10200 48.98000 21.14200
C  36.34900 48.17900 19.81600
C  36.91100 46.83100 20.35300
C  36.92800 47.01500 21.89000
C  35.05100 47.99300 18.94600
C  38.21900 46.35800 19.53900
C  39.55700 46.95200 20.00100
N  36.88500 47.05000 24.88000
C  37.22800 45.90100 24.16700
C  37.42000 44.76800 25.05500
C  37.21400 45.31500 26.35300
C  36.76800 46.66400 26.20400
C  37.88600 43.36900 24.59000
C  37.20500 44.91900 27.82100
O  37.45100 43.82700 28.46900
C  36.64200 46.24900 28.53600
C  35.38300 45.94900 29.29700
O  34.26200 46.04800 28.92100
O  35.70300 45.37400 30.48800
C  34.59600 44.89200 31.31800
H  34.94300 52.58700 26.54500
H  35.35400 50.76900 20.26600
H  37.50900 45.02600 22.22900
H  34.85100 49.01000 29.36800
H  36.07700 51.62500 28.53700
H  33.55800 52.07200 28.17600
H  34.31600 52.14300 29.76100
H  33.37900 50.70500 29.28700
H  37.43600 50.39600 29.98000
H  37.83200 48.79700 29.53300
H  37.56700 49.54200 31.89100
H  37.04900 47.89800 31.27800
H  34.75300 55.02100 24.30200
H  33.76900 53.96600 25.34900
H  33.16100 54.38600 23.79800
H  34.57200 55.34100 22.03300
H  32.90600 54.94500 21.49900
H  34.18500 55.43100 20.40900
H  36.98600 48.73400 19.12700
H  36.17900 46.10300 20.00300
H  34.94600 48.74200 18.16000
H  34.23400 48.03300 19.66700
H  34.95100 47.01000 18.48600
H  38.05700 46.47100 18.46700
H  38.31800 45.29500 19.75500
H  40.05800 46.23100 20.64700
H  39.35800 47.93200 20.43600
H  40.09100 47.07800 19.05900
H  37.81600 42.75000 25.48500
H  38.86200 43.46700 24.11500
H  37.16900 43.05300 23.83200
H  37.36800 46.45900 29.32200
H  34.01000 44.12600 30.81000
H  33.94500 45.70300 31.64400
H  34.97000 44.56300 32.28800

