158

Mg 48.94700 45.02800 42.85900
C  45.84500 46.01000 41.50900
C  48.50600 42.02200 41.41900
C  52.25500 44.43600 43.36000
C  49.45500 48.17500 44.09300
N  47.37100 44.21000 41.57000
C  46.13200 44.67800 41.21300
C  45.29600 43.63400 40.45800
C  46.12100 42.34500 40.79800
C  47.43000 42.88000 41.30300
C  45.38700 41.37600 41.72500
C  45.08000 43.89700 38.97900
C  43.73500 43.64100 38.29100
H  43.69900 42.59100 37.21600
N  50.24600 43.32800 42.52600
C  49.82800 42.22900 41.87700
C  50.90600 41.30400 41.78100
C  51.98200 41.93800 42.53600
C  51.52800 43.30300 42.84200
C  50.87000 39.89000 41.11400
C  53.43700 41.37800 42.84100
O  53.68300 40.18100 42.48000
C  54.49500 42.22200 43.56900
N  50.70500 46.25600 43.42300
C  51.92500 45.77400 43.54500
C  52.92100 46.83100 43.96200
C  51.98700 48.05200 44.28200
C  50.65900 47.48000 43.92000
C  53.89700 46.45800 45.11300
C  52.33500 49.28600 43.41600
C  51.97700 50.63700 44.06300
N  47.89700 46.75900 42.82500
C  48.14100 47.91700 43.54700
C  46.97200 48.75200 43.50200
C  46.07400 48.08200 42.64000
C  46.67600 46.86400 42.28700
C  46.70700 50.08300 44.22800
C  44.76000 48.15200 42.10300
O  43.90900 49.08300 42.20400
C  44.53000 46.84300 41.21100
C  43.22900 46.17000 41.57400
O  42.27400 45.95400 40.85000
O  43.23300 45.72900 42.91000
C  41.93100 45.29300 43.35900
H  48.32200 40.99400 41.10200
H  53.34300 44.34200 43.34100
H  49.50500 49.09000 44.68700
H  44.36000 43.41900 40.97400
H  46.32400 41.69100 39.95000
H  45.38300 41.81600 42.72200
H  45.91500 40.44500 41.93000
H  44.34400 41.24000 41.43800
H  45.81200 43.21800 38.54100
H  45.47600 44.89400 38.78600
H  43.30200 44.51800 37.81000
H  43.09400 43.28600 39.09700
H  51.71300 39.25400 41.38600
H  50.88500 40.08000 40.04000
H  49.93000 39.39400 41.35300
H  54.83200 43.11600 43.04600
H  55.40500 41.62200 43.57900
H  54.25500 42.62700 44.55300
H  53.51300 47.03200 43.06900
H  51.94100 48.21400 45.35800
H  53.76300 47.14500 45.94900
H  54.95300 46.51800 44.85200
H  53.63100 45.45900 45.46100
H  51.63500 49.14900 42.59100
H  53.38600 49.25900 43.12800
H  51.39800 51.18000 43.31700
H  52.77000 51.34600 44.30200
H  51.42500 50.40800 44.97400
H  47.67400 50.57300 44.33900
H  46.22100 49.92400 45.19100
H  46.12700 50.71500 43.55600
H  44.44700 47.08600 40.15100
H  41.77100 44.26200 43.04300
H  41.07400 45.88200 43.03300
H  42.00600 45.24900 44.44500
Mg -1.92000 35.04300 26.80500
C  -3.73800 33.24900 29.44900
C  -0.22100 36.80000 29.18800
C  -0.81200 37.12900 24.43800
C  -3.93000 33.41100 24.55600
N  -2.04100 35.08100 29.03900
C  -2.74900 34.27800 29.90600
C  -2.34300 34.59500 31.32000
C  -1.42700 35.81500 31.22300
C  -1.21000 35.94500 29.72500
C  -1.91100 37.07500 31.96800
C  -1.60900 33.33700 31.99600
C  -2.36700 32.71900 33.19300
H  -1.53100 32.28000 34.44400
N  -0.58600 36.63100 26.77900
C  0.02000 37.19100 27.85900
C  0.95500 38.21600 27.43200
C  0.82700 38.29500 26.07800
C  -0.26800 37.41700 25.71800
C  1.80300 38.98600 28.43100
C  1.50500 39.18700 25.16000
O  1.33400 39.34300 23.96800
C  2.59400 40.04800 25.78700
N  -2.31500 35.27100 24.78200
C  -1.74200 36.22400 23.98500
C  -2.21300 36.15100 22.55500
C  -3.10700 34.88700 22.51100
C  -3.18700 34.49600 24.05500
C  -2.94400 37.42300 22.07200
C  -2.61400 33.71300 21.66900
C  -1.18200 33.32200 21.96500
N  -3.50100 33.60000 26.88800
C  -4.13100 32.98700 25.90800
C  -4.97200 31.91700 26.45000
C  -4.87100 32.00400 27.85000
C  -3.98800 33.01000 28.08700
C  -5.67700 30.95900 25.55500
C  -5.34300 31.46300 29.16900
O  -6.16100 30.59900 29.42300
C  -4.65000 32.36400 30.29000
C  -5.72200 33.08300 30.95600
O  -6.25900 34.07200 30.58600
O  -6.12200 32.40900 32.07200
C  -7.13600 33.12400 32.84800
H  0.33400 37.30500 29.98200
H  -0.37700 37.65700 23.58600
H  -4.43200 32.71400 23.88300
H  -3.21200 34.87100 31.91700
H  -0.40200 35.56400 31.49500
H  -2.62800 36.78100 32.73400
H  -2.53600 37.63000 31.26800
H  -1.17600 37.77100 32.37300
H  -0.55100 33.39900 32.25100
H  -1.53200 32.63000 31.17000
H  -2.81900 31.79700 32.82800
H  -3.21100 33.32900 33.51300
H  2.86800 38.97200 28.19900
H  1.89800 38.41800 29.35700
H  1.51200 40.02600 28.57600
H  2.20800 40.63700 26.61800
H  3.06100 40.69700 25.04700
H  3.46300 39.52100 26.18300
H  -1.31400 36.08100 21.94300
H  -4.15800 35.04000 22.26500
H  -2.87200 38.12800 22.90000
H  -4.00500 37.25800 21.88100
H  -2.41300 37.79700 21.19700
H  -2.68300 33.97600 20.61400
H  -3.28500 32.88000 21.88000
H  -1.00300 32.29800 22.29200
H  -0.87300 34.00300 22.75800
H  -0.62600 33.55600 21.05700
H  -5.94100 30.02500 26.05200
H  -4.99000 30.81500 24.72100
H  -6.56000 31.48000 25.18500
H  -4.05000 31.70300 30.91600
H  -6.77300 33.89400 33.52900
H  -7.64500 32.35900 33.43600
H  -7.93200 33.49600 32.20500

