158

Mg 54.14100 25.08800 44.76600
C  51.41500 27.17800 43.80300
C  52.22600 22.52600 43.72200
C  57.00900 23.31200 44.78000
C  55.99300 27.97000 45.48800
N  52.09000 24.95400 43.64100
C  51.19800 25.83800 43.39300
C  50.04400 25.29100 42.57400
C  50.01100 23.81100 43.15300
C  51.56000 23.73500 43.52900
C  48.95400 23.53800 44.29200
C  50.39100 25.38000 41.10600
C  49.13900 25.54000 40.18600
H  48.99300 24.72000 38.94700
N  54.50200 23.08000 44.36100
C  53.57200 22.21900 43.94700
C  54.17800 20.90700 43.84600
C  55.62800 21.07600 44.21800
C  55.79400 22.54000 44.48400
C  53.39400 19.70700 43.51000
C  56.66800 19.88200 44.41700
O  56.22300 18.74300 44.37200
C  58.02200 20.14800 44.93600
N  56.21600 25.54700 45.10600
C  57.21800 24.65500 45.09400
C  58.57300 25.27300 45.45100
C  58.19800 26.71300 45.68500
C  56.69100 26.76900 45.39500
C  59.22800 24.65500 46.79400
C  59.03600 27.56100 44.68700
C  60.54000 27.75000 45.12400
N  53.86200 27.10500 44.76800
C  54.57200 28.16500 45.25900
C  53.79900 29.38200 45.25700
C  52.57700 28.94300 44.68700
C  52.58200 27.62200 44.50600
C  54.27400 30.72200 45.59000
C  51.32800 29.48800 44.35800
O  50.93200 30.65300 44.42100
C  50.50700 28.38300 43.73400
C  50.16900 28.73400 42.30400
O  50.95400 29.10900 41.48600
O  48.82800 28.67000 42.19200
C  48.38000 29.29200 40.90100
H  51.54300 21.68100 43.60700
H  57.86100 22.64400 44.63600
H  56.63700 28.81900 45.72400
H  49.07500 25.72600 42.81700
H  49.94100 23.15600 42.28400
H  48.56700 24.54000 44.47700
H  49.36700 23.20800 45.24600
H  48.17400 22.88500 43.90200
H  50.86600 24.44100 40.82100
H  51.09900 26.19400 40.95100
H  49.10600 26.59700 39.92500
H  48.22600 25.36100 40.75500
H  54.10900 19.01200 43.07000
H  52.69900 19.90900 42.69400
H  52.82400 19.30300 44.34600
H  58.01300 20.58700 45.93400
H  58.60900 20.66600 44.17600
H  58.40300 19.15500 45.17100
H  59.39600 25.24100 44.73600
H  58.33600 26.97900 46.73300
H  58.83100 23.67000 47.04100
H  59.21500 25.27500 47.69000
H  60.29300 24.44400 46.69300
H  58.67000 28.58700 44.66800
H  58.96900 27.18100 43.66800
H  60.67100 27.51500 46.18000
H  60.84900 28.78300 44.96200
H  61.16000 27.09300 44.51400
H  53.55500 31.33400 46.13300
H  54.53100 31.16200 44.62600
H  55.19100 30.61100 46.17000
H  49.61700 28.21500 44.34000
H  48.86400 30.26200 40.78700
H  47.30500 29.47300 40.89800
H  48.68300 28.72800 40.01900
Mg 26.18300 50.22800 26.83300
C  24.40100 51.79300 29.33000
C  28.58400 49.17300 29.08000
C  28.15900 49.03500 24.25800
C  24.03500 51.73300 24.53000
N  26.44000 50.45200 28.91900
C  25.44900 50.99400 29.78700
C  25.67600 50.62200 31.22300
C  27.20800 50.12300 31.14300
C  27.44800 49.86500 29.60600
C  28.26300 51.15300 31.73500
C  24.67000 49.49300 31.67300
C  24.41300 49.37200 33.19400
H  25.19700 50.11500 34.28000
N  28.11300 49.19900 26.66800
C  28.84200 48.80000 27.75400
C  30.09200 48.19100 27.31000
C  30.02200 48.14800 25.89700
C  28.76300 48.80300 25.54700
C  31.07300 47.63200 28.29600
C  30.90300 47.53000 24.86800
O  30.77800 47.66800 23.65500
C  32.16000 46.73300 25.37400
N  26.14100 50.45100 24.77300
C  27.01200 49.78100 23.88400
C  26.57400 50.04700 22.43200
C  25.18100 50.61200 22.57600
C  25.18600 50.99300 24.03700
C  27.62400 50.84100 21.64400
C  24.03600 49.65700 22.17600
C  22.87600 50.27100 21.43700
N  24.59300 51.54300 26.88300
C  23.77900 52.08200 25.87800
C  22.67300 52.88700 26.44900
C  22.84000 52.75600 27.82400
C  24.06500 52.07100 28.02500
C  21.52500 53.53800 25.73300
C  22.29000 53.04300 29.16300
O  21.15500 53.45600 29.51300
C  23.35700 52.50200 30.20000
C  23.68600 53.58400 31.22100
O  24.60700 54.36300 31.05400
O  22.89900 53.48400 32.35700
C  23.26200 54.51700 33.34700
H  29.22100 48.87900 29.91600
H  28.64500 48.51400 23.43100
H  23.30800 52.11500 23.81000
H  25.61000 51.48100 31.89100
H  27.42500 49.15300 31.59000
H  28.62700 50.74200 32.67700
H  27.82800 52.10600 32.03600
H  29.15700 51.32700 31.13600
H  25.17200 48.57800 31.35900
H  23.74800 49.59300 31.10000
H  24.40500 48.31700 33.47000
H  23.38100 49.72000 33.14800
H  30.80100 47.65600 29.35100
H  32.00800 48.17600 28.16300
H  31.36400 46.60100 28.09500
H  31.78200 45.87200 25.92500
H  32.90000 47.32500 25.91300
H  32.66500 46.25200 24.53500
H  26.54400 49.05100 21.98900
H  25.16100 51.53500 21.99700
H  27.72100 50.67200 20.57200
H  28.63500 50.78500 22.04800
H  27.39000 51.89100 21.46900
H  23.71000 49.10400 23.05700
H  24.39300 48.92100 21.45600
H  23.07900 51.32600 21.25500
H  21.93000 50.19100 21.97300
H  22.87000 49.81000 20.45000
H  20.77900 52.75200 25.85000
H  21.50000 53.53400 24.64300
H  21.28100 54.49000 26.20500
H  22.86300 51.70100 30.75000
H  23.46400 55.45900 32.83700
H  24.10200 54.20300 33.96700
H  22.30500 54.63400 33.85500

