158

Mg 49.29000 47.20700 43.63000
C  45.98700 47.76100 42.83200
C  49.00000 44.11400 42.14000
C  52.60700 47.04200 43.80500
C  49.45100 50.55900 44.73200
N  47.70900 46.13400 42.54500
C  46.47800 46.55800 42.29100
C  45.63700 45.61100 41.32800
C  46.57700 44.36200 41.27300
C  47.82800 44.86700 42.01600
C  45.96700 43.03600 41.69400
C  45.32200 46.38400 39.97600
C  43.78100 46.34900 39.64700
H  43.30300 45.77800 38.35300
N  50.62700 45.66200 43.11700
C  50.32100 44.43900 42.59000
C  51.51700 43.64300 42.64900
C  52.61200 44.51000 43.08900
C  51.97800 45.79900 43.34900
C  51.55300 42.25300 42.03200
C  53.96400 44.14000 43.34100
O  54.27400 42.98600 43.10600
C  55.04000 44.98000 43.70200
N  50.87600 48.64900 44.15400
C  52.12500 48.21200 44.27100
C  53.02200 49.33900 44.89500
C  52.01900 50.52200 45.13000
C  50.69700 49.85900 44.68300
C  53.95200 48.92300 46.05800
C  52.31300 51.84000 44.51500
C  51.96200 53.07400 45.41800
N  48.01800 48.87700 43.86200
C  48.19400 50.14800 44.34600
C  46.95700 50.91500 44.30200
C  46.03300 49.97000 43.74200
C  46.76700 48.70100 43.52400
C  46.82800 52.37700 44.71400
C  44.65400 49.77000 43.44200
O  43.69000 50.51700 43.43900
C  44.56300 48.28700 42.83700
C  43.73100 47.43600 43.72600
O  43.67100 47.55300 44.94100
O  43.03000 46.54500 42.95200
C  42.04800 45.65700 43.69800
H  49.00900 43.07600 41.80100
H  53.60600 46.97400 44.24100
H  49.57300 51.60600 45.01500
H  44.76800 45.23800 41.86900
H  46.88500 44.14100 40.25100
H  44.88500 42.92000 41.75200
H  46.36700 42.67400 42.64200
H  46.22100 42.23200 41.00300
H  45.95100 46.01900 39.16500
H  45.46400 47.45300 40.13800
H  43.45600 47.38600 39.72800
H  43.24800 45.81800 40.43600
H  51.55900 41.49700 42.81800
H  52.24800 42.11700 41.20400
H  50.68200 41.93600 41.45800
H  55.02000 45.75500 42.93600
H  55.98100 44.43200 43.75200
H  54.83400 45.42200 44.67600
H  53.66300 49.56600 44.04300
H  51.78500 50.62300 46.19000
H  53.75200 47.85100 46.07500
H  53.76700 49.50300 46.96200
H  54.92100 49.19400 45.64100
H  51.78300 51.83300 43.56200
H  53.38700 51.92400 44.34700
H  51.13800 53.68600 45.04900
H  52.77700 53.79600 45.46500
H  51.77500 52.80200 46.45700
H  47.24700 52.89700 43.85300
H  47.37400 52.49000 45.65100
H  45.80600 52.73700 44.83600
H  44.13700 48.33500 41.83500
H  42.49200 45.12000 44.53600
H  41.85400 44.86400 42.97600
H  41.13000 46.14200 44.03100
Mg 30.61000 58.17100 40.21500
C  27.91100 55.94100 39.47400
C  32.74800 55.76400 38.83200
C  33.05000 60.50700 40.29000
C  28.23400 60.72700 40.79400
N  30.26000 56.19900 39.05500
C  29.14500 55.45600 39.01700
C  29.44800 54.12100 38.33900
C  30.95800 53.90600 38.64800
C  31.40500 55.30500 38.84900
C  31.26500 52.92100 39.81900
C  29.15800 54.22300 36.80800
C  28.01900 53.34100 36.34100
H  27.16600 54.07500 35.37400
N  32.63200 58.07900 39.82500
C  33.28600 57.05900 39.15600
C  34.68300 57.50000 39.07100
C  34.84300 58.82800 39.58600
C  33.45700 59.19900 39.90500
C  35.82000 56.63300 38.50400
C  36.21300 59.55800 39.52500
O  37.20700 58.97800 39.07100
C  36.39000 61.04800 39.70900
N  30.61700 60.33000 40.49700
C  31.79500 61.03300 40.62700
C  31.55800 62.59400 40.78500
C  30.00400 62.67400 40.94400
C  29.56600 61.17400 40.72000
C  32.48200 63.37600 41.81800
C  29.26200 63.79100 40.19500
C  28.57800 63.58900 38.78300
N  28.47400 58.39400 40.18900
C  27.65800 59.42600 40.55400
C  26.25900 59.01200 40.54300
C  26.33600 57.64700 40.14200
C  27.68000 57.28700 39.92800
C  25.10300 59.91300 40.71100
C  25.53600 56.46400 39.75800
O  24.34300 56.33500 39.61200
C  26.56800 55.28500 39.32100
C  26.24900 54.15600 40.23200
O  26.73800 54.08900 41.32500
O  25.42500 53.23900 39.65700
C  25.33000 51.93300 40.36400
H  33.54500 55.04900 38.61500
H  33.78700 61.29400 40.46600
H  27.47300 61.39500 41.20100
H  28.85500 53.42800 38.93600
H  31.43600 53.44900 37.78100
H  30.42900 52.63300 40.45600
H  32.15900 53.20000 40.37900
H  31.63000 51.98300 39.40100
H  30.03300 53.83500 36.28600
H  29.09400 55.24800 36.44300
H  27.45100 53.00600 37.20900
H  28.32000 52.45500 35.78100
H  36.31300 57.02800 37.61600
H  35.49800 55.61700 38.27400
H  36.55000 56.39100 39.27700
H  36.04600 61.38700 40.68600
H  35.84600 61.61200 38.95100
H  37.45600 61.23500 39.57800
H  31.75300 63.09300 39.83600
H  29.79400 62.70800 42.01300
H  31.83900 63.63700 42.65900
H  33.05700 64.20100 41.39800
H  33.20500 62.61300 42.10500
H  30.05800 64.52000 40.04400
H  28.47600 64.27700 40.77400
H  27.61700 64.10300 38.75600
H  28.42500 62.51700 38.65900
H  29.24000 63.98200 38.01200
H  24.49300 59.39000 41.44800
H  24.62200 59.93600 39.73300
H  25.31500 60.88300 41.15900
H  26.35000 54.94100 38.31000
H  26.15200 51.65400 41.02400
H  25.23900 51.15900 39.60300
H  24.39300 51.98800 40.91800

