158

Mg 52.75000 23.71100 44.70100
C  49.93400 25.83700 44.02200
C  50.74200 21.11100 43.65000
C  55.44800 21.85400 44.67300
C  54.49900 26.58100 45.69000
N  50.64200 23.53700 43.80000
C  49.76100 24.52600 43.59300
C  48.51400 24.05000 42.86000
C  48.52500 22.53000 43.35600
C  50.07900 22.32900 43.49500
C  47.86300 22.12100 44.66200
C  48.67200 24.29600 41.33700
C  47.41700 24.82900 40.58400
H  46.94100 24.07100 39.36000
N  52.98400 21.71400 44.23000
C  52.06700 20.75900 43.91900
C  52.64500 19.45400 43.94600
C  54.07700 19.60400 44.19100
C  54.28500 21.07400 44.36300
C  51.70800 18.22700 43.98900
C  55.04100 18.48700 44.26000
O  54.64700 17.30600 44.14000
C  56.40500 18.63700 44.69100
N  54.75200 24.14800 45.00700
C  55.71200 23.20500 44.99900
C  57.01600 23.74700 45.57400
C  56.72900 25.31700 45.80000
C  55.23700 25.39000 45.40300
C  57.72500 22.96300 46.69500
C  57.58100 26.25600 44.88600
C  58.85700 26.82300 45.55800
N  52.34300 25.79700 44.87200
C  53.12500 26.81900 45.36600
C  52.36900 28.05800 45.43700
C  51.11000 27.71400 44.93400
C  51.15200 26.36300 44.57400
C  52.80400 29.36100 45.99200
C  49.73500 28.21000 44.64900
O  49.21700 29.30300 44.81400
C  48.98500 27.05800 43.92600
C  48.49900 27.43200 42.63100
O  49.22200 27.87000 41.70600
O  47.16800 27.43900 42.68000
C  46.46600 28.22900 41.73000
H  50.01200 20.30300 43.57500
H  56.39600 21.33400 44.51200
H  55.03000 27.43600 46.11400
H  47.65900 24.54300 43.32200
H  48.19200 21.87100 42.55400
H  48.62300 21.57500 45.22000
H  46.92900 21.62100 44.40300
H  47.62200 23.04800 45.18200
H  49.02800 23.41300 40.80500
H  49.34300 25.14400 41.20300
H  47.63800 25.83700 40.23500
H  46.57500 24.95600 41.26500
H  52.13100 17.23300 43.84500
H  50.89300 18.35900 43.27800
H  51.13400 18.28100 44.91500
H  56.84700 19.20700 43.87400
H  56.95100 17.70200 44.81400
H  56.36000 19.21400 45.61500
H  57.67000 23.54600 44.72500
H  56.91400 25.48300 46.86200
H  57.60300 23.49200 47.64000
H  58.73200 22.63000 46.44500
H  57.07200 22.10800 46.87000
H  56.89400 27.00600 44.49600
H  57.99700 25.66400 44.07000
H  58.88100 26.32900 46.53000
H  58.87600 27.87200 45.85400
H  59.74900 26.63500 44.96200
H  52.11900 30.09100 45.56000
H  53.82500 29.53900 45.65400
H  52.85400 29.52500 47.06900
H  48.10400 26.69200 44.45500
H  46.95800 29.18500 41.54800
H  45.45300 28.31600 42.12200
H  46.43800 27.63000 40.82000
Mg 45.61900 24.62700 29.54300
C  46.37600 27.13700 31.89000
C  44.98500 22.50000 31.91600
C  45.76200 22.20700 27.11700
C  46.88000 26.93700 26.99900
N  45.53300 24.82700 31.62900
C  45.85300 25.94200 32.43800
C  45.54000 25.64200 33.89400
C  45.30500 24.14800 33.91900
C  45.24800 23.79400 32.36800
C  46.38600 23.30800 34.60200
C  44.35900 26.51900 34.41500
C  44.68800 27.14600 35.79400
H  43.54000 27.09100 36.91100
N  45.20800 22.74200 29.48400
C  44.89700 22.01700 30.61200
C  44.44600 20.66400 30.20700
C  44.74700 20.59600 28.79000
C  45.27300 21.91200 28.40500
C  43.90100 19.53200 31.18300
C  44.64400 19.37600 27.88700
O  44.78200 19.49000 26.65400
C  44.35600 17.99200 28.45900
N  46.31400 24.56500 27.44100
C  46.23500 23.45100 26.67100
C  46.43800 23.68700 25.18000
C  46.70400 25.25400 25.12300
C  46.57900 25.57900 26.63400
C  47.74800 23.03600 24.64200
C  45.79500 26.12800 24.22500
C  44.24600 26.06400 24.45500
N  46.35600 26.67700 29.37400
C  46.83200 27.40100 28.28400
C  47.22800 28.74200 28.79100
C  47.05300 28.73300 30.19600
C  46.58500 27.43000 30.51900
C  47.90600 29.86900 28.02800
C  47.34900 29.43600 31.53300
O  47.80800 30.52900 31.78400
C  46.91800 28.35500 32.63700
C  48.08500 28.16800 33.56900
O  49.23900 27.87200 33.20800
O  47.64100 28.36900 34.85300
C  48.64900 27.96700 35.92500
H  44.51700 21.86700 32.67200
H  45.83300 21.43400 26.35000
H  47.25100 27.73500 26.35200
H  46.52200 25.84200 34.32300
H  44.30600 24.04100 34.34300
H  47.39600 23.66100 34.39500
H  46.30900 22.25600 34.33000
H  46.24500 23.47200 35.67100
H  43.44200 25.94000 34.51600
H  44.24800 27.31300 33.67600
H  45.09600 28.15500 35.73700
H  45.49200 26.53200 36.20100
H  43.01300 19.02000 30.81200
H  43.68400 19.96800 32.15700
H  44.64600 18.73800 31.24500
H  43.32100 18.05800 28.79500
H  45.07500 17.73900 29.23700
H  44.34100 17.32700 27.59500
H  45.48900 23.40500 24.72400
H  47.73900 25.54300 24.93900
H  47.41800 22.54200 23.72900
H  48.07800 22.27100 25.34500
H  48.52100 23.78100 24.45100
H  45.92200 26.00000 23.15000
H  45.96200 27.20300 24.29400
H  44.04800 26.89200 25.13600
H  44.09600 25.11800 24.97700
H  43.75900 26.15300 23.48400
H  48.60200 29.48300 27.28300
H  48.40000 30.58100 28.69000
H  47.26300 30.41800 27.34000
H  46.10600 28.83200 33.18600
H  49.34100 27.19400 35.59100
H  48.11000 27.77700 36.85300
H  49.18900 28.83700 36.29900

