158

Mg 25.98600 0.50400 29.12000
C  28.01700 0.27000 32.03400
C  23.34700 1.17200 31.19400
C  24.09900 0.28200 26.43000
C  28.78200 -0.55800 27.19400
N  25.71500 0.54800 31.41700
C  26.71100 0.55700 32.35700
C  26.15000 0.91400 33.70800
C  24.63100 1.16300 33.41900
C  24.52300 0.90400 31.92000
C  23.52200 0.28500 34.18000
C  26.84900 2.18800 34.33300
C  26.10600 2.80700 35.51500
H  26.95900 3.16100 36.81100
N  23.97800 0.67300 28.87100
C  23.05300 1.09600 29.83700
C  21.77600 1.30500 29.17700
C  22.00800 1.14100 27.80600
C  23.41700 0.60400 27.60600
C  20.56000 1.62300 29.90700
C  21.02200 1.44600 26.64900
O  21.26200 1.10000 25.50100
C  19.76500 2.03500 26.84700
N  26.40200 -0.08800 27.16800
C  25.38900 -0.06300 26.20200
C  26.03800 -0.30600 24.75900
C  27.51100 -0.53400 25.05100
C  27.56100 -0.47200 26.55400
C  25.26900 -1.44800 24.00900
C  28.38100 0.38000 24.24400
C  28.30600 1.84500 24.39700
N  28.04600 0.12000 29.46500
C  29.00800 -0.44300 28.61100
C  30.23300 -0.59800 29.32600
C  29.83800 -0.33500 30.65400
C  28.50400 0.07600 30.69100
C  31.49200 -1.01600 28.82100
C  30.40600 -0.32000 31.95000
O  31.55300 -0.59000 32.26900
C  29.26200 0.14200 32.87000
C  29.09500 -0.83800 33.96400
O  28.71600 -1.98600 33.86300
O  29.45100 -0.28300 35.22800
C  29.25600 -1.14400 36.38300
H  22.51700 1.41000 31.86200
H  23.42300 0.16100 25.58100
H  29.60600 -0.71700 26.49600
H  26.39800 0.05700 34.33400
H  24.52100 2.23600 33.57300
H  23.83300 0.05800 35.20000
H  23.53700 -0.69800 33.71000
H  22.48900 0.62700 34.11400
H  26.98500 2.93300 33.54900
H  27.85900 1.91700 34.64000
H  25.37300 2.09000 35.88500
H  25.48500 3.64200 35.19300
H  19.73600 1.12400 29.39600
H  20.33300 2.68900 29.89400
H  20.61000 1.44700 30.98100
H  18.96800 1.31700 27.04000
H  19.62200 2.69800 25.99400
H  19.76800 2.75000 27.67100
H  25.92800 0.61400 24.18500
H  27.80500 -1.56700 24.86500
H  24.50800 -1.89500 24.64800
H  25.98500 -2.21700 23.71700
H  24.72600 -1.03500 23.15900
H  28.08300 0.20500 23.21000
H  29.39800 -0.01300 24.22500
H  27.64300 2.31300 23.66800
H  29.29100 2.22400 24.12500
H  28.01100 2.18100 25.39100
H  31.49500 -1.60900 27.90600
H  32.08700 -1.53000 29.57600
H  32.00400 -0.07600 28.61700
H  29.53000 1.03000 33.44300
H  29.58300 -2.12800 36.04900
H  28.21200 -1.19200 36.69300
H  29.88400 -0.74200 37.17800
Mg 35.40100 2.44100 30.31900
C  32.74000 3.17400 32.46800
C  37.62800 2.53600 32.90900
C  37.95500 1.97500 28.10300
C  33.19200 2.70600 27.64800
N  35.19900 2.75600 32.39500
C  33.96800 2.98700 33.10500
C  34.24900 3.10700 34.63700
C  35.77400 3.19300 34.68400
C  36.26600 2.74100 33.24200
C  36.37000 4.55800 35.20800
C  33.70300 1.92500 35.50200
C  33.16400 2.19000 36.91800
H  33.91600 3.23100 37.82500
N  37.49100 2.10300 30.53000
C  38.17900 2.20300 31.70500
C  39.52500 1.73400 31.42100
C  39.65400 1.40200 30.09200
C  38.37400 1.85800 29.48800
C  40.64100 1.58100 32.42900
C  40.74200 0.76000 29.29600
O  40.63400 0.61200 28.05700
C  41.97800 0.23100 29.86100
N  35.59200 2.59200 28.16400
C  36.72400 2.32600 27.54300
C  36.55300 2.28200 26.00500
C  34.96300 2.42600 25.87000
C  34.54400 2.61000 27.30700
C  37.40500 3.44000 25.34200
C  34.22900 1.19000 25.31600
C  32.92800 1.32200 24.44300
N  33.37800 2.78400 30.06400
C  32.58300 2.82600 28.85500
C  31.20300 3.05000 29.24200
C  31.21400 3.35400 30.62500
C  32.56500 3.12100 31.09500
C  30.16200 3.23600 28.28200
C  30.43600 3.78000 31.77400
O  29.27900 4.20700 31.89700
C  31.42700 3.62100 32.98500
C  31.63700 4.94300 33.64200
O  32.00400 6.03100 33.14200
O  31.48900 4.78000 34.95000
C  31.61300 5.94900 35.91100
H  38.21100 2.58800 33.83100
H  38.73900 1.74000 27.38000
H  32.51000 2.78300 26.79800
H  33.83600 4.01500 35.07700
H  36.28600 2.37500 35.19100
H  35.75000 5.15800 35.87400
H  36.50300 5.20200 34.33800
H  37.33400 4.34500 35.67000
H  34.48100 1.16200 35.51800
H  32.83100 1.54900 34.96600
H  33.35300 1.21700 37.37200
H  32.08400 2.33200 36.92300
H  41.55600 1.81200 31.88300
H  40.63300 0.53800 32.74500
H  40.68100 2.23600 33.30000
H  42.50500 -0.40400 29.14900
H  41.70700 -0.29500 30.77700
H  42.60800 1.09100 30.08600
H  36.90500 1.38700 25.49200
H  34.70100 3.24300 25.19700
H  36.82100 3.92400 24.55900
H  38.32400 3.09200 24.86900
H  37.67200 4.19600 26.08100
H  33.89800 0.61000 26.17700
H  34.91200 0.57400 24.73100
H  32.68500 2.33000 24.10700
H  32.05800 0.95000 24.98500
H  33.16300 0.72600 23.56200
H  30.44500 3.53500 27.27300
H  29.41200 3.93700 28.64900
H  29.69200 2.26300 28.14300
H  30.89200 3.03000 33.72800
H  30.93100 5.90500 36.76000
H  31.36500 6.88600 35.41200
H  32.64100 5.99700 36.27000

