158

Mg 44.35200 5.07200 47.54700
C  42.04000 7.81100 47.51600
C  41.66800 2.97900 47.03000
C  46.56400 2.66200 46.93400
C  46.92000 7.45300 47.18700
N  42.15200 5.34100 47.45100
C  41.46900 6.56400 47.39900
C  39.92600 6.31100 47.39000
C  39.83000 4.68100 47.35700
C  41.29800 4.30100 47.28000
C  38.93800 4.07100 48.50300
C  39.11800 6.99200 46.23800
C  40.03600 7.17700 45.00700
H  39.43900 6.69500 43.66900
N  44.18200 3.04000 47.16200
C  42.97500 2.35200 46.97100
C  43.25500 1.01600 46.62100
C  44.64000 0.89900 46.46000
C  45.18700 2.20600 46.86800
C  42.18400 -0.01900 46.32700
C  45.30400 -0.40900 45.95800
O  44.74200 -1.52000 45.77900
C  46.73200 -0.31500 45.57200
N  46.44400 5.03100 47.17100
C  47.16300 3.88300 46.99900
C  48.65000 4.04000 47.12200
C  48.73300 5.59100 46.92400
C  47.30700 6.10800 47.08900
C  49.24000 3.60300 48.47700
C  49.24900 5.93900 45.51400
C  50.62200 5.48400 45.16300
N  44.50400 7.16300 47.37300
C  45.63100 7.97700 47.28500
C  45.18700 9.33000 47.24200
C  43.81900 9.33400 47.44600
C  43.38500 7.98700 47.44900
C  46.11600 10.52100 47.15100
C  42.62100 10.14900 47.65200
O  42.51400 11.38100 47.73700
C  41.42400 9.24300 47.66000
C  40.58500 9.44700 48.90600
O  40.60300 8.74300 49.91400
O  39.52500 10.32100 48.63700
C  38.27600 10.22300 49.47600
H  40.81400 2.33300 46.81600
H  47.34300 1.90200 46.83900
H  47.81300 8.05100 46.99300
H  39.48600 6.65900 48.32400
H  39.45700 4.37200 46.38100
H  39.55700 3.63300 49.28700
H  38.31800 3.22400 48.21200
H  38.29100 4.81100 48.97400
H  38.76600 7.99200 46.49100
H  38.24300 6.39500 45.98000
H  41.04900 6.78700 45.09800
H  40.12600 8.26200 44.96900
H  41.15300 0.26400 46.54000
H  42.34400 -0.93300 46.89900
H  42.22500 -0.24300 45.26000
H  46.95300 -1.13900 44.89400
H  47.29700 -0.57300 46.46700
H  47.04000 0.59800 45.06200
H  49.04700 3.62200 46.19600
H  49.40400 6.01400 47.67200
H  49.93900 4.31300 48.92100
H  49.67300 2.60300 48.48600
H  48.44600 3.45300 49.20800
H  49.15100 7.02400 45.47700
H  48.48200 5.56000 44.83900
H  51.12900 4.72100 45.75400
H  51.15200 6.43600 45.17800
H  50.70200 5.12900 44.13500
H  45.62900 11.49400 47.07500
H  46.69600 10.42200 46.23300
H  46.83300 10.35600 47.95500
H  40.87500 9.53900 46.76500
H  38.27400 11.08400 50.14400
H  38.25900 9.41100 50.20400
H  37.38800 10.13300 48.85100
Mg -11.12800 38.83700 41.72800
C  -9.62400 35.77800 40.86100
C  -8.42300 40.49400 40.35500
C  -12.80200 41.64900 42.07100
C  -13.81000 36.97900 43.05800
N  -9.35400 38.12700 40.57200
C  -8.91900 36.85000 40.39600
C  -7.56800 36.85400 39.64400
C  -7.04600 38.31600 39.86600
C  -8.31000 39.04100 40.27500
C  -5.87000 38.44000 40.91000
C  -7.88900 36.45500 38.17500
C  -7.42300 35.14100 37.74600
H  -6.42300 35.26700 36.57300
N  -10.58900 40.81300 41.34900
C  -9.46200 41.30800 40.72200
C  -9.57600 42.76200 40.72000
C  -10.84600 43.08900 41.20100
C  -11.49600 41.84800 41.54700
C  -8.39700 43.61100 40.28700
C  -11.40600 44.57700 41.33400
O  -10.70900 45.51700 40.94400
C  -12.72100 44.90500 41.95900
N  -13.01800 39.26000 42.40100
C  -13.52900 40.47400 42.44500
C  -14.89600 40.63300 43.16400
C  -15.21100 39.06500 43.27800
C  -13.95200 38.38800 42.87400
C  -14.90400 41.42400 44.49500
C  -16.48100 38.45700 42.63100
C  -17.37000 37.41700 43.36200
N  -11.66000 36.79900 41.87000
C  -12.72600 36.16400 42.55200
C  -12.49600 34.75800 42.73600
C  -11.35800 34.53300 41.95900
C  -10.85600 35.80700 41.55600
C  -13.33300 33.76500 43.50200
C  -10.51100 33.54100 41.51400
O  -10.57300 32.35200 41.67900
C  -9.35300 34.29000 40.73400
C  -8.02000 33.77100 41.20900
O  -7.53700 32.74900 40.86000
O  -7.57000 34.51800 42.23800
C  -6.39800 34.15300 43.05800
H  -7.55200 40.99200 39.92300
H  -13.37500 42.56000 42.25600
H  -14.59200 36.47200 43.62700
H  -6.91400 36.08200 40.04800
H  -6.72200 38.77100 38.93000
H  -4.97600 38.41800 40.28700
H  -5.81700 37.50700 41.47200
H  -5.92200 39.39600 41.43000
H  -7.61700 37.17200 37.40000
H  -8.97000 36.35100 38.08600
H  -8.27400 34.53800 37.43000
H  -6.89900 34.53100 38.48200
H  -7.44300 43.12300 40.48500
H  -8.46200 44.55300 40.83200
H  -8.37000 43.74100 39.20500
H  -13.60400 44.44700 41.51300
H  -12.70700 45.98300 41.79600
H  -12.67000 44.54900 42.98800
H  -15.58700 41.14300 42.49300
H  -15.33600 38.87500 44.34400
H  -15.14900 42.47400 44.33700
H  -13.91100 41.30700 44.93000
H  -15.63900 41.04900 45.20700
H  -16.13400 37.96100 41.72400
H  -17.11700 39.32600 42.46100
H  -18.39300 37.78800 43.30500
H  -17.03800 37.36000 44.39900
H  -17.18300 36.41800 42.96800
H  -13.78400 34.12600 44.42600
H  -12.72700 32.87100 43.65200
H  -14.17400 33.48800 42.86600
H  -9.32300 34.07800 39.66500
H  -5.64000 34.81200 42.63500
H  -6.10500 33.13300 42.81000
H  -6.66800 34.37200 44.09100

