158

Mg 0.83000 8.48100 26.07600
C  1.52200 10.27600 29.10300
C  1.49800 5.56200 27.89200
C  0.59400 6.75000 23.30000
C  1.23700 11.45500 24.36100
N  1.56400 8.04100 28.25200
C  1.44900 8.90200 29.29700
C  1.30000 8.21500 30.61100
C  1.59400 6.72800 30.24200
C  1.58800 6.75800 28.68500
C  2.96400 6.29600 30.80500
C  -0.06700 8.54500 31.28300
C  -0.02800 8.67600 32.81200
H  1.14600 8.02400 33.57600
N  0.94800 6.49100 25.66900
C  1.18800 5.43400 26.54500
C  1.18400 4.21000 25.79900
C  0.69400 4.55000 24.49500
C  0.74800 5.99400 24.42300
C  1.63000 2.89700 26.39500
C  0.23000 3.68700 23.31400
O  -0.00800 4.06000 22.20600
C  0.12600 2.29500 23.50400
N  0.71700 9.02800 24.18600
C  0.64400 8.13900 23.18800
C  0.69400 8.80400 21.75900
C  0.45600 10.31600 22.18400
C  0.91500 10.32100 23.64400
C  2.05900 8.46700 21.07300
C  -1.01300 10.70700 22.06600
C  -1.41000 11.68100 20.92700
N  1.29200 10.45900 26.57300
C  1.32400 11.59200 25.73100
C  1.63800 12.75300 26.55200
C  1.67400 12.28300 27.91700
C  1.45800 10.92000 27.80500
C  1.88500 14.13100 26.08900
C  1.85000 12.73400 29.25900
O  2.07000 13.80900 29.78300
C  1.66000 11.48800 30.12300
C  2.73700 11.26800 31.13300
O  3.85800 10.78800 30.92200
O  2.38300 11.80200 32.41600
C  3.35100 11.75100 33.51900
H  1.62400 4.69700 28.54700
H  0.59200 6.28800 22.31100
H  1.39800 12.32600 23.72200
H  2.10500 8.58900 31.24300
H  0.79000 6.16000 30.70900
H  2.67100 5.38900 31.33400
H  3.31500 6.95400 31.59900
H  3.67600 5.98100 30.04200
H  -0.68300 7.69500 30.99200
H  -0.55800 9.44100 30.90300
H  -0.93100 8.16400 33.14400
H  -0.12100 9.70700 33.15500
H  1.12000 2.02300 25.99000
H  1.48300 2.79300 27.47000
H  2.69600 2.83600 26.17700
H  -0.19600 1.82600 22.57400
H  -0.58700 2.02800 24.28300
H  1.14600 2.00400 23.75600
H  -0.05500 8.38900 21.08600
H  1.01500 10.89600 21.45000
H  2.36600 7.46100 21.36000
H  2.86000 9.15100 21.35400
H  1.87300 8.32700 20.00800
H  -1.33400 11.27100 22.94200
H  -1.69100 9.85600 22.13700
H  -0.53600 11.63100 20.27700
H  -1.63100 12.68300 21.29400
H  -2.29800 11.35700 20.38500
H  2.14300 14.76000 26.94100
H  0.91000 14.50800 25.78400
H  2.49300 14.06200 25.18700
H  0.78600 11.48200 30.77500
H  3.49600 12.70400 34.02700
H  4.33400 11.37100 33.24300
H  2.88500 11.07200 34.23300
Mg -11.07700 38.98200 42.37500
C  -8.79700 36.23100 41.63400
C  -9.02200 41.09700 40.74900
C  -13.55400 41.13200 42.55500
C  -13.34500 36.44600 43.58500
N  -9.18500 38.59200 41.25600
C  -8.46600 37.44100 40.97700
C  -7.31900 37.74800 39.97300
C  -7.33200 39.34200 39.84500
C  -8.60400 39.72800 40.62900
C  -6.12900 40.01500 40.58000
C  -7.41900 36.95600 38.66500
C  -6.14600 36.32900 38.13500
H  -5.47200 37.20400 37.10600
N  -11.18200 40.82900 41.93400
C  -10.20400 41.58600 41.34300
C  -10.57700 42.94000 41.35500
C  -11.87400 43.01700 41.83900
C  -12.26700 41.64600 42.18500
C  -9.68700 44.03800 40.89700
C  -12.68800 44.24700 42.08500
O  -12.14900 45.34000 41.89800
C  -14.16200 44.31400 42.54700
N  -13.18800 38.74100 42.94400
C  -14.03900 39.86700 42.87700
C  -15.48600 39.50500 43.15800
C  -15.46300 37.95400 43.50700
C  -13.90800 37.73200 43.45400
C  -16.02200 40.40000 44.29400
C  -16.24000 37.07800 42.40600
C  -16.75000 35.76300 42.87500
N  -11.10200 36.88200 42.80900
C  -12.00600 36.08400 43.36100
C  -11.47100 34.75900 43.54900
C  -10.22700 34.76800 42.89400
C  -9.99700 36.09100 42.45000
C  -12.06800 33.53300 44.23600
C  -9.00200 33.95300 42.59200
O  -8.75900 32.79400 42.89900
C  -8.17100 34.88300 41.63500
C  -6.74300 34.81300 42.16200
O  -5.94300 33.83100 41.89900
O  -6.52100 35.98100 42.84600
C  -5.12700 36.01800 43.45400
H  -8.57200 41.91900 40.18900
H  -14.39100 41.83200 42.58200
H  -13.95000 35.57700 43.85200
H  -6.42200 37.48900 40.53500
H  -7.43600 39.72800 38.83100
H  -5.39900 39.23800 40.80400
H  -6.29600 40.46000 41.56100
H  -5.78800 40.86600 39.99000
H  -7.68500 37.70000 37.91400
H  -8.11900 36.12100 38.70500
H  -6.38100 35.33800 37.74600
H  -5.51300 36.13200 39.00000
H  -9.87600 44.94200 41.47600
H  -9.81800 44.30700 39.84900
H  -8.62000 43.81700 40.93600
H  -14.41300 45.37300 42.61800
H  -14.29100 44.03200 43.59200
H  -14.73700 43.76300 41.80300
H  -16.01800 39.55000 42.20800
H  -15.98300 37.78900 44.45100
H  -16.00100 39.83800 45.22700
H  -17.04100 40.74900 44.12500
H  -15.39100 41.26400 44.50200
H  -15.63300 36.93800 41.51200
H  -17.04700 37.70200 42.02200
H  -16.33000 35.62500 43.87100
H  -16.26900 35.02000 42.23900
H  -17.83800 35.72200 42.81700
H  -12.30800 33.99600 45.19300
H  -11.48900 32.62100 44.38500
H  -13.02900 33.33000 43.76500
H  -8.23500 34.54400 40.60100
H  -4.43100 36.66100 42.91600
H  -4.69400 35.01800 43.48200
H  -5.26800 36.33200 44.48800

