158

Mg 8.27900 3.84200 28.45700
C  9.94000 2.38900 31.23900
C  6.30300 5.44300 30.71500
C  6.84800 5.29400 25.85000
C  9.86000 1.58500 26.40700
N  8.07200 3.84700 30.81400
C  8.92600 3.26200 31.65400
C  8.66100 3.77300 33.15900
C  7.28800 4.39100 32.97000
C  7.25500 4.66000 31.42500
C  6.19000 3.43700 33.54900
C  9.74800 4.77400 33.53800
C  10.08700 4.93200 35.09900
H  9.21800 4.41800 36.19400
N  6.90900 5.30400 28.28700
C  6.19800 5.82700 29.32300
C  5.23900 6.82200 28.84000
C  5.51900 6.96700 27.42300
C  6.52300 5.86900 27.09200
C  4.19900 7.50200 29.66500
C  4.91100 7.91500 26.45000
O  5.28700 7.97300 25.28000
C  3.90000 8.98000 26.91300
N  8.09400 3.31200 26.33000
C  7.59700 4.21200 25.52100
C  7.83400 3.69400 24.04300
C  9.06300 2.67400 24.23800
C  9.00900 2.51900 25.77500
C  6.55600 3.04000 23.34200
C  10.38900 3.13100 23.68400
C  11.19700 4.21000 24.55600
N  9.54900 2.28000 28.70700
C  10.15400 1.47100 27.74900
C  11.16500 0.55000 28.36300
C  11.13700 0.94700 29.72700
C  10.16400 1.93700 29.89600
C  11.88500 -0.52200 27.56600
C  11.75200 0.70600 31.01300
O  12.66100 -0.02800 31.39400
C  10.97700 1.57600 32.06200
C  10.33500 0.79200 33.10900
O  9.55600 -0.07000 32.77800
O  10.90900 1.08100 34.30300
C  10.43400 0.08800 35.35000
H  5.64100 5.99300 31.38700
H  6.35700 5.87800 25.06900
H  10.49200 1.03800 25.70400
H  8.68400 2.93800 33.85800
H  7.24600 5.36100 33.46500
H  5.21700 3.92000 33.45900
H  6.34000 3.17300 34.59600
H  6.15600 2.55400 32.91100
H  9.54100 5.73400 33.06500
H  10.64500 4.36300 33.07500
H  10.21200 6.01500 35.10200
H  11.08200 4.50400 35.22400
H  4.45400 8.55300 29.79800
H  4.06200 6.96800 30.60600
H  3.19500 7.43700 29.24600
H  2.96000 8.60700 27.31900
H  3.62600 9.56100 26.03200
H  4.29400 9.64000 27.68600
H  8.09700 4.56900 23.44800
H  8.78400 1.71500 23.80000
H  6.36000 3.66000 22.46800
H  5.68500 3.17100 23.98400
H  6.65700 1.99900 23.03500
H  10.23900 3.70800 22.77200
H  11.11200 2.33900 23.48700
H  12.02300 3.82300 25.15100
H  10.59300 4.74300 25.29000
H  11.60300 4.93500 23.85000
H  11.59400 -0.56900 26.51700
H  11.66500 -1.50100 27.99200
H  12.94900 -0.31800 27.68700
H  11.65800 2.33300 32.44900
H  10.03000 -0.80700 34.87800
H  9.70900 0.56600 36.00900
H  11.22300 -0.19300 36.04700
Mg 24.62900 -4.64100 46.26400
C  26.61800 -1.99000 44.76700
C  22.11400 -3.65100 44.13900
C  22.93900 -7.43600 47.06400
C  27.52700 -5.67700 47.79700
N  24.41100 -2.97100 44.67200
C  25.28100 -1.99000 44.28500
C  24.92200 -1.39100 43.00300
C  23.42200 -1.64900 42.98100
C  23.29900 -2.85000 43.97200
C  22.51900 -0.42300 43.36400
C  25.70400 -1.84900 41.80600
C  26.21700 -0.78600 40.82300
H  25.37700 -0.57900 39.53300
N  22.69700 -5.52500 45.69900
C  21.85300 -4.91400 44.80900
C  20.72300 -5.75400 44.58200
C  20.93800 -6.88900 45.35800
C  22.17900 -6.66500 46.14000
C  19.62800 -5.48400 43.51400
C  19.96400 -8.13700 45.40000
O  18.98500 -8.15900 44.65500
C  20.10100 -9.19100 46.39800
N  25.18300 -6.44800 47.04500
C  24.31000 -7.39400 47.51000
C  25.05900 -8.47400 48.25600
C  26.39600 -7.76900 48.71600
C  26.39800 -6.56600 47.77700
C  24.22800 -9.05000 49.42600
C  27.73300 -8.57400 48.52400
C  28.64900 -8.60800 49.73600
N  26.60300 -3.95500 46.42700
C  27.64300 -4.48700 47.15100
C  28.74200 -3.51000 47.09400
C  28.38600 -2.64000 46.10500
C  27.11300 -2.97000 45.68100
C  29.99800 -3.48700 47.89300
C  28.93600 -1.51600 45.39900
O  30.04400 -0.97500 45.44500
C  27.81800 -1.18900 44.35400
C  27.56800 0.27700 44.45500
O  27.05500 0.80100 45.39300
O  27.97800 0.89100 43.33600
C  27.72300 2.34700 43.22400
H  21.25900 -3.22500 43.61100
H  22.37900 -8.24300 47.54100
H  28.38200 -5.95400 48.41700
H  25.09500 -0.33800 43.22200
H  23.16600 -2.11700 42.03000
H  23.05100 0.35200 43.91500
H  21.60900 -0.78100 43.84600
H  22.21400 -0.03700 42.39100
H  25.08300 -2.50800 41.19900
H  26.48300 -2.57200 42.04900
H  27.24700 -0.90300 40.48800
H  26.25700 0.13200 41.40900
H  19.62400 -6.34800 42.84900
H  19.91800 -4.60600 42.93700
H  18.57500 -5.41600 43.78700
H  19.45500 -10.04800 46.20700
H  19.79500 -8.78900 47.36400
H  21.12300 -9.53900 46.54200
H  25.31400 -9.20200 47.48600
H  26.27200 -7.40400 49.73500
H  23.27700 -8.51800 49.44600
H  24.87100 -8.93000 50.29800
H  24.09600 -10.10900 49.20200
H  28.26400 -8.06300 47.72000
H  27.49100 -9.59400 48.22600
H  28.77400 -9.63600 50.07500
H  28.21900 -7.93500 50.47800
H  29.60900 -8.26400 49.35100
H  30.02800 -4.41200 48.46900
H  30.04300 -2.66600 48.60800
H  30.86300 -3.51300 47.23000
H  28.13800 -1.24200 43.31400
H  28.56200 2.77300 43.77500
H  26.83300 2.70100 43.74400
H  27.70300 2.60600 42.16600

