158

Mg 9.35600 3.52900 28.31200
C  10.68600 1.93100 31.14800
C  7.82100 5.71400 30.30000
C  7.92900 4.68500 25.53200
C  10.82200 0.91700 26.35700
N  9.34900 3.74500 30.51800
C  9.91900 2.99700 31.43700
C  9.80800 3.72300 32.82900
C  8.76200 4.87100 32.54000
C  8.62900 4.79100 31.00900
C  7.44600 4.85600 33.38700
C  11.18200 4.14600 33.31300
C  11.65700 3.52400 34.63100
H  12.22300 4.30500 35.74600
N  7.98300 4.95500 28.01900
C  7.42000 5.71900 28.97700
C  6.42800 6.60200 28.39400
C  6.50100 6.43600 26.98600
C  7.48400 5.31000 26.79600
C  5.61500 7.57700 29.24400
C  5.80000 7.05900 25.77100
O  5.97800 6.73100 24.62900
C  4.95200 8.31700 26.03900
N  9.43000 2.88900 26.21300
C  8.80300 3.62800 25.27200
C  9.15200 3.08500 23.88400
C  10.06900 1.88300 24.15700
C  10.15000 1.90000 25.66100
C  7.91200 2.71800 23.13100
C  11.47800 1.67200 23.41500
C  11.57900 0.49800 22.51100
N  10.47900 1.80800 28.61900
C  10.94000 0.87500 27.77600
C  11.70900 -0.13100 28.47400
C  11.62400 0.23000 29.84300
C  10.90900 1.47300 29.86500
C  12.49400 -1.26300 27.89400
C  12.10500 -0.00800 31.21800
O  12.88900 -0.85000 31.62800
C  11.45100 1.13300 32.07500
C  10.63400 0.46200 33.15500
O  9.47300 0.00600 33.02300
O  11.42500 0.34800 34.29800
C  10.86500 -0.13000 35.55900
H  7.45700 6.43100 31.03800
H  7.48100 5.09900 24.62700
H  11.26400 0.09100 25.79400
H  9.49400 2.97500 33.55800
H  9.17400 5.88000 32.51800
H  6.77400 4.03400 33.14100
H  6.88200 5.77300 33.21800
H  7.51100 4.76700 34.47200
H  11.12700 5.23000 33.41500
H  11.94800 3.84200 32.59900
H  12.43700 2.79800 34.40200
H  10.89600 2.95700 35.16600
H  5.59000 7.26700 30.28900
H  4.61700 7.62200 28.80900
H  6.06200 8.54800 29.02700
H  4.22900 8.27700 26.85400
H  4.39300 8.55700 25.13500
H  5.60500 9.16900 26.22800
H  9.79400 3.80000 23.36900
H  9.66300 0.89900 23.92100
H  6.97300 3.02000 23.59400
H  7.84000 1.65500 22.89800
H  7.93000 3.36800 22.25600
H  12.33500 1.56500 24.08100
H  11.71000 2.52900 22.78200
H  12.13900 -0.23100 23.09600
H  12.23500 0.63900 21.65200
H  10.66100 0.01500 22.17600
H  11.94000 -1.77400 27.10600
H  12.51300 -1.99900 28.69800
H  13.51800 -1.12100 27.54900
H  12.23300 1.65500 32.62600
H  10.79500 0.76600 36.17600
H  11.59700 -0.88700 35.83900
H  9.89000 -0.61600 35.53100
Mg -6.13800 25.71600 25.37200
C  -4.43400 27.10900 28.21400
C  -7.45100 23.54900 27.59400
C  -7.34100 24.12600 22.68100
C  -4.17800 27.72000 23.35800
N  -6.03200 25.44000 27.69600
C  -5.28700 26.12500 28.59400
C  -5.63200 25.80100 29.99600
C  -6.39500 24.41000 29.78900
C  -6.57100 24.40400 28.26200
C  -5.76000 23.16100 30.43300
C  -6.40800 26.85800 30.78900
C  -5.82800 27.23000 32.14400
H  -6.59200 26.41100 33.23200
N  -7.31800 24.12300 25.19800
C  -7.90000 23.42900 26.24300
C  -9.05400 22.70000 25.72500
C  -8.95300 22.76800 24.28500
C  -7.85400 23.72200 23.95000
C  -10.07700 22.04600 26.57400
C  -9.63900 21.95000 23.28000
O  -9.50600 22.04600 22.06400
C  -10.61300 20.84300 23.69500
N  -5.84700 25.90600 23.37300
C  -6.45400 25.12600 22.43500
C  -6.06600 25.53600 20.98500
C  -5.17000 26.79200 21.23700
C  -5.03900 26.80500 22.74500
C  -5.36500 24.44100 20.05000
C  -5.65700 28.16500 20.73000
C  -5.78100 28.52500 19.19900
N  -4.65700 27.17300 25.70400
C  -3.93300 27.88200 24.74600
C  -3.00700 28.76300 25.43600
C  -3.26900 28.58800 26.77800
C  -4.20300 27.60100 26.90300
C  -2.06500 29.78700 24.76700
C  -2.93600 29.06900 28.06600
O  -2.21200 29.95100 28.46300
C  -3.61800 28.09500 29.03800
C  -2.67300 27.35800 29.89000
O  -1.96500 26.46300 29.53900
O  -2.59900 27.85600 31.17900
C  -1.86400 27.24900 32.26500
H  -8.09100 22.96700 28.26000
H  -7.82800 23.58600 21.86600
H  -3.47900 28.35100 22.80600
H  -4.64400 25.58200 30.40200
H  -7.43800 24.36700 30.10200
H  -6.32600 22.92600 31.33400
H  -4.73200 23.27300 30.77900
H  -5.85500 22.30900 29.75900
H  -7.38100 26.40800 30.98800
H  -6.54400 27.74800 30.17500
H  -6.03100 28.29200 32.27800
H  -4.76000 27.05100 32.26800
H  -9.95700 20.96300 26.55200
H  -11.08000 22.27100 26.21300
H  -10.00000 22.32700 27.62400
H  -10.02000 20.07400 24.19000
H  -10.95500 20.34700 22.78600
H  -11.42200 21.17700 24.34500
H  -7.02600 25.84900 20.57300
H  -4.13800 26.75900 20.88700
H  -6.07900 23.92200 19.41000
H  -4.83200 23.90900 20.83700
H  -4.67900 24.85300 19.30900
H  -5.16700 29.04400 21.14900
H  -6.71600 28.19100 20.98500
H  -5.64700 27.62200 18.60300
H  -5.02800 29.27000 18.94100
H  -6.76000 28.94600 18.97000
H  -1.45400 29.29900 24.00800
H  -1.43700 30.04300 25.62000
H  -2.67700 30.53900 24.26900
H  -4.25600 28.77000 29.60900
H  -2.46200 26.75100 33.02800
H  -1.27200 28.01800 32.76100
H  -1.10400 26.55900 31.89800

