158

Mg 44.86000 4.73700 47.47300
C  42.81600 7.50400 47.14300
C  42.07400 2.77600 46.92100
C  46.93700 2.11500 47.09600
C  47.52500 6.93800 47.51100
N  42.67500 5.17200 47.07400
C  42.06400 6.35600 46.96400
C  40.57700 6.22000 46.55300
C  40.34300 4.70900 46.96300
C  41.80300 4.15600 47.02800
C  39.46300 4.45400 48.26100
C  40.44300 6.41500 45.01600
C  39.72800 7.63900 44.58600
H  40.17600 8.38200 43.28700
N  44.51400 2.72800 47.18200
C  43.31500 2.12700 46.94900
C  43.49000 0.68500 46.75000
C  44.92200 0.46400 46.82300
C  45.55500 1.76900 47.05200
C  42.40800 -0.35600 46.49200
C  45.49300 -0.90900 46.72200
O  44.79900 -1.87200 46.59400
C  46.96600 -1.18600 46.82900
N  46.92100 4.55700 47.18200
C  47.55900 3.33600 47.33600
C  49.10200 3.48000 47.39800
C  49.25100 4.95500 47.72200
C  47.84100 5.54000 47.53600
C  49.70100 2.50300 48.42000
C  50.44900 5.70500 47.00300
C  51.36100 6.66000 47.75800
N  45.15300 6.79800 47.35800
C  46.31300 7.54700 47.32900
C  45.95300 8.99000 47.35200
C  44.60600 8.99900 47.31800
C  44.19500 7.63200 47.23800
C  46.95400 10.22000 47.37200
C  43.40200 9.80000 47.31900
O  43.29300 11.04400 47.40300
C  42.17700 8.87700 47.11200
C  41.25800 9.07300 48.33000
O  41.21600 8.32900 49.32900
O  40.34200 10.07800 48.04900
C  39.33300 10.29700 49.08300
H  41.16600 2.21900 46.68100
H  47.59300 1.24200 47.09400
H  48.34000 7.65900 47.59600
H  39.93800 6.92100 47.08900
H  40.00500 4.14200 46.09500
H  38.81800 5.31700 48.42600
H  40.18700 4.33200 49.06700
H  38.98400 3.47500 48.24400
H  39.94000 5.53600 44.61200
H  41.47900 6.42900 44.67900
H  39.69900 8.35700 45.40500
H  38.67300 7.44800 44.38900
H  42.62800 -0.85200 45.54600
H  41.44000 0.11400 46.31500
H  42.17400 -1.02800 47.31800
H  47.29000 -2.22000 46.71100
H  47.28800 -0.85100 47.81500
H  47.55600 -0.62400 46.10500
H  49.44400 3.21100 46.39800
H  49.31200 5.23100 48.77500
H  50.32200 3.05700 49.12500
H  50.36700 1.74900 48.00200
H  48.95400 1.94600 48.98600
H  49.96300 6.39300 46.31200
H  51.04500 5.01500 46.40600
H  51.06400 6.58400 48.80400
H  51.18100 7.69300 47.46000
H  52.43300 6.49400 47.65000
H  47.41900 10.36400 46.39700
H  47.72500 10.04400 48.12300
H  46.44200 11.14600 47.63500
H  41.65700 9.10700 46.18200
H  38.92900 11.27800 48.83200
H  39.70300 10.38300 50.10500
H  38.49300 9.62700 48.90100
Mg 1.03200 42.71100 26.27300
C  3.40300 42.63300 28.98500
C  -1.51700 42.22800 28.48100
C  -1.07500 42.59100 23.58600
C  3.75100 42.85700 24.13400
N  1.05700 42.55700 28.47700
C  2.01000 42.55700 29.37500
C  1.39400 42.47500 30.80000
C  -0.10700 42.11900 30.60900
C  -0.21600 42.23900 29.08200
C  -0.76300 40.84600 31.19900
C  1.68900 43.78100 31.53700
C  1.24400 43.79500 33.06400
H  0.90900 42.44400 33.63000
N  -1.01200 42.44100 26.13800
C  -1.90200 42.41300 27.12100
C  -3.25000 42.36600 26.57400
C  -3.17000 42.40500 25.18400
C  -1.69000 42.49900 24.89500
C  -4.44000 42.31900 27.39400
C  -4.30000 42.57000 24.15700
O  -4.07600 42.94600 23.01900
C  -5.67700 42.35500 24.62600
N  1.33800 42.68500 24.22300
C  0.30200 42.56600 23.32600
C  0.71800 42.69600 21.89600
C  2.25000 42.72800 22.05400
C  2.48600 42.76900 23.54900
C  0.36300 41.44400 21.04800
C  2.86500 43.89000 21.30600
C  3.28900 45.14600 22.08200
N  3.25000 42.81700 26.48800
C  4.13000 42.85600 25.50300
C  5.52800 42.88800 26.06900
C  5.26200 42.77600 27.49800
C  3.86500 42.76300 27.62300
C  6.77800 43.04400 25.31700
C  5.86300 42.69100 28.78800
O  7.01700 42.59400 29.06300
C  4.65800 42.65200 29.84900
C  4.88800 41.53600 30.75200
O  4.85200 40.39100 30.31000
O  5.14000 41.98000 32.02300
C  5.41200 40.87800 32.93800
H  -2.35400 42.10900 29.17300
H  -1.73600 42.54600 22.71800
H  4.47200 43.03600 23.33400
H  1.89600 41.58500 31.17800
H  -0.71700 42.88500 31.08800
H  -1.17700 40.34700 30.32300
H  -1.54700 41.05700 31.92700
H  -0.02500 40.23800 31.72200
H  1.09200 44.57600 31.09000
H  2.75600 43.99300 31.46200
H  0.35500 44.41700 33.17100
H  2.10200 44.11400 33.65500
H  -5.12200 41.49900 27.16700
H  -5.07100 43.16900 27.13300
H  -4.38200 42.53200 28.46200
H  -6.23700 42.39000 23.69200
H  -6.07700 43.11800 25.29500
H  -5.82100 41.35900 25.04700
H  0.30300 43.62500 21.50600
H  2.58500 41.71900 21.81200
H  -0.13000 40.72500 21.70300
H  1.17100 40.94000 20.51800
H  -0.44200 41.78500 20.39700
H  2.14800 44.25500 20.57000
H  3.71900 43.44900 20.79300
H  2.77600 45.27600 23.03500
H  3.07900 46.01000 21.45200
H  4.37400 45.24500 22.11900
H  6.68100 43.97200 24.75300
H  6.88500 42.24500 24.58400
H  7.63700 43.02800 25.98800
H  4.61100 43.57000 30.43500
H  4.94800 41.07400 33.90400
H  6.49200 40.77200 33.04300
H  5.09000 39.90000 32.58200

