158

Mg -1.51000 16.87200 26.05400
C  -2.15800 14.36700 28.53900
C  -2.76800 19.11100 28.34500
C  -1.58300 19.08500 23.72100
C  -1.35600 14.24400 23.77300
N  -2.12600 16.70600 28.26100
C  -2.15800 15.64400 29.07400
C  -2.45100 16.03000 30.52300
C  -2.91600 17.52900 30.30100
C  -2.58800 17.84900 28.89300
C  -4.34700 17.86900 30.81300
C  -1.30900 15.82400 31.59700
C  -1.35700 16.77200 32.84500
H  -1.26000 16.18700 34.23700
N  -2.10200 18.92700 26.05200
C  -2.55100 19.66600 27.06400
C  -2.68100 20.99200 26.65900
C  -2.33600 21.02000 25.24200
C  -1.98200 19.63400 24.94400
C  -2.96900 22.10200 27.65500
C  -2.23900 22.22100 24.27900
O  -1.69500 22.22500 23.18800
C  -2.76100 23.52300 24.70800
N  -1.41300 16.67000 23.99500
C  -1.34400 17.79500 23.26000
C  -0.99600 17.42300 21.88400
C  -0.72800 15.85100 21.91100
C  -1.16800 15.56100 23.30900
C  -2.17900 17.72000 20.80500
C  0.74000 15.40700 21.62300
C  1.79700 15.34400 22.76700
N  -1.74000 14.74600 26.10000
C  -1.58100 13.82300 25.05000
C  -1.88700 12.50100 25.44500
C  -2.04600 12.64200 26.84600
C  -1.89500 13.99300 27.17800
C  -2.07400 11.31000 24.61200
C  -2.47100 11.96200 28.01000
O  -2.71500 10.74300 28.20100
C  -2.50200 12.97100 29.20200
C  -1.61000 12.46400 30.28400
O  -0.41600 12.76300 30.39000
O  -2.24500 11.67700 31.16100
C  -1.49900 11.41600 32.43000
H  -3.09700 19.78400 29.14000
H  -1.61000 19.88800 22.98100
H  -1.19700 13.45100 23.03900
H  -3.24700 15.44400 30.98200
H  -2.15500 18.19700 30.70500
H  -4.94700 18.48000 30.13900
H  -4.40500 18.38100 31.77300
H  -4.81700 16.89200 30.92500
H  -0.32800 15.98700 31.15000
H  -1.35900 14.79600 31.95500
H  -2.30300 17.31100 32.90300
H  -0.57700 17.52300 32.71600
H  -3.71400 22.74700 27.18700
H  -2.12200 22.73100 27.92700
H  -3.43600 21.72900 28.56600
H  -3.78000 23.19900 24.92000
H  -2.74700 24.16600 23.82900
H  -2.31900 24.06300 25.54600
H  -0.11000 17.99300 21.60400
H  -1.29000 15.24300 21.20200
H  -2.52800 16.76500 20.41100
H  -1.75600 18.32300 20.00200
H  -2.94500 18.28200 21.34000
H  1.22500 16.02500 20.86800
H  0.71900 14.37400 21.27500
H  2.24900 14.35200 22.74400
H  1.24500 15.56300 23.68100
H  2.58900 16.06100 22.55600
H  -2.33900 11.61100 23.59900
H  -2.84000 10.75000 25.14800
H  -1.13300 10.76200 24.65500
H  -3.49600 12.92900 29.64600
H  -0.45100 11.14600 32.30100
H  -2.05800 10.63000 32.93700
H  -1.56300 12.26700 33.10800
Mg 40.49200 9.01300 28.83900
C  42.61300 10.37500 31.26000
C  38.90300 7.18600 31.28500
C  38.71600 7.43000 26.38600
C  42.91300 9.91000 26.42900
N  40.79400 8.65000 31.09800
C  41.54300 9.57000 31.80400
C  41.04500 9.55000 33.29200
C  40.02500 8.31800 33.32800
C  39.89700 7.96800 31.84300
C  40.33500 7.06400 34.21200
C  40.49600 10.92400 33.68400
C  40.02300 11.10100 35.12800
H  40.81500 11.91500 36.18900
N  39.02300 7.61700 28.75400
C  38.51200 6.93500 29.88300
C  37.34800 6.13600 29.46700
C  37.19000 6.34300 28.06900
C  38.35900 7.14600 27.68100
C  36.40000 5.39700 30.36100
C  36.04500 5.95400 27.14700
O  36.07700 6.29500 25.94900
C  34.86400 5.02500 27.53100
N  40.83500 8.68200 26.67700
C  39.92200 7.97100 25.92200
C  40.27100 8.11000 24.40900
C  41.65600 8.93000 24.46000
C  41.83600 9.19600 25.96200
C  40.37100 6.73100 23.60900
C  41.74400 10.16700 23.53200
C  41.04200 11.53100 23.91800
N  42.32700 10.00600 28.77100
C  43.14600 10.36100 27.73500
C  44.20900 11.08200 28.16100
C  44.04000 11.23500 29.54000
C  42.88900 10.47400 29.88500
C  45.37600 11.47400 27.32200
C  44.54700 11.76400 30.79500
O  45.46900 12.51200 31.07600
C  43.61400 11.34000 31.91200
C  44.31200 10.78300 33.12400
O  44.46500 9.61100 33.32500
O  44.59900 11.74100 34.03300
C  45.08100 11.29100 35.32800
H  38.33700 6.65200 32.05100
H  38.10800 7.07200 25.55200
H  43.72200 10.16700 25.74200
H  41.93300 9.28000 33.86400
H  39.04600 8.75900 33.51900
H  41.28900 7.11800 34.73700
H  40.17600 6.19300 33.57600
H  39.53600 7.00400 34.95100
H  39.62600 11.00800 33.03200
H  41.20300 11.71700 33.43900
H  40.07600 10.10000 35.55600
H  39.01900 11.52300 35.17000
H  36.81000 5.44600 31.36900
H  36.14000 4.36700 30.11800
H  35.55800 6.08800 30.31800
H  35.31400 4.12800 27.95500
H  34.32300 4.59700 26.68800
H  34.24000 5.45100 28.31700
H  39.49700 8.69700 23.91500
H  42.44500 8.28500 24.07400
H  39.84400 6.83000 22.66000
H  39.88600 5.89700 24.11700
H  41.42300 6.58900 23.36000
H  41.38600 9.84000 22.55600
H  42.79000 10.41600 23.35200
H  40.41100 11.48000 24.80500
H  40.36100 11.84800 23.12800
H  41.82800 12.26800 24.08000
H  45.13400 12.02700 26.41500
H  45.97000 10.61100 27.02100
H  46.01000 12.08500 27.96500
H  43.04100 12.19900 32.26200
H  44.19400 10.95600 35.86600
H  45.62900 12.02000 35.92500
H  45.80000 10.48400 35.19200

