158

Mg 24.68900 -7.87000 45.87700
C  27.12600 -5.52000 45.00700
C  22.39600 -6.38600 43.96100
C  22.61400 -10.45000 46.64800
C  27.30500 -9.59300 47.73500
N  24.76900 -6.18100 44.62900
C  25.92000 -5.35800 44.40000
C  25.52900 -4.21400 43.32400
C  23.93500 -4.35000 43.20800
C  23.68900 -5.72200 43.92600
C  23.20200 -3.16300 43.84200
C  26.29600 -4.45500 42.00200
C  25.68600 -3.61000 40.85000
H  24.90200 -4.22700 39.69600
N  22.81300 -8.37900 45.33900
C  21.97300 -7.55500 44.65400
C  20.65300 -8.19700 44.55000
C  20.68100 -9.34600 45.33600
C  22.11300 -9.46500 45.81300
C  19.47100 -7.61500 43.67300
C  19.39600 -10.22600 45.68500
O  18.30400 -9.97500 45.16200
C  19.48400 -11.50000 46.41200
N  24.94300 -9.72800 46.92700
C  23.92600 -10.52500 47.14000
C  24.25100 -11.75600 48.05100
C  25.83900 -11.66800 48.19200
C  26.07500 -10.25600 47.53200
C  23.58800 -11.70200 49.45000
C  26.72900 -12.72800 47.45500
C  28.00000 -13.25900 48.25400
N  26.82800 -7.57900 46.36600
C  27.66900 -8.30800 47.14200
C  28.91400 -7.61600 47.24700
C  28.74500 -6.50300 46.42100
C  27.47300 -6.52100 45.86600
C  30.13600 -8.10000 48.05100
C  29.38100 -5.37500 45.85300
O  30.54200 -4.97400 46.06600
C  28.42300 -4.67100 44.81500
C  28.30200 -3.25200 45.09600
O  28.82800 -2.44900 44.32000
O  27.44800 -2.92600 46.13600
C  27.00500 -1.50400 46.17100
H  21.64600 -5.86900 43.35900
H  21.88900 -11.23300 46.88000
H  28.05600 -10.18500 48.26200
H  25.94900 -3.33900 43.82100
H  23.64300 -4.49900 42.16800
H  22.74200 -2.66000 42.99200
H  23.66600 -2.47900 44.55100
H  22.36300 -3.51900 44.44000
H  26.11400 -5.51100 41.80300
H  27.28900 -4.04100 42.17500
H  26.54500 -3.00200 40.56600
H  24.92500 -2.93000 41.23400
H  19.56400 -6.53700 43.53800
H  18.50000 -7.75400 44.14800
H  19.51700 -8.22300 42.76900
H  19.95100 -11.23700 47.36100
H  20.15600 -12.14800 45.84900
H  18.52300 -11.99900 46.53300
H  24.06400 -12.64400 47.44800
H  26.16800 -11.71500 49.23100
H  23.14900 -12.69800 49.52100
H  22.80700 -10.95100 49.57300
H  24.19600 -11.75600 50.35300
H  26.94800 -12.31600 46.47000
H  26.10500 -13.59500 47.23400
H  28.23900 -12.71500 49.16800
H  28.86600 -13.18400 47.59600
H  27.80400 -14.32600 48.36600
H  30.50700 -9.00900 47.57700
H  29.88500 -8.20000 49.10700
H  30.85500 -7.28700 47.94800
H  28.90100 -4.74500 43.83900
H  26.45000 -1.28500 45.25900
H  27.81200 -0.79400 45.99100
H  26.36200 -1.29800 47.02700
Mg 6.67100 54.97500 40.56300
C  5.88700 51.52700 40.39000
C  9.96600 54.19000 40.07800
C  7.33900 58.29800 40.40000
C  3.26100 55.69800 40.67500
N  7.76600 53.02300 40.07200
C  7.22700 51.73200 40.11700
C  8.41800 50.63300 40.11700
C  9.67900 51.58300 40.33100
C  9.14900 52.99400 40.16400
C  10.50800 51.35800 41.56400
C  8.44400 49.75300 38.79700
C  8.32200 50.47700 37.43700
H  7.02100 50.81000 36.82900
N  8.42600 56.08200 40.30100
C  9.66400 55.54700 40.10200
C  10.63100 56.57700 39.86700
C  9.92800 57.76900 40.05700
C  8.48100 57.41800 40.29800
C  12.06400 56.44100 39.55100
C  10.51600 59.15800 40.02000
O  11.73400 59.29900 39.85500
C  9.77800 60.37000 40.50100
N  5.51400 56.72200 40.31900
C  6.01700 58.00500 40.45500
C  4.95100 59.09600 40.54000
C  3.65200 58.18200 40.47900
C  4.12800 56.76400 40.49000
C  5.07000 60.07400 41.72000
C  2.65500 58.59400 39.39500
C  1.94700 59.93600 39.52000
N  4.88200 53.92100 40.58500
C  3.56500 54.36300 40.68900
C  2.74300 53.27200 40.95500
C  3.55200 52.14700 40.82900
C  4.88700 52.57000 40.57100
C  1.26800 53.26900 41.28000
C  3.58300 50.72900 40.89900
O  2.72400 49.89700 41.23300
C  5.13700 50.29700 40.69900
C  5.06600 49.27600 39.60200
O  4.74300 49.45700 38.44300
O  5.27300 48.03000 40.18500
C  5.11600 46.90300 39.18800
H  10.99300 53.85400 39.92100
H  7.54700 59.36700 40.31500
H  2.19800 55.89700 40.82400
H  8.21700 50.01400 40.99100
H  10.29600 51.38600 39.45400
H  10.36500 52.23900 42.19100
H  11.53400 51.22800 41.22000
H  10.12900 50.60300 42.25300
H  7.70100 48.95800 38.87600
H  9.40800 49.25600 38.68700
H  8.93400 49.88500 36.75600
H  8.77600 51.44900 37.63100
H  12.37300 55.43300 39.27400
H  12.58800 56.76100 40.45100
H  12.31300 57.13400 38.74700
H  9.19600 60.87100 39.72800
H  10.59600 61.05500 40.72500
H  9.26900 60.27500 41.46000
H  4.93500 59.67900 39.61900
H  3.12400 58.32800 41.42200
H  5.96100 60.01600 42.34500
H  4.21100 59.80900 42.33700
H  4.89500 61.04600 41.25900
H  1.88400 57.82300 39.40200
H  3.19200 58.49600 38.45200
H  2.25100 60.53300 38.66000
H  2.35100 60.34600 40.44500
H  0.89700 59.85100 39.80100
H  0.88800 52.25500 41.40700
H  0.67800 53.75700 40.50400
H  1.08600 53.78200 42.22400
H  5.53300 49.82200 41.59600
H  5.70500 47.07000 38.28600
H  4.06600 46.79500 38.91600
H  5.45700 45.99400 39.68300

