158

Mg 48.05600 25.71900 27.96000
C  48.99300 27.84500 30.62200
C  46.93400 23.49200 30.50400
C  47.35200 23.54400 25.58300
C  49.68200 27.82800 25.69500
N  48.01100 25.73700 30.26400
C  48.31800 26.73200 31.07300
C  48.02500 26.38400 32.54700
C  47.46300 24.96700 32.54400
C  47.42400 24.70000 30.98600
C  48.19100 23.92200 33.45900
C  47.11200 27.44200 33.12200
C  47.28700 27.60200 34.68300
H  46.08000 27.81600 35.62000
N  47.28000 23.78300 28.10000
C  46.78400 23.09200 29.15400
C  46.35900 21.73600 28.74700
C  46.54500 21.72200 27.30300
C  47.05800 23.04400 26.94300
C  46.13400 20.65900 29.61600
C  46.08800 20.63700 26.31600
O  46.37900 20.76100 25.16300
C  45.17100 19.53000 26.77400
N  48.43400 25.69400 25.96100
C  48.06000 24.65700 25.14600
C  48.31000 25.01000 23.60400
C  49.10500 26.36400 23.67400
C  49.09800 26.62200 25.23500
C  48.96200 23.98000 22.70000
C  48.40300 27.50800 22.83400
C  49.23200 28.29600 21.84000
N  49.19800 27.41600 28.07300
C  49.85100 28.18300 27.09000
C  50.37200 29.44500 27.66200
C  50.09200 29.28000 29.05000
C  49.28400 28.10800 29.25000
C  50.95200 30.55900 26.81200
C  50.19800 29.90600 30.33400
O  50.77200 30.95800 30.67000
C  49.43100 29.06000 31.35000
C  50.28600 28.82400 32.56300
O  51.06900 27.90000 32.67000
O  50.07900 29.91300 33.37300
C  50.70000 29.79600 34.66100
H  46.61700 22.84200 31.32200
H  47.17400 22.89000 24.72800
H  50.13600 28.55100 25.01500
H  48.99700 26.44600 33.03600
H  46.44900 24.97800 32.94400
H  48.88100 24.42900 34.13400
H  48.81400 23.18600 32.95100
H  47.44500 23.37100 34.03100
H  46.06600 27.18100 32.96300
H  47.12500 28.40900 32.61900
H  47.81000 28.54800 34.82600
H  47.92500 26.86200 35.16600
H  46.71600 20.82000 30.52300
H  46.64200 19.80400 29.17000
H  45.07200 20.42000 29.66700
H  45.68800 18.87900 27.48000
H  45.08000 18.94000 25.86200
H  44.17200 19.91500 26.97800
H  47.30700 25.23700 23.24200
H  50.13400 26.35300 23.31700
H  48.68400 22.98500 23.04600
H  50.03100 24.19300 22.68700
H  48.76400 23.99400 21.62900
H  47.98200 28.04700 23.68200
H  47.53700 27.10100 22.31200
H  48.59000 28.30200 20.95900
H  50.15700 27.76500 21.61600
H  49.47500 29.32600 22.10200
H  50.35700 30.70900 25.91100
H  52.00400 30.29000 26.71800
H  50.95800 31.49500 27.37100
H  48.54200 29.64700 31.58200
H  50.36100 28.99900 35.32200
H  50.40000 30.73500 35.12700
H  51.78800 29.74200 34.71500
Mg -13.31700 15.91000 43.43300
C  -10.00600 14.84900 42.61000
C  -12.52000 18.92800 41.99600
C  -16.57200 16.62200 43.45900
C  -13.90400 12.67500 44.62500
N  -11.35400 16.87500 42.49100
C  -10.20400 16.16400 42.17300
C  -9.24100 17.10200 41.42100
C  -10.11700 18.40300 41.22100
C  -11.41500 18.10600 41.94800
C  -9.49200 19.74500 41.70300
C  -8.79500 16.42100 40.05300
C  -7.24300 16.36900 39.92700
H  -6.66000 15.19800 39.20400
N  -14.37700 17.59300 42.84000
C  -13.81300 18.80600 42.52900
C  -14.86600 19.77400 42.35100
C  -16.11300 19.14100 42.62800
C  -15.77000 17.70100 43.02500
C  -14.63300 21.13500 41.77700
C  -17.41000 19.74000 42.48700
O  -17.61600 20.87100 42.02400
C  -18.65600 18.99300 42.84300
N  -15.01900 14.80700 43.86400
C  -16.26500 15.40000 43.96900
C  -17.28400 14.50900 44.79500
C  -16.33300 13.27500 45.12300
C  -14.94900 13.57600 44.45900
C  -17.85100 15.10700 46.10000
C  -16.82000 11.94500 44.49300
C  -17.73800 11.13700 45.39400
N  -12.23800 14.12000 43.61700
C  -12.56200 12.90600 44.16600
C  -11.40900 12.01000 44.13300
C  -10.39200 12.73600 43.53400
C  -10.90000 13.96800 43.31800
C  -11.39000 10.63400 44.61200
C  -9.00400 12.67800 43.19400
O  -8.24700 11.72300 43.34200
C  -8.70500 14.09800 42.64000
C  -7.76100 14.66400 43.60700
O  -7.91400 15.48400 44.50100
O  -6.47200 14.28100 43.18200
C  -5.43400 15.18900 43.72600
H  -12.25700 19.82900 41.43800
H  -17.65000 16.78500 43.52400
H  -14.20100 11.72700 45.07900
H  -8.42400 17.26700 42.12400
H  -10.30100 18.55400 40.15700
H  -10.06700 20.08100 42.56600
H  -9.34000 20.58300 41.02300
H  -8.43800 19.60600 41.94200
H  -9.17700 17.01600 39.22400
H  -9.15900 15.43000 39.77900
H  -6.84100 16.34600 40.94000
H  -6.90700 17.30500 39.48000
H  -15.10100 21.18700 40.79400
H  -13.58200 21.42600 41.77300
H  -15.25500 21.89900 42.24400
H  -18.90900 18.12000 42.24200
H  -19.49000 19.69500 42.84900
H  -18.54500 18.66400 43.87600
H  -18.01200 14.21700 44.03800
H  -16.17100 13.31900 46.20000
H  -17.28800 15.96900 46.45700
H  -17.95000 14.31200 46.84000
H  -18.86100 15.48000 45.93200
H  -16.00000 11.30000 44.17500
H  -17.27700 12.22300 43.54400
H  -18.61400 10.83400 44.82100
H  -18.16800 11.68900 46.22900
H  -17.37500 10.17600 45.75700
H  -10.53500 10.19500 44.09800
H  -12.33100 10.21100 44.25900
H  -11.39900 10.60800 45.70200
H  -8.24600 14.09500 41.65100
H  -4.46000 14.82100 43.40500
H  -5.39500 15.08000 44.81000
H  -5.53800 16.23500 43.43800

