158

Mg -2.36200 34.53600 26.60600
C  -4.21300 32.78600 29.20000
C  -1.20700 36.51400 29.03500
C  -0.84500 36.16000 24.17900
C  -4.04500 32.47300 24.30200
N  -2.79800 34.76600 28.95300
C  -3.42200 33.83300 29.75800
C  -3.21900 34.22000 31.20100
C  -2.39700 35.53400 31.08100
C  -2.06100 35.64200 29.57500
C  -3.13100 36.79200 31.61600
C  -2.54700 33.09600 32.03300
C  -3.34200 32.36200 33.15000
H  -3.39300 33.23500 34.39800
N  -1.20700 36.13900 26.56800
C  -0.74300 36.80000 27.70500
C  0.20300 37.82600 27.32700
C  0.33500 37.72500 25.94300
C  -0.62000 36.64800 25.48000
C  0.91100 38.68900 28.35400
C  1.28000 38.46100 25.01400
O  1.26300 38.34400 23.80600
C  2.34500 39.32900 25.57500
N  -2.73000 34.46700 24.51600
C  -1.72600 35.15400 23.78400
C  -1.68400 34.60800 22.35100
C  -2.61900 33.38700 22.36000
C  -3.19700 33.38300 23.77900
C  -1.98500 35.64500 21.28700
C  -1.87300 32.05900 22.06300
C  -2.69500 30.81000 21.61400
N  -4.03400 33.13500 26.69900
C  -4.54700 32.34200 25.63100
C  -5.42900 31.32900 26.17500
C  -5.32900 31.43900 27.56200
C  -4.45900 32.58800 27.83000
C  -6.18500 30.17800 25.44800
C  -5.72300 30.88600 28.80800
O  -6.59100 30.02000 28.99700
C  -5.06700 31.77900 29.91600
C  -6.25700 32.36700 30.59900
O  -6.73600 33.43800 30.29400
O  -6.63400 31.70300 31.68500
C  -7.59800 32.20600 32.61800
H  -0.80800 37.18600 29.79800
H  -0.14700 36.44000 23.38700
H  -4.41200 31.76900 23.55200
H  -4.23100 34.37200 31.57700
H  -1.44000 35.53600 31.60200
H  -4.08800 36.49100 32.04300
H  -3.32500 37.46700 30.78200
H  -2.54700 37.34200 32.35500
H  -1.64800 33.53800 32.46300
H  -2.12800 32.40800 31.29900
H  -2.75100 31.47500 33.38200
H  -4.31900 32.04400 32.78500
H  1.99200 38.68500 28.21000
H  0.65100 38.51600 29.39800
H  0.56900 39.69700 28.11900
H  3.00100 39.62400 24.75600
H  3.02700 38.70700 26.15500
H  1.94200 40.11400 26.21500
H  -0.64000 34.32600 22.21400
H  -3.39300 33.60800 21.62400
H  -1.15700 35.72800 20.58400
H  -2.08100 36.60200 21.79900
H  -2.97500 35.45600 20.87100
H  -1.39900 31.69400 22.97400
H  -1.01600 32.14800 21.39500
H  -2.38700 30.50800 20.61300
H  -3.74700 31.09500 21.59000
H  -2.56200 30.04400 22.37800
H  -5.91100 29.23600 25.92200
H  -5.91300 30.24300 24.39400
H  -7.25600 30.36300 25.53800
H  -4.49500 31.20400 30.64500
H  -7.03200 32.85000 33.29100
H  -8.12000 31.42100 33.16500
H  -8.32400 32.78900 32.05200
Mg -11.84900 15.65300 42.03300
C  -8.92400 13.81800 41.94400
C  -10.13900 18.29000 40.69100
C  -14.78700 17.23300 40.94800
C  -13.64500 12.76100 42.74100
N  -9.73600 15.97300 41.37900
C  -8.70600 15.09900 41.49000
C  -7.44900 15.63100 40.86600
C  -7.82600 17.12400 40.82000
C  -9.31100 17.16700 40.97000
C  -7.08100 17.97600 41.88600
C  -7.24300 14.93200 39.46200
C  -5.87400 14.38500 39.16400
H  -5.08800 14.80900 38.00700
N  -12.37400 17.50500 41.10500
C  -11.50100 18.44300 40.73100
C  -12.17100 19.63100 40.20600
C  -13.54500 19.26700 40.06000
C  -13.62600 17.92500 40.69500
C  -11.41000 20.89600 39.84600
C  -14.54100 19.94400 39.18000
O  -14.34500 21.02400 38.61600
C  -15.80800 19.13200 38.76800
N  -13.93300 15.11700 41.90000
C  -15.01800 15.94900 41.51700
C  -16.35200 15.17800 41.51100
C  -15.92100 13.76300 41.98300
C  -14.37500 13.86400 42.18400
C  -17.45900 15.84100 42.39100
C  -16.36600 12.60600 41.10700
C  -17.84200 12.14500 41.42700
N  -11.44500 13.67900 42.49000
C  -12.23600 12.60900 42.82900
C  -11.41800 11.49500 43.10500
C  -10.09700 11.87100 42.71000
C  -10.15700 13.25200 42.33400
C  -11.93900 10.07200 43.54100
C  -8.66300 11.46600 42.72900
O  -8.10300 10.53000 43.18400
C  -7.87600 12.71100 42.13600
C  -6.80100 13.12300 43.02600
O  -6.97000 13.40600 44.21000
O  -5.60400 13.28700 42.38200
C  -4.62000 14.15200 43.11400
H  -9.61000 19.21800 40.46300
H  -15.70300 17.78300 40.72100
H  -14.24300 11.86900 42.94200
H  -6.61700 15.48200 41.55500
H  -7.61900 17.56200 39.84300
H  -6.42600 17.38900 42.53000
H  -7.86000 18.54400 42.39500
H  -6.44200 18.70600 41.38900
H  -7.42600 15.57900 38.60400
H  -8.01400 14.16400 39.39100
H  -5.84600 13.30100 39.06200
H  -5.19100 14.60400 39.98500
H  -12.02600 21.76600 39.62000
H  -10.75300 20.77700 38.98500
H  -10.69000 21.21800 40.59900
H  -15.57800 18.08800 38.55000
H  -15.90700 19.44500 37.72800
H  -16.70300 19.42500 39.31700
H  -16.73500 15.12700 40.49200
H  -16.29600 13.53000 42.97900
H  -18.37200 15.82000 41.79600
H  -17.12600 16.82600 42.71700
H  -17.64200 15.27000 43.30100
H  -15.87100 11.67800 41.39300
H  -16.26300 12.79400 40.03800
H  -17.87300 11.51000 42.31300
H  -18.45000 11.67800 40.65200
H  -18.33600 13.06500 41.73800
H  -11.90500 9.32200 42.75200
H  -12.97800 10.16000 43.86000
H  -11.31000 9.79200 44.38600
H  -7.55800 12.31500 41.17200
H  -3.83200 13.55100 43.56800
H  -4.98600 14.88900 43.82800
H  -4.01700 14.64700 42.35200

