158

Mg 23.73800 -4.92900 45.55700
C  26.33900 -2.80500 44.02100
C  21.64600 -3.92300 42.97600
C  21.90300 -7.58400 46.09600
C  26.40200 -6.25700 47.33400
N  23.97300 -3.51900 43.78200
C  25.08700 -2.79600 43.37400
C  24.78200 -2.04800 42.04100
C  23.25300 -2.40600 41.79000
C  22.91900 -3.29500 42.97800
C  22.33400 -1.24900 41.66800
C  25.66600 -2.49100 40.83600
C  26.55400 -1.47100 40.05000
H  26.10500 -1.48400 38.54800
N  21.89800 -5.66200 44.74500
C  21.20200 -4.99100 43.77300
C  19.84700 -5.61300 43.74700
C  19.91100 -6.78300 44.53800
C  21.24500 -6.75000 45.17200
C  18.75400 -5.09400 42.82500
C  18.80800 -7.75800 44.73200
O  17.68300 -7.50000 44.26100
C  18.85700 -9.01600 45.58200
N  24.16000 -6.73300 46.38800
C  23.16000 -7.65700 46.61700
C  23.69900 -8.88600 47.33200
C  25.01900 -8.32600 47.96200
C  25.22800 -7.05200 47.21500
C  22.68200 -9.61500 48.33100
C  26.30200 -9.31500 48.03100
C  26.11500 -10.92700 47.76200
N  25.82300 -4.43200 45.94100
C  26.75300 -5.05800 46.68800
C  28.02300 -4.52500 46.58500
C  27.87000 -3.56800 45.61600
C  26.55100 -3.62600 45.20500
C  29.27200 -4.98800 47.18700
C  28.64500 -2.62800 44.81100
O  29.83800 -2.35800 44.81300
C  27.66200 -2.09700 43.73900
C  27.61700 -0.58500 43.77300
O  27.17100 0.05400 44.66200
O  28.08400 0.04000 42.64300
C  28.23200 1.46900 42.65600
H  20.91400 -3.57600 42.24400
H  21.27300 -8.43200 46.37000
H  27.16500 -6.68400 47.98800
H  24.93700 -0.99300 42.26900
H  23.08000 -3.01700 40.90500
H  21.51100 -1.35700 42.37500
H  21.82700 -1.36400 40.71000
H  22.81800 -0.27200 41.66200
H  25.16200 -3.06000 40.05400
H  26.30300 -3.25200 41.28700
H  27.63900 -1.56900 40.06300
H  26.43000 -0.52000 40.56900
H  18.57400 -5.87000 42.08200
H  19.02800 -4.25600 42.18300
H  17.80600 -4.98700 43.35100
H  17.97400 -9.65200 45.51700
H  19.09500 -8.72900 46.60600
H  19.63700 -9.67100 45.19200
H  23.97700 -9.54100 46.50600
H  24.94800 -8.04700 49.01300
H  21.84200 -8.99600 48.64400
H  23.23700 -9.91600 49.22000
H  22.29200 -10.54900 47.92700
H  26.72000 -9.23000 49.03400
H  27.03600 -9.02100 47.28100
H  26.51700 -11.31500 46.82600
H  25.10400 -11.33200 47.81300
H  26.71200 -11.36100 48.56500
H  29.03600 -5.49100 48.12500
H  29.92000 -4.13000 47.36400
H  29.86500 -5.64100 46.54700
H  27.96000 -2.43000 42.74500
H  29.06400 1.73500 43.30800
H  27.40800 1.94500 43.18700
H  28.35800 1.97400 41.69800
Mg 48.26200 16.60400 28.33200
C  46.10100 16.57300 31.19900
C  50.44300 18.62400 30.14300
C  50.11300 16.78100 25.52400
C  45.68700 15.09900 26.59000
N  48.24900 17.52900 30.42100
C  47.36400 17.21700 31.45400
C  47.89200 17.67300 32.81200
C  49.13200 18.58100 32.37600
C  49.31100 18.17400 30.88900
C  48.97700 20.15200 32.56400
C  48.46900 16.46700 33.62000
C  48.03000 16.36400 35.10800
H  47.57000 17.65200 35.80000
N  50.10800 17.58100 27.87500
C  50.86400 18.35700 28.78400
C  52.05700 18.73400 28.07700
C  51.99400 18.16500 26.75100
C  50.67900 17.53300 26.61400
C  53.09000 19.44100 28.76900
C  53.08100 18.14000 25.63700
O  52.87400 17.63400 24.53400
C  54.44700 18.61000 25.99600
N  47.91700 16.10700 26.34700
C  48.92000 16.10400 25.46400
C  48.52100 15.44400 24.14000
C  47.06000 15.03100 24.37300
C  46.85500 15.40800 25.87000
C  48.49700 16.55300 23.04400
C  46.68700 13.51700 23.92900
C  45.47000 13.43900 22.95500
N  46.36600 15.90000 28.77200
C  45.39300 15.29100 27.98900
C  44.20200 15.00700 28.68700
C  44.44300 15.44000 29.98800
C  45.73100 15.98900 29.99900
C  43.01400 14.30500 28.05200
C  43.95600 15.51300 31.32900
O  42.93300 15.05700 31.74900
C  45.04200 16.36100 32.23200
C  44.46400 17.61500 32.85700
O  44.43800 18.70000 32.28500
O  43.99400 17.27100 34.02800
C  42.71600 17.80700 34.50400
H  51.19000 19.13400 30.75400
H  50.77100 16.66400 24.66000
H  44.99600 14.48800 26.00600
H  47.11500 18.20600 33.36000
H  50.11600 18.41700 32.81500
H  49.68900 20.68200 33.19500
H  47.99400 20.37200 32.98000
H  48.99300 20.61700 31.57800
H  49.55600 16.51000 33.55700
H  48.01800 15.55100 33.23900
H  48.91100 16.10300 35.69400
H  47.28200 15.57100 35.08800
H  53.97400 18.82000 28.91300
H  52.85100 19.92500 29.71700
H  53.42600 20.14900 28.01200
H  54.45600 19.69900 26.04000
H  55.01200 18.45600 25.07700
H  54.92700 18.17800 26.87500
H  49.17000 14.58000 23.99200
H  46.32700 15.63600 23.83900
H  48.89300 17.54300 23.27000
H  47.53600 16.66200 22.54200
H  49.12400 16.08600 22.28500
H  46.43200 12.91200 24.79900
H  47.56700 13.05000 23.48700
H  45.80000 13.52500 21.92000
H  44.72100 14.19300 23.20000
H  45.02100 12.44700 22.99200
H  43.55100 13.40200 27.76200
H  42.74200 14.75000 27.09500
H  42.15400 14.17400 28.70800
H  45.38600 15.72200 33.04600
H  42.94200 18.49800 35.31500
H  42.03400 17.03400 34.85900
H  42.16100 18.29100 33.70100

