158

Mg 7.25500 2.70900 27.74400
C  8.81200 1.38100 30.58400
C  5.64200 4.88100 29.75000
C  5.44800 3.60900 24.96500
C  8.60100 0.09600 25.91200
N  7.25300 3.13200 30.04300
C  8.05900 2.43500 30.97800
C  7.87900 3.18100 32.36000
C  6.77900 4.26800 32.06700
C  6.49400 4.10200 30.55800
C  5.41000 4.08100 32.85000
C  9.24100 3.80800 32.91500
C  9.61400 3.38400 34.34300
H  10.26200 4.48600 35.21800
N  5.90000 4.08100 27.36800
C  5.42100 4.98200 28.30900
C  4.66800 5.90500 27.68100
C  4.59400 5.58700 26.28600
C  5.31800 4.30200 26.13900
C  4.07400 7.06000 28.37900
C  3.96000 6.39400 25.14400
O  3.92800 6.02700 24.00500
C  3.40300 7.68400 25.36500
N  6.93200 1.88300 25.72600
C  6.21600 2.50000 24.80900
C  6.32300 1.71500 23.50500
C  7.49200 0.72800 23.68600
C  7.63900 0.90500 25.22700
C  4.99800 0.93200 23.02500
C  8.78200 1.08100 22.92600
C  9.62400 -0.01000 22.15800
N  8.46500 1.08000 28.12300
C  8.94400 0.05500 27.27900
C  9.82800 -0.85400 28.01800
C  9.89600 -0.32100 29.25900
C  9.01600 0.88700 29.30300
C  10.42200 -2.03700 27.37700
C  10.46600 -0.51200 30.59700
O  11.24200 -1.40500 30.92700
C  9.81000 0.58000 31.45300
C  9.16200 0.03700 32.65600
O  8.14200 -0.59000 32.70500
O  9.92800 0.25400 33.75300
C  9.60500 -0.24100 35.06700
H  5.03500 5.56800 30.34500
H  4.83900 3.75500 24.07100
H  9.07300 -0.62000 25.23600
H  7.44000 2.31500 32.85500
H  7.15200 5.25700 32.33600
H  5.54200 3.44500 33.72500
H  4.61900 3.71700 32.19500
H  4.96300 5.02200 33.17200
H  9.11800 4.88700 33.00100
H  10.11500 3.53600 32.32400
H  10.36000 2.59600 34.43900
H  8.73800 2.99600 34.86400
H  4.61900 7.98500 28.18900
H  4.00200 7.03800 29.46600
H  3.02300 7.18200 28.11700
H  2.37600 7.67300 25.73100
H  3.56700 8.20900 24.42400
H  3.96500 8.23600 26.11900
H  6.40400 2.45200 22.70600
H  7.18000 -0.31000 23.57500
H  5.11900 -0.04600 22.56100
H  4.59500 1.54200 22.21600
H  4.28500 0.99700 23.84800
H  9.52500 1.54700 23.57400
H  8.56400 1.84900 22.18400
H  9.65200 -1.01300 22.58400
H  10.64400 0.36500 22.08200
H  9.26200 -0.19000 21.14600
H  11.25000 -1.65100 26.78100
H  9.84100 -2.56100 26.61800
H  10.66000 -2.76400 28.15300
H  10.63400 1.14800 31.88400
H  8.94400 -1.10700 35.04100
H  8.95900 0.52500 35.49700
H  10.51000 -0.50300 35.61500
Mg 44.56900 4.13300 46.43800
C  42.31100 6.75100 46.54800
C  41.87600 1.89600 45.89800
C  46.78700 1.60700 45.56800
C  47.14100 6.40400 46.10500
N  42.38800 4.33600 46.24000
C  41.66600 5.52300 46.31300
C  40.17500 5.23700 46.36200
C  40.00700 3.67400 46.13900
C  41.51100 3.26100 46.15000
C  39.12000 2.88500 47.24300
C  39.36900 6.08100 45.39700
C  39.33100 5.85000 43.89500
H  39.51200 7.03700 42.90000
N  44.36200 2.02500 45.98700
C  43.18100 1.35800 45.86400
C  43.43300 -0.02000 45.44400
C  44.85200 -0.15800 45.47000
C  45.46400 1.18000 45.65900
C  42.34100 -1.02000 45.11800
C  45.60200 -1.43500 45.19100
O  45.08400 -2.54600 44.98000
C  47.16800 -1.53700 45.14800
N  46.74400 3.99600 45.88800
C  47.39100 2.79500 45.78700
C  48.88800 2.98600 45.53100
C  48.96600 4.58800 45.41500
C  47.58700 5.05000 45.90900
C  49.85700 2.28700 46.55300
C  49.09300 5.17400 43.98500
C  50.54500 5.25400 43.57500
N  44.73100 6.12800 46.31100
C  45.83900 6.89700 46.39500
C  45.55300 8.27600 46.69700
C  44.15900 8.24800 46.79500
C  43.71600 6.96100 46.46200
C  46.45800 9.44100 46.77300
C  42.99100 9.02100 47.25900
O  42.93900 10.18000 47.61000
C  41.71600 8.12200 46.94500
C  40.85000 8.09400 48.07000
O  40.95500 7.41700 49.10700
O  39.76600 8.85200 47.76800
C  38.56900 8.65200 48.66000
H  41.02100 1.21900 45.84700
H  47.45600 0.81800 45.21900
H  47.93200 7.15400 46.17700
H  39.82000 5.53000 47.35000
H  39.47900 3.40700 45.22400
H  38.24000 2.33800 46.90500
H  38.75200 3.69100 47.87800
H  39.81000 2.32400 47.87400
H  39.55900 7.15200 45.46600
H  38.33200 6.20300 45.71100
H  38.34400 5.46500 43.64000
H  40.09500 5.10800 43.66200
H  42.67400 -1.73900 44.37000
H  41.37900 -0.59400 44.83300
H  42.08300 -1.54800 46.03600
H  47.69100 -1.25700 46.06200
H  47.62200 -1.00900 44.31000
H  47.50100 -2.57200 45.06300
H  49.06300 2.59500 44.52900
H  49.81600 4.83000 46.05300
H  50.62300 1.90000 45.88000
H  49.39700 1.48400 47.12900
H  50.40100 3.05100 47.10700
H  48.67600 6.17600 43.88200
H  48.60000 4.64400 43.17000
H  51.16700 4.95600 44.41900
H  50.78500 6.27200 43.26800
H  50.73400 4.48900 42.82200
H  47.25200 9.44800 46.02600
H  46.83100 9.37200 47.79500
H  45.96600 10.38900 46.55500
H  41.19800 8.61300 46.12100
H  37.71200 8.68000 47.98800
H  38.40200 9.47900 49.35000
H  38.52600 7.72200 49.22700

