158

Mg 7.31800 54.50200 41.99600
C  6.90100 51.01200 41.47600
C  10.54100 54.15400 40.78200
C  7.50700 57.69100 42.22600
C  3.82700 54.60500 42.98800
N  8.49400 52.81700 40.95800
C  8.13600 51.50500 41.01700
C  9.28300 50.61500 40.46800
C  10.53600 51.58700 40.54700
C  9.85600 52.96400 40.76700
C  11.50000 51.26000 41.71200
C  9.02500 50.11700 38.96400
C  8.32900 51.08600 38.02500
H  7.33100 50.49000 37.01700
N  8.85100 55.77200 41.61500
C  10.05900 55.47600 41.11200
C  10.83000 56.75100 41.06900
C  9.96600 57.75700 41.49000
C  8.70000 57.11800 41.78200
C  12.23300 56.85200 40.55000
C  10.34600 59.23900 41.75700
O  11.43400 59.72000 41.41700
C  9.46000 60.18900 42.48600
N  5.81600 55.90300 42.44700
C  6.20500 57.20600 42.44200
C  4.97300 58.12100 42.69400
C  3.81600 57.16200 43.15500
C  4.44700 55.82200 42.81900
C  5.25400 59.28900 43.67100
C  2.45200 57.29300 42.35700
C  1.20500 57.05000 43.18600
N  5.64000 53.14800 42.12600
C  4.38100 53.26000 42.72000
C  3.74900 51.94900 42.78400
C  4.74700 51.02600 42.40200
C  5.84200 51.83500 41.94100
C  2.35900 51.61100 43.26800
C  5.12700 49.59900 42.22300
O  4.51800 48.59000 42.40100
C  6.46400 49.57500 41.52700
C  6.00000 49.02100 40.17800
O  5.26200 49.56000 39.35700
O  6.54200 47.78700 40.00200
C  6.02200 46.97500 38.91100
H  11.62900 54.12600 40.68700
H  7.55900 58.77400 42.35100
H  2.82800 54.40900 43.38300
H  9.45600 49.73300 41.08500
H  11.05500 51.65800 39.59100
H  11.19100 50.50700 42.43600
H  11.67900 52.14900 42.31800
H  12.49900 50.91100 41.45200
H  8.58300 49.12400 39.04500
H  10.02100 49.93900 38.55900
H  9.08100 51.51500 37.36300
H  7.64300 51.70700 38.60000
H  12.53900 57.87900 40.34800
H  12.26400 56.40300 39.55700
H  12.76800 56.36300 41.36400
H  8.68700 60.66600 41.88300
H  10.08200 60.97400 42.91700
H  8.94800 59.73900 43.33500
H  4.77000 58.68200 41.78200
H  3.71400 57.24900 44.23700
H  4.55100 59.17500 44.49600
H  4.99400 60.19800 43.12800
H  6.30700 59.24800 43.94800
H  2.51800 56.67900 41.45900
H  2.31700 58.35900 42.17100
H  0.35500 57.52000 42.69100
H  1.26100 57.47900 44.18600
H  0.99600 55.98000 43.17100
H  2.48100 50.58700 43.62000
H  1.70800 51.56700 42.39500
H  1.89800 52.20900 44.05400
H  7.19900 48.88800 41.94600
H  6.62500 46.07600 38.78800
H  6.03000 47.48200 37.94700
H  4.98700 46.65500 39.03000
Mg 0.68300 43.44100 26.02500
C  2.98900 43.22400 28.66300
C  -1.79400 42.66800 28.24200
C  -1.42400 43.35400 23.36000
C  3.32600 43.88000 23.85400
N  0.63300 43.02600 28.20400
C  1.68000 43.07400 29.04600
C  1.13200 43.02100 30.46400
C  -0.28700 42.45500 30.35200
C  -0.55100 42.79200 28.86800
C  -0.52000 41.01000 30.62300
C  1.14600 44.45900 31.11100
C  1.45500 44.50500 32.66700
H  1.23100 43.20100 33.50800
N  -1.33900 42.98400 25.81600
C  -2.18900 42.68100 26.84300
C  -3.58400 42.54700 26.25600
C  -3.47800 42.87300 24.88300
C  -2.04900 43.10300 24.62700
C  -4.81200 42.14600 27.11200
C  -4.56900 42.90000 23.84700
O  -4.42500 43.25600 22.65900
C  -5.92600 42.48500 24.21500
N  0.86400 43.83600 23.93800
C  -0.07100 43.58600 23.05000
C  0.44900 43.59700 21.54800
C  1.88300 44.15900 21.83700
C  2.06700 43.87000 23.27100
C  0.37800 42.20200 20.87600
C  2.05000 45.63800 21.30400
C  1.82200 46.80100 22.28900
N  2.77500 43.52100 26.14600
C  3.71800 43.74000 25.20800
C  5.05400 43.71000 25.76500
C  4.81900 43.48600 27.15200
C  3.44800 43.35800 27.34900
C  6.28300 43.93300 25.01900
C  5.51200 43.32700 28.42600
O  6.68800 43.40500 28.69700
C  4.34500 43.17100 29.47500
C  4.64800 42.04200 30.29900
O  4.25900 40.87300 30.09200
O  5.39800 42.42900 31.44500
C  5.61200 41.36800 32.37000
H  -2.63200 42.52700 28.92800
H  -2.08000 43.32900 22.48700
H  4.07800 44.15600 23.11200
H  1.72100 42.35000 31.09000
H  -1.05800 43.00100 30.89600
H  0.34900 40.47500 31.00600
H  -0.91300 40.55600 29.71300
H  -1.31200 40.88500 31.36000
H  0.15600 44.90700 31.01800
H  1.79300 45.17100 30.59900
H  0.82000 45.29400 33.07200
H  2.51700 44.70000 32.81400
H  -5.62900 42.86500 27.04100
H  -4.49500 41.95000 28.13600
H  -5.19800 41.18900 26.76100
H  -6.07600 41.45600 24.54300
H  -6.52700 42.71400 23.33600
H  -6.10200 43.18100 25.03500
H  -0.21800 44.24100 20.97500
H  2.53100 43.53900 21.21800
H  1.38100 41.77600 20.82700
H  0.07900 42.17000 19.82800
H  -0.29300 41.49500 21.36300
H  1.44300 45.63500 20.39900
H  3.09400 45.72000 21.00200
H  2.59400 47.56700 22.21800
H  1.80900 46.37400 23.29200
H  0.85500 47.26900 22.10700
H  6.81900 44.77500 25.45800
H  6.15300 44.31800 24.00800
H  6.84800 43.00100 25.02800
H  4.41500 44.08400 30.06500
H  6.01200 40.39600 32.08000
H  4.64300 41.13000 32.80900
H  6.31300 41.79400 33.08700

