158

Mg 17.97000 -1.85900 27.60300
C  17.18900 0.23000 30.32000
C  19.88600 -3.77300 29.70500
C  18.94000 -3.54100 24.92500
C  16.08300 0.45800 25.54800
N  18.42700 -1.76500 29.80700
C  17.98100 -0.83100 30.67100
C  18.41400 -1.17400 32.06200
C  19.49100 -2.30500 31.95800
C  19.33100 -2.61000 30.40000
C  20.93100 -2.08100 32.30100
C  17.20100 -1.70300 32.95400
C  17.08000 -1.10800 34.38600
H  18.31400 -0.43300 35.04300
N  19.22400 -3.49700 27.37100
C  19.79700 -4.19400 28.34600
C  20.40200 -5.41700 27.75700
C  20.30200 -5.25400 26.38700
C  19.49300 -4.06700 26.14800
C  21.00700 -6.36800 28.68200
C  20.79900 -6.23800 25.23600
O  20.66200 -5.98100 24.04600
C  21.45500 -7.55300 25.46600
N  17.55400 -1.59100 25.57200
C  18.12300 -2.36900 24.63700
C  17.67900 -1.97200 23.23100
C  16.57500 -0.85900 23.50800
C  16.75400 -0.62800 25.01600
C  18.80200 -1.56100 22.31400
C  15.13800 -1.14400 23.03000
C  14.55600 -0.10700 22.03500
N  16.89500 -0.05600 27.83300
C  16.12700 0.71900 26.93300
C  15.45500 1.85100 27.56700
C  15.91700 1.71100 28.90800
C  16.74100 0.55100 29.03300
C  14.61400 3.01100 27.01800
C  15.78900 2.16500 30.22600
O  15.23800 3.17000 30.58200
C  16.48700 1.25800 31.21100
C  17.45500 1.99700 32.06200
O  18.46100 2.57300 31.61900
O  16.82900 2.26200 33.26000
C  17.52500 3.28500 34.05600
H  20.60100 -4.33200 30.31300
H  19.32000 -4.04000 24.03100
H  15.42700 1.02700 24.88400
H  18.82500 -0.30100 32.56900
H  19.09600 -3.20100 32.43600
H  21.56000 -2.07400 31.41100
H  21.20300 -2.94300 32.91100
H  20.92200 -1.20900 32.95400
H  17.29500 -2.78000 33.09700
H  16.20300 -1.57100 32.53700
H  16.63900 -1.78300 35.11900
H  16.26000 -0.39200 34.43100
H  22.07500 -6.15800 28.74100
H  20.79400 -7.37700 28.33000
H  20.48300 -6.26900 29.63200
H  22.37100 -7.43000 26.04400
H  21.68100 -7.94400 24.47400
H  20.76000 -8.21500 25.98300
H  17.24200 -2.82800 22.71600
H  16.90000 0.07000 23.04000
H  18.75600 -0.48100 22.17400
H  18.69000 -2.08700 21.36600
H  19.77200 -1.83800 22.72600
H  14.40400 -1.23000 23.83200
H  15.28300 -2.13600 22.60300
H  15.08200 -0.42900 21.13600
H  14.93300 0.90700 22.16300
H  13.46900 -0.14200 21.95700
H  14.57500 3.05200 25.93000
H  15.01800 3.88500 27.52900
H  13.58500 2.92000 27.36700
H  15.72500 0.75800 31.80800
H  16.97400 4.22400 34.11300
H  18.56000 3.53000 33.81600
H  17.56700 2.86900 35.06200
Mg 53.38300 23.82800 44.80200
C  50.65700 26.02700 44.37900
C  51.31100 21.19100 44.18200
C  56.13600 21.91700 44.23000
C  55.47400 26.63900 45.12700
N  51.16700 23.63300 44.11300
C  50.25300 24.67500 44.21500
C  48.80400 24.12700 44.25200
C  49.07800 22.64600 44.56400
C  50.54700 22.43600 44.21800
C  48.79300 22.17100 46.01000
C  47.88900 24.35300 43.01300
C  48.44700 24.26400 41.61200
H  47.91700 23.04000 40.77300
N  53.75200 21.84600 44.26900
C  52.70300 20.90100 44.08900
C  53.29500 19.60300 43.98500
C  54.75400 19.74400 43.96500
C  54.91900 21.24100 44.15200
C  52.34800 18.39100 43.75600
C  55.76300 18.56600 43.84400
O  55.46300 17.36600 43.82500
C  57.20800 18.88000 43.89600
N  55.56800 24.22800 44.59500
C  56.51500 23.26000 44.38600
C  57.94200 23.86800 44.21700
C  57.65000 25.38400 44.66400
C  56.12600 25.44500 44.86000
C  58.90900 23.01300 45.13000
C  58.20700 26.53100 43.66700
C  57.24000 26.92300 42.49500
N  53.17500 25.89500 44.85900
C  54.10400 26.90500 45.07900
C  53.39400 28.20000 45.16300
C  52.06600 27.87300 44.85300
C  51.99900 26.49400 44.62700
C  54.14400 29.43900 45.50200
C  50.76000 28.43600 44.74300
O  50.43000 29.59900 44.94600
C  49.77500 27.23400 44.44700
C  49.23700 27.48400 43.08000
O  49.90000 27.58000 42.03700
O  47.88200 27.71400 43.17300
C  47.12400 27.93000 41.95500
H  50.65000 20.34000 44.35500
H  57.04100 21.34700 44.01200
H  56.07800 27.53400 45.28900
H  48.33000 24.56400 45.13100
H  48.48300 21.99300 43.92500
H  49.73400 22.10600 46.55600
H  48.41600 21.15600 45.88200
H  48.09900 22.77700 46.59200
H  47.43600 25.33700 43.12800
H  47.08200 23.62600 43.10700
H  49.52100 24.44200 41.55800
H  48.11900 25.23400 41.24000
H  51.86800 18.50900 42.78500
H  51.61900 18.22900 44.55000
H  52.91500 17.46800 43.63500
H  57.78300 17.95900 43.79400
H  57.32300 19.40300 44.84600
H  57.41500 19.60000 43.10500
H  58.31500 23.69200 43.20800
H  58.03700 25.62000 45.65600
H  59.74300 22.64300 44.53300
H  58.48900 22.17500 45.68600
H  59.35900 23.78700 45.75100
H  59.16400 26.26600 43.21700
H  58.51500 27.43300 44.19500
H  56.62600 27.76200 42.82400
H  56.58800 26.08600 42.24300
H  57.95500 27.20200 41.72100
H  54.55900 29.24600 46.49200
H  53.47900 30.30300 45.50900
H  54.92300 29.54800 44.74800
H  48.98900 26.99400 45.16300
H  46.62800 28.89100 42.09400
H  46.32700 27.18800 41.90600
H  47.74200 27.93000 41.05700

