158

Mg -2.43500 17.17100 26.50500
C  -2.96000 14.98500 29.31500
C  -3.03500 19.83000 28.63800
C  -2.26100 19.05700 23.81600
C  -2.39200 14.29800 24.36100
N  -2.84600 17.38200 28.74800
C  -2.99500 16.34600 29.69200
C  -3.26000 17.00200 31.06400
C  -3.06500 18.51900 30.92200
C  -3.00700 18.64000 29.35700
C  -3.99000 19.48900 31.56700
C  -2.50700 16.27400 32.31300
C  -2.35000 17.15600 33.57900
H  -1.80100 16.51000 34.82000
N  -2.61700 19.12600 26.24100
C  -2.90000 20.10800 27.19100
C  -2.80400 21.46000 26.59900
C  -2.41600 21.24200 25.22500
C  -2.42600 19.77100 25.01100
C  -3.00700 22.73200 27.35300
C  -2.10000 22.20600 24.13900
O  -1.99600 21.96400 22.94500
C  -1.88800 23.71200 24.42000
N  -2.43000 16.72400 24.35900
C  -2.24300 17.69500 23.46900
C  -2.30300 17.12800 22.00900
C  -2.11200 15.60600 22.23000
C  -2.35100 15.52800 23.76900
C  -3.44700 17.63900 21.11200
C  -0.67200 14.98500 21.86200
C  0.58500 15.58300 22.52000
N  -2.43200 15.09500 26.77500
C  -2.58900 14.04700 25.79000
C  -2.81400 12.78600 26.46400
C  -2.85300 13.18600 27.81900
C  -2.64600 14.54600 27.97100
C  -2.98000 11.37100 25.98600
C  -3.11700 12.59500 29.19200
O  -3.44000 11.48300 29.59000
C  -3.08200 13.77000 30.15400
C  -1.95500 13.49100 31.08300
O  -0.75000 13.76200 30.91000
O  -2.45200 12.83300 32.19200
C  -1.48800 12.50400 33.27900
H  -3.04700 20.67100 29.33500
H  -2.23700 19.74000 22.96400
H  -2.46200 13.32300 23.87300
H  -4.31500 16.86600 31.30100
H  -2.04600 18.77300 31.21400
H  -4.51100 20.18600 30.91000
H  -3.47000 20.12200 32.28500
H  -4.74300 18.89000 32.07900
H  -1.54400 15.90700 31.95700
H  -3.15000 15.44700 32.61400
H  -3.30900 17.62500 33.80100
H  -1.51800 17.81800 33.33900
H  -3.25600 22.49100 28.38700
H  -3.81300 23.30700 26.89600
H  -2.12400 23.37100 27.34000
H  -1.10700 23.94300 25.14500
H  -2.84600 24.03600 24.82600
H  -1.64800 24.28800 23.52700
H  -1.42300 17.51000 21.49100
H  -2.97600 15.10800 21.79000
H  -4.11200 16.83900 20.78800
H  -2.98500 18.14000 20.26200
H  -4.14700 18.21100 21.72100
H  -0.53600 15.11800 20.78800
H  -0.72800 13.91500 22.05700
H  0.22800 16.27700 23.28200
H  1.24300 16.09200 21.81600
H  1.16900 14.77900 22.96800
H  -4.00100 11.00500 26.09600
H  -2.30200 10.67500 26.47900
H  -2.73100 11.26200 24.93000
H  -3.98300 13.83700 30.76400
H  -0.96900 11.56500 33.08600
H  -2.07700 12.38000 34.18800
H  -0.80200 13.33400 33.44400
Mg 48.21600 16.46200 28.18900
C  46.57700 16.49300 31.18100
C  50.73500 18.41400 29.83200
C  50.04000 17.09800 25.22500
C  45.61100 15.39800 26.56700
N  48.48300 17.56400 30.36100
C  47.80300 17.15600 31.42500
C  48.48200 17.53400 32.75800
C  49.60000 18.58100 32.19600
C  49.67300 18.12300 30.72100
C  49.37400 20.09400 32.34900
C  48.93400 16.37000 33.69000
C  48.29500 16.50300 35.12000
H  48.70400 17.64400 36.06600
N  50.12700 17.46700 27.65100
C  51.00200 18.09600 28.45600
C  52.23300 18.54400 27.73100
C  52.08800 18.15400 26.40200
C  50.73100 17.57900 26.39300
C  53.44100 18.97100 28.46600
C  53.01000 18.16100 25.20600
O  52.60200 18.00600 24.05700
C  54.53500 18.49000 25.27800
N  47.95700 16.08400 26.19900
C  48.76600 16.41300 25.11400
C  48.12800 15.83700 23.76400
C  46.77700 15.18400 24.32500
C  46.79500 15.52900 25.78000
C  48.02700 16.92800 22.66600
C  46.43400 13.74200 23.99900
C  45.75800 13.51500 22.66600
N  46.47900 15.97300 28.67300
C  45.43200 15.54000 27.92600
C  44.33800 15.14300 28.77000
C  44.79500 15.46600 30.04500
C  46.04200 16.05700 29.94600
C  42.94400 14.69200 28.29300
C  44.37200 15.46300 31.45800
O  43.34300 15.17200 32.04600
C  45.46100 16.12500 32.29500
C  44.96500 17.34300 33.01500
O  45.00600 18.48500 32.55400
O  44.46900 16.91900 34.23700
C  43.74300 17.87100 35.11700
H  51.48100 19.00100 30.37200
H  50.45400 17.08500 24.21500
H  44.68900 15.18800 26.02100
H  47.76500 18.19000 33.25100
H  50.53800 18.27400 32.65900
H  50.05800 20.44000 33.12400
H  48.33900 20.32800 32.60000
H  49.71900 20.59600 31.44500
H  50.00000 16.46800 33.89500
H  48.85000 15.37400 33.25600
H  48.40400 15.54600 35.63100
H  47.21000 16.48600 35.01700
H  53.14400 19.85200 29.03400
H  54.31500 19.28300 27.89300
H  53.74100 18.20800 29.18400
H  55.06700 18.22100 24.36500
H  54.99500 17.90600 26.07500
H  54.72800 19.54300 25.48100
H  48.77400 15.02100 23.44200
H  46.06400 15.84600 23.83400
H  48.22900 16.52600 21.67300
H  48.76600 17.72200 22.78000
H  47.04400 17.39700 22.63100
H  45.67300 13.43800 24.71900
H  47.34200 13.15600 24.13600
H  46.02400 12.54300 22.25100
H  45.89500 14.33200 21.95700
H  44.69400 13.54400 22.90100
H  42.75200 15.26600 27.38700
H  42.19500 15.06400 28.99300
H  42.70800 13.65300 28.06300
H  45.92900 15.45300 33.01400
H  44.37300 18.15000 35.96200
H  42.76500 17.46100 35.36500
H  43.56300 18.82600 34.62300

