158

Mg 46.80100 16.79900 27.86700
C  44.97300 16.22400 30.88500
C  48.94800 18.76500 29.71300
C  48.37100 17.65700 25.02800
C  44.24100 15.57400 26.15000
N  46.82100 17.56200 30.12300
C  46.05900 17.06300 31.19200
C  46.58700 17.58800 32.53200
C  47.75100 18.54600 32.10700
C  47.90600 18.18700 30.56200
C  47.83600 20.03500 32.50400
C  46.89300 16.36700 33.47900
C  46.00000 16.29400 34.72100
H  45.69800 17.55900 35.43200
N  48.45100 18.04100 27.45600
C  49.21400 18.74000 28.35900
C  50.28700 19.32400 27.60100
C  50.14700 19.00200 26.25000
C  48.94800 18.18400 26.18200
C  51.31800 20.26600 28.27400
C  51.08200 19.28900 25.03100
O  50.84700 18.91600 23.90800
C  52.37600 19.96400 25.23200
N  46.49700 16.44100 25.92100
C  47.25900 16.85000 24.89700
C  46.65700 16.66500 23.52800
C  45.49000 15.68100 23.83000
C  45.37100 15.89200 25.40300
C  46.28000 17.98000 22.72900
C  45.75200 14.24200 23.26000
C  46.01300 13.10000 24.28300
N  44.95600 15.95600 28.33300
C  44.00200 15.46000 27.51700
C  42.90100 14.91300 28.31200
C  43.22000 15.15600 29.62800
C  44.46900 15.84700 29.58800
C  41.87300 14.09300 27.57600
C  42.76100 14.99300 30.96600
O  41.72300 14.48800 31.43800
C  43.88600 15.71100 31.86100
C  43.14200 16.78200 32.58600
O  43.03700 17.92400 32.22100
O  42.51600 16.25400 33.65800
C  41.64000 17.15300 34.37600
H  49.60400 19.42100 30.28800
H  48.91400 17.83800 24.09900
H  43.47100 15.13700 25.51100
H  45.84500 18.28000 32.93000
H  48.58000 18.09400 32.65300
H  46.96000 20.22100 33.12600
H  47.79800 20.70100 31.64200
H  48.66400 20.15800 33.20200
H  47.94300 16.37000 33.77000
H  46.69200 15.45100 32.92300
H  46.59500 15.65700 35.37500
H  45.05300 15.79400 34.51700
H  51.56900 21.09500 27.61200
H  52.18400 19.65700 28.53400
H  50.85400 20.60200 29.20100
H  53.06700 19.43500 25.88900
H  52.03900 20.92100 25.62900
H  53.04100 20.12600 24.38400
H  47.39100 16.15700 22.90300
H  44.63400 16.06500 23.27600
H  45.31000 17.99800 22.23200
H  47.03500 18.34000 22.03000
H  46.19100 18.77800 23.46600
H  46.64100 14.13900 22.63800
H  44.85300 13.90800 22.74200
H  46.75100 13.49100 24.98300
H  46.32800 12.21600 23.72800
H  45.07100 12.96000 24.81400
H  41.05500 14.66900 27.14400
H  41.46200 13.44300 28.34900
H  42.31100 13.46800 26.79700
H  44.06000 14.85100 32.50800
H  42.16700 18.06000 34.67100
H  41.23300 16.65400 35.25600
H  40.78700 17.40600 33.74600
Mg 27.18000 50.21100 27.51600
C  24.95900 51.33100 30.10600
C  29.44800 49.45800 30.04000
C  29.43700 49.89700 25.23500
C  24.80500 51.51600 25.12800
N  27.16400 50.41600 29.76200
C  26.11600 50.72400 30.60000
C  26.44600 50.55800 32.07000
C  27.96800 50.17100 32.03300
C  28.25200 50.08000 30.55100
C  28.97000 51.18000 32.76400
C  25.46400 49.43200 32.68600
C  24.78400 49.76200 34.02800
H  24.93800 48.73000 35.17400
N  29.13100 49.52000 27.60600
C  29.86500 49.21100 28.72100
C  31.19600 48.86800 28.23700
C  31.30000 49.14400 26.85800
C  29.96300 49.53900 26.49400
C  32.29800 48.42900 29.22900
C  32.50200 49.21800 25.94700
O  32.41700 49.74800 24.84300
C  33.85200 48.70500 26.40700
N  27.15600 50.82700 25.53600
C  28.15300 50.24600 24.78500
C  27.82400 50.40200 23.30300
C  26.33900 50.81400 23.26700
C  26.08000 51.03300 24.71300
C  28.76300 51.38200 22.60000
C  25.43000 49.76200 22.54900
C  24.62600 50.32500 21.36700
N  25.24900 51.16700 27.54900
C  24.45700 51.68200 26.52500
C  23.30300 52.35200 27.03300
C  23.48700 52.20400 28.44700
C  24.65700 51.50000 28.73200
C  22.20100 52.95100 26.25500
C  22.85500 52.51600 29.70400
O  21.77900 53.10900 29.91700
C  23.80400 51.92300 30.85400
C  24.26300 53.18500 31.58000
O  25.26800 53.83500 31.26400
O  23.54200 53.44900 32.72600
C  24.06900 54.54200 33.48200
H  30.05900 49.00600 30.82500
H  30.12700 49.52200 24.47700
H  24.05100 51.78400 24.38400
H  26.35600 51.50600 32.60100
H  28.04100 49.13400 32.36100
H  29.79900 51.39800 32.09100
H  29.34500 50.77000 33.70200
H  28.54000 52.16200 32.95900
H  25.91700 48.44100 32.69700
H  24.63800 49.14600 32.03400
H  23.73700 49.91300 33.76700
H  25.21600 50.71400 34.33600
H  32.49000 47.37500 29.02700
H  32.09700 48.41700 30.30000
H  33.14500 49.11000 29.14800
H  34.53800 48.67900 25.56100
H  33.65900 47.71400 26.81700
H  34.07500 49.34600 27.26000
H  27.91700 49.38400 22.92600
H  26.23200 51.82600 22.87600
H  28.35800 52.18600 21.98600
H  29.28900 50.67400 21.95900
H  29.50000 51.78100 23.29800
H  24.66900 49.28600 23.16600
H  26.08400 48.96900 22.18700
H  24.96700 51.33100 21.12500
H  23.53800 50.25800 21.40000
H  24.95400 49.73000 20.51500
H  21.55600 53.63300 26.80900
H  21.58300 52.23400 25.71600
H  22.59300 53.64200 25.50800
H  23.25700 51.23000 31.49400
H  23.50400 54.80400 34.37600
H  24.22700 55.46800 32.93000
H  24.99800 54.14100 33.88800

