158

Mg 15.85900 52.44700 24.95600
C  17.65200 51.11000 27.79000
C  13.23700 53.23000 26.94000
C  14.16600 53.12200 22.29800
C  18.49600 50.99500 23.06500
N  15.57100 52.17200 27.05500
C  16.41800 51.72200 28.08500
C  15.77200 52.02200 29.43600
C  14.33400 52.39200 29.03400
C  14.33000 52.63200 27.57000
C  13.12400 51.61100 29.64500
C  16.57200 53.06800 30.24000
C  16.86700 52.81400 31.67400
H  16.11000 51.77300 32.53600
N  14.00500 53.22500 24.65400
C  13.05400 53.50800 25.60200
C  11.89800 54.12900 25.00800
C  12.10500 53.95700 23.56200
C  13.45200 53.41400 23.43500
C  10.79900 54.58900 25.83400
C  11.06200 54.21500 22.40600
O  11.37900 54.01500 21.25200
C  9.80800 54.95600 22.75400
N  16.20300 52.03300 22.95000
C  15.37500 52.38100 22.06600
C  15.81000 51.93500 20.62100
C  17.26200 51.43200 20.86600
C  17.32700 51.49900 22.42000
C  14.83400 50.91600 20.01100
C  18.35100 52.30200 20.20500
C  18.15500 52.22900 18.65100
N  17.72200 51.25900 25.27700
C  18.65200 50.78300 24.43200
C  19.65200 50.03300 25.09200
C  19.28800 50.15500 26.43800
C  18.10800 50.90600 26.47500
C  20.76700 49.38900 24.43700
C  19.67500 49.77200 27.79700
O  20.69600 49.18800 28.19400
C  18.72400 50.37800 28.70800
C  18.11500 49.26700 29.54500
O  17.40300 48.34800 29.14400
O  18.61700 49.26400 30.83900
C  18.16900 48.12700 31.65100
H  12.41400 53.48700 27.61000
H  13.63000 53.34100 21.37100
H  19.31400 50.59300 22.46300
H  15.72100 51.14000 30.07400
H  14.16400 53.42600 29.33400
H  12.42600 51.27300 28.87800
H  12.42800 52.17100 30.26900
H  13.50500 50.69000 30.08600
H  16.09000 54.04400 30.18400
H  17.53100 53.11500 29.72600
H  16.85400 53.70800 32.29700
H  17.92500 52.58500 31.80800
H  9.94900 53.94100 25.61900
H  10.51200 55.58800 25.50700
H  10.98200 54.72400 26.90000
H  9.16800 55.02800 21.87500
H  10.11300 55.89700 23.21200
H  9.19300 54.36600 23.43300
H  15.63500 52.82900 20.02300
H  17.44300 50.36500 20.73200
H  14.04200 51.39400 19.43400
H  14.30200 50.25600 20.69600
H  15.33000 50.17900 19.38000
H  19.32900 51.86300 20.40300
H  18.34000 53.32300 20.58900
H  17.41600 51.46300 18.41300
H  19.11600 52.02700 18.17800
H  17.74900 53.15700 18.25000
H  20.94000 48.47400 25.00300
H  21.69200 49.96300 24.50200
H  20.47000 49.37400 23.38900
H  19.24500 51.05600 29.38400
H  18.99900 47.42700 31.74800
H  17.44200 47.38000 31.33200
H  17.93000 48.33100 32.69500
Mg 9.09200 48.06800 27.05200
C  7.00100 47.58600 29.94200
C  11.71300 48.27100 29.05600
C  10.71900 49.09800 24.30700
C  6.09900 48.01500 25.09200
N  9.25200 48.11000 29.31200
C  8.38100 47.72800 30.28300
C  9.05700 47.70800 31.62900
C  10.50900 48.15200 31.34600
C  10.52900 48.09800 29.77300
C  10.79600 49.58300 31.91300
C  9.02300 46.43800 32.49500
C  8.78100 46.59900 34.00700
H  9.23600 45.49600 34.98900
N  11.01300 48.44700 26.71500
C  11.94200 48.42500 27.68500
C  13.22000 48.48600 26.93800
C  12.99500 48.74100 25.56700
C  11.55400 48.76100 25.48000
C  14.55100 48.36300 27.68700
C  13.89700 48.99500 24.50000
O  13.51900 49.20800 23.31500
C  15.37100 48.86200 24.73100
N  8.50500 48.48500 25.00800
C  9.38100 49.00600 24.12200
C  8.60600 49.43200 22.79600
C  7.28500 48.63900 22.93100
C  7.26500 48.41000 24.43600
C  8.54600 51.02700 22.73800
C  7.31300 47.36100 22.14600
C  6.26900 47.30900 20.97000
N  6.94200 47.97700 27.32000
C  5.89800 47.94900 26.48300
C  4.67000 47.77300 27.18200
C  5.05400 47.71400 28.52900
C  6.47600 47.75500 28.55600
C  3.30800 47.78800 26.59100
C  4.49600 47.52900 29.85300
O  3.39300 47.50000 30.31700
C  5.79200 47.37300 30.78000
C  5.69400 46.07400 31.43400
O  5.88100 45.00600 30.87300
O  5.20900 46.26400 32.72000
C  5.07800 45.05400 33.50700
H  12.58700 48.18800 29.70400
H  11.21500 49.47400 23.41000
H  5.25200 48.08300 24.40500
H  8.55100 48.49600 32.18700
H  11.31800 47.58800 31.81000
H  10.96700 50.30200 31.11300
H  11.68500 49.54800 32.54300
H  10.13200 49.96500 32.68900
H  9.99800 45.95200 32.46400
H  8.26800 45.76900 32.08300
H  7.69500 46.61600 34.09100
H  9.19600 47.55200 34.33700
H  15.07800 49.31000 27.80800
H  15.24900 47.60700 27.32900
H  14.24600 47.93800 28.64300
H  15.87900 48.89800 23.76700
H  15.58400 47.96200 25.30800
H  15.68800 49.72700 25.31300
H  9.13800 49.05500 21.92200
H  6.56300 49.33000 22.49400
H  9.50800 51.43300 23.05000
H  7.73100 51.34100 23.39100
H  8.29500 51.39000 21.74100
H  7.17200 46.46800 22.75500
H  8.30200 47.15800 21.73400
H  6.86900 47.18600 20.06800
H  5.70600 48.24200 20.93900
H  5.53300 46.50900 21.05300
H  2.57300 47.39600 27.29300
H  3.25200 47.39400 25.57600
H  2.93000 48.80700 26.66600
H  5.75800 48.06400 31.62300
H  5.91000 45.14100 34.20500
H  5.11300 44.06500 33.05100
H  4.09700 45.22700 33.95000

