158

Mg 35.25800 1.59100 29.83900
C  32.77500 3.07000 31.96500
C  37.55300 1.99200 32.37600
C  37.61900 0.68400 27.69100
C  32.94300 1.77100 27.23100
N  35.03800 2.26000 31.93200
C  34.04500 2.82100 32.63700
C  34.39500 2.91900 34.13400
C  35.98000 3.03600 34.03800
C  36.20100 2.32300 32.71000
C  36.50400 4.44900 34.10900
C  33.76800 1.73900 34.92300
C  33.42600 2.07400 36.35300
H  34.10300 3.26200 37.11100
N  37.38600 1.31900 30.00700
C  38.10600 1.48200 31.13100
C  39.47500 1.14800 30.84200
C  39.54200 0.76500 29.44900
C  38.14500 0.91800 28.99100
C  40.64700 1.19800 31.84100
C  40.68200 0.29100 28.55900
O  40.46100 -0.13100 27.40700
C  42.13200 0.41500 28.94600
N  35.27100 1.42400 27.75500
C  36.35700 0.90900 27.15700
C  36.11500 0.55300 25.61600
C  34.62500 0.93900 25.47600
C  34.21200 1.32500 26.85800
C  37.10200 1.37300 24.69700
C  33.79600 -0.13200 24.73500
C  33.20600 -1.39800 25.45800
N  33.20900 2.31500 29.60600
C  32.45700 2.30300 28.47500
C  31.13000 2.81000 28.81400
C  31.27900 3.07300 30.18500
C  32.56300 2.85900 30.62100
C  29.88600 2.87700 28.01700
C  30.55300 3.56400 31.34600
O  29.39400 3.96800 31.52000
C  31.50300 3.48700 32.58700
C  31.40300 4.74300 33.29000
O  31.46600 5.86900 32.80000
O  31.38600 4.47000 34.62500
C  31.41400 5.65700 35.49300
H  38.17000 1.92900 33.27400
H  38.25200 0.24600 26.91600
H  32.19200 1.72700 26.44000
H  33.93200 3.80700 34.56400
H  36.48200 2.55000 34.87500
H  35.71400 5.15900 34.35400
H  36.89800 4.83900 33.17100
H  37.25100 4.52800 34.89900
H  34.46800 0.90900 34.82200
H  32.89000 1.42400 34.36000
H  33.61100 1.21700 37.00100
H  32.35300 2.23000 36.46000
H  41.34800 0.41900 31.54200
H  40.21400 1.07900 32.83400
H  41.16000 2.16000 31.80700
H  42.33000 1.40400 29.35900
H  42.77600 0.16600 28.10200
H  42.20100 -0.35300 29.71700
H  36.24100 -0.52200 25.48400
H  34.57300 1.86900 24.91100
H  36.60800 2.11300 24.06700
H  37.76200 0.69500 24.15700
H  37.74000 2.03900 25.27700
H  34.32200 -0.57000 23.88700
H  32.98400 0.50100 24.37700
H  33.69900 -2.28800 25.06700
H  32.12100 -1.46700 25.38100
H  33.51600 -1.33900 26.50100
H  29.04300 2.82700 28.70600
H  29.92200 1.92300 27.49100
H  29.80000 3.71300 27.32300
H  31.32100 2.64000 33.24800
H  30.92300 6.52700 35.05600
H  32.46900 5.72500 35.75600
H  30.70100 5.47900 36.29800
Mg 17.11700 52.95000 26.17700
C  18.75500 51.11400 28.58600
C  14.70700 53.84400 28.54400
C  15.15200 54.26800 23.74900
C  19.13000 51.45300 23.83800
N  16.79500 52.52300 28.32800
C  17.63400 51.78100 29.10600
C  17.13200 51.82700 30.55600
C  15.75700 52.50100 30.48900
C  15.73200 52.97100 29.01500
C  14.55300 51.63400 30.90800
C  18.18100 52.65800 31.42800
C  18.58200 52.04400 32.70700
H  18.06000 52.71300 33.97700
N  15.32100 54.09100 26.14600
C  14.61600 54.45700 27.25900
C  13.60600 55.41400 26.83500
C  13.55300 55.33800 25.42600
C  14.68100 54.52400 25.01600
C  12.61200 56.02000 27.88500
C  12.57000 56.01000 24.40700
O  12.51000 55.90100 23.19500
C  11.38800 56.71400 25.09200
N  17.15100 52.86400 24.10400
C  16.30200 53.55500 23.36600
C  16.57500 53.34200 21.88600
C  18.07300 52.88200 21.90700
C  18.15600 52.37800 23.36100
C  15.54700 52.60800 20.99200
C  19.08300 53.95000 21.46700
C  20.37200 54.12600 22.27900
N  18.66500 51.55600 26.18200
C  19.31700 50.97200 25.14500
C  20.30200 50.08200 25.61100
C  20.14400 50.01600 27.04300
C  19.11700 51.01900 27.27400
C  21.39100 49.38500 24.87000
C  20.63500 49.54400 28.30700
O  21.52900 48.74000 28.58000
C  19.72000 50.19400 29.29600
C  19.01600 49.10000 30.09100
O  18.00400 48.45600 29.78700
O  19.78100 49.03800 31.27000
C  19.06200 48.35100 32.38000
H  13.93500 54.10600 29.27000
H  14.70000 54.84900 22.94200
H  19.93400 51.17500 23.15400
H  17.15900 50.80200 30.92600
H  15.75200 53.43100 31.05800
H  14.07200 51.89900 31.84900
H  14.90200 50.60200 30.90700
H  13.82400 51.72200 30.10200
H  17.83000 53.67000 31.62800
H  19.06500 52.92600 30.84800
H  19.67000 52.06700 32.75700
H  18.27400 50.99900 32.67000
H  12.30800 57.02200 27.58500
H  13.08300 56.05100 28.86800
H  11.76500 55.34100 27.78400
H  11.69200 57.66100 25.53800
H  10.78900 56.10100 25.76400
H  10.73900 57.04500 24.28100
H  16.51800 54.30700 21.38000
H  18.20200 52.08800 21.17200
H  15.06500 53.40400 20.42400
H  14.73300 52.29700 21.64700
H  16.00900 51.82600 20.39000
H  18.67200 54.95700 21.54100
H  19.46200 53.72700 20.46900
H  20.96700 53.26400 21.97600
H  20.27200 53.99800 23.35700
H  20.95500 55.02600 22.08500
H  21.93200 50.07200 24.21900
H  20.90400 48.62600 24.25800
H  22.04800 48.94200 25.62000
H  20.26800 50.74500 30.06100
H  19.34600 47.30000 32.41500
H  17.98900 48.53300 32.44600
H  19.37000 48.64200 33.38400

