158

Mg 44.07000 4.08400 48.21900
C  41.79300 6.85000 48.25800
C  41.20600 2.16400 47.97100
C  46.00500 1.49900 47.69400
C  46.69500 6.30400 47.67500
N  41.79700 4.52300 48.20300
C  41.10500 5.64000 48.17200
C  39.52900 5.50100 48.08600
C  39.44300 3.97000 48.32400
C  40.93100 3.51300 48.24000
C  38.81000 3.49000 49.68800
C  38.81600 6.04600 46.83500
C  39.39000 5.45600 45.47700
H  38.59000 5.78700 44.21200
N  43.64500 2.08900 47.76800
C  42.42200 1.47200 47.74300
C  42.69900 0.01800 47.55800
C  44.06400 -0.18200 47.46600
C  44.61400 1.14400 47.61500
C  41.49300 -0.95200 47.48200
C  44.79800 -1.50200 47.16800
O  44.21500 -2.56700 47.06900
C  46.31500 -1.56000 46.98500
N  46.11300 3.96000 47.55100
C  46.69400 2.73000 47.67300
C  48.23300 2.89200 47.88000
C  48.47200 4.45300 47.70700
C  47.03700 4.98100 47.70200
C  48.85200 2.33200 49.16400
C  49.20600 4.77900 46.40000
C  50.64400 5.10600 46.49400
N  44.21200 6.13800 48.16700
C  45.37100 6.87800 47.92900
C  45.07100 8.33400 48.10900
C  43.62300 8.33800 48.21500
C  43.20600 7.00700 48.22100
C  45.99700 9.51400 47.96700
C  42.43300 9.14300 48.31100
O  42.31600 10.31600 48.42300
C  41.18200 8.18200 48.20200
C  40.44400 8.33600 49.43100
O  40.66900 7.71800 50.44800
O  39.24600 8.90600 49.14000
C  38.23200 8.73800 50.22800
H  40.30900 1.54300 48.01400
H  46.81400 0.78200 47.85300
H  47.50800 7.03300 47.68200
H  39.02800 6.01800 48.90500
H  38.84900 3.54400 47.51600
H  38.50200 4.42800 50.15100
H  39.49600 3.01500 50.38900
H  37.89400 2.92300 49.52400
H  38.59100 7.11200 46.85000
H  37.88000 5.48700 46.81600
H  39.26900 4.37300 45.50600
H  40.43200 5.75800 45.37700
H  40.69600 -0.47100 48.04900
H  41.71100 -1.95400 47.85300
H  41.23100 -1.06000 46.43000
H  46.81800 -1.65300 47.94800
H  46.64700 -0.68700 46.42400
H  46.68100 -2.40900 46.40700
H  48.63400 2.30900 47.05000
H  48.96900 4.98000 48.52200
H  47.97500 1.93300 49.67300
H  49.30900 3.11000 49.77600
H  49.61000 1.57200 48.97700
H  48.64100 5.60100 45.95900
H  49.03900 3.96600 45.69300
H  50.85900 5.99500 45.90100
H  51.36000 4.36000 46.15100
H  50.86200 5.20100 47.55800
H  46.36500 9.67400 48.98000
H  45.53000 10.48300 47.79400
H  46.77900 9.21000 47.27000
H  40.54800 8.30900 47.32400
H  37.30700 9.28300 50.03900
H  38.57200 9.20000 51.15500
H  38.00000 7.70200 50.47500
Mg 26.99400 50.28700 26.64800
C  24.90000 51.35300 29.28000
C  29.48000 49.86500 28.95000
C  28.97000 49.86600 24.03800
C  24.39300 51.41500 24.36000
N  27.12400 50.61600 28.92700
C  26.13500 50.92900 29.78400
C  26.53800 50.81800 31.22700
C  28.01900 50.27500 31.04000
C  28.26800 50.27700 29.53400
C  29.11900 51.07700 31.78500
C  25.65600 49.97900 32.11600
C  24.96100 50.57500 33.37700
H  24.93700 49.70400 34.70900
N  28.93200 49.88000 26.52800
C  29.82500 49.66000 27.59400
C  31.11800 49.41400 26.99700
C  30.98800 49.50400 25.53200
C  29.54500 49.78500 25.34200
C  32.30000 49.23000 27.89300
C  32.09500 49.35700 24.53800
O  31.88600 49.64600 23.36300
C  33.43500 48.94100 25.03400
N  26.63900 50.46900 24.45000
C  27.63800 50.22900 23.63300
C  27.18700 50.29300 22.18400
C  25.70300 50.66100 22.29100
C  25.52600 50.88100 23.79200
C  28.04900 51.10500 21.19800
C  24.66600 49.65100 21.71700
C  23.81400 49.97700 20.44300
N  25.02100 51.15900 26.70900
C  24.16300 51.57600 25.71500
C  22.98800 52.17600 26.27700
C  23.18500 52.01500 27.73100
C  24.47700 51.47700 27.94600
C  21.94000 53.04100 25.57500
C  22.63300 52.37200 29.02000
O  21.59700 53.01600 29.28500
C  23.65300 51.85800 30.12800
C  23.98500 53.04600 30.93200
O  24.78800 53.90100 30.60900
O  23.15000 53.14500 32.06800
C  23.35600 54.20200 32.96600
H  30.19000 49.52800 29.70900
H  29.59200 49.81400 23.14100
H  23.52900 51.66400 23.74100
H  26.57600 51.84900 31.57900
H  28.08100 49.25700 31.42400
H  29.97800 50.44100 31.99900
H  28.66000 51.43600 32.70600
H  29.33700 51.95300 31.17400
H  26.17900 49.10200 32.49900
H  24.86600 49.54200 31.50400
H  23.89500 50.64800 33.16500
H  25.28100 51.59600 33.58700
H  32.97300 50.02900 27.58100
H  32.73100 48.24200 27.73000
H  32.18300 49.37100 28.96700
H  33.99200 48.59100 24.16500
H  33.44500 48.11200 25.74200
H  33.81800 49.79800 25.58900
H  27.24000 49.34300 21.65100
H  25.49700 51.61700 21.81000
H  27.40600 51.77200 20.62400
H  28.46200 50.43600 20.44300
H  28.92700 51.62400 21.58200
H  23.83900 49.41100 22.38500
H  25.15500 48.74100 21.36700
H  24.14400 50.93200 20.03400
H  22.76800 50.12900 20.70900
H  23.72900 49.26800 19.62000
H  22.50200 53.91100 25.23400
H  21.11800 53.33600 26.22700
H  21.53500 52.44700 24.75500
H  23.22400 51.06300 30.73800
H  24.09800 53.86300 33.69000
H  22.42800 54.41900 33.49500
H  23.76900 55.11200 32.53100

