158

Mg 36.12500 49.27600 25.67000
C  36.56800 47.30100 28.62600
C  34.58300 51.64700 27.51600
C  35.13200 50.70300 22.84700
C  37.40400 46.56900 23.90700
N  35.44900 49.39700 27.91500
C  35.88800 48.56200 28.95200
C  35.50700 49.22300 30.29600
C  34.71300 50.54500 29.92300
C  35.01300 50.60500 28.36300
C  33.13900 50.54300 30.25800
C  36.82200 49.50800 31.03500
C  36.90600 49.24900 32.54500
H  35.69500 48.87300 33.41800
N  35.17800 51.00900 25.25400
C  34.63000 51.86600 26.12700
C  34.10600 53.01100 25.43500
C  34.12400 52.74800 24.04300
C  34.83700 51.41900 24.00600
C  33.72600 54.19700 26.31000
C  33.36700 53.54400 22.97400
O  33.32600 53.17400 21.80200
C  32.54800 54.72500 23.30600
N  36.33400 48.75700 23.60800
C  35.79200 49.47700 22.64400
C  36.36600 49.00300 21.19900
C  36.99800 47.59000 21.60400
C  36.98000 47.64700 23.16500
C  35.33100 49.01600 20.00700
C  38.43400 47.36000 20.96600
C  39.50800 48.40600 21.40300
N  36.80000 47.37800 26.10000
C  37.32000 46.40600 25.29100
C  37.73300 45.16200 26.00300
C  37.45100 45.56500 27.26500
C  36.91000 46.84900 27.33100
C  38.35300 43.93000 25.51000
C  37.57400 45.06200 28.69300
O  38.01300 44.05900 29.23700
C  37.04500 46.18000 29.56100
C  35.90300 45.68000 30.32800
O  34.75300 45.53200 29.87700
O  36.36800 45.26900 31.54700
C  35.41600 44.77400 32.51700
H  34.17400 52.49200 28.07400
H  34.99200 51.16600 21.86700
H  37.85700 45.80800 23.26800
H  34.97900 48.44300 30.84500
H  35.20000 51.31000 30.52700
H  32.86900 51.39600 30.88100
H  32.91800 49.63800 30.82400
H  32.55400 50.54300 29.33800
H  37.11000 50.55100 30.89900
H  37.59000 48.83200 30.66100
H  37.47900 50.03600 33.03800
H  37.64400 48.44700 32.55800
H  32.75400 54.12100 26.79700
H  33.81200 55.11400 25.72700
H  34.49100 54.26200 27.08400
H  33.25400 55.54700 23.42900
H  31.86900 54.56700 24.14400
H  31.94900 54.97200 22.43000
H  36.98800 49.87000 20.97500
H  36.28200 46.81100 21.34200
H  34.36000 49.21500 20.46100
H  35.26400 48.00900 19.59500
H  35.59600 49.77300 19.26900
H  38.20800 47.42500 19.90200
H  38.86500 46.40400 21.26400
H  40.08600 48.63000 20.50600
H  40.16100 47.90500 22.11800
H  39.09000 49.23200 21.97800
H  37.63600 43.11000 25.47200
H  39.26700 43.75400 26.07700
H  38.71900 44.13700 24.50400
H  37.86800 46.47600 30.21200
H  35.49200 43.69800 32.67700
H  34.39500 45.04800 32.25100
H  35.62600 45.22900 33.48500
Mg -2.36000 33.41000 25.81600
C  -4.04500 31.99800 28.60900
C  -0.59700 35.35700 28.03400
C  -0.74700 34.59700 23.19700
C  -4.35500 31.40300 23.71800
N  -2.51000 33.86700 28.07300
C  -3.11400 32.96800 29.00100
C  -2.71100 33.22800 30.40400
C  -1.73000 34.47600 30.27000
C  -1.64600 34.61400 28.69200
C  -2.07200 35.89400 30.96300
C  -1.99000 31.99100 31.09100
C  -1.79100 32.08400 32.59000
H  -2.93900 31.54400 33.50100
N  -0.95500 34.87900 25.63600
C  -0.33100 35.53500 26.65300
C  0.69300 36.38800 25.99400
C  0.60100 36.31000 24.62000
C  -0.43500 35.24900 24.41100
C  1.53000 37.35600 26.82200
C  1.28600 37.08700 23.52600
O  1.15200 36.78900 22.33400
C  2.26300 38.19800 23.87800
N  -2.69700 33.21200 23.75200
C  -1.74900 33.72600 22.85400
C  -1.96100 33.22100 21.44200
C  -2.92000 31.98000 21.68400
C  -3.38300 32.25500 23.10900
C  -2.60200 34.25000 20.51500
C  -2.37900 30.61600 21.61900
C  -3.22200 29.65300 20.82200
N  -3.81600 31.97200 26.04300
C  -4.55400 31.23500 25.08900
C  -5.32300 30.23300 25.76400
C  -5.18800 30.56000 27.07400
C  -4.24300 31.62300 27.24600
C  -6.31900 29.28600 25.14100
C  -5.68000 30.18000 28.43600
O  -6.52000 29.35400 28.82500
C  -5.06900 31.17100 29.39700
C  -6.13000 31.98700 30.06500
O  -6.97600 32.58900 29.48100
O  -6.10300 31.74900 31.45100
C  -7.14700 32.40300 32.24600
H  0.03800 35.94300 28.70100
H  -0.17600 34.94700 22.33500
H  -4.96700 30.71900 23.12700
H  -3.53100 33.65100 30.98400
H  -0.70200 34.28700 30.57900
H  -2.41900 36.52500 30.14400
H  -1.16700 36.37400 31.33500
H  -2.85600 36.02300 31.70900
H  -1.05400 31.80500 30.56500
H  -2.64400 31.13600 30.91900
H  -1.83500 33.16500 32.72400
H  -0.83900 31.70200 32.95700
H  2.57800 37.20200 26.56300
H  1.44700 37.21000 27.89900
H  1.39000 38.41600 26.61200
H  1.79900 39.03500 24.40100
H  2.71300 38.59100 22.96600
H  3.03900 37.79800 24.53000
H  -0.99300 32.89700 21.06000
H  -3.71300 32.04600 20.94000
H  -2.83700 35.10000 21.15600
H  -3.40000 33.86500 19.88000
H  -1.78300 34.54100 19.85800
H  -2.18000 30.17100 22.59400
H  -1.39000 30.59000 21.16000
H  -4.16600 30.09100 20.49900
H  -3.53100 28.80600 21.43400
H  -2.71400 29.23600 19.95200
H  -7.15300 29.86300 24.74200
H  -6.52800 28.61900 25.97700
H  -5.85100 28.85600 24.25500
H  -4.53200 30.54800 30.11100
H  -6.83900 32.60600 33.27200
H  -8.04000 31.77900 32.27200
H  -7.40300 33.37600 31.82700

