158

Mg 35.90600 2.55900 30.69400
C  33.64700 3.71500 32.99100
C  38.35700 2.54400 33.12900
C  38.24700 1.56600 28.36100
C  33.54900 2.88200 28.14300
N  35.96000 3.08800 32.71600
C  34.91900 3.42400 33.50800
C  35.30100 3.27800 35.06500
C  36.82600 3.37600 34.86000
C  37.08700 2.97300 33.41600
C  37.48100 4.64100 35.35200
C  34.70500 2.01800 35.70800
C  34.44000 2.12100 37.26200
H  34.99200 3.34800 37.97100
N  38.05500 2.09700 30.70700
C  38.81600 2.15900 31.87500
C  40.16500 1.79400 31.57900
C  40.19500 1.35900 30.14200
C  38.82800 1.69300 29.64600
C  41.28000 1.84200 32.62000
C  41.23400 0.84200 29.31300
O  41.11600 0.50500 28.12200
C  42.59000 0.69000 29.89700
N  35.93000 2.49700 28.51500
C  36.96300 1.87800 27.80900
C  36.63300 1.56400 26.31700
C  35.12400 1.93700 26.26600
C  34.83600 2.51000 27.69800
C  37.62600 2.27200 25.33700
C  34.09500 0.84400 25.81800
C  34.37900 0.11500 24.51900
N  33.97400 3.23000 30.52600
C  33.14200 3.31600 29.42500
C  31.80900 3.72400 29.93000
C  31.93800 3.79800 31.33800
C  33.29700 3.62100 31.58900
C  30.55100 3.82500 29.03900
C  31.21700 4.07200 32.56600
O  30.04400 4.30500 32.65000
C  32.23700 3.89200 33.75000
C  31.94700 4.99100 34.67600
O  32.33000 6.15200 34.54700
O  31.14900 4.49400 35.71000
C  31.04400 5.42600 36.89000
H  39.06500 2.66900 33.95100
H  38.95300 1.30300 27.57000
H  32.75400 2.90100 27.39500
H  34.98100 4.13000 35.66400
H  37.27300 2.51600 35.35900
H  36.89000 5.08200 36.15500
H  37.62600 5.29500 34.49200
H  38.44300 4.45300 35.82900
H  35.32600 1.15300 35.47500
H  33.78200 1.77100 35.18300
H  34.81400 1.26700 37.82500
H  33.35400 2.08400 37.34600
H  41.36200 0.80800 32.95400
H  41.02100 2.53200 33.42300
H  42.16800 2.34400 32.23500
H  43.31100 0.30900 29.17400
H  42.50900 0.11000 30.81700
H  42.94500 1.68900 30.14900
H  36.71400 0.52900 25.98500
H  34.95000 2.82200 25.65400
H  37.15600 3.09900 24.80500
H  38.24600 1.63000 24.71100
H  38.26900 2.81600 26.02900
H  33.12500 1.29400 25.61000
H  34.01100 0.10800 26.61800
H  34.39800 -0.97200 24.59500
H  35.39700 0.38900 24.24100
H  33.62500 0.35500 23.77000
H  30.60700 3.06200 28.26200
H  30.34700 4.85400 28.74000
H  29.65900 3.44400 29.53600
H  31.90100 2.92800 34.13200
H  30.25500 4.93800 37.46200
H  30.71900 6.45100 36.71100
H  31.92900 5.37300 37.52400
Mg 47.50200 35.53300 27.63200
C  45.79000 33.79800 30.11900
C  47.52900 38.38900 29.57100
C  48.72500 37.38100 24.88400
C  46.87700 32.96500 25.40600
N  46.67500 36.00600 29.49700
C  46.23500 35.06500 30.45000
C  46.57500 35.54700 31.84400
C  46.47600 37.12600 31.57100
C  46.99800 37.23100 30.12800
C  45.06300 37.73600 31.72800
C  47.95700 34.99700 32.36300
C  48.15900 34.91900 33.87600
H  47.06800 35.54800 34.70500
N  48.11900 37.53400 27.33100
C  48.07200 38.55000 28.33800
C  48.84200 39.70500 27.76900
C  49.09200 39.49000 26.40200
C  48.61000 38.09300 26.14000
C  49.19100 40.91600 28.65100
C  49.81400 40.33100 25.37900
O  50.10700 39.89300 24.30100
C  50.31500 41.72200 25.71100
N  47.75200 35.22800 25.44100
C  48.30600 36.07300 24.54900
C  48.45200 35.47000 23.19200
C  48.05800 33.94700 23.53200
C  47.58400 33.99300 24.90600
C  47.59500 36.15800 22.09900
C  49.25300 32.89800 23.31200
C  49.10200 31.82500 22.20900
N  46.59000 33.78200 27.69200
C  46.39600 32.81000 26.73700
C  45.60600 31.69700 27.25000
C  45.33100 32.01300 28.62600
C  45.97600 33.28000 28.82600
C  45.10300 30.51900 26.47000
C  44.73400 31.60100 29.80500
O  44.03800 30.65200 30.02900
C  44.92600 32.79200 30.83200
C  45.40200 32.27800 32.14900
O  46.55400 32.14600 32.52200
O  44.32500 32.12300 32.97600
C  44.59500 31.74200 34.36300
H  47.59000 39.17000 30.33100
H  49.11200 37.94400 24.03200
H  46.75400 32.07000 24.79300
H  45.79800 35.14500 32.49400
H  47.22000 37.65000 32.17300
H  45.03900 38.49300 32.51300
H  44.42900 36.96900 32.17200
H  44.71200 38.10800 30.76600
H  48.71100 35.68800 31.98700
H  48.10100 33.97400 32.01300
H  49.10100 35.37500 34.18000
H  48.31400 33.87000 34.13100
H  49.39700 40.59300 29.67200
H  48.43300 41.70000 28.64800
H  50.06100 41.49200 28.33600
H  50.31900 42.31000 24.79300
H  51.28900 41.57400 26.17900
H  49.72400 42.26800 26.44600
H  49.48600 35.56100 22.85800
H  47.14800 33.65400 23.00900
H  47.13900 35.38500 21.48100
H  48.13500 36.74700 21.35700
H  46.76700 36.69600 22.56100
H  49.49400 32.31700 24.20200
H  50.09700 33.48500 22.95100
H  48.05900 31.64300 21.95200
H  49.46500 30.91000 22.67600
H  49.69100 32.01500 21.31100
H  44.37500 30.70200 25.67900
H  44.72400 29.71700 27.10300
H  45.99600 30.10400 26.00300
H  43.90600 33.14500 30.98300
H  43.67700 31.22800 34.64600
H  44.74700 32.63600 34.96800
H  45.48700 31.11600 34.40200

