158

Mg 29.73400 58.68000 41.63700
C  26.68400 57.55300 40.53700
C  31.29200 56.06100 40.26300
C  32.68600 60.37800 42.08200
C  28.06700 61.90400 42.26300
N  29.03100 57.04400 40.40900
C  27.76200 56.74000 40.03600
C  27.79400 55.38800 39.22500
C  29.26900 54.79000 39.39300
C  29.90200 56.02600 40.12200
C  29.34300 53.46700 40.13500
C  27.32600 55.68100 37.81000
C  26.33500 54.74200 37.19300
H  26.19700 54.51500 35.74100
N  31.66300 58.20600 41.41700
C  32.15100 56.99600 40.90500
C  33.56400 56.94800 41.03100
C  33.99100 58.18600 41.50300
C  32.71900 59.00600 41.71600
C  34.40900 55.78300 40.58700
C  35.41100 58.59400 41.72600
O  36.31400 57.84900 41.40200
C  35.85400 59.98200 42.11200
N  30.30800 60.90000 42.01100
C  31.62600 61.29000 42.19100
C  31.76000 62.67900 42.79200
C  30.23800 63.16700 42.84800
C  29.46600 61.97900 42.37200
C  32.65500 62.83600 44.05300
C  29.99500 64.46300 42.25200
C  28.83100 65.26300 42.97700
N  27.74600 59.54600 41.51500
C  27.26100 60.75700 41.85800
C  25.80900 60.75100 41.73900
C  25.56000 59.48900 41.25000
C  26.78100 58.82300 41.13100
C  24.95700 61.88800 42.11800
C  24.49400 58.54600 40.80600
O  23.26000 58.60300 40.85100
C  25.21600 57.27900 40.40400
C  24.82600 56.19000 41.30800
O  25.22900 55.95500 42.41600
O  23.69200 55.68000 40.74900
C  22.85100 54.99700 41.68400
H  31.77400 55.15800 39.88200
H  33.65200 60.87400 42.20400
H  27.54200 62.80300 42.59300
H  27.03300 54.81300 39.75300
H  29.81100 54.64100 38.46000
H  29.74700 53.59500 41.14000
H  29.95000 52.76400 39.56400
H  28.30100 53.15300 40.19500
H  28.16400 55.72300 37.11300
H  26.98500 56.70700 37.67100
H  25.35300 55.09800 37.50500
H  26.47600 53.79000 37.70400
H  34.73200 55.95600 39.56100
H  33.87600 54.83500 40.52000
H  35.18400 55.52500 41.30900
H  35.46700 60.62700 41.32300
H  36.94200 60.00000 42.16900
H  35.32900 60.23000 43.03500
H  32.21800 63.30800 42.02900
H  30.05700 63.31200 43.91300
H  32.97300 63.87900 44.05500
H  33.48300 62.13200 44.13800
H  32.04100 62.84100 44.95400
H  29.74200 64.40200 41.19300
H  30.89400 65.05600 42.41900
H  29.11200 66.26000 43.31500
H  28.35400 64.66200 43.75200
H  28.10200 65.64700 42.26400
H  25.27900 62.57800 41.33800
H  25.24600 62.29800 43.08500
H  23.91700 61.57300 42.03000
H  25.03900 57.04700 39.35400
H  22.28100 55.79600 42.15700
H  23.32800 54.30600 42.37900
H  22.10100 54.44000 41.12200
Mg -10.52400 40.80900 42.55600
C  -9.19600 37.78900 41.46900
C  -8.26100 42.44000 40.61400
C  -12.26000 43.76400 42.96100
C  -13.31400 39.03400 43.72800
N  -8.93900 40.18400 41.18700
C  -8.55500 38.88800 40.90000
C  -7.43200 38.89500 39.93300
C  -6.94700 40.42300 39.90600
C  -8.07600 41.07800 40.65200
C  -5.47300 40.67700 40.41900
C  -7.79100 38.29000 38.52400
C  -6.96800 37.04000 38.18800
H  -5.78700 37.17000 37.19300
N  -10.15200 42.87600 42.09600
C  -9.11400 43.33500 41.33700
C  -9.16400 44.78700 41.24100
C  -10.39000 45.18000 41.97800
C  -10.99000 43.91200 42.37800
C  -8.19000 45.66900 40.57400
C  -10.88400 46.65100 42.02800
O  -10.23300 47.55800 41.60600
C  -12.11600 47.07400 42.64300
N  -12.47600 41.34200 43.45400
C  -12.97400 42.60500 43.39300
C  -14.39500 42.62000 43.86500
C  -14.76900 41.11600 44.21700
C  -13.44500 40.41900 43.75900
C  -14.73700 43.57300 45.02700
C  -16.00400 40.57900 43.46000
C  -17.03500 39.78100 44.35100
N  -11.05300 38.84900 42.86600
C  -12.19500 38.25300 43.34900
C  -12.07500 36.84300 43.24800
C  -10.85900 36.59800 42.62500
C  -10.30400 37.83500 42.35400
C  -13.01600 35.73600 43.75200
C  -10.06900 35.54600 41.98500
O  -10.27000 34.33100 41.95400
C  -8.85400 36.25200 41.28400
C  -7.60400 35.77000 42.04500
O  -7.19800 36.21000 43.12100
O  -6.85400 34.79000 41.36100
C  -5.50900 34.32800 41.85000
H  -7.49100 43.03600 40.12000
H  -12.91400 44.63800 42.96700
H  -14.20400 38.43900 43.94200
H  -6.64300 38.25000 40.32100
H  -6.92600 40.75600 38.86900
H  -5.12300 39.67400 40.66300
H  -5.42500 41.34800 41.27600
H  -4.83200 41.10900 39.65000
H  -7.58300 39.08300 37.80600
H  -8.83800 38.05600 38.33000
H  -7.61700 36.26100 37.78700
H  -6.40600 36.46700 38.92500
H  -8.58500 46.14900 39.67900
H  -7.30800 45.08000 40.32400
H  -7.92700 46.49200 41.24000
H  -12.06000 46.61400 43.62900
H  -13.01000 46.72200 42.13000
H  -12.35200 48.13200 42.75700
H  -14.92500 42.96600 42.97700
H  -14.92600 40.89400 45.27300
H  -13.85700 44.20500 45.14400
H  -14.94300 43.09200 45.98300
H  -15.60900 44.20800 44.87000
H  -15.67400 39.92200 42.65600
H  -16.50100 41.40500 42.95100
H  -16.65700 39.66500 45.36700
H  -17.08800 38.76500 43.96200
H  -18.00100 40.27700 44.26000
H  -12.84100 35.63800 44.82400
H  -12.78600 34.73900 43.37700
H  -14.06100 35.91100 43.49600
H  -8.74500 35.94000 40.24500
H  -5.49400 33.97700 42.88200
H  -4.76800 35.11900 41.73700
H  -5.28700 33.50600 41.16900

