158

Mg 44.65100 3.05100 47.20600
C  42.26800 5.60400 46.80400
C  41.95300 0.84000 47.21400
C  46.72100 0.42000 46.76500
C  47.19700 5.23600 46.71200
N  42.30400 3.24200 46.79900
C  41.57800 4.41100 46.82500
C  40.10500 4.20100 46.77200
C  40.03900 2.65400 47.06900
C  41.48800 2.17900 47.09700
C  39.24700 2.30600 48.34500
C  39.62700 4.47600 45.33600
C  38.37100 5.43200 45.27200
H  37.83900 5.59700 43.76300
N  44.39000 0.87600 46.94100
C  43.22500 0.21500 47.04500
C  43.48400 -1.21600 46.92200
C  44.89300 -1.37000 46.65000
C  45.40700 0.03800 46.78600
C  42.36200 -2.26600 47.02000
C  45.60100 -2.68400 46.30700
O  45.03600 -3.76100 46.39300
C  47.01100 -2.73000 45.78100
N  46.68000 2.85700 46.67000
C  47.36900 1.68700 46.69700
C  48.87800 1.83100 46.66400
C  49.00100 3.37800 46.32600
C  47.52800 3.89900 46.54800
C  49.66100 1.25200 47.85500
C  49.56800 3.80000 44.95400
C  51.05700 3.55000 44.69200
N  44.81600 5.03200 46.79400
C  45.88900 5.79700 46.61600
C  45.50400 7.18500 46.50000
C  44.08100 7.10100 46.53200
C  43.69200 5.78900 46.68700
C  46.39300 8.40000 46.42100
C  42.91700 7.89300 46.58900
O  42.92900 9.07600 46.59600
C  41.71800 6.99600 46.68800
C  40.88700 7.30700 47.89100
O  40.90800 6.71700 49.00800
O  39.93800 8.40100 47.57600
C  38.91800 8.66800 48.62000
H  41.15100 0.11900 47.38900
H  47.52000 -0.32500 46.77200
H  48.02900 5.94000 46.63900
H  39.58000 4.78500 47.52800
H  39.51100 2.20400 46.22800
H  38.90700 3.21700 48.83900
H  39.82800 1.72800 49.06300
H  38.37900 1.80100 47.92200
H  39.48000 3.58300 44.72900
H  40.25000 5.08900 44.68500
H  38.70200 6.33600 45.78400
H  37.60200 4.89700 45.82900
H  42.68000 -3.14800 46.46400
H  41.53800 -1.67400 46.62100
H  42.08400 -2.39000 48.06700
H  47.80800 -2.55500 46.50300
H  47.10000 -1.89900 45.08100
H  47.20400 -3.68100 45.28400
H  49.17800 1.28000 45.77300
H  49.69500 3.77100 47.06900
H  49.03000 0.93100 48.68400
H  50.39700 1.91600 48.30900
H  50.12900 0.37900 47.39800
H  49.17700 4.79900 44.76200
H  48.93900 3.25800 44.24800
H  51.41800 4.41500 44.13500
H  51.18800 2.61100 44.15400
H  51.53100 3.42600 45.66600
H  47.32400 8.37800 46.98700
H  45.80700 9.25500 46.75800
H  46.65800 8.51500 45.36900
H  40.98000 7.12500 45.89600
H  37.99100 8.40800 48.10900
H  39.00100 9.70300 48.95300
H  38.99100 8.04600 49.51300
Mg 47.92900 15.46100 28.33200
C  45.64500 14.91900 31.19700
C  50.00000 16.86700 30.55700
C  49.75200 16.15200 25.72300
C  45.40900 14.04400 26.34800
N  47.64700 15.95600 30.61500
C  46.75100 15.56900 31.57200
C  47.15900 16.08400 32.97300
C  48.39500 16.98000 32.58300
C  48.78300 16.49000 31.19400
C  48.21800 18.47400 32.65700
C  47.40600 14.98600 33.99900
C  46.78400 15.01200 35.39600
H  46.49700 16.22200 36.15600
N  49.71600 16.37300 28.15300
C  50.47100 16.87800 29.20700
C  51.68800 17.44000 28.63300
C  51.59500 17.14200 27.23000
C  50.28400 16.52400 26.96800
C  52.67500 18.24200 29.40500
C  52.65000 17.30500 26.08000
O  52.46500 16.99100 24.93200
C  54.00400 17.73000 26.52500
N  47.56200 15.20800 26.30500
C  48.52900 15.52000 25.40100
C  48.08600 15.27400 23.98000
C  46.77800 14.53900 24.17100
C  46.48000 14.62600 25.67700
C  47.81600 16.59300 23.21100
C  46.74100 13.03300 23.76300
C  46.07700 12.76300 22.41600
N  45.94600 14.64900 28.62800
C  45.12900 13.98500 27.72600
C  43.96100 13.45900 28.43800
C  44.20500 13.67600 29.79000
C  45.36200 14.51500 29.89600
C  42.70700 13.01000 27.86200
C  43.61500 13.51900 31.10200
O  42.61700 12.82800 31.37200
C  44.52200 14.37500 32.11400
C  43.66100 15.52300 32.58700
O  43.32800 16.47300 31.94000
O  43.20300 15.23000 33.82700
C  42.62900 16.34800 34.50400
H  50.60800 17.28500 31.36200
H  50.24100 16.56300 24.83800
H  44.65600 13.53400 25.74400
H  46.32900 16.66500 33.37500
H  49.15100 16.75500 33.33500
H  47.17100 18.76800 32.73100
H  48.59600 18.91800 31.73600
H  48.71500 18.86000 33.54700
H  48.46800 14.90100 34.22800
H  47.12500 14.03400 33.54700
H  47.24600 14.20800 35.96900
H  45.82900 14.55100 35.14500
H  53.66600 17.85900 29.16100
H  52.36400 18.37300 30.44100
H  52.57900 19.26200 29.03100
H  54.47500 16.88800 27.03000
H  54.09500 18.62000 27.14700
H  54.51000 17.81200 25.56200
H  48.88700 14.68100 23.53900
H  45.92900 15.06800 23.73700
H  48.07700 17.44600 23.83700
H  46.77700 16.73100 22.91200
H  48.39200 16.67900 22.29000
H  46.12500 12.56600 24.53200
H  47.73600 12.58700 23.76300
H  45.67600 13.70500 22.03900
H  45.25300 12.05100 22.45800
H  46.71800 12.35200 21.63600
H  41.79100 12.95200 28.44900
H  42.98700 12.03700 27.45800
H  42.48600 13.63400 26.99600
H  44.83900 13.83300 33.00500
H  41.74200 16.60900 33.92700
H  43.18500 17.27300 34.65100
H  42.19600 16.06300 35.46400

