158

Mg 41.68400 40.34500 26.12200
C  40.70100 42.60500 28.73300
C  42.51600 38.10200 28.49900
C  42.61900 38.24300 23.59200
C  40.97000 42.88700 23.82200
N  41.60900 40.41000 28.37700
C  41.07200 41.33400 29.21900
C  41.04700 40.85300 30.71300
C  41.83300 39.48500 30.55100
C  42.02000 39.33200 29.02400
C  43.14800 39.40500 31.38600
C  39.61300 40.72500 31.28800
C  39.41000 40.20600 32.73400
H  38.98000 41.03500 33.99500
N  42.51900 38.44100 26.09000
C  42.72300 37.61200 27.18500
C  43.22700 36.33400 26.76400
C  43.33800 36.34500 25.35800
C  42.81500 37.71800 24.90300
C  43.66800 35.22900 27.83100
C  43.82500 35.36000 24.30500
O  43.69800 35.40300 23.09000
C  44.49600 34.08100 24.82800
N  41.76800 40.58600 24.03000
C  42.09900 39.53800 23.25200
C  42.05400 39.89400 21.78500
C  41.30200 41.24900 21.79000
C  41.26400 41.61000 23.25500
C  43.44200 39.93700 20.95800
C  39.90200 41.15100 21.17500
C  38.92900 40.10400 21.84600
N  41.05500 42.33000 26.16600
C  40.81500 43.21600 25.14300
C  40.37000 44.49900 25.65900
C  40.34500 44.29300 27.02800
C  40.76200 42.96700 27.31200
C  40.06500 45.71800 24.88000
C  40.10500 44.88500 28.21400
O  39.89600 46.08500 28.43600
C  40.12700 43.80700 29.37100
C  41.02200 44.24000 30.53000
O  42.23100 44.46600 30.45900
O  40.30500 44.43000 31.61900
C  41.02500 44.98700 32.73900
H  42.72800 37.38600 29.29500
H  42.93900 37.56200 22.80100
H  40.77400 43.65400 23.07000
H  41.50400 41.54600 31.41900
H  41.19600 38.66700 30.88800
H  43.24600 40.30600 31.99100
H  43.94000 39.50200 30.64300
H  43.31800 38.47400 31.92700
H  39.11200 40.08200 30.56300
H  39.18800 41.72800 31.27300
H  40.31600 39.73700 33.11800
H  38.67300 39.41800 32.58200
H  43.70500 35.62400 28.84700
H  44.69300 34.93900 27.59800
H  43.02900 34.35800 27.68700
H  45.05600 33.59900 24.02700
H  43.62400 33.47400 25.07100
H  45.03900 34.21900 25.76300
H  41.50100 39.12500 21.24500
H  41.95100 42.00600 21.34900
H  43.73800 40.92600 20.60600
H  43.36300 39.35500 20.03900
H  44.11700 39.44600 21.65900
H  40.00300 40.84500 20.13300
H  39.48600 42.15500 21.09200
H  38.49900 39.54800 21.01300
H  38.03400 40.57600 22.25200
H  39.41300 39.42000 22.54300
H  40.80400 46.51700 24.82100
H  39.20900 46.13200 25.41100
H  39.80700 45.37700 23.87700
H  39.08600 43.68800 29.66900
H  41.48100 44.15100 33.27000
H  40.29900 45.50700 33.36400
H  41.83000 45.70300 32.58000
Mg -11.46800 15.65000 41.15000
C  -7.88600 15.13000 40.90200
C  -10.91600 18.86400 40.15500
C  -14.70100 15.83000 40.72800
C  -11.68700 12.15500 41.66500
N  -9.57700 16.79700 40.51900
C  -8.24500 16.43600 40.56900
C  -7.32900 17.50900 39.98500
C  -8.35600 18.72100 39.91900
C  -9.73300 18.08500 40.18200
C  -8.12800 19.79400 41.00600
C  -6.67200 17.10400 38.67800
C  -5.23800 17.36500 38.52500
H  -4.62600 17.52200 37.15800
N  -12.63200 17.16200 40.61300
C  -12.25400 18.46200 40.31200
C  -13.33900 19.29800 40.31200
C  -14.50600 18.51500 40.39600
C  -14.01400 17.07000 40.57800
C  -13.18800 20.74000 40.01800
C  -15.96500 18.99800 40.26500
O  -16.15300 20.21000 40.16700
C  -17.18400 18.08300 40.40200
N  -12.92700 14.11400 41.09900
C  -14.27800 14.47900 40.95600
C  -15.12100 13.38400 41.38800
C  -14.17600 12.15500 41.19400
C  -12.84700 12.86800 41.35800
C  -15.80000 13.62600 42.76800
C  -14.49100 11.28900 39.95300
C  -15.13900 9.92400 40.29900
N  -10.12900 13.94800 41.29300
C  -10.39600 12.62700 41.58300
C  -9.14900 11.85300 41.74000
C  -8.12700 12.85400 41.49100
C  -8.81700 14.10000 41.22600
C  -9.00500 10.36600 42.18200
C  -6.69700 13.06800 41.45200
O  -5.73800 12.40000 41.80600
C  -6.54700 14.53700 41.03300
C  -5.76700 15.16900 42.14900
O  -6.19600 15.36900 43.27000
O  -4.39900 15.27800 41.87200
C  -3.39200 15.47500 42.94100
H  -10.74500 19.87600 39.78200
H  -15.78300 15.93400 40.82500
H  -11.93300 11.10800 41.85200
H  -6.56200 17.70500 40.73400
H  -8.36600 19.18300 38.93200
H  -7.05900 20.00600 40.98100
H  -8.43500 19.41300 41.98000
H  -8.69200 20.70700 40.81500
H  -7.22900 17.68900 37.94700
H  -6.82400 16.03700 38.51500
H  -4.66200 16.69500 39.16200
H  -5.11900 18.29500 39.08100
H  -14.07400 21.35000 39.84400
H  -12.50300 20.91100 39.18800
H  -12.76800 21.25800 40.88000
H  -18.07000 18.68700 40.20700
H  -17.21200 17.69100 41.41900
H  -17.01900 17.20700 39.77400
H  -16.01600 13.31600 40.77000
H  -14.24300 11.65300 42.15900
H  -15.24500 13.29500 43.64600
H  -16.86400 13.39200 42.79500
H  -15.63600 14.69600 42.89400
H  -13.57900 11.07500 39.39500
H  -15.15600 11.96500 39.41500
H  -14.38400 9.14200 40.37800
H  -15.92000 9.72500 39.56500
H  -15.62200 9.97400 41.27500
H  -9.63000 9.86000 41.44700
H  -9.55700 10.31600 43.12000
H  -7.94400 10.12200 42.11600
H  -6.00200 14.48800 40.09000
H  -2.85100 16.39800 42.73200
H  -2.83200 14.55800 43.12700
H  -3.90200 15.68600 43.88100

