158

Mg 54.41400 24.74200 44.32900
C  52.20800 27.38700 43.55700
C  52.15300 22.51700 43.37900
C  56.95000 22.57700 44.34700
C  56.98300 27.26700 44.48800
N  52.51600 25.01600 43.28900
C  51.80900 26.12100 43.10000
C  50.38700 25.74900 42.60200
C  50.28800 24.20200 42.81500
C  51.70700 23.87500 43.04900
C  49.30000 23.86300 43.97800
C  50.22100 26.29800 41.10700
C  50.27500 25.30200 39.96900
H  50.30000 25.89100 38.50900
N  54.52300 22.80900 43.96000
C  53.44300 22.03400 43.71300
C  53.85700 20.71000 43.59700
C  55.25900 20.59700 43.81500
C  55.67600 22.05000 43.97300
C  52.91100 19.62100 43.12400
C  56.08400 19.30500 43.86400
O  55.56300 18.21900 43.58900
C  57.56300 19.20100 44.09300
N  56.79200 24.92500 44.27900
C  57.43300 23.85500 44.56200
C  58.90800 24.06100 44.65600
C  58.98800 25.67100 44.62200
C  57.56200 26.02400 44.43500
C  59.68000 23.40400 45.88300
C  59.90700 26.27600 43.49900
C  61.33900 26.77500 43.92400
N  54.60200 26.87800 44.29500
C  55.66200 27.70300 44.44900
C  55.17000 29.00200 44.69000
C  53.80200 28.96600 44.31600
C  53.52400 27.61800 44.00800
C  55.97800 30.21000 45.07700
C  52.62600 29.79300 44.03500
O  52.61000 31.03300 44.05200
C  51.51900 28.74900 43.66700
C  50.90900 29.26700 42.33300
O  51.46900 29.35600 41.25600
O  49.54000 29.32800 42.56600
C  48.74200 29.76300 41.39200
H  51.34000 21.78900 43.39800
H  57.67100 21.78400 44.55800
H  57.70100 28.00400 44.85600
H  49.56800 26.24600 43.12100
H  50.02100 23.64200 41.91800
H  49.59700 22.89900 44.39200
H  48.32400 23.70800 43.51900
H  49.20400 24.58600 44.78800
H  51.01900 26.92900 40.71600
H  49.29100 26.85800 41.00700
H  49.47700 24.56100 39.91700
H  51.24400 24.80900 40.04500
H  53.05100 19.35500 42.07600
H  51.92800 19.88000 43.51700
H  53.18500 18.71200 43.65800
H  57.87900 18.15900 44.14900
H  57.66300 19.53600 45.12600
H  58.08200 19.88600 43.42300
H  59.40500 23.69700 43.75700
H  59.20400 26.08200 45.60800
H  58.89000 23.04100 46.54100
H  60.31200 24.10600 46.42800
H  60.18200 22.52800 45.47300
H  59.36300 27.08800 43.01500
H  60.07800 25.55700 42.69800
H  61.41700 27.86200 43.91100
H  61.99700 26.50200 43.09900
H  61.47600 26.35200 44.91900
H  56.70200 30.39000 44.28300
H  56.53100 29.93900 45.97700
H  55.44700 31.14800 45.24000
H  50.69300 28.87700 44.36600
H  49.09800 30.74200 41.07100
H  47.65900 29.79400 41.51300
H  49.00400 28.95500 40.70900
Mg 29.65500 58.02700 40.63300
C  26.91200 56.34500 39.26300
C  31.71600 55.59200 39.21900
C  32.32600 60.16600 40.71800
C  27.51400 60.85200 41.54900
N  29.31200 56.22600 39.27700
C  28.13800 55.70400 38.82300
C  28.32300 54.34600 38.13300
C  29.83600 54.15700 38.25000
C  30.36200 55.37300 38.99900
C  30.38800 52.84900 38.87500
C  27.67700 54.01900 36.68400
C  27.50400 55.23000 35.65700
H  28.02300 55.15700 34.20400
N  31.74400 57.80000 40.32700
C  32.41600 56.68800 39.79000
C  33.77400 56.90100 39.87200
C  34.00500 58.28500 40.17100
C  32.64100 58.84400 40.38600
C  34.90500 55.91200 39.53700
C  35.39700 59.05000 40.09600
O  36.43700 58.44000 39.76200
C  35.52100 60.49300 40.23300
N  29.93000 60.17900 41.27500
C  31.14500 60.77800 41.14600
C  31.06600 62.29400 41.54400
C  29.52000 62.49400 41.77500
C  28.90100 61.05100 41.60400
C  32.05600 62.82600 42.67700
C  28.79600 63.63600 40.98300
C  28.18200 64.80600 41.72200
N  27.64300 58.47300 40.59500
C  26.93800 59.58000 41.10400
C  25.51300 59.32200 40.87900
C  25.46200 58.09000 40.21100
C  26.79100 57.63400 40.01200
C  24.35500 60.20400 41.22800
C  24.63300 57.07200 39.54400
O  23.41900 57.14200 39.36500
C  25.46300 55.94200 38.88100
C  25.10900 54.63400 39.46800
O  25.53500 54.20400 40.53700
O  24.15600 53.96100 38.73900
C  23.35500 52.82900 39.34100
H  32.29400 54.69600 38.98300
H  33.13900 60.87900 40.56400
H  26.86500 61.67300 41.86200
H  27.85400 53.56100 38.72600
H  30.16100 54.26300 37.21500
H  29.52100 52.21300 39.05500
H  30.94000 52.96900 39.80800
H  31.04300 52.44900 38.10200
H  26.67800 53.59500 36.78200
H  28.32400 53.24800 36.26600
H  27.91000 56.10200 36.16900
H  26.43100 55.42300 35.66400
H  35.49600 56.36500 38.74100
H  34.49400 55.01700 39.06900
H  35.45000 55.53100 40.40000
H  36.56700 60.76400 40.37100
H  34.95200 60.77600 41.11900
H  35.08400 61.00800 39.37700
H  31.34700 62.85300 40.65100
H  29.30300 62.75100 42.81200
H  32.53500 61.88800 42.95800
H  31.60200 63.11000 43.62700
H  32.82700 63.53600 42.37800
H  28.10200 63.20700 40.26000
H  29.56900 64.14200 40.40600
H  28.48200 65.83100 41.50400
H  28.45700 64.76100 42.77600
H  27.10300 64.86100 41.57400
H  24.26000 60.59100 42.24300
H  23.40300 59.68200 41.13200
H  24.38600 61.11900 40.63700
H  25.40600 56.02600 37.79500
H  23.73700 52.56600 40.32700
H  23.50900 51.93900 38.73000
H  22.30400 53.09100 39.46400

