158

Mg -2.59700 17.13000 26.40000
C  -2.98500 14.73000 28.99000
C  -2.83600 19.56700 28.72600
C  -2.52300 19.43200 23.93900
C  -2.45200 14.52500 24.17300
N  -2.80600 17.08000 28.53400
C  -2.96200 16.02300 29.42800
C  -3.19900 16.55400 30.89700
C  -3.44900 18.15000 30.76300
C  -2.97300 18.30400 29.24500
C  -4.91300 18.58900 31.12200
C  -1.97700 16.29700 31.79700
C  -1.88700 16.94700 33.17600
H  -1.26600 16.21000 34.38000
N  -2.46700 19.17000 26.34500
C  -2.64000 20.04700 27.40100
C  -2.65600 21.41900 26.91800
C  -2.35800 21.41300 25.56500
C  -2.44500 19.95800 25.19900
C  -2.95200 22.61900 27.76200
C  -2.09300 22.53200 24.57600
O  -1.92200 22.30800 23.36200
C  -1.91800 23.88300 25.06500
N  -2.36900 17.00800 24.42000
C  -2.38700 18.08300 23.55700
C  -2.28200 17.60900 22.04800
C  -2.03100 16.02500 22.23900
C  -2.27700 15.80800 23.69000
C  -3.64700 17.96500 21.40400
C  -0.59000 15.63200 21.74300
C  0.51200 15.64400 22.78900
N  -2.73700 15.05400 26.43300
C  -2.58000 14.14500 25.48100
C  -2.73600 12.78400 26.04300
C  -2.96500 12.94400 27.38200
C  -2.87200 14.39800 27.60200
C  -2.32200 11.58000 25.31100
C  -3.18500 12.23700 28.66400
O  -3.35900 11.07200 28.87600
C  -3.10100 13.36400 29.71400
C  -1.94500 13.09500 30.58300
O  -0.82500 13.48000 30.44600
O  -2.39300 12.37800 31.70600
C  -1.51700 11.96600 32.84400
H  -3.07600 20.24900 29.54400
H  -2.60600 20.14500 23.11600
H  -2.37800 13.78600 23.37200
H  -4.10400 16.10400 31.30600
H  -2.68200 18.65600 31.34900
H  -5.59300 17.80300 31.45200
H  -5.31000 18.76000 30.12100
H  -4.90000 19.47900 31.75100
H  -1.11000 16.59700 31.20800
H  -2.08900 15.28700 32.19100
H  -2.96400 17.09500 33.25900
H  -1.30500 17.85000 32.99300
H  -3.37800 22.42300 28.74700
H  -3.74300 23.11400 27.19900
H  -2.10200 23.29900 27.79400
H  -2.84400 24.20700 25.53900
H  -1.80200 24.60800 24.25900
H  -1.09000 23.87600 25.77400
H  -1.48800 18.16100 21.54400
H  -2.65300 15.40700 21.59200
H  -4.34800 17.13000 21.39100
H  -3.55100 18.16700 20.33700
H  -4.09800 18.83800 21.87600
H  -0.31600 16.20700 20.85800
H  -0.62500 14.57600 21.47500
H  1.04200 14.69200 22.75700
H  0.15000 15.94700 23.77100
H  1.26700 16.31400 22.37700
H  -2.08000 10.79100 26.02300
H  -1.41100 11.75500 24.73900
H  -3.10600 11.24100 24.63300
H  -3.89300 13.38200 30.46300
H  -1.77800 10.91700 32.98400
H  -1.91700 12.50100 33.70500
H  -0.44200 12.13200 32.77100
Mg 0.65900 43.19700 25.81200
C  2.28600 43.08900 29.11900
C  -2.06800 41.86000 27.29100
C  -0.53200 42.72100 22.76300
C  3.82700 43.71600 24.50600
N  0.22000 42.56600 27.95400
C  0.88100 42.82600 29.15600
C  -0.03800 42.76300 30.35300
C  -1.26200 42.08400 29.77700
C  -1.08900 42.14500 28.22400
C  -1.29200 40.58000 30.28000
C  -0.21400 44.18300 30.99100
C  0.45200 44.50600 32.43500
H  -0.45500 44.33600 33.69600
N  -1.09700 42.52200 25.17100
C  -2.13300 41.96600 25.86300
C  -3.27800 41.78200 24.99900
C  -2.77900 42.03500 23.65200
C  -1.42700 42.44100 23.84300
C  -4.69100 41.29300 25.38700
C  -3.60900 41.93000 22.38700
O  -3.26800 42.24300 21.27500
C  -4.97000 41.20800 22.40800
N  1.54200 43.16900 23.95300
C  0.84900 42.91000 22.81600
C  1.67700 42.98500 21.53100
C  2.92400 43.70600 22.13500
C  2.77000 43.54000 23.62800
C  1.97700 41.62600 20.86200
C  3.03200 45.23300 21.76300
C  3.42700 45.44200 20.27700
N  2.64000 43.43600 26.56800
C  3.86000 43.50700 25.89500
C  4.95800 43.55800 26.87400
C  4.35800 43.36500 28.03100
C  2.98600 43.25600 27.86800
C  6.41600 43.92500 26.69900
C  4.65100 43.00400 29.44700
O  5.72800 42.73800 29.90300
C  3.36000 43.04700 30.24200
C  3.37000 41.76500 31.01100
O  3.01800 40.66500 30.68800
O  3.96700 42.04800 32.22800
C  4.00700 41.07500 33.35800
H  -2.96900 41.57500 27.83900
H  -0.92600 42.55500 21.75800
H  4.82200 43.91100 24.10200
H  0.48400 42.18400 31.11600
H  -2.20400 42.50100 30.13200
H  -0.64000 40.22000 31.07600
H  -1.05700 39.94000 29.43000
H  -2.32600 40.40200 30.57500
H  -1.29800 44.28900 30.94100
H  0.29600 44.86100 30.30700
H  0.86900 45.51200 32.38000
H  1.28800 43.81000 32.51100
H  -5.51300 41.95900 25.12400
H  -4.72100 41.23400 26.47500
H  -4.85700 40.28600 25.00500
H  -4.83500 40.27700 22.95900
H  -5.38100 41.14700 21.40100
H  -5.61400 41.86000 22.99900
H  1.14700 43.65700 20.85600
H  3.72000 43.15800 21.63100
H  1.50900 40.80200 21.40100
H  3.04300 41.39800 20.85200
H  1.70900 41.60700 19.80500
H  3.85000 45.71900 22.29500
H  2.08800 45.77600 21.81100
H  3.45100 44.39700 19.96800
H  4.37100 45.97000 20.14200
H  2.62400 45.97200 19.76300
H  6.91000 43.76100 27.65600
H  6.52200 44.98800 26.47900
H  6.89600 43.34100 25.91400
H  3.44500 43.89700 30.91900
H  5.04000 40.72900 33.33900
H  3.28600 40.25800 33.33800
H  3.91000 41.59600 34.31000

