158

Mg 54.51500 23.55900 45.15800
C  52.01500 25.94200 44.53400
C  52.41100 21.14200 43.87000
C  57.20500 21.63100 44.62300
C  56.67200 26.14800 46.21800
N  52.51700 23.61300 44.38600
C  51.66400 24.65100 44.14300
C  50.40900 24.16400 43.45000
C  50.39200 22.60700 43.91600
C  51.87500 22.40000 44.11300
C  49.45200 22.21800 45.15800
C  50.49000 24.45100 41.81900
C  49.41000 23.69900 40.94600
H  48.85700 24.41100 39.73600
N  54.72600 21.67800 44.39000
C  53.79400 20.81600 43.91400
C  54.36300 19.49900 43.60200
C  55.75500 19.62000 43.80600
C  55.96000 21.06000 44.19600
C  53.58200 18.19500 43.25300
C  56.80100 18.47800 43.75800
O  56.46500 17.33900 43.43900
C  58.25800 18.65200 44.14000
N  56.58500 23.83000 45.39200
C  57.41800 22.79100 45.29600
C  58.82300 23.21000 45.81900
C  58.62000 24.54400 46.44000
C  57.15800 24.90400 46.02500
C  59.41900 22.04800 46.84700
C  59.63500 25.61000 46.15400
C  59.82800 26.54300 47.37800
N  54.35500 25.65200 45.45900
C  55.34800 26.60600 45.87700
C  54.77300 27.88500 45.78600
C  53.48500 27.67300 45.22600
C  53.25700 26.33000 45.13500
C  55.44400 29.20700 46.11800
C  52.22000 28.36600 44.86800
O  51.87100 29.51700 44.94700
C  51.25900 27.28200 44.40400
C  50.77900 27.61000 43.03500
O  51.51000 27.93700 42.09600
O  49.40300 27.50400 42.98500
C  48.68800 27.88100 41.75900
H  51.68500 20.36800 43.61200
H  58.12700 21.06800 44.46100
H  57.33500 26.92900 46.59700
H  49.58400 24.70600 43.91300
H  50.03000 22.02500 43.06800
H  48.80800 21.36100 44.96100
H  48.93800 23.05600 45.62800
H  50.07100 22.03200 46.03600
H  51.48000 24.06800 41.56800
H  50.34200 25.51800 41.65200
H  48.53600 23.35000 41.49600
H  49.89200 22.77000 40.64400
H  53.78900 17.94300 42.21300
H  52.53800 18.48400 43.13700
H  53.57200 17.47100 44.06900
H  58.71600 19.33800 43.42800
H  58.68400 17.64900 44.13300
H  58.26200 19.08400 45.14100
H  59.47000 23.35500 44.95300
H  58.39700 24.33700 47.48700
H  59.77300 22.39500 47.81700
H  60.24800 21.53400 46.36200
H  58.62400 21.30900 46.95100
H  59.27500 26.14800 45.27800
H  60.63400 25.21800 45.96400
H  60.88900 26.73500 47.53500
H  59.17400 26.34300 48.22700
H  59.35600 27.47800 47.07300
H  56.03200 29.05900 47.02400
H  54.81200 30.06500 46.34300
H  56.01300 29.37200 45.20400
H  50.43300 27.28600 45.11600
H  47.80500 28.33300 42.21300
H  48.40100 26.96600 41.24100
H  49.24000 28.64800 41.21600
Mg 47.75200 16.43800 28.29000
C  45.70400 16.05100 31.04800
C  49.86100 18.48400 30.21900
C  49.49400 17.20700 25.55800
C  45.23800 14.83200 26.35200
N  47.74900 17.28200 30.38200
C  46.86000 16.82200 31.32000
C  47.30500 17.25200 32.69600
C  48.45300 18.22700 32.42800
C  48.79700 17.94200 30.91000
C  48.10700 19.69100 32.80800
C  47.83800 16.06600 33.60600
C  47.78000 16.26400 35.14500
H  47.41100 17.57400 35.70000
N  49.56900 17.53200 27.95200
C  50.23200 18.28500 28.83500
C  51.41200 18.78500 28.18100
C  51.39900 18.38600 26.84100
C  50.18600 17.63500 26.72800
C  52.53400 19.39900 28.95600
C  52.33700 18.64400 25.73400
O  52.09900 18.21000 24.59000
C  53.53100 19.58000 25.92600
N  47.42300 16.00700 26.31800
C  48.31900 16.42500 25.39000
C  47.72800 16.10200 23.94600
C  46.56300 14.99400 24.23500
C  46.40300 15.26500 25.74300
C  47.26500 17.34700 23.12200
C  46.78900 13.52800 23.81900
C  45.57400 12.99300 23.06600
N  45.74800 15.71200 28.55000
C  44.91400 15.00600 27.70300
C  43.82100 14.52700 28.41500
C  44.04600 14.90700 29.75100
C  45.24400 15.58600 29.78500
C  42.66900 13.76300 27.83600
C  43.48400 14.89700 31.10000
O  42.44900 14.51500 31.55900
C  44.58200 15.61300 31.99100
C  43.86100 16.74800 32.71900
O  43.47700 17.77400 32.20600
O  43.68700 16.47500 34.02000
C  43.03700 17.55800 34.86400
H  50.46900 19.18400 30.79600
H  49.93400 17.46900 24.59300
H  44.57800 14.28900 25.67300
H  46.46100 17.64800 33.26000
H  49.36000 18.17200 33.03000
H  48.66900 19.92600 33.71200
H  47.06100 19.81600 33.08700
H  48.47200 20.34900 32.01900
H  48.82200 15.70300 33.30800
H  47.27800 15.15500 33.39900
H  48.70100 15.99000 35.66100
H  47.09600 15.47900 35.46800
H  52.61900 20.46800 28.76000
H  53.43600 18.87700 28.63500
H  52.34700 19.18000 30.00700
H  53.16700 20.46000 26.45600
H  53.74000 19.91600 24.91100
H  54.34800 19.04200 26.40700
H  48.46800 15.56100 23.35500
H  45.66300 15.36000 23.74200
H  46.35700 17.36200 22.51900
H  48.07500 17.58800 22.43400
H  47.10000 18.13400 23.85800
H  46.93100 13.01700 24.77100
H  47.76700 13.52800 23.33700
H  44.65700 13.57000 22.95100
H  45.25000 12.01100 23.41000
H  45.96000 12.84500 22.05800
H  42.37200 14.19000 26.87800
H  41.87700 13.74000 28.58500
H  43.02100 12.76500 27.57700
H  44.85200 14.82300 32.69200
H  43.79300 18.33800 34.94500
H  42.81400 17.06700 35.81100
H  42.12900 18.01500 34.47000

