158

Mg -1.87900 17.35600 26.63800
C  -2.30400 15.01600 29.47000
C  -2.23400 19.94000 28.93900
C  -1.84400 19.53800 24.21100
C  -2.51400 14.64800 24.52300
N  -2.29000 17.43900 28.93600
C  -2.26200 16.32700 29.84800
C  -2.48500 16.87100 31.23000
C  -2.53800 18.43800 31.01700
C  -2.33400 18.63200 29.55600
C  -3.77200 19.16200 31.51000
C  -1.42400 16.37300 32.26600
C  -0.85600 17.33800 33.30400
H  -0.22200 16.83400 34.62400
N  -2.04200 19.46500 26.58800
C  -2.10500 20.37600 27.61500
C  -1.89400 21.71800 27.13700
C  -1.70900 21.63100 25.73900
C  -1.81900 20.19300 25.48700
C  -1.86600 22.87800 27.97900
C  -1.29400 22.69400 24.75300
O  -1.06600 22.37600 23.58700
C  -0.94800 24.15000 25.23500
N  -2.29500 17.11200 24.70200
C  -2.12200 18.22300 23.83400
C  -2.30400 17.75800 22.34500
C  -2.49800 16.22300 22.52100
C  -2.44600 15.94200 24.01400
C  -3.28400 18.55900 21.50400
C  -1.45100 15.41400 21.60200
C  -0.02200 15.32500 22.24900
N  -2.22200 15.26400 26.87900
C  -2.39800 14.29600 25.88600
C  -2.52700 12.96300 26.49500
C  -2.42800 13.25200 27.89400
C  -2.24100 14.64100 28.07900
C  -2.86900 11.61600 25.81500
C  -2.54600 12.63000 29.24300
O  -2.61000 11.45800 29.53800
C  -2.40500 13.78100 30.35000
C  -1.11100 13.59900 31.14600
O  0.03300 13.79500 30.65900
O  -1.42300 13.14700 32.33800
C  -0.37900 13.10700 33.32500
H  -2.22100 20.77500 29.64300
H  -1.88400 20.23500 23.37100
H  -2.65200 13.91600 23.72400
H  -3.45200 16.57400 31.63700
H  -1.68300 18.95500 31.45200
H  -3.50800 19.95000 32.21600
H  -4.37100 18.46000 32.09000
H  -4.40800 19.49400 30.69000
H  -0.56300 16.09900 31.65700
H  -1.95700 15.56300 32.76400
H  -1.67000 17.97800 33.64300
H  -0.12900 17.94900 32.76900
H  -2.10300 22.65300 29.01900
H  -2.58400 23.64300 27.68200
H  -0.88100 23.33400 27.88300
H  -0.25700 24.21500 26.07500
H  -1.99000 24.46500 25.29200
H  -0.44100 24.69100 24.43600
H  -1.32200 17.93200 21.90600
H  -3.53400 16.11400 22.20200
H  -3.89200 17.85700 20.93300
H  -2.63500 19.06500 20.78900
H  -3.87700 19.29500 22.04600
H  -1.34800 15.77800 20.58000
H  -1.83200 14.42200 21.35900
H  0.68600 15.78900 21.56100
H  0.28800 14.29200 22.40400
H  -0.00800 15.79800 23.23000
H  -3.43900 11.77700 24.90100
H  -3.38900 10.96000 26.51300
H  -1.94400 11.11800 25.52400
H  -3.24800 13.71700 31.03800
H  -0.42400 14.06700 33.83800
H  0.62800 12.90600 32.96000
H  -0.58500 12.27600 34.00000
Mg 48.31200 35.56800 28.21400
C  46.31900 34.14100 30.79500
C  48.83100 38.19000 30.08600
C  49.73300 37.05100 25.53200
C  47.44500 32.80400 26.17000
N  47.87200 35.96000 30.21100
C  47.07700 35.31300 31.13900
C  47.09000 35.96600 32.52700
C  47.49300 37.44300 32.15600
C  48.06600 37.17100 30.67100
C  46.33600 38.44100 32.10300
C  48.08700 35.32400 33.52500
C  47.65900 35.20300 34.97900
H  48.53800 35.84000 36.10700
N  49.26900 37.41700 27.85800
C  49.41200 38.37100 28.84300
C  50.11200 39.48400 28.26600
C  50.45100 39.09000 26.89500
C  49.72500 37.83000 26.69900
C  50.38600 40.78400 28.95300
C  51.26600 39.93900 25.82900
O  51.38800 39.63200 24.67300
C  51.91700 41.26700 26.17000
N  48.66700 34.95500 26.10200
C  49.31900 35.73800 25.24700
C  49.50200 35.01600 23.87900
C  48.95900 33.59800 24.25000
C  48.22300 33.79100 25.54900
C  48.79800 35.72200 22.63700
C  50.01500 32.49000 24.38500
C  50.15800 31.29700 23.39100
N  47.09500 33.77900 28.34400
C  46.79700 32.83000 27.45000
C  45.97400 31.74800 28.13400
C  45.71400 32.29400 29.37200
C  46.44800 33.54800 29.48100
C  45.57000 30.36500 27.65800
C  44.96100 32.09500 30.63900
O  44.18000 31.15600 30.90000
C  45.28800 33.34000 31.53100
C  45.72200 32.90100 32.85400
O  46.79200 32.45600 33.13300
O  44.70100 33.11000 33.78400
C  44.92300 32.54300 35.08800
H  48.86900 39.14900 30.60800
H  50.35700 37.39800 24.70500
H  47.25400 31.94000 25.53000
H  46.07900 35.91900 32.93300
H  48.22500 37.94500 32.78800
H  46.45500 39.24100 32.83500
H  45.36600 37.95600 32.21100
H  46.33000 38.84100 31.09000
H  48.99900 35.91700 33.45400
H  48.27700 34.30700 33.18200
H  47.73500 34.14500 35.23000
H  46.69400 35.67100 35.17400
H  49.71800 41.61500 28.72500
H  51.39800 41.10800 28.71100
H  50.42000 40.48400 30.00000
H  52.28500 41.79300 25.28900
H  52.63400 41.11100 26.97700
H  51.10000 41.93900 26.43300
H  50.56500 35.08900 23.65100
H  48.21800 33.26000 23.52500
H  49.42300 36.42200 22.08400
H  47.92200 36.27600 22.97500
H  48.44300 35.05700 21.84900
H  50.12800 32.16800 25.42100
H  51.01300 32.88600 24.19800
H  50.14800 30.40300 24.01400
H  51.08100 31.24900 22.81300
H  49.34100 31.33000 22.67000
H  46.06400 29.61600 28.27800
H  45.83700 30.29100 26.60400
H  44.49300 30.39700 27.82200
H  44.47500 34.04900 31.68600
H  44.02300 32.00800 35.38900
H  45.13800 33.30300 35.83900
H  45.75500 31.83900 35.09300

