158

Mg 41.06600 8.31400 29.93200
C  43.06200 9.24500 32.66100
C  38.65000 7.19700 31.99400
C  39.53400 7.02600 27.23200
C  43.72600 9.21200 27.89300
N  41.00100 8.05900 32.02400
C  41.84900 8.64400 33.00200
C  41.24300 8.48900 34.44400
C  39.86600 7.64300 34.20100
C  39.83800 7.52700 32.66300
C  39.54200 6.40700 35.01900
C  40.98300 9.97300 35.06800
C  40.24700 9.94800 36.39100
H  40.81200 10.73600 37.49500
N  39.34200 7.25600 29.63000
C  38.48500 7.00400 30.61100
C  37.37900 6.15200 30.08200
C  37.49300 6.07800 28.67100
C  38.80200 6.88500 28.39700
C  36.28500 5.49300 30.95600
C  36.64200 5.42100 27.59900
O  36.76200 5.62000 26.38200
C  35.49700 4.64700 28.02700
N  41.51000 8.18000 27.80100
C  40.70500 7.61200 26.91300
C  41.26000 7.64800 25.45800
C  42.57600 8.54800 25.72200
C  42.59100 8.69500 27.22900
C  41.63600 6.29900 24.85700
C  42.67200 9.88400 25.04100
C  41.80700 11.06900 25.55400
N  43.03900 9.12200 30.18900
C  44.00500 9.48300 29.28400
C  45.22800 9.92800 29.94800
C  44.83800 10.01300 31.28900
C  43.55200 9.42900 31.37300
C  46.45400 10.35400 29.23500
C  45.28100 10.46000 32.59600
O  46.28800 11.04000 32.98100
C  44.19100 9.87100 33.56800
C  44.91400 8.89200 34.40700
O  45.00000 7.71800 34.18400
O  45.50100 9.53000 35.45600
C  46.35800 8.80100 36.36700
H  37.84100 6.92800 32.67600
H  39.00600 6.56400 26.39600
H  44.59900 9.46300 27.28800
H  42.01700 7.98200 35.02000
H  39.06700 8.36000 34.39000
H  38.51600 6.13200 35.26100
H  40.13400 6.35900 35.93400
H  39.93600 5.52900 34.50700
H  40.34700 10.52400 34.37500
H  41.95300 10.39200 35.33500
H  40.22700 8.89500 36.67100
H  39.25500 10.36600 36.22100
H  35.30200 5.74800 30.56000
H  36.31900 5.66300 32.03200
H  36.24900 4.40700 30.87200
H  34.79700 5.34900 28.48000
H  35.83300 3.84100 28.67900
H  35.09100 4.36200 27.05700
H  40.57000 8.14100 24.77300
H  43.42800 7.94100 25.41500
H  42.63000 6.41800 24.42700
H  40.93100 6.01600 24.07600
H  41.62700 5.69000 25.76100
H  42.44400 9.57300 24.02200
H  43.73400 10.12400 25.07900
H  42.40800 11.93300 25.83800
H  41.07200 10.81000 26.31600
H  41.17600 11.37900 24.72100
H  46.80000 9.66400 28.46500
H  47.18700 10.20500 30.02800
H  46.47900 11.32400 28.73800
H  43.79200 10.56900 34.30400
H  46.64800 7.84000 35.94300
H  45.84500 8.67800 37.32100
H  47.27800 9.38100 36.43800
Mg 0.53800 42.92900 26.77000
C  3.00500 42.93700 29.37900
C  -1.81500 42.32200 29.08800
C  -1.48100 41.79900 24.35500
C  3.27500 42.87900 24.46600
N  0.69700 42.45900 29.02300
C  1.68100 42.72500 29.91900
C  1.12500 42.84100 31.30500
C  -0.33200 42.34400 31.13200
C  -0.52400 42.38700 29.61800
C  -0.58100 40.92200 31.83100
C  1.25200 44.34700 31.91800
C  0.85700 44.42000 33.46000
H  0.70800 43.08600 34.21900
N  -1.43100 42.27500 26.75800
C  -2.28700 42.14000 27.77100
C  -3.60000 41.86800 27.31900
C  -3.51600 41.59300 25.90300
C  -2.03900 41.81500 25.60900
C  -4.82600 41.95200 28.33000
C  -4.63700 41.34400 24.95300
O  -4.44100 41.04900 23.75900
C  -6.03300 41.30300 25.37100
N  0.84600 42.53600 24.70700
C  -0.20100 42.03500 23.92700
C  0.23400 41.99600 22.40700
C  1.70700 42.48000 22.48700
C  2.00600 42.65900 23.97000
C  0.08900 40.68800 21.58800
C  2.01200 43.82300 21.68200
C  1.79700 45.15100 22.37200
N  2.64900 43.03800 26.84800
C  3.60300 43.08500 25.81200
C  4.90100 43.37900 26.38900
C  4.75500 43.24600 27.80300
C  3.31400 43.02700 27.99300
C  6.18300 43.67900 25.66400
C  5.47400 43.27700 29.08300
O  6.66100 43.31000 29.29500
C  4.27400 43.27200 30.09500
C  4.60800 42.24000 31.03000
O  5.04400 41.17200 30.67100
O  4.61800 42.67800 32.29200
C  5.30700 41.84500 33.24200
H  -2.60500 42.22800 29.83600
H  -2.09400 41.52500 23.49400
H  4.05000 43.06300 23.71900
H  1.78000 42.17600 31.86700
H  -0.94100 43.14800 31.54500
H  -1.40300 41.20900 32.48700
H  0.22200 40.53400 32.45700
H  -0.86300 40.18600 31.07800
H  0.58300 44.97000 31.32400
H  2.26900 44.72200 31.80000
H  0.00300 45.07500 33.63600
H  1.76100 44.75500 33.96900
H  -5.82300 41.86800 27.89700
H  -4.77600 42.83200 28.97200
H  -4.76600 41.07200 28.97100
H  -6.62600 41.32800 24.45600
H  -6.30300 42.20300 25.92400
H  -6.18900 40.30700 25.78500
H  -0.38100 42.74600 21.90900
H  2.36900 41.73100 22.05100
H  -0.34500 40.93800 20.62000
H  -0.53400 39.92900 22.06200
H  1.06700 40.24600 21.40200
H  1.38400 43.86500 20.79200
H  2.99600 43.84900 21.21300
H  2.69300 45.73000 22.59700
H  1.14800 45.06800 23.24300
H  1.09900 45.68800 21.73000
H  6.90100 44.14700 26.33800
H  6.00000 44.37100 24.84200
H  6.43400 42.74100 25.17000
H  4.22800 44.22200 30.62700
H  5.18300 42.28900 34.23000
H  6.37200 41.93000 33.02900
H  4.88100 40.84500 33.15800

