158

Mg 6.93300 53.92500 40.24600
C  6.49900 50.50300 40.39800
C  10.08200 53.62800 39.13000
C  6.96400 57.27300 39.54800
C  3.29700 54.25100 40.88000
N  8.07800 52.32500 39.67700
C  7.77300 50.96000 39.96200
C  9.01400 50.08200 39.72500
C  10.20500 51.12200 39.77100
C  9.41800 52.43000 39.42000
C  10.99500 51.16400 41.11500
C  9.02800 49.10900 38.53300
C  8.97300 49.78700 37.09300
H  7.59800 49.86000 36.48300
N  8.29600 55.26200 39.40400
C  9.52600 54.90500 38.99000
C  10.12400 56.10100 38.44600
C  9.31700 57.21900 38.65200
C  8.11700 56.60400 39.24100
C  11.51200 55.99300 37.87100
C  9.69900 58.63200 38.41800
O  10.83800 58.92000 38.04600
C  8.72400 59.79200 38.63300
N  5.20100 55.46100 40.01000
C  5.72100 56.78300 39.99200
C  4.53200 57.69400 40.26600
C  3.39300 56.77000 40.58100
C  3.99700 55.42200 40.54200
C  4.79400 58.86700 41.31600
C  2.11800 56.95000 39.67800
C  0.83100 57.51000 40.36100
N  5.17700 52.68300 40.62800
C  3.85800 52.91900 41.04500
C  3.27800 51.65100 41.51600
C  4.29400 50.70000 41.22700
C  5.37900 51.35200 40.68000
C  1.94200 51.49600 41.94400
C  4.62800 49.26100 41.20500
O  3.99300 48.34100 41.62100
C  5.99500 49.11700 40.53000
C  5.74000 48.42200 39.26800
O  5.11000 48.89400 38.36000
O  6.08300 47.12000 39.34800
C  5.98200 46.26400 38.14700
H  11.17300 53.63500 39.17300
H  6.99000 58.36400 39.59100
H  2.22900 54.37500 41.06700
H  9.15800 49.40300 40.56500
H  10.83800 50.74700 38.96700
H  12.06900 51.08400 40.94500
H  10.73600 50.28400 41.70400
H  10.76900 52.02700 41.74200
H  8.19100 48.45000 38.76400
H  9.93300 48.50600 38.60000
H  9.71700 49.19700 36.55800
H  9.29400 50.82100 37.21300
H  11.83500 54.98800 37.59700
H  12.12100 56.37500 38.69000
H  11.61000 56.65600 37.01100
H  7.95500 59.57000 37.89300
H  9.02200 60.80800 38.37100
H  8.48000 59.79700 39.69500
H  4.41300 58.30600 39.37200
H  2.98400 56.92300 41.58000
H  5.73200 58.75200 41.86000
H  3.99100 58.81500 42.05100
H  4.76500 59.85300 40.85200
H  1.95800 56.00900 39.15200
H  2.35000 57.70500 38.92600
H  1.05100 57.97500 41.32200
H  0.08400 56.72200 40.45800
H  0.31700 58.30300 39.81700
H  1.30500 50.94300 41.25400
H  1.43800 52.44300 42.13700
H  2.02900 50.85100 42.81900
H  6.65600 48.56800 41.20100
H  6.72400 45.46600 38.18600
H  6.07400 46.81300 37.21000
H  4.98200 45.83100 38.17600
Mg -10.84900 15.94400 43.42200
C  -7.53400 16.69700 43.12900
C  -11.75100 19.20300 42.80200
C  -14.20400 15.05700 43.59900
C  -10.02300 12.61700 43.69800
N  -9.78100 17.74400 42.97900
C  -8.40800 17.83200 42.94800
C  -7.96900 19.25000 42.71200
C  -9.40800 20.01100 42.61300
C  -10.42700 18.90600 42.87900
C  -9.54800 21.12000 43.61400
C  -7.12300 19.62400 41.42100
C  -5.76200 20.37900 41.58500
H  -4.99200 20.70800 40.37200
N  -12.74700 16.97600 43.12900
C  -12.85400 18.29300 42.94900
C  -14.21500 18.59000 42.77000
C  -15.04600 17.44800 42.96900
C  -14.00200 16.42700 43.25800
C  -14.58300 20.05100 42.59700
C  -16.61500 17.32200 42.88000
O  -17.19800 18.38100 42.51300
C  -17.34000 16.12400 43.25100
N  -12.00700 14.04400 43.29900
C  -13.29500 14.03000 43.73200
C  -13.68900 12.65500 44.25100
C  -12.35900 11.79600 44.21900
C  -11.41200 12.87100 43.65200
C  -14.45800 12.61700 45.61900
C  -12.23300 10.53500 43.31300
C  -12.12100 9.12500 43.98900
N  -9.13400 14.77200 43.38400
C  -8.94300 13.46700 43.52200
C  -7.51400 13.22900 43.57900
C  -6.87400 14.43300 43.37100
C  -7.94700 15.38900 43.24000
C  -6.97700 11.85000 43.82500
C  -5.59900 15.10600 43.25500
O  -4.48900 14.69100 43.21700
C  -5.93100 16.62000 43.06300
C  -5.27800 17.47300 44.06700
O  -5.85700 17.85700 45.08900
O  -3.91500 17.59300 43.86700
C  -3.14200 18.16800 44.96100
H  -11.90700 20.27100 42.63500
H  -15.17500 14.59500 43.79200
H  -9.68400 11.63100 44.02300
H  -7.39900 19.56700 43.58500
H  -9.69400 20.40700 41.63800
H  -8.60300 21.47700 44.02400
H  -10.22300 20.85700 44.42900
H  -10.03700 21.99700 43.19000
H  -7.67200 20.21200 40.68500
H  -6.89500 18.70600 40.87800
H  -5.07400 19.63300 41.98200
H  -5.91000 21.17700 42.31300
H  -15.62500 20.26500 42.83400
H  -14.35300 20.29100 41.55900
H  -14.05200 20.72300 43.27100
H  -18.38400 16.37000 43.05800
H  -17.19900 15.80800 44.28400
H  -17.01300 15.33300 42.57500
H  -14.34900 12.34700 43.44000
H  -11.95900 11.48600 45.18500
H  -14.09600 13.46000 46.20700
H  -14.07500 11.70700 46.08100
H  -15.52800 12.77100 45.47800
H  -11.40900 10.71300 42.62200
H  -13.13900 10.48700 42.70900
H  -11.57900 9.25700 44.92500
H  -11.67500 8.41100 43.29500
H  -13.11900 8.74100 44.20000
H  -7.32400 11.19900 43.02300
H  -7.23400 11.38700 44.77800
H  -5.89900 11.91800 43.68100
H  -5.49000 16.85500 42.09500
H  -2.36400 18.80200 44.53400
H  -2.61300 17.38600 45.50600
H  -3.65900 18.72800 45.74100

