158

Mg 16.87600 -3.01900 28.20800
C  16.06200 -0.80100 30.88300
C  18.97200 -4.77700 30.35100
C  18.53600 -4.58000 25.62200
C  15.76100 -0.58700 26.03700
N  17.50600 -2.79700 30.38000
C  16.88900 -1.92100 31.30100
C  17.27300 -2.27700 32.74500
C  18.48600 -3.28900 32.52400
C  18.26200 -3.68200 31.01900
C  19.96700 -2.80200 32.98000
C  16.10100 -2.81400 33.63700
C  16.18100 -2.43900 35.16300
H  17.50100 -2.21700 35.82400
N  18.35100 -4.59000 27.98000
C  19.06400 -5.15300 28.98300
C  19.94500 -6.16700 28.51100
C  19.68900 -6.20200 27.11000
C  18.74400 -5.10500 26.87300
C  20.82900 -7.05900 29.43300
C  20.27900 -7.05600 26.06500
O  19.81800 -7.08400 24.93500
C  21.35200 -8.07400 26.40800
N  17.02500 -2.68700 26.13500
C  17.75500 -3.47500 25.29100
C  17.62900 -2.99700 23.85800
C  16.67400 -1.70500 23.99800
C  16.49400 -1.65500 25.44600
C  18.96000 -2.62200 23.07300
C  15.29600 -1.85400 23.26700
C  14.69600 -0.58300 22.67200
N  15.90900 -1.19900 28.39500
C  15.36200 -0.39900 27.35800
C  14.51800 0.66600 27.92600
C  14.80800 0.51100 29.30000
C  15.61400 -0.63800 29.57400
C  13.84600 1.70800 27.08900
C  14.69800 1.17200 30.58400
O  14.14600 2.29100 30.80900
C  15.44900 0.26400 31.67800
C  16.44900 1.18100 32.34300
O  17.61600 1.39500 32.02200
O  15.88500 1.83000 33.43700
C  16.67200 2.93800 34.00500
H  19.60400 -5.26000 31.09900
H  19.02000 -4.95600 24.71900
H  15.77700 0.32700 25.43900
H  17.68900 -1.37400 33.19300
H  18.33400 -4.16100 33.15900
H  20.27200 -3.39100 33.84500
H  19.82800 -1.77900 33.32900
H  20.68700 -3.08900 32.21300
H  15.90100 -3.88400 33.56500
H  15.20900 -2.29200 33.29100
H  15.62200 -3.08900 35.83500
H  15.57200 -1.53700 35.10400
H  21.82900 -6.66600 29.24900
H  20.88000 -8.10000 29.11300
H  20.59700 -6.98500 30.49500
H  22.15200 -7.62100 26.99400
H  21.87600 -8.55100 25.57800
H  20.84300 -8.86800 26.95400
H  17.07200 -3.75700 23.31000
H  17.23400 -0.78700 23.81900
H  18.80600 -1.76600 22.41600
H  19.30800 -3.47600 22.49200
H  19.81000 -2.37400 23.70800
H  14.60500 -2.15800 24.05200
H  15.37700 -2.62400 22.49900
H  15.00300 -0.59400 21.62600
H  15.17300 0.21700 23.23900
H  13.60900 -0.52700 22.72500
H  14.14200 2.70700 27.40900
H  12.78200 1.71400 27.32400
H  13.98700 1.55800 26.01800
H  14.66600 -0.03800 32.37300
H  16.42700 3.88500 33.52500
H  17.75300 2.79700 33.98900
H  16.37000 2.89100 35.05100
Mg 40.84800 41.33500 26.90500
C  39.82200 43.80000 29.14100
C  41.21600 39.14000 29.71100
C  42.01500 39.05400 24.76400
C  40.83700 43.69100 24.36200
N  40.61400 41.47500 29.20800
C  40.19300 42.61400 29.84800
C  39.97300 42.34100 31.35700
C  40.63100 40.88100 31.55600
C  40.83400 40.42600 30.09600
C  41.96300 40.85700 32.36200
C  38.50400 42.57700 31.80200
C  38.14500 41.93000 33.19300
H  37.49900 42.79800 34.28000
N  41.51100 39.39600 27.17500
C  41.58300 38.66500 28.42500
C  42.05300 37.36100 28.11700
C  42.26400 37.29800 26.67800
C  41.90400 38.59700 26.14400
C  42.21100 36.22500 29.13300
C  42.74300 36.11300 25.90500
O  42.72000 36.00700 24.71400
C  43.22500 34.87400 26.51400
N  41.49200 41.41700 24.89900
C  41.85800 40.27400 24.18400
C  41.89300 40.57200 22.69900
C  41.61500 42.07600 22.60400
C  41.23800 42.40500 24.03300
C  43.15800 39.97900 21.97600
C  40.51100 42.43700 21.56200
C  39.02200 42.26700 22.00900
N  40.37400 43.30900 26.71000
C  40.52600 44.11900 25.68100
C  40.09100 45.49000 26.10300
C  39.83700 45.39600 27.45900
C  40.01300 44.06200 27.80400
C  39.89400 46.71700 25.18400
C  39.37000 46.16900 28.60200
O  39.15100 47.41600 28.74500
C  39.41300 45.16000 29.78300
C  40.36300 45.58200 30.84900
O  41.61100 45.36700 30.80800
O  39.68300 46.01700 31.97500
C  40.41900 45.85000 33.31100
H  41.05900 38.40200 30.49900
H  42.47000 38.33400 24.08100
H  40.77600 44.49400 23.62500
H  40.56400 43.09000 31.88300
H  39.86200 40.19900 31.91900
H  42.06700 41.88500 32.70800
H  42.83500 40.58000 31.77000
H  41.99300 40.21400 33.24100
H  37.90100 42.08300 31.04100
H  38.41500 43.62800 32.07900
H  38.99700 41.45500 33.68000
H  37.63400 40.99400 32.96900
H  41.49400 35.42400 28.95500
H  42.05400 36.58700 30.14900
H  43.24900 35.90200 29.20600
H  44.14000 35.06200 27.07600
H  43.46600 34.15400 25.73200
H  42.51200 34.46400 27.22900
H  41.05100 39.99800 22.31300
H  42.52800 42.57500 22.28100
H  43.90700 39.48900 22.59900
H  43.62200 40.82500 21.47000
H  42.71700 39.33700 21.21400
H  40.59200 41.75300 20.71800
H  40.68900 43.44300 21.18300
H  38.80200 42.40700 23.06700
H  38.54100 41.34900 21.67300
H  38.53100 43.05600 21.43800
H  39.30700 46.43500 24.31000
H  40.90200 47.03100 24.91400
H  39.39000 47.45800 25.80400
H  38.47000 45.16500 30.33000
H  39.84000 45.27800 34.03500
H  40.49700 46.87900 33.66500
H  41.47100 45.56400 33.33100

