158

Mg -3.06400 17.16400 25.88600
C  -3.28000 14.78500 28.51600
C  -3.74300 19.56800 28.01800
C  -3.04600 19.20200 23.20100
C  -2.73000 14.33300 23.71300
N  -3.54700 17.08900 28.01900
C  -3.45500 16.10700 28.98600
C  -3.67200 16.68300 30.38300
C  -3.75900 18.26200 30.18200
C  -3.75600 18.33600 28.63500
C  -4.83900 18.95900 31.02700
C  -2.73000 16.10500 31.37100
C  -2.17200 16.92300 32.55800
H  -1.81800 16.16900 33.89400
N  -3.48000 19.15400 25.57000
C  -3.67300 19.96400 26.66300
C  -3.64100 21.34700 26.17000
C  -3.19200 21.31600 24.82400
C  -3.25200 19.83100 24.44200
C  -3.94900 22.53900 27.14500
C  -2.83300 22.49900 23.94300
O  -2.36000 22.35700 22.81500
C  -2.87300 23.95800 24.42000
N  -2.80700 16.83900 23.73200
C  -2.99900 17.88200 22.83400
C  -2.71200 17.33300 21.40900
C  -2.84900 15.80300 21.60400
C  -2.68700 15.63700 23.13200
C  -3.46700 17.96800 20.29600
C  -1.87500 14.97900 20.68700
C  -2.66600 14.05100 19.71500
N  -3.02600 15.03500 26.04900
C  -2.85500 14.05400 25.10200
C  -2.84600 12.70200 25.72100
C  -3.03400 12.98200 27.02300
C  -3.13000 14.36900 27.17700
C  -2.64400 11.43500 25.13100
C  -3.19200 12.36200 28.33200
O  -3.17900 11.18400 28.61900
C  -3.40700 13.50900 29.31900
C  -2.42100 13.34000 30.43700
O  -1.24000 13.57900 30.38100
O  -3.06900 12.67400 31.44700
C  -2.27500 12.18600 32.57800
H  -3.82900 20.42900 28.68400
H  -2.95400 19.84200 22.32100
H  -2.60000 13.47100 23.05500
H  -4.66600 16.27500 30.56900
H  -2.81900 18.60700 30.61200
H  -4.67000 19.98200 31.36100
H  -4.97900 18.44800 31.98000
H  -5.73000 18.75900 30.43200
H  -1.83200 15.92400 30.77900
H  -3.05700 15.15700 31.79800
H  -2.83600 17.75100 32.80400
H  -1.22100 17.37600 32.27600
H  -3.00700 22.94800 27.50900
H  -4.60300 22.36600 28.00000
H  -4.44600 23.25400 26.48900
H  -3.88000 24.35200 24.28500
H  -2.20000 24.50200 23.75800
H  -2.50300 24.13400 25.43000
H  -1.70000 17.66200 21.17500
H  -3.89200 15.55200 21.41100
H  -2.79900 18.37500 19.53600
H  -4.03700 18.84600 20.60100
H  -4.11800 17.22200 19.84000
H  -1.37400 14.26800 21.34400
H  -1.16400 15.65200 20.20800
H  -2.55000 12.98500 19.91100
H  -2.20900 14.41600 18.79500
H  -3.70700 14.36900 19.67900
H  -1.94900 11.44400 24.29100
H  -3.58200 11.06900 24.71400
H  -2.30600 10.64200 25.79900
H  -4.44900 13.33300 29.58500
H  -1.53700 12.86900 32.99800
H  -1.80000 11.31600 32.12500
H  -2.93200 11.98700 33.42500
Mg 1.53700 42.04600 25.58800
C  3.45600 42.28100 28.54200
C  -1.16000 41.04300 27.41600
C  0.01000 41.14800 22.69800
C  4.57800 42.28800 23.72500
N  1.25500 41.77700 27.82500
C  2.14800 42.04300 28.89800
C  1.39200 42.03200 30.21500
C  -0.09600 41.55300 29.86000
C  -0.07400 41.44700 28.25300
C  -0.37400 40.13800 30.37700
C  1.34300 43.47800 30.80400
C  1.66300 43.58500 32.27100
H  1.30200 42.32200 33.18200
N  -0.34900 41.28800 25.12000
C  -1.28900 40.90200 26.01800
C  -2.43900 40.31500 25.35100
C  -2.09800 40.32700 23.88300
C  -0.80300 41.00300 23.84200
C  -3.72200 39.85100 26.05200
C  -2.90600 39.85400 22.70500
O  -2.50800 39.79800 21.62100
C  -4.32000 39.48100 23.03300
N  2.17700 41.87700 23.55100
C  1.29400 41.61200 22.55300
C  1.97300 41.60800 21.19000
C  3.33600 42.23300 21.48900
C  3.37700 42.16700 23.03000
C  2.05400 40.17400 20.55200
C  3.45200 43.73400 21.02500
C  4.90800 44.30600 20.84000
N  3.59000 42.30400 25.96600
C  4.69100 42.33400 25.13000
C  5.85300 42.56400 25.94900
C  5.41200 42.47400 27.27300
C  4.02600 42.36000 27.24300
C  7.28900 42.80700 25.39900
C  5.87600 42.54800 28.61500
O  6.93300 42.73100 29.10600
C  4.67300 42.51400 29.47900
C  4.69300 41.37700 30.35800
O  4.57700 40.19400 30.07800
O  4.80000 41.83400 31.68900
C  5.21600 40.72500 32.59500
H  -2.11000 40.80300 27.89800
H  -0.62100 40.81900 21.87000
H  5.53900 42.46800 23.23900
H  1.89400 41.37900 30.92900
H  -0.99900 42.03600 30.23100
H  -0.34000 39.46200 29.52200
H  -1.37700 39.91500 30.74200
H  0.23700 39.76900 31.20000
H  0.39600 44.01000 30.71800
H  2.21400 44.03100 30.45100
H  1.08100 44.37000 32.75400
H  2.71400 43.81200 32.45200
H  -4.48900 40.56800 25.75800
H  -3.61600 40.00100 27.12600
H  -3.94400 38.80500 25.83900
H  -4.39100 38.49400 23.49000
H  -4.89500 39.40700 22.11000
H  -4.72600 40.30100 23.62600
H  1.49700 42.28900 20.48500
H  4.17900 41.72800 21.01800
H  1.92400 39.48000 21.38200
H  3.04100 39.99300 20.12600
H  1.24200 40.00200 19.84500
H  3.01200 44.37700 21.78700
H  2.90600 43.91500 20.10000
H  5.08100 44.70600 19.84100
H  5.78400 43.69000 21.04100
H  5.03800 45.15600 21.51000
H  7.18600 43.32700 24.44600
H  7.68800 41.81400 25.19100
H  7.95400 43.33000 26.08600
H  4.62200 43.37400 30.14500
H  4.36000 40.41200 33.19300
H  5.84200 40.97900 33.45100
H  5.74800 39.90000 32.12300

