158

Mg 47.84400 44.41600 43.69400
C  44.30500 43.90400 43.31200
C  48.26300 41.09400 43.07300
C  50.99400 45.07700 43.48500
C  47.09400 47.97100 43.48100
N  46.46400 42.76200 43.05400
C  45.12400 42.77500 43.14200
C  44.56800 41.34600 42.93500
C  45.85200 40.47500 42.81000
C  46.93100 41.53000 42.97800
C  45.93500 39.24500 43.79500
C  43.53800 41.24900 41.77700
C  44.01200 41.78300 40.46300
H  43.80800 41.07800 39.10300
N  49.40800 43.19100 43.47100
C  49.40200 41.87800 43.25200
C  50.77200 41.39800 43.19600
C  51.61700 42.52500 43.36600
C  50.69800 43.63100 43.46600
C  51.16600 39.97600 42.88700
C  53.12100 42.50000 43.39400
O  53.62100 41.38400 43.29600
C  53.97300 43.73600 43.69800
N  48.84700 46.31000 43.43500
C  50.22200 46.23600 43.44200
C  50.77600 47.63200 43.22600
C  49.50100 48.55800 43.17300
C  48.45600 47.54900 43.42000
C  51.58300 48.05800 44.52500
C  49.23400 49.43700 41.91800
C  49.12800 50.95400 42.03000
N  46.11700 45.73500 43.51700
C  45.96500 47.11700 43.42300
C  44.51900 47.48600 43.30800
C  43.86500 46.21500 43.32800
C  44.85700 45.23200 43.34100
C  43.87200 48.88400 43.31100
C  42.57100 45.63000 43.27900
O  41.44900 46.11600 43.17200
C  42.76500 44.07700 43.23400
C  42.00300 43.47100 44.34600
O  41.29400 42.46700 44.24700
O  42.30800 44.14600 45.50600
C  41.56300 43.46000 46.63000
H  48.45300 40.05300 42.80400
H  52.07100 45.25800 43.45900
H  47.11000 49.05200 43.32900
H  43.93300 41.21700 43.81100
H  46.00500 39.98800 41.84700
H  46.73900 39.52300 44.47700
H  46.21100 38.38300 43.18900
H  44.99000 39.21900 44.33800
H  42.58600 41.72800 42.00500
H  43.39000 40.17800 41.63600
H  45.04500 42.12800 40.51000
H  43.47500 42.73100 40.45700
H  51.82100 39.96000 42.01600
H  50.26400 39.38100 42.74200
H  51.76700 39.58200 43.70600
H  53.93700 44.43000 42.85800
H  54.98300 43.45600 43.99700
H  53.51500 44.20700 44.56700
H  51.48700 47.78500 42.41400
H  49.44900 49.23900 44.02300
H  51.25100 49.02100 44.91400
H  52.62100 48.20600 44.22600
H  51.55400 47.32000 45.32600
H  48.34900 49.08100 41.39000
H  50.09700 49.28100 41.27100
H  49.74400 51.40700 41.25300
H  49.49500 51.34600 42.97900
H  48.15100 51.40900 41.87200
H  44.01400 49.32300 42.32400
H  44.40400 49.41500 44.10000
H  42.83800 48.64400 43.56100
H  42.41900 43.80100 42.23700
H  41.70600 44.02400 47.55200
H  41.86300 42.44100 46.87100
H  40.50300 43.35300 46.39700
Mg 36.24200 49.06400 25.44600
C  36.42500 47.13500 28.34300
C  34.85800 51.55300 27.11200
C  36.13600 50.63800 22.46100
C  37.65000 46.20000 23.71700
N  35.74500 49.33100 27.51300
C  36.04000 48.45400 28.55300
C  35.85700 49.19800 29.90400
C  35.12400 50.55500 29.53200
C  35.27300 50.51800 27.94700
C  33.63400 50.61900 30.01400
C  37.14900 49.20500 30.74300
C  37.12300 48.82900 32.26500
H  35.70900 48.76600 32.95600
N  35.46400 50.85300 24.79200
C  34.90100 51.76900 25.69100
C  34.39900 52.88300 24.88000
C  34.83600 52.68000 23.57000
C  35.54500 51.38200 23.58600
C  33.80900 54.12000 25.46100
C  34.68200 53.59400 22.41900
O  35.29200 53.38600 21.37300
C  33.85900 54.88600 22.51900
N  36.77100 48.50000 23.39400
C  36.69600 49.38600 22.39700
C  37.16900 48.81500 21.08500
C  37.80800 47.42900 21.45100
C  37.34900 47.31900 22.89600
C  36.14200 48.65000 19.92600
C  39.40400 47.47700 21.26200
C  40.11200 46.17400 21.58900
N  36.85800 47.02300 25.86400
C  37.43500 46.02900 25.06400
C  37.79400 44.88700 25.92400
C  37.39400 45.27200 27.25100
C  36.80100 46.52300 27.09800
C  38.60000 43.69700 25.53300
C  37.25200 44.84300 28.67900
O  37.50200 43.78700 29.18500
C  36.67400 46.12400 29.42100
C  35.43100 45.63300 30.08800
O  34.31600 45.77900 29.64300
O  35.69000 45.14000 31.34200
C  34.60100 44.51900 32.08200
H  34.49700 52.48000 27.56400
H  36.12700 51.02800 21.44100
H  38.09500 45.30700 23.27200
H  35.14400 48.66700 30.53500
H  35.53800 51.47600 29.94200
H  33.42900 49.95800 30.85600
H  32.96700 50.22000 29.25000
H  33.29000 51.64000 30.18500
H  37.67400 50.16000 30.72500
H  37.86500 48.46300 30.38900
H  37.73700 49.46700 32.90100
H  37.49100 47.83900 32.53200
H  34.44400 54.91500 25.06800
H  33.89800 54.18000 26.54500
H  32.77500 54.25800 25.14600
H  32.96100 54.77900 23.12700
H  33.68000 55.20000 21.49100
H  34.52500 55.65400 22.91000
H  37.98900 49.44200 20.73500
H  37.43600 46.57700 20.88200
H  35.57500 49.57500 19.82600
H  35.47500 47.85300 20.25500
H  36.44100 48.36400 18.91800
H  39.81400 48.15800 22.00700
H  39.68600 47.94200 20.31700
H  40.86900 46.02700 20.81900
H  39.39200 45.35500 21.58800
H  40.58700 46.28400 22.56400
H  39.37600 44.04900 24.85400
H  38.05100 42.91600 25.00700
H  39.09700 43.29600 26.41700
H  37.43600 46.41300 30.14400
H  34.44100 43.63700 31.46200
H  33.71600 45.15200 32.15100
H  34.93900 44.34500 33.10300

