158

Mg 25.67500 1.32800 29.62500
C  27.65700 0.95900 32.53000
C  22.91100 1.41900 31.70100
C  23.81900 1.38400 26.85000
C  28.60800 0.91000 27.67500
N  25.33000 0.99600 31.90300
C  26.29200 1.03100 32.87700
C  25.64100 1.28400 34.31800
C  24.05400 1.20800 33.91700
C  24.08800 1.23900 32.41300
C  23.31900 -0.07000 34.37600
C  26.08900 2.60400 35.05300
C  26.38800 2.35500 36.52400
H  25.68200 3.22900 37.57200
N  23.66700 1.32100 29.31000
C  22.68500 1.45900 30.25500
C  21.46700 1.73800 29.59500
C  21.73300 1.85800 28.19600
C  23.12800 1.47600 28.08600
C  20.23000 1.97400 30.38400
C  20.80200 2.12200 27.06800
O  21.01900 1.75900 25.88300
C  19.43300 2.77000 27.44200
N  26.17500 1.11300 27.62000
C  25.18900 1.23900 26.61600
C  25.78600 1.10400 25.23700
C  27.37200 1.06000 25.48300
C  27.43000 0.98300 27.00800
C  25.35900 -0.17900 24.43800
C  27.97400 2.36700 24.82400
C  28.63600 2.23600 23.42400
N  27.67600 1.02600 29.92400
C  28.77400 0.89200 29.03900
C  29.95200 0.53200 29.79700
C  29.57800 0.59100 31.15800
C  28.18400 0.97000 31.20600
C  31.14400 -0.03400 29.11900
C  30.09100 0.35300 32.52400
O  31.21600 0.04400 32.90600
C  28.81200 0.70500 33.47000
C  28.65600 -0.39300 34.45600
O  28.26500 -1.53300 34.23000
O  28.90500 0.05800 35.75100
C  28.72100 -0.88000 36.90500
H  22.08600 1.66900 32.37100
H  23.24700 1.45500 25.92200
H  29.52100 0.87800 27.07600
H  26.02800 0.42800 34.87100
H  23.48000 2.02900 34.34600
H  22.41200 0.30200 34.85200
H  23.89800 -0.59800 35.13300
H  23.00900 -0.75600 33.58700
H  25.25100 3.29800 35.00200
H  26.90600 3.08200 34.51400
H  27.47400 2.26500 36.54400
H  25.96700 1.37400 36.74400
H  19.40000 1.36000 30.03200
H  19.97700 3.03400 30.35300
H  20.28200 1.75900 31.45100
H  18.59200 2.08100 27.51900
H  19.21900 3.49500 26.65700
H  19.49000 3.40900 28.32300
H  25.36300 1.96800 24.72600
H  27.97200 0.25300 25.06200
H  26.26000 -0.73600 24.18000
H  24.81900 0.24500 23.59200
H  24.75900 -0.75700 25.14100
H  28.76000 2.79800 25.44500
H  27.15200 3.08200 24.86400
H  28.15600 1.34400 23.02000
H  29.72300 2.15700 23.41000
H  28.42200 3.05400 22.73600
H  31.43400 -0.92000 29.68400
H  32.04200 0.58100 29.05600
H  30.91900 -0.44200 28.13400
H  29.06800 1.57600 34.07400
H  28.10600 -0.42900 37.68400
H  29.68200 -1.08700 37.37500
H  28.28800 -1.82500 36.57700
Mg 47.52800 16.60900 29.65400
C  45.51000 16.13000 32.48700
C  49.77800 18.30600 31.65300
C  49.26900 17.64900 26.96800
C  45.12000 15.31100 27.72600
N  47.64100 17.11500 31.80900
C  46.72500 16.74800 32.74000
C  47.29000 17.10100 34.12200
C  48.51900 17.94800 33.83100
C  48.67900 17.82300 32.32900
C  48.55500 19.41000 34.57300
C  47.54400 15.76400 34.96800
C  46.94200 15.61900 36.40700
H  46.89800 16.89200 37.27700
N  49.40700 17.67500 29.40100
C  50.14900 18.26400 30.31000
C  51.42300 18.74300 29.71800
C  51.29100 18.62000 28.33200
C  49.91600 17.93800 28.17800
C  52.70900 19.30600 30.45400
C  52.19400 18.91700 27.20400
O  51.90400 18.70900 26.05600
C  53.57900 19.45600 27.50100
N  47.37400 16.21800 27.57000
C  48.15400 16.86400 26.63600
C  47.58300 16.67300 25.21500
C  46.22300 15.96900 25.50000
C  46.20300 15.78300 27.04500
C  47.38800 17.93900 24.32600
C  45.99500 14.66700 24.65100
C  45.50800 14.97200 23.18600
N  45.69500 15.79200 29.93500
C  44.79000 15.30200 29.05400
C  43.60200 14.86800 29.80100
C  43.78900 15.14200 31.14400
C  45.10300 15.69700 31.18000
C  42.36900 14.19700 29.25800
C  43.28300 15.01900 32.52800
O  42.28200 14.56500 32.98500
C  44.42900 15.56500 33.43000
C  43.70900 16.62300 34.22900
O  43.47400 17.80500 33.98700
O  43.15800 15.93500 35.32800
C  42.50300 16.86000 36.22100
H  50.37900 18.95300 32.29500
H  49.73900 18.05300 26.06900
H  44.24600 15.12300 27.09900
H  46.50500 17.71700 34.56100
H  49.31000 17.33900 34.26600
H  47.94200 19.44200 35.47400
H  48.12900 20.15700 33.90300
H  49.60000 19.65200 34.76700
H  48.61400 15.55700 34.98800
H  47.12000 14.91000 34.44000
H  47.45800 14.84200 36.97100
H  45.86900 15.42800 36.41800
H  53.47400 18.54100 30.58000
H  52.36100 19.49100 31.47000
H  52.99700 20.15800 29.83800
H  53.54400 20.50600 27.79100
H  54.27800 19.38100 26.66800
H  54.00800 18.78000 28.24000
H  48.22900 16.01000 24.63900
H  45.40200 16.62700 25.21600
H  47.63500 18.87500 24.82800
H  46.46900 18.01900 23.74500
H  48.09000 17.89800 23.49300
H  45.23100 14.09400 25.17700
H  46.85700 14.02000 24.49200
H  45.69100 16.03200 23.01200
H  44.42700 14.84500 23.12000
H  46.03200 14.33400 22.47500
H  41.45200 14.69200 29.57900
H  42.32100 13.17500 29.63300
H  42.25900 14.18300 28.17300
H  44.91600 14.79300 34.02500
H  41.90400 17.53300 35.60900
H  43.19500 17.32600 36.92300
H  41.81400 16.24400 36.80000

