158

Mg 35.40200 49.47200 26.26900
C  35.80600 47.49100 29.00000
C  34.20600 52.06100 28.15000
C  34.99100 51.28000 23.33900
C  36.36700 46.76800 24.20400
N  34.83300 49.67600 28.36200
C  35.22700 48.79200 29.28600
C  35.12900 49.38000 30.71800
C  34.34500 50.68900 30.46200
C  34.39400 50.82000 28.93000
C  32.86000 50.78500 31.08800
C  36.50700 49.55200 31.43900
C  36.57800 48.82100 32.83400
H  35.56200 49.06100 33.99000
N  34.83000 51.37000 25.85500
C  34.44800 52.33100 26.76400
C  34.29900 53.59400 26.02000
C  34.42500 53.39700 24.64000
C  34.78700 51.93300 24.61300
C  34.05200 54.86700 26.77500
C  34.33700 54.28700 23.45000
O  34.28000 53.88300 22.28900
C  34.06900 55.73100 23.72200
N  35.76700 49.11000 24.08700
C  35.45600 50.00400 23.10400
C  35.56500 49.33600 21.71300
C  36.19200 47.97600 22.05800
C  36.17800 47.91700 23.54800
C  34.26700 49.26000 20.88400
C  37.69100 47.88900 21.46200
C  38.82900 48.30900 22.48500
N  35.96600 47.48700 26.53000
C  36.38800 46.56700 25.56400
C  36.66200 45.33500 26.34600
C  36.49500 45.67300 27.69000
C  36.07900 46.99200 27.71500
C  37.19900 44.06100 25.73700
C  36.55600 45.11500 28.97800
O  36.92100 44.04300 29.41000
C  36.10000 46.29700 29.92900
C  34.88300 45.77800 30.65700
O  33.81300 45.55500 30.24200
O  35.25100 45.50200 31.94200
C  34.14400 45.24400 32.84300
H  33.82300 52.85400 28.79700
H  35.05200 51.80800 22.38600
H  36.31300 45.88100 23.56900
H  34.49200 48.69500 31.27700
H  34.81800 51.52600 30.97500
H  32.19400 51.18300 30.32300
H  32.94000 51.49300 31.91300
H  32.47600 49.86500 31.52600
H  36.88700 50.57100 31.50700
H  37.22700 48.94800 30.88800
H  37.58400 49.00700 33.20900
H  36.58900 47.73200 32.79100
H  33.10200 55.29900 26.46200
H  34.94400 55.48700 26.68900
H  33.82600 54.68900 27.82700
H  33.06700 55.94400 24.09500
H  34.19800 56.22400 22.75900
H  34.83400 56.00800 24.44800
H  36.34700 49.90900 21.21600
H  35.62300 47.13100 21.67000
H  34.10600 48.18800 20.76900
H  34.53400 49.88400 20.03100
H  33.46700 49.71100 21.47200
H  37.68300 48.51900 20.57300
H  37.89300 46.83800 21.25800
H  39.68200 47.69500 22.19600
H  38.66600 48.26000 23.56200
H  39.09100 49.35600 22.33100
H  38.28800 44.03000 25.78300
H  36.90800 43.85900 24.70600
H  36.74200 43.29800 26.36700
H  36.89500 46.38200 30.67100
H  34.38600 45.71600 33.79500
H  33.96700 44.17100 32.91500
H  33.16900 45.63000 32.54400
Mg -4.62900 24.80400 25.33300
C  -3.41300 26.13300 28.35300
C  -6.67600 22.58700 27.30500
C  -5.39000 22.99000 22.59300
C  -2.48400 26.74200 23.64800
N  -4.95400 24.28800 27.62000
C  -4.36200 25.09100 28.62500
C  -5.00300 24.74100 29.92600
C  -5.98100 23.45300 29.62200
C  -5.84900 23.43100 28.09700
C  -5.53600 22.05900 30.18500
C  -5.81200 25.93900 30.56500
C  -5.62000 26.14600 32.11400
H  -4.94300 25.09800 33.01400
N  -5.96000 23.19900 24.97200
C  -6.69900 22.49400 25.88900
C  -7.57000 21.64000 25.15800
C  -7.14400 21.66100 23.79900
C  -6.14400 22.66300 23.74900
C  -8.79300 20.99700 25.80200
C  -7.64100 20.79900 22.59500
O  -7.21300 20.90500 21.42200
C  -8.75300 19.80100 22.89100
N  -4.12900 24.90900 23.30500
C  -4.42600 23.96800 22.39200
C  -3.56000 24.21800 21.13700
C  -2.85200 25.54800 21.44900
C  -3.19800 25.82800 22.88300
C  -2.63400 23.06400 20.62100
C  -3.36300 26.80200 20.66700
C  -2.34700 27.48500 19.74700
N  -3.20400 26.17100 25.81900
C  -2.47800 27.04600 25.04200
C  -1.70900 27.93700 25.76900
C  -2.05500 27.66700 27.11500
C  -2.98300 26.53900 27.09800
C  -0.70300 29.02300 25.23100
C  -1.68400 27.98500 28.49600
O  -0.93000 28.75100 29.07300
C  -2.65200 27.05800 29.29200
C  -1.87500 26.23200 30.31200
O  -1.39000 25.11400 30.10400
O  -1.89100 26.89200 31.55500
C  -1.18400 26.19600 32.64700
H  -7.33300 21.94800 27.89800
H  -5.60100 22.42100 21.68600
H  -1.73100 27.29500 23.08200
H  -4.23500 24.45300 30.64400
H  -6.98800 23.67700 29.97400
H  -5.06700 21.55300 29.34100
H  -6.34200 21.45700 30.60500
H  -4.85200 22.17800 31.02500
H  -6.89900 25.85100 30.57300
H  -5.76200 26.83100 29.94100
H  -6.59900 26.18200 32.59300
H  -5.09700 27.09500 32.23000
H  -8.99300 21.38700 26.80000
H  -8.80500 19.91400 25.92400
H  -9.54200 21.52500 25.21200
H  -9.08800 19.26800 22.00100
H  -9.53600 20.46700 23.25400
H  -8.39100 19.05700 23.60000
H  -4.33100 24.41400 20.39200
H  -1.78200 25.48400 21.25100
H  -3.03000 22.67500 19.68400
H  -2.68100 22.29200 21.38900
H  -1.61100 23.37400 20.40700
H  -3.78000 27.54200 21.35000
H  -4.26100 26.51800 20.11800
H  -2.21900 28.54300 19.97900
H  -2.74700 27.42900 18.73500
H  -1.38600 26.97300 19.77200
H  -0.12300 28.51400 24.46100
H  -0.11200 29.47600 26.02700
H  -1.25600 29.84600 24.77900
H  -3.31100 27.70000 29.87800
H  -0.19300 26.65000 32.63100
H  -0.95900 25.12900 32.62300
H  -1.60300 26.51600 33.60100

