158

Mg 50.01900 47.34300 43.37500
C  46.50600 47.69600 42.95500
C  49.91200 44.52500 41.67400
C  53.35100 47.29200 43.37300
C  50.06200 50.56200 44.84300
N  48.35400 46.41200 42.22800
C  47.03000 46.60000 42.28700
C  46.19700 45.50000 41.64500
C  47.24700 44.33100 41.50000
C  48.59700 45.12600 41.77500
C  47.04600 43.16800 42.56500
C  45.62600 45.92500 40.27000
C  44.24300 45.29000 39.96400
H  43.85800 45.07600 38.55300
N  51.50200 46.05400 42.56900
C  51.21600 44.89100 41.99900
C  52.40600 44.15500 41.77300
C  53.53100 44.97600 42.11800
C  52.84000 46.17400 42.76400
C  52.51300 42.86200 41.15600
C  54.96200 44.60900 42.09500
O  55.26700 43.56000 41.63000
C  56.12100 45.37200 42.50200
N  51.52600 48.73600 43.95700
C  52.83900 48.39300 43.98200
C  53.72200 49.42100 44.68200
C  52.66900 50.44400 45.13700
C  51.32400 49.89800 44.54900
C  54.71700 48.90600 45.74200
C  53.07300 51.89900 44.77300
C  54.03000 52.56500 45.80800
N  48.57700 48.87400 43.90800
C  48.78000 50.11400 44.44700
C  47.44700 50.70000 44.58300
C  46.53500 49.77300 44.09300
C  47.28400 48.70600 43.62700
C  47.07600 51.92600 45.29100
C  45.10600 49.43700 43.92400
O  44.04800 50.00900 44.23500
C  45.03300 48.08000 43.12900
C  44.40100 46.99600 43.99800
O  44.74600 46.60700 45.05300
O  43.25600 46.48000 43.36500
C  42.42100 45.55300 44.00200
H  49.86300 43.45800 41.44700
H  54.43400 47.15600 43.40600
H  50.19800 51.49200 45.39800
H  45.34500 45.34100 42.30600
H  47.32500 43.99600 40.46600
H  47.23800 42.21600 42.07000
H  45.97700 43.06700 42.75200
H  47.55300 43.38000 43.50600
H  46.31400 45.65300 39.47000
H  45.52800 47.00900 40.21300
H  43.50100 46.04500 40.22400
H  44.18400 44.35800 40.52700
H  53.06100 42.94100 40.21700
H  51.57700 42.46900 40.75900
H  52.91700 42.00800 41.69900
H  56.16900 46.34300 42.00900
H  56.99000 44.79700 42.18400
H  56.06300 45.70200 43.53900
H  54.25200 49.89700 43.85800
H  52.57800 50.36700 46.22100
H  55.73100 48.89800 45.34100
H  54.33300 47.93900 46.06700
H  54.70300 49.45900 46.68200
H  52.10800 52.40200 44.84600
H  53.55600 52.01900 43.80400
H  53.70600 53.56900 46.07900
H  54.96800 52.65600 45.26200
H  54.34300 51.89300 46.60700
H  46.78900 51.73100 46.32500
H  46.18900 52.26700 44.75700
H  47.92000 52.61500 45.26800
H  44.62300 48.23200 42.13100
H  42.43600 45.54500 45.09200
H  42.63000 44.53800 43.66300
H  41.39500 45.73600 43.68200
Mg 35.38200 48.60100 25.57000
C  36.08500 46.93500 28.52100
C  34.00500 51.19000 27.35000
C  34.57100 50.28400 22.61700
C  36.58400 45.92300 23.67400
N  34.98400 48.97300 27.70900
C  35.43700 48.15600 28.75100
C  35.16000 48.87900 30.12900
C  34.27700 50.19000 29.77000
C  34.41100 50.13100 28.20900
C  32.75600 50.17100 30.14500
C  36.44900 49.19000 30.92400
C  36.54200 49.18400 32.43500
H  35.22500 49.15900 33.27600
N  34.43500 50.45400 25.07200
C  33.99800 51.41900 25.97900
C  33.58600 52.65400 25.27300
C  33.73600 52.34400 23.86600
C  34.27900 50.95300 23.82600
C  33.01700 53.81300 26.07000
C  33.38600 53.26800 22.69900
O  33.59000 52.99000 21.53100
C  32.86900 54.66000 22.87100
N  35.45200 48.06600 23.50000
C  35.11400 48.97400 22.47900
C  35.37900 48.33800 21.07200
C  36.20100 47.06000 21.37700
C  36.05600 47.00000 22.95200
C  34.06700 48.12400 20.28800
C  37.68700 47.27800 20.96800
C  38.59400 48.09900 21.88800
N  36.17200 46.75400 25.95200
C  36.62900 45.75600 25.11400
C  37.24800 44.68400 25.99400
C  36.94800 45.07700 27.32200
C  36.33400 46.34500 27.26100
C  37.91400 43.48300 25.37000
C  37.16400 44.67200 28.65700
O  37.73600 43.74800 29.10100
C  36.56300 45.93100 29.53700
C  35.51000 45.30700 30.38500
O  34.37700 44.99400 30.03800
O  36.03200 45.15500 31.68000
C  35.12000 44.78900 32.80400
H  33.53600 51.91300 28.02000
H  34.44700 50.84100 21.68600
H  36.98000 45.05000 23.15200
H  34.53600 48.21200 30.72400
H  34.78600 51.11300 30.04700
H  32.17900 50.14800 29.22100
H  32.52600 51.00200 30.81200
H  32.66700 49.26600 30.74700
H  36.76200 50.16300 30.54500
H  37.24200 48.59000 30.47600
H  37.10200 50.02900 32.83600
H  37.12300 48.27200 32.57900
H  32.74600 54.71000 25.51300
H  33.78200 54.01300 26.82100
H  32.09400 53.55000 26.58700
H  31.79600 54.53800 23.02000
H  32.83200 55.02900 21.84600
H  33.44000 55.28500 23.55900
H  35.93500 49.03700 20.44700
H  35.75900 46.18500 20.90000
H  33.79200 47.07100 20.24500
H  34.24500 48.45800 19.26600
H  33.28800 48.62200 20.86600
H  37.79100 47.74200 19.98700
H  37.93900 46.22700 20.82200
H  38.15800 49.09200 21.99600
H  39.50500 48.21500 21.30100
H  38.97300 47.63100 22.79700
H  38.48800 42.98100 26.14800
H  38.45100 43.77200 24.46700
H  37.00100 42.93800 25.13300
H  37.33300 46.43800 30.11800
H  35.22900 45.51600 33.60900
H  35.57000 43.84400 33.10800
H  34.08700 44.61300 32.50200

