158

Mg 48.33000 34.74500 27.58400
C  46.42300 33.39000 30.34500
C  49.07200 37.52900 29.77100
C  49.29800 36.52600 24.98100
C  47.22800 32.16100 25.74900
N  47.72000 35.35600 29.78000
C  47.10600 34.55900 30.69600
C  47.24000 35.07500 32.11400
C  47.82700 36.48900 31.85600
C  48.27400 36.48400 30.37400
C  46.88900 37.66100 32.16400
C  48.18800 34.04200 32.84400
C  47.99900 33.91300 34.31600
H  47.60900 35.12300 35.20900
N  49.23600 36.71100 27.49300
C  49.46900 37.68000 28.40200
C  50.23300 38.79300 27.78700
C  50.22800 38.49800 26.41700
C  49.62900 37.23200 26.24200
C  50.77100 39.97700 28.52500
C  50.75800 39.39000 25.24800
O  50.65000 39.04700 24.07400
C  51.45400 40.74700 25.49500
N  48.42400 34.33900 25.61700
C  48.83100 35.21200 24.66100
C  48.56500 34.66000 23.29600
C  48.20200 33.20600 23.61500
C  47.94900 33.20900 25.11700
C  47.57500 35.48300 22.44300
C  49.23300 32.20800 23.07800
C  50.53200 31.99400 23.88300
N  47.14900 33.06500 27.90100
C  46.76600 32.05900 27.08800
C  45.97400 31.05400 27.70000
C  45.73500 31.62100 28.97500
C  46.55300 32.73900 29.07100
C  45.51900 29.81300 27.01900
C  44.93400 31.39200 30.20200
O  44.20200 30.50000 30.53700
C  45.21800 32.65200 31.05300
C  45.59100 32.26000 32.47900
O  46.34400 31.36100 32.88900
O  44.75600 32.95100 33.28000
C  44.51100 32.45100 34.69700
H  49.42300 38.34700 30.40400
H  49.36900 37.08200 24.04400
H  46.92400 31.35800 25.07400
H  46.29900 35.07900 32.66500
H  48.73200 36.63300 32.44700
H  45.94400 37.31800 32.58500
H  46.62800 38.06900 31.18800
H  47.34200 38.47400 32.73100
H  49.21200 34.40500 32.76100
H  48.09600 33.07800 32.34300
H  48.91300 33.49600 34.73900
H  47.25400 33.12200 34.40000
H  51.82700 39.81300 28.74200
H  50.29100 39.93500 29.50200
H  50.58700 41.00300 28.20500
H  50.71200 41.42700 25.91300
H  51.83600 41.15500 24.55900
H  52.29600 40.68800 26.18500
H  49.45600 34.69800 22.66800
H  47.20600 32.99900 23.22400
H  47.01400 36.11700 23.12900
H  46.92700 34.84900 21.83700
H  48.17000 36.07700 21.74800
H  49.52000 32.42800 22.05000
H  48.67400 31.27300 23.04600
H  51.40100 32.06700 23.22900
H  50.49300 31.03200 24.39500
H  50.71700 32.78000 24.61500
H  46.34000 29.44100 26.40700
H  44.63300 30.02600 26.42100
H  45.25100 29.05400 27.75500
H  44.38300 33.34800 30.97100
H  43.43700 32.27000 34.73600
H  44.79100 33.22000 35.41700
H  44.91600 31.46800 34.93700
Mg -1.08600 34.77200 26.46800
C  -2.66200 32.87800 29.06000
C  0.15300 36.82400 29.01000
C  0.23900 36.69900 24.12200
C  -2.67200 32.93500 24.13200
N  -1.38300 34.84800 28.79800
C  -1.87600 33.89100 29.58000
C  -1.53000 34.20700 31.06800
C  -0.75100 35.52100 31.06300
C  -0.64900 35.80400 29.52200
C  -1.50800 36.72900 31.90300
C  -0.87400 33.02300 31.98000
C  -1.45800 32.88600 33.40000
H  -0.51500 32.97900 34.56700
N  0.04500 36.43300 26.52900
C  0.54400 37.10200 27.67700
C  1.53000 38.04200 27.29500
C  1.53100 38.11600 25.86900
C  0.63600 37.00200 25.43300
C  2.30700 38.95700 28.31000
C  2.29200 38.99900 24.93900
O  2.21200 38.82100 23.71700
C  3.05000 40.16900 25.48700
N  -1.24900 34.86700 24.37100
C  -0.54900 35.68500 23.61100
C  -0.67500 35.39900 22.11700
C  -1.33300 33.95000 22.18400
C  -1.75900 33.87500 23.64400
C  -1.57200 36.42100 21.28900
C  -0.65500 32.66400 21.58900
C  0.66100 32.36000 22.30700
N  -2.41800 33.28300 26.52700
C  -3.02300 32.67600 25.49600
C  -3.80400 31.58400 25.93200
C  -3.68900 31.68700 27.32600
C  -2.85400 32.71300 27.64800
C  -4.70300 30.68700 25.19900
C  -4.02300 30.98500 28.53600
O  -4.67000 29.97000 28.64000
C  -3.39100 31.74700 29.75000
C  -4.52600 32.30200 30.52600
O  -5.31500 33.15500 30.21300
O  -4.58900 31.64100 31.77300
C  -5.66300 32.08700 32.63900
H  0.42100 37.56900 29.76200
H  0.58500 37.29100 23.27200
H  -3.11700 32.23900 23.41800
H  -2.48300 34.44800 31.53800
H  0.21000 35.44200 31.57200
H  -2.47900 36.86200 31.42600
H  -0.93600 37.65400 31.97800
H  -1.75400 36.32100 32.88300
H  0.20000 33.20200 32.01500
H  -1.13200 32.02300 31.63100
H  -1.89900 31.89100 33.46300
H  -2.26300 33.61000 33.52700
H  3.34400 38.65100 28.16900
H  2.13600 38.71600 29.35900
H  2.09400 39.99200 28.04100
H  2.37800 40.80300 26.06500
H  3.50600 40.73400 24.67400
H  3.89900 39.90800 26.11800
H  0.35400 35.46100 21.76300
H  -2.31300 33.89600 21.71000
H  -1.51500 37.42000 21.72200
H  -2.63500 36.18200 21.26000
H  -1.32800 36.54600 20.23400
H  -0.49000 32.69800 20.51200
H  -1.27000 31.77900 21.75400
H  1.29100 31.86900 21.56500
H  0.43200 31.66900 23.11900
H  1.30000 33.19900 22.58500
H  -4.75400 30.99200 24.15400
H  -5.70700 30.77900 25.61300
H  -4.37600 29.65100 25.28700
H  -2.76300 31.09000 30.35100
H  -5.24600 32.88500 33.25400
H  -5.84600 31.17100 33.20100
H  -6.59700 32.40800 32.17700

