158

Mg 26.13200 -0.31000 29.15800
C  28.01900 -0.48600 32.19200
C  23.33900 0.34400 31.27200
C  24.26100 -0.18400 26.42300
C  28.93600 -0.94100 27.38000
N  25.73400 -0.18200 31.55700
C  26.71400 -0.08500 32.46300
C  26.16200 0.37800 33.80900
C  24.55800 0.48600 33.52900
C  24.47800 0.18100 32.02500
C  23.69300 -0.59600 34.30100
C  26.70400 1.69000 34.46800
C  26.03000 2.10700 35.79700
H  27.00800 2.24600 37.00100
N  24.03800 -0.12100 28.88600
C  23.11000 0.14200 29.88400
C  21.78600 0.15600 29.16400
C  22.00400 0.04600 27.76500
C  23.46100 -0.06900 27.60400
C  20.46700 0.28600 29.86400
C  21.02100 0.06600 26.67200
O  21.39800 0.00900 25.51100
C  19.47300 0.15500 26.85100
N  26.56000 -0.61500 27.17600
C  25.62400 -0.44000 26.21600
C  26.26500 -0.29500 24.84900
C  27.78700 -0.66800 25.12800
C  27.78800 -0.78800 26.63000
C  25.65100 -1.09800 23.70700
C  28.81300 0.34400 24.55300
C  30.06200 -0.35600 23.91900
N  28.04200 -0.75300 29.60300
C  29.12500 -1.00300 28.77800
C  30.30500 -1.25600 29.60400
C  29.90900 -1.14600 30.90800
C  28.51600 -0.81400 30.91000
C  31.63100 -1.50400 29.04000
C  30.41000 -1.10200 32.23800
O  31.56600 -1.42400 32.67300
C  29.18200 -0.65900 33.10100
C  28.95300 -1.76500 34.14600
O  28.11000 -2.64800 34.04100
O  29.65400 -1.46000 35.32900
C  29.71800 -2.44300 36.42000
H  22.46900 0.65200 31.85600
H  23.70500 -0.26000 25.48700
H  29.92000 -1.07800 26.92700
H  26.40000 -0.47800 34.43900
H  24.23700 1.50600 33.74000
H  23.77900 -0.58200 35.38800
H  23.95500 -1.61100 34.00300
H  22.63800 -0.39900 34.11100
H  26.38600 2.48700 33.79500
H  27.78600 1.71600 34.59900
H  25.25700 1.36800 36.01000
H  25.66300 3.08400 35.48100
H  19.94400 1.22700 29.69800
H  20.74600 0.26000 30.91700
H  19.79600 -0.53300 29.60400
H  18.98400 -0.53800 27.53500
H  19.02900 -0.06800 25.88100
H  19.28100 1.18200 27.16300
H  26.18100 0.75000 24.55200
H  27.95200 -1.70900 24.85000
H  24.87800 -1.70800 24.17500
H  26.25500 -1.81500 23.15100
H  25.20800 -0.38700 23.01000
H  29.24500 1.05800 25.25300
H  28.31500 0.90200 23.75900
H  30.99700 -0.05800 24.39400
H  30.07700 -0.29900 22.83100
H  29.93900 -1.41400 24.15100
H  32.22200 -0.61400 29.25800
H  31.58300 -1.60600 27.95600
H  32.06400 -2.34400 29.58300
H  29.44400 0.23600 33.66700
H  29.64300 -3.47500 36.07600
H  28.91600 -2.19500 37.11500
H  30.64200 -2.33600 36.98800
Mg 36.12100 0.90300 29.73300
C  33.72100 2.49400 31.84600
C  38.31400 1.12000 32.36100
C  38.37500 -0.28800 27.61100
C  33.66400 1.08100 27.11500
N  35.99800 1.74000 31.83800
C  34.97300 2.23500 32.51300
C  35.26100 2.40200 33.99100
C  36.78600 2.40300 34.03800
C  37.04000 1.76600 32.61000
C  37.62000 3.75200 34.15600
C  34.46700 1.41600 34.89600
C  33.61000 2.04800 36.02000
H  34.21800 3.14200 36.95900
N  38.11000 0.42100 29.99300
C  38.84700 0.61500 31.12700
C  40.15700 0.16800 30.90100
C  40.23300 -0.26100 29.55400
C  38.86600 0.02400 28.95500
C  41.24100 0.20400 31.98800
C  41.46000 -0.68400 28.78500
O  41.40900 -0.98700 27.60700
C  42.82800 -0.83300 29.49100
N  36.08000 0.63200 27.64300
C  37.10900 0.01300 27.05000
C  36.77000 -0.27000 25.56000
C  35.28600 0.09700 25.44700
C  34.97800 0.71200 26.79600
C  37.76100 0.45000 24.64100
C  34.46300 -1.07200 25.07000
C  34.18900 -2.12300 26.20400
N  34.16400 1.62400 29.45700
C  33.24200 1.58700 28.37300
C  31.98200 2.22700 28.79700
C  32.06200 2.54700 30.14700
C  33.42700 2.15100 30.50200
C  30.68800 2.37800 27.97800
C  31.40400 3.10500 31.31300
O  30.24300 3.54100 31.45400
C  32.46300 3.10500 32.45000
C  32.67800 4.49800 32.89300
O  33.55300 5.30100 32.64300
O  31.72500 4.76400 33.86200
C  31.95500 6.03400 34.61400
H  38.92400 1.03100 33.26300
H  39.14300 -0.66800 26.93400
H  32.86700 0.91000 26.38900
H  34.89600 3.39200 34.26400
H  37.18400 1.73300 34.79900
H  38.11300 4.00600 33.21800
H  38.40300 3.78900 34.91200
H  36.98900 4.57400 34.49200
H  35.08100 0.70800 35.45300
H  33.88800 0.77000 34.23700
H  33.31300 1.17900 36.60700
H  32.69200 2.46500 35.60400
H  41.51800 -0.74800 32.43900
H  40.89800 0.78300 32.84600
H  42.11800 0.73500 31.61800
H  43.16500 0.11500 29.91000
H  43.59100 -1.38000 28.93700
H  42.63300 -1.36900 30.42000
H  36.80200 -1.35900 25.51500
H  35.18700 0.87000 24.68500
H  38.08000 -0.27200 23.88900
H  38.60500 0.80000 25.23500
H  37.37800 1.30700 24.08700
H  35.08700 -1.53500 24.30500
H  33.59500 -0.68400 24.53600
H  35.01000 -2.79800 26.44200
H  33.37900 -2.73400 25.80700
H  33.82400 -1.60000 27.08800
H  30.64900 3.01900 27.09700
H  29.91900 2.75400 28.65300
H  30.31400 1.42800 27.59800
H  32.02500 2.48100 33.22900
H  31.10300 6.26600 35.25400
H  31.97200 6.92800 33.99100
H  32.82600 5.97900 35.26700

