158

Mg 27.11500 50.27400 25.46500
C  25.09100 51.45900 28.17200
C  29.25300 49.05600 27.71300
C  29.27600 49.70700 22.93500
C  25.05400 52.12100 23.34700
N  27.13500 50.16000 27.72900
C  26.17000 50.72000 28.64400
C  26.52800 50.24300 30.03200
C  28.03600 49.71800 29.87300
C  28.17800 49.61400 28.32900
C  29.09000 50.70200 30.48300
C  25.50500 49.12000 30.49900
C  25.04700 49.29500 31.98300
H  25.87900 49.99700 33.04300
N  28.99700 49.40300 25.35400
C  29.72200 48.94100 26.39800
C  31.04600 48.49100 25.90500
C  31.04900 48.62800 24.47800
C  29.75800 49.34700 24.20900
C  31.97000 47.76200 26.78800
C  32.08300 48.21000 23.43900
O  31.92000 48.48900 22.26100
C  33.37200 47.44800 23.81600
N  27.22900 50.94000 23.42200
C  28.17200 50.47400 22.52300
C  27.80700 50.74800 21.03700
C  26.39700 51.30000 21.20700
C  26.15400 51.46500 22.75100
C  28.91900 51.64200 20.28500
C  25.32400 50.34600 20.48100
C  24.75700 51.01500 19.25100
N  25.42600 51.52900 25.65300
C  24.67100 52.18100 24.70700
C  23.52000 52.85900 25.32200
C  23.69700 52.64100 26.69800
C  24.84300 51.79300 26.84100
C  22.39700 53.63600 24.55900
C  23.15900 52.95100 27.96800
O  22.06300 53.52600 28.17800
C  23.98800 52.15000 28.94300
C  24.39400 53.01800 30.00400
O  25.36700 53.75100 30.02900
O  23.52600 52.78800 31.06700
C  23.83400 53.39900 32.38900
H  30.02400 48.75600 28.42500
H  29.82500 49.57700 22.00000
H  24.31100 52.49800 22.64100
H  26.50600 51.11700 30.68400
H  28.07400 48.78600 30.43800
H  29.41400 50.30000 31.44200
H  28.66200 51.67200 30.73600
H  29.93500 50.71900 29.79400
H  25.97000 48.14500 30.35000
H  24.59200 49.22700 29.91300
H  24.88100 48.35300 32.50600
H  24.06900 49.77400 31.93400
H  31.74300 47.65000 27.84900
H  32.93000 48.27300 26.71200
H  32.15100 46.77000 26.37400
H  33.08000 46.43000 24.07500
H  33.93900 47.87800 24.64100
H  33.97800 47.27600 22.92600
H  27.76500 49.77300 20.55100
H  26.34500 52.32300 20.83600
H  28.53600 52.65900 20.20200
H  29.18300 51.21600 19.31700
H  29.85600 51.73300 20.83500
H  24.46100 50.28200 21.14500
H  25.57200 49.34700 20.12300
H  25.31300 51.90900 18.96900
H  23.84300 51.43400 19.67400
H  24.55500 50.43200 18.35300
H  22.64300 53.86000 23.52100
H  22.45500 54.57700 25.10600
H  21.50900 53.00700 24.61800
H  23.44100 51.32700 29.40200
H  24.80000 53.04700 32.75100
H  22.99500 53.10700 33.02100
H  23.83700 54.48800 32.34200
Mg -11.84200 16.66800 43.58200
C  -9.12300 14.71200 42.66600
C  -10.37200 19.36100 41.89500
C  -14.86200 18.07400 43.29500
C  -13.40700 13.62700 44.56300
N  -10.00500 16.94700 42.28500
C  -9.04600 16.03300 42.16400
C  -7.79400 16.64800 41.56600
C  -8.06900 18.20800 41.66600
C  -9.55900 18.24400 42.04500
C  -7.20400 18.98100 42.69800
C  -7.54400 16.14300 40.06900
C  -6.29600 15.34600 39.74100
H  -5.29500 16.08000 38.85300
N  -12.47600 18.60500 42.90900
C  -11.76400 19.50400 42.17700
C  -12.62800 20.53500 41.71700
C  -13.95400 20.22000 42.08200
C  -13.84500 18.92500 42.80200
C  -12.09500 21.74000 41.04900
C  -15.21300 21.08700 41.76900
O  -15.14200 22.15000 41.18500
C  -16.58900 20.62700 42.23100
N  -13.79700 15.99300 43.87100
C  -14.91500 16.73800 43.66600
C  -16.19600 16.08000 44.09300
C  -15.64900 14.83400 44.85500
C  -14.17700 14.79600 44.43500
C  -17.18200 16.85300 44.95800
C  -16.39000 13.48700 44.72800
C  -16.42800 12.70200 46.07300
N  -11.37200 14.58200 43.75400
C  -12.06100 13.49300 44.25100
C  -11.19100 12.34400 44.45600
C  -9.98800 12.79200 43.82700
C  -10.23500 14.11700 43.35800
C  -11.52100 11.04300 44.97800
C  -8.58700 12.40300 43.52100
O  -7.90000 11.47500 43.91600
C  -8.01400 13.58100 42.69000
C  -6.75200 14.03800 43.36600
O  -6.72200 14.68700 44.38900
O  -5.65900 13.59800 42.64500
C  -4.33300 13.98500 43.25000
H  -9.85500 20.21600 41.45400
H  -15.87200 18.48900 43.30600
H  -13.82700 12.73700 45.03600
H  -6.95700 16.32300 42.18400
H  -8.04900 18.58900 40.64500
H  -6.74400 19.77100 42.10500
H  -6.56400 18.31500 43.27600
H  -7.74500 19.53700 43.46300
H  -7.56200 16.95600 39.34400
H  -8.32000 15.41500 39.83400
H  -6.57500 14.42500 39.22900
H  -5.74100 15.02800 40.62400
H  -12.44000 21.72400 40.01500
H  -11.00800 21.73600 40.97000
H  -12.27900 22.55400 41.75100
H  -16.81400 20.64200 43.29800
H  -16.62900 19.66700 41.71600
H  -17.25000 21.28900 41.67300
H  -16.68800 15.67100 43.21000
H  -15.56900 15.01200 45.92800
H  -18.14500 16.97400 44.46200
H  -16.82700 17.88200 45.01300
H  -17.26500 16.37900 45.93500
H  -15.93200 12.75700 44.06200
H  -17.39600 13.72300 44.38300
H  -16.20300 11.64200 45.96400
H  -17.35500 12.87400 46.62100
H  -15.67500 13.09700 46.75600
H  -10.69400 10.59400 45.52800
H  -11.72700 10.44000 44.09300
H  -12.46200 11.01600 45.52800
H  -7.77300 13.42700 41.63800
H  -4.04200 14.96500 42.87100
H  -3.58000 13.27700 42.90500
H  -4.23600 13.92800 44.33400

