158

Mg 44.64300 4.94700 46.75400
C  42.65600 7.79800 46.95100
C  41.76400 2.92000 46.64600
C  46.52900 2.30400 45.77600
C  47.48200 7.06400 46.47600
N  42.47600 5.33200 46.75700
C  41.90200 6.56400 46.90400
C  40.36100 6.47100 46.97700
C  40.15400 4.82400 46.81800
C  41.53500 4.26200 46.74900
C  39.20000 4.20400 47.96100
C  39.48100 7.30300 46.02300
C  40.05300 7.36600 44.57700
H  39.26800 6.71700 43.42100
N  44.21500 2.91100 46.30500
C  42.97700 2.29800 46.32800
C  43.17600 0.86700 46.18900
C  44.55700 0.61400 45.99100
C  45.16600 1.97300 46.00100
C  42.03200 -0.11200 46.26300
C  45.22700 -0.73100 45.77200
O  44.46900 -1.69300 45.96600
C  46.58800 -0.94200 45.48300
N  46.67600 4.77700 46.10400
C  47.25000 3.53600 45.81500
C  48.78400 3.59700 45.69400
C  49.03800 5.17300 45.72500
C  47.65100 5.66600 46.23800
C  49.58000 2.85800 46.78300
C  49.44900 5.75500 44.32700
C  50.98200 5.84100 44.10300
N  45.09900 7.01300 46.78000
C  46.26100 7.72100 46.77600
C  45.91900 9.09900 46.90800
C  44.52900 9.16100 47.01700
C  44.07400 7.91400 46.83200
C  46.97500 10.13600 46.94000
C  43.40700 10.07700 47.10800
O  43.44700 11.34200 47.20500
C  42.13300 9.28600 47.04600
C  41.25800 9.41200 48.23000
O  41.25200 8.67100 49.20700
O  40.43700 10.48100 48.05500
C  39.51000 10.63800 49.15800
H  40.85100 2.33100 46.53600
H  47.21800 1.50100 45.50700
H  48.39500 7.65600 46.38400
H  40.17700 6.81700 47.99400
H  39.67100 4.58200 45.87100
H  39.72100 3.61200 48.71300
H  38.39200 3.68700 47.44300
H  38.86900 5.06100 48.54800
H  39.47300 8.31700 46.42400
H  38.43800 7.01500 45.88700
H  40.97100 6.77900 44.59000
H  40.22700 8.42800 44.40500
H  41.77400 -0.44900 45.25900
H  41.20600 0.38600 46.76900
H  42.20300 -0.98200 46.89800
H  46.76900 -1.98600 45.22900
H  47.16600 -0.74300 46.38500
H  46.93600 -0.41100 44.59700
H  49.03500 3.13500 44.73900
H  49.78200 5.38700 46.49100
H  50.42000 3.44500 47.15500
H  49.95900 1.87500 46.50100
H  48.86300 2.74500 47.59700
H  49.15300 6.80200 44.26400
H  48.96700 5.16800 43.54500
H  51.21500 5.40300 43.13300
H  51.51100 5.18600 44.79500
H  51.47800 6.80500 44.21600
H  47.65600 9.98200 47.77700
H  46.50800 11.09600 47.16300
H  47.51600 10.11800 45.99400
H  41.61300 9.53100 46.11900
H  38.60200 10.15600 48.79700
H  39.25500 11.69300 49.25600
H  39.88100 10.25100 50.10700
Mg 46.47700 17.02700 29.00400
C  44.83500 16.48300 31.98300
C  48.80600 18.97900 30.68000
C  47.80000 18.11500 25.98700
C  43.82600 15.58500 27.28500
N  46.80800 17.56800 31.13200
C  46.04100 17.16100 32.15400
C  46.56600 17.68900 33.47400
C  47.73300 18.71700 32.98700
C  47.82000 18.42400 31.52500
C  47.45600 20.24900 33.18500
C  47.13400 16.51100 34.34200
C  47.40500 16.82400 35.78100
H  46.99600 18.19100 36.34700
N  48.20000 18.13500 28.46800
C  49.09900 18.79500 29.26300
C  50.17900 19.28000 28.51300
C  49.83600 19.12900 27.11100
C  48.54600 18.45600 27.13800
C  51.37600 19.85000 29.18500
C  50.62800 19.49800 25.84800
O  50.12500 19.41900 24.69700
C  52.04100 20.09200 26.00800
N  45.96300 16.86300 26.99800
C  46.59000 17.42100 25.91500
C  45.97500 17.04400 24.62500
C  44.80300 16.14500 25.00500
C  44.89600 16.12300 26.53500
C  45.46300 18.12300 23.64100
C  44.82400 14.72800 24.44600
C  45.53400 13.75800 25.29800
N  44.77400 16.08700 29.47500
C  43.83100 15.49900 28.70300
C  42.72800 14.98200 29.48700
C  43.09000 15.38200 30.81800
C  44.29400 16.07800 30.75300
C  41.51900 14.28600 29.02100
C  42.72900 15.38800 32.20000
O  41.70700 15.09200 32.78500
C  43.79700 16.15500 32.99300
C  43.08400 17.32600 33.66000
O  42.67600 18.32200 33.13000
O  43.10900 17.13200 35.03200
C  42.47400 18.20700 35.86400
H  49.51500 19.63100 31.19500
H  48.09700 18.30200 24.95300
H  43.01800 15.09500 26.73700
H  45.77700 18.28100 33.93800
H  48.71100 18.53000 33.43000
H  46.59100 20.31600 33.84500
H  47.29100 20.66700 32.19200
H  48.22800 20.80700 33.71400
H  48.09600 16.30300 33.87500
H  46.45100 15.67600 34.18700
H  48.48300 16.78900 35.93800
H  46.97900 15.98400 36.32900
H  51.52800 19.56000 30.22500
H  51.43000 20.93800 29.22300
H  52.25100 19.43800 28.68300
H  52.01700 21.06800 26.49400
H  52.61300 20.12500 25.08100
H  52.65800 19.37600 26.55100
H  46.77700 16.44400 24.19500
H  43.83000 16.56600 24.75300
H  46.15400 18.96500 23.61000
H  44.47800 18.56600 23.78900
H  45.39800 17.65700 22.65800
H  45.23100 14.62300 23.44000
H  43.78400 14.44000 24.29100
H  46.47500 14.20400 25.62000
H  45.95400 13.02900 24.60500
H  45.00000 13.27100 26.11400
H  41.70800 13.26200 28.69800
H  41.01200 14.94200 28.31300
H  40.90800 14.12100 29.90800
H  44.16400 15.39000 33.67700
H  41.40000 18.03100 35.92100
H  42.77700 19.19700 35.52300
H  42.85200 18.26600 36.88400

