158

Mg -2.18700 35.14500 26.19600
C  -3.62700 33.41900 28.90400
C  -1.03600 37.58300 28.53900
C  -1.30100 37.24000 23.77300
C  -4.25600 33.39800 23.96500
N  -2.22600 35.45100 28.45100
C  -2.85300 34.56900 29.34000
C  -2.67100 35.05700 30.74900
C  -1.91100 36.43400 30.59100
C  -1.72700 36.56900 29.13700
C  -2.62500 37.64000 31.28700
C  -1.95800 33.91800 31.67100
C  -2.70700 33.43900 32.95400
H  -1.97200 33.39500 34.31500
N  -1.14500 36.96100 26.18000
C  -0.68100 37.73900 27.17400
C  0.27600 38.76000 26.69900
C  0.24500 38.68200 25.27300
C  -0.77600 37.62700 25.02200
C  0.94700 39.78900 27.65900
C  1.11100 39.37600 24.33600
O  0.93600 39.35000 23.13600
C  2.36600 40.15900 24.77100
N  -2.95900 35.37000 24.26300
C  -2.14100 36.16300 23.43300
C  -2.48900 35.92200 21.92300
C  -3.26600 34.56200 21.96300
C  -3.54800 34.41600 23.45900
C  -3.20800 37.16000 21.24900
C  -2.64000 33.36200 21.23400
C  -1.51000 32.56500 21.99800
N  -3.61600 33.61600 26.35400
C  -4.36700 32.95600 25.34500
C  -5.12200 31.89400 25.96500
C  -4.90000 32.03400 27.36000
C  -3.94900 33.09500 27.53500
C  -6.04300 30.91400 25.25300
C  -5.26600 31.59200 28.62500
O  -6.00400 30.69200 28.96200
C  -4.49900 32.45500 29.62400
C  -5.55400 33.21700 30.34300
O  -6.09100 34.28900 30.04200
O  -5.88800 32.52800 31.50800
C  -7.09700 32.95700 32.20100
H  -0.76700 38.31800 29.30000
H  -1.07700 37.69200 22.80400
H  -4.61300 32.68100 23.22400
H  -3.64100 35.23100 31.21400
H  -0.94400 36.47600 31.09200
H  -3.16100 38.16600 30.49700
H  -2.02600 38.41300 31.76800
H  -3.33600 37.26000 32.02100
H  -1.01100 34.40000 31.91500
H  -1.69200 33.04600 31.07300
H  -3.04600 32.41200 32.81800
H  -3.66100 33.96000 33.04500
H  0.28200 39.83100 28.52200
H  0.92500 40.74800 27.14200
H  1.93500 39.39800 27.90300
H  2.81100 39.43300 25.45200
H  2.08100 41.01100 25.38900
H  3.05000 40.47900 23.98600
H  -1.47900 35.79000 21.53600
H  -4.24500 34.75500 21.52500
H  -2.47800 37.95300 21.08600
H  -3.93300 37.60000 21.93300
H  -3.57400 37.00600 20.23300
H  -2.06400 33.73500 20.38700
H  -3.41600 32.72300 20.81500
H  -1.58300 32.72100 23.07400
H  -0.53200 32.86400 21.61900
H  -1.67200 31.51600 21.75000
H  -6.15100 31.25000 24.22100
H  -7.05100 30.88800 25.66400
H  -5.72100 29.90200 25.49800
H  -3.86100 31.85600 30.27500
H  -7.92000 33.00100 31.48800
H  -6.99300 33.86300 32.79900
H  -7.39800 32.12600 32.83900
Mg -12.00500 16.45300 41.30200
C  -8.81000 15.12100 40.93500
C  -11.04000 19.37300 39.81700
C  -15.25400 17.40300 41.34900
C  -13.11400 13.23600 42.44000
N  -10.17300 17.06800 40.29400
C  -8.93600 16.42100 40.30800
C  -7.83000 17.22200 39.62400
C  -8.54500 18.62100 39.26200
C  -10.03100 18.33000 39.78600
C  -7.93300 19.87000 39.84500
C  -7.04200 16.48300 38.48500
C  -6.03700 17.33600 37.69600
H  -6.06700 17.27100 36.15200
N  -13.04700 18.17900 40.70300
C  -12.45400 19.31100 40.23400
C  -13.42900 20.39600 40.25100
C  -14.58800 19.82500 40.82500
C  -14.34500 18.44000 41.05800
C  -13.13400 21.86500 39.87300
C  -15.83000 20.62300 41.24200
O  -15.98000 21.84500 40.96400
C  -16.94300 19.95600 42.03100
N  -13.91900 15.33400 41.75900
C  -15.10300 15.99000 41.62800
C  -16.33400 15.18700 42.03200
C  -15.59100 13.87200 42.56100
C  -14.10200 14.14000 42.26200
C  -17.32000 15.80000 43.03800
C  -16.10300 12.54600 41.81300
C  -16.04900 11.23000 42.63300
N  -11.19300 14.50600 41.57700
C  -11.68800 13.33600 42.16900
C  -10.65900 12.40000 42.34600
C  -9.55100 13.01600 41.83200
C  -9.88900 14.28100 41.34000
C  -10.76400 10.95500 42.86500
C  -8.14400 12.95900 41.63800
O  -7.38500 12.02600 41.86600
C  -7.63500 14.24600 41.03300
C  -6.65500 14.77400 41.99700
O  -6.89900 15.54700 42.91600
O  -5.37400 14.21300 41.76200
C  -4.43900 14.59600 42.81900
H  -10.76900 20.35700 39.42900
H  -16.32100 17.63300 41.36700
H  -13.46200 12.26200 42.79000
H  -7.07900 17.33600 40.40700
H  -8.55700 18.72600 38.17700
H  -8.56100 20.30200 40.62400
H  -7.83400 20.56600 39.01200
H  -6.97000 19.67200 40.31500
H  -7.72400 15.83100 37.94000
H  -6.42200 15.74400 38.99300
H  -5.08600 16.98600 38.09800
H  -6.15900 18.34800 38.08300
H  -13.66300 22.31100 39.03000
H  -12.08300 21.99300 39.61400
H  -13.32300 22.46700 40.76200
H  -17.56400 20.79200 42.35000
H  -16.51600 19.53600 42.94200
H  -17.45600 19.32300 41.30700
H  -16.80200 15.01000 41.06400
H  -15.68600 13.72100 43.63700
H  -17.87700 14.86600 43.11500
H  -17.81500 16.69800 42.66900
H  -16.70000 16.07100 43.89300
H  -15.54600 12.43600 40.88300
H  -17.13000 12.79200 41.54400
H  -17.09500 10.97700 42.80700
H  -15.54200 11.39600 43.58400
H  -15.63800 10.43200 42.01400
H  -11.71800 10.53800 42.54500
H  -10.68200 11.05500 43.94800
H  -9.96800 10.33700 42.45000
H  -7.11000 14.02500 40.10400
H  -4.14200 15.63400 42.66800
H  -3.52900 13.99900 42.75700
H  -4.73800 14.54300 43.86500

