158

Mg 53.82900 24.51200 45.07500
C  51.14200 26.33200 43.94100
C  52.52000 21.64000 43.78000
C  56.71600 22.91600 45.57300
C  55.08000 27.31700 46.74100
N  52.14400 24.09400 43.82500
C  51.05400 24.95900 43.58300
C  50.06800 24.29500 42.68000
C  50.27700 22.81400 43.17200
C  51.74100 22.82600 43.65200
C  49.25300 22.42300 44.32700
C  50.43000 24.70000 41.29900
C  49.32000 24.98000 40.32300
H  49.76000 25.53100 38.96700
N  54.54200 22.55600 44.56700
C  53.86200 21.50100 44.08300
C  54.66000 20.36200 43.83900
C  55.94500 20.72400 44.39900
C  55.77000 22.15700 44.85400
C  54.15900 19.06700 43.26200
C  57.16800 19.81300 44.45700
O  57.01400 18.65100 44.04600
C  58.47600 20.18400 45.12900
N  55.75100 25.06800 45.96900
C  56.68900 24.19000 46.13100
C  57.91800 24.83700 46.63900
C  57.39400 26.26900 47.16100
C  55.98900 26.25600 46.62600
C  58.68200 24.13100 47.70400
C  58.19600 27.50600 46.62900
C  58.26900 28.75500 47.55300
N  53.33900 26.49700 45.25100
C  53.78900 27.49800 46.08200
C  52.80600 28.62600 46.11600
C  51.79500 28.22500 45.19300
C  52.18600 26.96400 44.71400
C  52.88400 29.85900 46.91200
C  50.57300 28.65600 44.67900
O  49.95100 29.77800 44.73600
C  50.03600 27.41600 43.83800
C  49.69100 27.86000 42.45200
O  50.49200 28.16600 41.58200
O  48.35000 27.78100 42.22600
C  47.73600 28.34400 41.07000
H  51.94400 20.78900 43.41100
H  57.65700 22.36800 45.48900
H  55.46000 28.14400 47.34500
H  49.07500 24.66300 42.94000
H  50.13500 22.24800 42.25200
H  48.70300 21.50200 44.13100
H  48.55100 23.21900 44.57200
H  49.75900 22.26400 45.27900
H  51.16200 23.98900 40.91500
H  50.96100 25.64900 41.37200
H  48.70300 25.71800 40.83500
H  48.78500 24.05200 40.12300
H  53.07500 19.08800 43.14300
H  54.27000 18.17300 43.87500
H  54.61100 18.81500 42.30300
H  58.48200 20.37000 46.20300
H  58.90500 21.02700 44.58800
H  59.17600 19.35900 44.99700
H  58.58500 24.93400 45.78300
H  57.44200 26.37200 48.24500
H  59.04900 23.17300 47.33700
H  57.99600 23.99000 48.53900
H  59.49500 24.82000 47.93300
H  57.73200 27.81800 45.69300
H  59.22300 27.15300 46.54200
H  57.79700 29.61500 47.07900
H  59.28400 29.14800 47.49000
H  57.93600 28.53200 48.56700
H  53.53600 29.74100 47.77700
H  51.89400 30.05200 47.32500
H  53.21300 30.73600 46.35400
H  49.15200 27.10000 44.39100
H  48.41700 28.34100 40.21900
H  47.36600 29.32100 41.38100
H  46.89600 27.70800 40.79100
Mg 0.16100 43.32300 26.96900
C  2.70200 43.17900 29.07000
C  -2.08100 42.66900 29.39700
C  -2.37100 43.33100 24.54100
C  2.38600 44.05800 24.34900
N  0.28300 42.90100 29.04900
C  1.44000 42.95500 29.74700
C  1.16900 42.89800 31.25100
C  -0.24900 42.21100 31.30800
C  -0.77500 42.68800 29.86300
C  -0.23500 40.66300 31.58500
C  1.51500 44.34300 31.95400
C  1.87600 44.44800 33.43400
H  1.64500 43.25400 34.32400
N  -2.01800 43.17800 27.01100
C  -2.67700 42.91400 28.12100
C  -4.10200 42.70500 27.76400
C  -4.18200 42.70600 26.30200
C  -2.82000 43.06400 25.87500
C  -5.19100 42.43400 28.80100
C  -5.22700 42.41000 25.32900
O  -5.04400 42.39100 24.10300
C  -6.65900 42.07800 25.86200
N  -0.02000 43.74500 24.86900
C  -1.11500 43.55200 24.09600
C  -0.80900 43.64600 22.61100
C  0.62600 44.20500 22.58000
C  1.01500 44.05100 24.00000
C  -1.09900 42.32100 21.75500
C  0.77900 45.72500 22.11700
C  0.03100 46.13200 20.86100
N  2.12900 43.44200 26.68500
C  2.91200 43.76100 25.61000
C  4.33100 43.75400 25.99600
C  4.27300 43.43300 27.35800
C  2.92400 43.33400 27.72600
C  5.48300 44.07900 25.07700
C  5.13200 43.31300 28.53700
O  6.35800 43.21900 28.70600
C  4.10200 43.36400 29.66300
C  4.32700 42.20800 30.46100
O  4.51800 41.02600 30.16700
O  4.45800 42.65600 31.73600
C  5.05900 41.65000 32.67700
H  -2.71900 42.31500 30.21000
H  -2.99400 43.15500 23.66100
H  3.11700 44.32300 23.58200
H  1.93200 42.25700 31.69400
H  -0.86200 42.57300 32.13300
H  -1.17200 40.29800 31.16500
H  -0.12900 40.46200 32.65100
H  0.63700 40.20900 31.11600
H  0.75800 45.09400 31.72800
H  2.37000 44.69700 31.37900
H  1.37000 45.36200 33.74600
H  2.94400 44.66300 33.47500
H  -6.11700 43.00400 28.72300
H  -4.73800 42.54300 29.78700
H  -5.44100 41.38500 28.64500
H  -7.29300 41.79600 25.02100
H  -7.02400 42.93800 26.42400
H  -6.61600 41.18600 26.48700
H  -1.39700 44.45000 22.16900
H  1.23800 43.58900 21.92100
H  -1.44000 41.58200 22.48000
H  -0.11500 42.01000 21.40400
H  -1.79600 42.48200 20.93300
H  1.83300 45.80100 21.85000
H  0.52900 46.37000 22.95900
H  0.06600 45.16300 20.36300
H  0.45000 46.98500 20.32800
H  -0.99600 46.36100 21.14500
H  5.17200 43.96000 24.03900
H  6.31700 43.39700 25.24200
H  5.90200 45.07700 25.20200
H  4.09000 44.28200 30.25100
H  6.14000 41.70300 32.54800
H  4.81800 40.58700 32.67800
H  4.82000 41.96100 33.69300

