158

Mg 31.26900 58.35800 38.99300
C  28.41100 56.51300 38.13600
C  33.18000 55.61400 38.27500
C  33.87100 60.37300 39.25000
C  29.16200 61.20400 39.20600
N  30.81400 56.32300 38.09600
C  29.60900 55.80900 37.88600
C  29.71700 54.31000 37.57800
C  31.25900 54.04000 37.60300
C  31.84300 55.41000 37.96200
C  31.75400 52.85900 38.50500
C  28.97400 53.84900 36.24900
C  29.38300 54.61000 34.97900
H  28.33700 55.24200 34.08300
N  33.30200 57.97600 38.91600
C  33.87600 56.78100 38.66600
C  35.25400 56.90300 38.66200
C  35.55200 58.28400 38.80600
C  34.22700 58.98500 39.06400
C  36.11600 55.66400 38.46500
C  37.00800 58.86100 38.70400
O  37.96300 58.11000 38.53600
C  37.23500 60.36200 38.74200
N  31.46200 60.46200 39.19900
C  32.68000 60.95900 39.47300
C  32.64100 62.50600 39.59900
C  31.06200 62.75500 39.87000
C  30.50400 61.42800 39.36600
C  33.49100 63.08900 40.79300
C  30.56900 64.09900 39.11600
C  29.76900 65.02400 39.96800
N  29.21700 58.82700 38.78800
C  28.51800 59.96000 38.92500
C  27.07600 59.74700 38.79800
C  27.02300 58.39200 38.54600
C  28.29200 57.84900 38.53200
C  25.94900 60.75500 38.61500
C  26.09600 57.28400 38.17200
O  24.86100 57.35800 37.96300
C  26.93000 55.98100 37.97600
C  26.44900 54.99900 38.97300
O  26.58500 55.07900 40.20900
O  25.74800 54.01000 38.31600
C  24.78600 53.29200 39.11300
H  33.81000 54.75600 38.03100
H  34.67600 61.11100 39.27300
H  28.49800 62.07100 39.20800
H  29.29800 53.79200 38.44000
H  31.62600 53.74500 36.62000
H  30.88300 52.42400 38.99500
H  32.38600 53.16600 39.33800
H  32.21600 52.12900 37.84000
H  27.92200 54.01400 36.48200
H  29.11900 52.77000 36.21100
H  29.90300 53.86000 34.38300
H  29.96300 55.49100 35.25300
H  36.53600 55.75000 37.46200
H  35.62900 54.69600 38.57800
H  36.95000 55.64900 39.16600
H  37.02800 60.86600 39.68600
H  36.70600 60.90900 37.96200
H  38.21400 60.56500 38.30800
H  33.07700 62.80300 38.64500
H  30.90700 62.89800 40.94000
H  34.18500 63.87200 40.48600
H  34.02100 62.32500 41.36200
H  32.88800 63.53000 41.58700
H  29.87800 63.81700 38.32200
H  31.44700 64.58100 38.68600
H  30.33100 65.93200 40.18500
H  29.59500 64.55300 40.93600
H  28.79800 65.29800 39.55500
H  24.97600 60.26600 38.56900
H  26.06800 61.35500 37.71300
H  25.93900 61.53600 39.37500
H  26.67700 55.63100 36.97500
H  25.29400 52.81300 39.95000
H  24.27200 52.54100 38.51300
H  24.08800 53.89000 39.69800
Mg -10.17400 16.05000 41.45500
C  -6.79800 15.00600 41.44500
C  -9.16400 19.05500 40.21300
C  -13.36300 16.77000 40.80300
C  -11.01700 12.71300 42.08400
N  -8.21700 16.91500 40.87400
C  -7.03000 16.29600 40.98500
C  -5.86600 17.21300 40.45000
C  -6.57400 18.69400 40.60000
C  -8.08000 18.23200 40.55900
C  -6.16200 19.48800 41.87000
C  -5.57100 16.91200 38.97300
C  -4.10400 16.48400 38.61200
H  -3.90800 15.22500 37.74900
N  -11.11100 17.68600 40.52000
C  -10.56200 18.84000 40.21000
C  -11.49700 19.80700 39.71900
C  -12.78000 19.23400 39.94000
C  -12.46700 17.83200 40.36600
C  -11.24100 21.14000 39.17400
C  -14.15400 19.86200 39.66600
O  -14.27900 20.91000 39.05100
C  -15.41700 19.11400 39.98800
N  -11.84000 14.83000 41.30200
C  -13.06800 15.48700 41.26200
C  -14.21800 14.44100 41.48500
C  -13.48000 13.12100 41.57800
C  -12.02400 13.58800 41.67700
C  -15.08600 14.77600 42.73100
C  -13.61700 12.14800 40.38500
C  -14.17000 10.72900 40.71500
N  -9.15800 14.23200 42.01500
C  -9.63300 12.96600 42.18200
C  -8.61200 12.02800 42.52400
C  -7.45600 12.75500 42.16100
C  -7.81700 14.06800 41.82200
C  -8.66200 10.61300 42.99800
C  -5.94400 12.70600 41.94900
O  -5.19600 11.75900 42.12000
C  -5.57700 14.16600 41.46200
C  -4.47000 14.63800 42.26300
O  -3.41800 15.00100 41.78900
O  -4.66000 14.41800 43.64100
C  -3.39400 14.56300 44.43300
H  -8.89900 20.10900 40.10700
H  -14.45300 16.80400 40.86400
H  -11.25200 11.68700 42.37300
H  -4.94400 17.07800 41.01500
H  -6.36100 19.21800 39.66900
H  -7.04600 19.35000 42.49300
H  -6.11500 20.56700 41.72000
H  -5.26500 19.21000 42.42400
H  -5.74700 17.80200 38.36900
H  -6.29600 16.16000 38.66000
H  -3.50100 16.21400 39.47900
H  -3.66700 17.34000 38.09800
H  -10.99100 21.08800 38.11400
H  -10.41900 21.60100 39.72200
H  -12.06300 21.83800 39.32900
H  -15.39300 18.30600 39.25600
H  -16.23400 19.74000 39.63100
H  -15.41000 18.70500 40.99800
H  -14.79700 14.54100 40.56700
H  -13.63500 12.61400 42.53000
H  -16.12800 14.85300 42.41700
H  -14.80700 15.66100 43.30300
H  -15.15000 13.92000 43.40200
H  -12.74800 12.22000 39.73200
H  -14.37300 12.56800 39.72200
H  -15.15800 10.59400 40.27600
H  -14.35400 10.48800 41.76200
H  -13.52900 9.97700 40.25300
H  -8.77400 10.60200 44.08200
H  -7.79700 10.00700 42.72800
H  -9.54300 10.13600 42.56900
H  -5.22100 14.02100 40.44200
H  -2.57600 14.05100 43.92500
H  -3.54000 14.06100 45.39000
H  -3.16300 15.57400 44.76700

