158

Mg 26.23300 50.83900 26.52100
C  23.81100 51.97400 28.92000
C  28.34500 50.19600 29.13300
C  28.57900 50.01400 24.30900
C  24.15300 52.01700 24.00300
N  26.02300 51.01500 28.72500
C  24.92700 51.41600 29.48300
C  25.29000 51.40400 30.99000
C  26.74000 50.83200 31.00400
C  27.08600 50.71200 29.52700
C  27.78500 51.52700 31.83900
C  24.29300 50.68800 31.88400
C  24.21800 51.21700 33.24800
H  23.90100 50.25700 34.39300
N  28.17900 50.15000 26.70300
C  28.94700 50.00800 27.84200
C  30.23200 49.52200 27.51900
C  30.32900 49.47100 26.07500
C  29.03000 49.91100 25.62300
C  31.21300 48.89700 28.53100
C  31.49800 48.90200 25.07600
O  31.43100 48.80100 23.86100
C  32.78100 48.68400 25.66000
N  26.29200 50.92400 24.40000
C  27.33800 50.38700 23.71100
C  27.10500 50.71300 22.22600
C  25.68600 51.38600 22.07700
C  25.32500 51.48100 23.56500
C  28.27600 51.45500 21.59000
C  24.58600 50.72300 21.20000
C  24.10100 51.49900 19.99400
N  24.44200 51.83200 26.38000
C  23.71300 52.19200 25.29700
C  22.51300 52.88300 25.78200
C  22.53700 52.87400 27.18500
C  23.71200 52.16200 27.51100
C  21.44400 53.46400 24.93900
C  21.79200 53.06300 28.45500
O  20.68600 53.62800 28.64600
C  22.66700 52.68400 29.58500
C  22.98000 53.93600 30.39700
O  23.67200 54.86500 30.02400
O  22.38500 53.84300 31.67700
C  22.60500 54.86000 32.65000
H  28.98500 49.84200 29.94400
H  29.25200 49.61700 23.54700
H  23.47900 52.44200 23.25600
H  25.36200 52.43900 31.32500
H  26.71300 49.82700 31.42500
H  27.99700 52.53000 31.46900
H  28.66500 50.90300 31.99400
H  27.24000 51.61900 32.77800
H  24.50600 49.62100 31.94700
H  23.26200 50.75300 31.53500
H  23.37200 51.89800 33.33800
H  25.02500 51.88300 33.55600
H  30.93100 49.22300 29.53200
H  32.28100 49.11100 28.48300
H  31.21500 47.80900 28.59800
H  32.83600 49.55800 26.30800
H  33.59600 48.57600 24.94400
H  32.77700 47.74700 26.21700
H  27.03900 49.70600 21.81400
H  25.83400 52.40000 21.70500
H  28.88700 50.87600 20.89800
H  28.85500 51.85700 22.42200
H  27.91600 52.32800 21.04500
H  23.75800 50.44500 21.85300
H  24.95700 49.80100 20.75200
H  24.40200 51.09000 19.03000
H  24.45100 52.52900 20.06000
H  23.01400 51.50900 20.07200
H  21.87200 53.97700 24.07800
H  20.90200 54.11200 25.62700
H  20.83700 52.69500 24.46000
H  22.01900 51.97500 30.10000
H  22.77800 55.80500 32.13500
H  23.36400 54.56000 33.37300
H  21.65800 55.06400 33.15100
Mg -9.50800 39.94900 41.81700
C  -8.58800 36.72800 40.94200
C  -6.48400 41.04100 40.52700
C  -10.57100 43.02500 42.21100
C  -12.65500 38.73100 42.71000
N  -7.77100 39.00500 40.94700
C  -7.65600 37.71700 40.58500
C  -6.32200 37.39700 39.93100
C  -5.57500 38.72700 40.15500
C  -6.66900 39.64400 40.59300
C  -4.33800 38.68300 41.14200
C  -6.32200 36.83700 38.46000
C  -5.16400 35.98300 38.02800
H  -4.29200 36.48600 36.85100
N  -8.66000 41.75900 41.42300
C  -7.41600 42.03900 40.97600
C  -7.18200 43.44300 40.80100
C  -8.30400 44.08200 41.39800
C  -9.25000 42.94100 41.72900
C  -5.93700 44.11400 40.24100
C  -8.49900 45.58800 41.64600
O  -7.56200 46.37900 41.43900
C  -9.91400 46.16300 41.85800
N  -11.42500 40.76800 42.24500
C  -11.58200 42.09800 42.47900
C  -13.06400 42.44800 42.91500
C  -13.67900 41.00000 43.10200
C  -12.54700 40.09600 42.59900
C  -13.07300 43.50400 44.07000
C  -15.01800 40.73200 42.28900
C  -16.24700 40.29800 43.14100
N  -10.42700 38.14100 41.97000
C  -11.68900 37.82100 42.33200
C  -11.76800 36.33200 42.43900
C  -10.58700 35.90400 41.93200
C  -9.82300 37.08400 41.56700
C  -12.96900 35.51400 42.71600
C  -9.75200 34.70800 41.54600
O  -9.99200 33.50700 41.73900
C  -8.38800 35.22400 40.94500
C  -7.27600 34.78100 41.84400
O  -7.07900 35.13500 42.99600
O  -6.48700 33.87400 41.19400
C  -5.38400 33.48000 42.07800
H  -5.49600 41.42500 40.26700
H  -10.92700 44.02600 42.46400
H  -13.67100 38.41500 42.95500
H  -5.94000 36.62300 40.59700
H  -5.04400 39.08100 39.27200
H  -4.16500 37.64000 41.40600
H  -4.45700 39.22100 42.08300
H  -3.44000 39.01100 40.61800
H  -6.39500 37.63900 37.72600
H  -7.29000 36.34400 38.37500
H  -5.55200 34.98000 37.84600
H  -4.41400 35.89600 38.81400
H  -5.36600 43.37900 39.67400
H  -5.32200 44.46100 41.07100
H  -6.19200 44.93500 39.57200
H  -10.54000 45.81200 41.03800
H  -9.83300 47.24900 41.79700
H  -10.30000 45.90400 42.84400
H  -13.62500 42.92000 42.10800
H  -13.89200 40.85800 44.16200
H  -12.14500 44.06300 44.18900
H  -13.41600 43.03900 44.99400
H  -13.80700 44.28400 43.86700
H  -14.94600 39.92600 41.55900
H  -15.14500 41.63100 41.68600
H  -17.19400 40.27300 42.60200
H  -16.33600 41.03300 43.94100
H  -16.04500 39.28400 43.48600
H  -13.58900 35.81700 43.55900
H  -12.80400 34.46300 42.95300
H  -13.68700 35.49100 41.89600
H  -8.24200 34.81900 39.94400
H  -4.88900 34.32600 42.55500
H  -4.70500 32.94900 41.41200
H  -5.71200 32.76300 42.83100

