158

Mg 0.96500 8.35900 24.15400
C  1.46700 10.00800 27.23600
C  0.97200 5.41800 25.93000
C  0.99000 6.64800 21.25400
C  1.37900 11.28800 22.57000
N  1.13700 7.83500 26.38200
C  1.15200 8.63900 27.36700
C  1.14600 7.82400 28.73400
C  1.02700 6.31600 28.28500
C  1.06400 6.51900 26.78800
C  2.05000 5.27900 28.80600
C  0.16300 8.33300 29.89200
C  0.87400 8.71900 31.23700
H  2.09400 7.86700 31.64700
N  0.91400 6.33900 23.65100
C  0.92200 5.28400 24.49200
C  0.87500 3.99800 23.81600
C  0.84400 4.33200 22.41700
C  0.86000 5.82000 22.40000
C  0.71100 2.63500 24.54800
C  0.63400 3.44500 21.16100
O  0.55300 3.86200 20.02300
C  0.74800 2.00200 21.39500
N  1.09200 8.89100 22.14700
C  1.07800 8.03400 21.12300
C  1.23000 8.78900 19.74600
C  1.09300 10.23800 20.22100
C  1.18100 10.19900 21.75900
C  2.55400 8.45400 18.97900
C  -0.24700 10.99900 19.85100
C  -0.05500 12.43000 19.30700
N  1.30000 10.31200 24.78500
C  1.49700 11.39000 23.97000
C  1.89400 12.53600 24.75400
C  1.80400 12.04700 26.03000
C  1.43100 10.68100 25.99800
C  2.29800 13.92300 24.47500
C  1.99500 12.43300 27.44200
O  2.34300 13.46900 28.00600
C  1.69400 11.12400 28.22500
C  2.85100 10.90300 29.16100
O  3.91600 10.32300 28.96400
O  2.63100 11.55300 30.33200
C  3.56800 11.33400 31.49700
H  0.92100 4.52900 26.56200
H  1.14800 6.23800 20.25500
H  1.44200 12.27100 22.09900
H  2.10100 8.06600 29.20100
H  0.04300 6.00800 28.63800
H  2.63200 5.66200 29.64400
H  2.74200 5.01800 28.00600
H  1.47900 4.43300 29.18900
H  -0.61600 7.59700 30.09200
H  -0.37200 9.21900 29.55100
H  0.10700 8.62300 32.00500
H  1.15500 9.76800 31.13900
H  0.68600 2.73600 25.63300
H  1.54900 1.96400 24.35900
H  -0.17800 2.08100 24.24800
H  -0.20700 1.60200 21.73500
H  1.48600 1.73400 22.15100
H  0.94500 1.48600 20.45500
H  0.36600 8.44200 19.17900
H  1.99000 10.82000 20.01000
H  3.41000 8.73100 19.59400
H  2.52500 8.98100 18.02600
H  2.74200 7.40200 18.76700
H  -0.91200 11.09100 20.71000
H  -0.79600 10.49300 19.05800
H  -0.69100 12.63800 18.44600
H  0.93900 12.74400 18.99000
H  -0.37800 13.08500 20.11700
H  3.33100 14.06400 24.15600
H  2.04700 14.51000 25.35900
H  1.71200 14.17200 23.59000
H  0.78400 11.30000 28.80000
H  4.04600 12.31100 31.56500
H  4.28400 10.52800 31.34000
H  3.00500 11.05600 32.38800
Mg 46.93500 34.17900 27.25100
C  45.36100 32.58500 29.96200
C  46.96900 37.14900 29.01500
C  47.72900 35.78100 24.46400
C  45.93800 31.38800 25.28300
N  46.20000 34.74400 29.29100
C  45.87000 33.89700 30.32000
C  46.07400 34.55700 31.64700
C  46.16600 36.11400 31.26800
C  46.45700 36.03300 29.75400
C  44.85500 36.93300 31.62400
C  47.32500 33.99400 32.39200
C  47.37100 34.13000 33.91000
H  46.54900 35.26900 34.63300
N  47.39800 36.18200 26.84100
C  47.41500 37.24700 27.66700
C  47.90800 38.45900 27.01000
C  48.27100 38.06100 25.71300
C  47.86000 36.60900 25.62400
C  48.01300 39.75400 27.77100
C  48.77400 38.87800 24.54100
O  49.10500 38.44500 23.51100
C  48.91700 40.38400 24.77800
N  46.77900 33.68000 25.21400
C  47.26300 34.51300 24.23400
C  47.26800 33.90800 22.83100
C  46.86400 32.48100 23.19000
C  46.48400 32.53700 24.63500
C  46.40000 34.47200 21.63300
C  47.91100 31.45100 22.83200
C  47.55500 30.83200 21.52200
N  46.03500 32.26000 27.56100
C  45.63800 31.29500 26.64700
C  45.15900 30.15600 27.39500
C  45.01500 30.63800 28.69600
C  45.47100 31.95600 28.73000
C  44.80700 28.77600 26.86500
C  44.56400 30.27300 29.94200
O  44.26300 29.18400 30.40500
C  44.51300 31.56000 30.84100
C  44.79400 31.53100 32.29400
O  45.75200 30.98100 32.80800
O  43.80800 32.10300 33.01500
C  43.94800 32.01800 34.47800
H  46.98000 38.02700 29.66400
H  47.90600 36.34300 23.54500
H  45.58100 30.52700 24.71500
H  45.21600 34.39500 32.30100
H  47.05700 36.52500 31.74300
H  43.99600 36.35200 31.96300
H  44.47900 37.45900 30.74600
H  45.07800 37.66500 32.39900
H  48.28600 34.41600 32.10000
H  47.22000 32.95000 32.09600
H  48.37600 34.29200 34.30100
H  46.97700 33.14800 34.17300
H  49.08800 39.91300 27.68900
H  47.78000 39.74500 28.83600
H  47.34100 40.44700 27.26500
H  49.24600 40.66100 23.77600
H  49.77200 40.56000 25.43100
H  47.93500 40.81200 24.97800
H  48.31700 33.89600 22.53600
H  45.87700 32.35400 22.74400
H  45.86100 33.71300 21.06500
H  47.13200 35.02300 21.04400
H  45.71300 35.27900 21.88700
H  48.00300 30.67500 23.59200
H  48.87900 31.92500 22.66700
H  47.34200 31.59700 20.77600
H  46.64900 30.22600 21.54200
H  48.37300 30.26600 21.07500
H  45.62400 28.08200 26.66700
H  44.23800 29.03100 25.97000
H  44.11500 28.37500 27.60600
H  43.48600 31.92500 30.83000
H  44.69100 32.76300 34.76300
H  44.36400 31.04600 34.74000
H  42.99400 32.23000 34.96200

