158

Mg 49.95900 45.29000 42.66100
C  46.79800 45.95200 41.58600
C  49.86000 42.29300 41.03200
C  53.17600 45.08700 43.04700
C  50.29900 48.95200 43.15600
N  48.45600 44.24300 41.48400
C  47.22700 44.69600 41.21900
C  46.37200 43.66700 40.41900
C  47.32100 42.39800 40.53400
C  48.66700 42.95000 41.04700
C  46.85900 41.17900 41.39000
C  46.09200 44.14500 39.00700
C  44.56700 44.04700 38.51100
H  44.25600 43.62800 37.01200
N  51.24100 43.80200 42.31000
C  51.09100 42.63900 41.61500
C  52.27700 41.89700 41.68500
C  53.27700 42.64400 42.38000
C  52.59900 43.91000 42.61000
C  52.38900 40.47800 41.10500
C  54.72500 42.21800 42.66800
O  55.03600 41.01200 42.42700
C  55.79500 43.19100 43.13300
N  51.56400 46.87800 43.02700
C  52.78900 46.38300 43.26900
C  53.75700 47.59500 43.37600
C  52.81200 48.81100 43.73700
C  51.50200 48.21000 43.28300
C  55.05600 47.45500 44.18400
C  53.10400 50.23600 43.08000
C  52.93400 51.43500 43.92600
N  48.72300 47.12700 42.58000
C  49.01900 48.50800 42.72600
C  47.76200 49.22300 42.64800
C  46.80700 48.26400 42.18800
C  47.51200 47.02700 42.17300
C  47.69100 50.63000 43.15300
C  45.43000 48.17200 41.92100
O  44.47700 48.94800 41.92100
C  45.38300 46.61600 41.51000
C  44.35000 45.86600 42.30300
O  44.49800 45.60200 43.46100
O  43.28900 45.50800 41.49800
C  42.21600 44.85200 42.24800
H  49.84600 41.27500 40.63600
H  54.25000 45.03200 43.23600
H  50.32500 49.99100 43.49100
H  45.49400 43.52400 41.04800
H  47.49900 42.06700 39.51100
H  45.77700 41.18200 41.52100
H  47.30900 41.46800 42.34000
H  47.34700 40.22600 41.18200
H  46.63500 43.59700 38.23800
H  46.42900 45.18200 39.00800
H  44.19600 45.07100 38.55300
H  44.05600 43.48900 39.29600
H  53.01800 40.44300 40.21600
H  51.44900 39.98200 40.86100
H  52.82400 39.88800 41.91200
H  55.68300 44.05700 42.48200
H  56.68200 42.56900 43.01000
H  55.81600 43.48100 44.18300
H  54.11900 47.58400 42.34800
H  52.85300 48.86200 44.82500
H  55.84300 47.16100 43.49000
H  54.81400 46.81200 45.03000
H  55.32700 48.44100 44.56200
H  52.39900 50.32900 42.25300
H  54.11400 50.26700 42.67100
H  52.44100 52.24200 43.38300
H  53.93300 51.77400 44.19900
H  52.30800 51.19400 44.78500
H  48.08700 50.60700 44.16800
H  46.64200 50.90900 43.24300
H  48.30600 51.35300 42.61700
H  44.97600 46.76800 40.51000
H  41.25400 44.83900 41.73600
H  42.06700 45.34200 43.20900
H  42.58400 43.82600 42.27400
Mg 17.58400 52.25100 26.26200
C  19.63500 50.65200 28.44700
C  15.29800 52.71400 28.84300
C  15.43100 53.50200 24.06700
C  19.57700 51.00800 23.68400
N  17.57700 51.90600 28.34500
C  18.52200 51.21100 29.12300
C  18.17800 51.22900 30.59700
C  16.58600 51.38700 30.40300
C  16.52600 52.15200 29.15100
C  15.81900 50.00100 30.48900
C  18.84700 52.42800 31.25900
C  18.85200 52.40800 32.82600
H  17.90700 51.51000 33.67400
N  15.62000 53.11700 26.47200
C  14.85900 53.22200 27.60300
C  13.66000 54.02300 27.24700
C  13.70700 54.28400 25.83400
C  14.89700 53.57300 25.33900
C  12.66700 54.51200 28.30200
C  12.73300 55.06800 24.96500
O  12.95000 55.18600 23.80400
C  11.42800 55.45700 25.64000
N  17.68200 52.43100 24.14600
C  16.56300 52.91300 23.48200
C  16.78900 52.79300 21.93600
C  18.16800 52.13400 21.87200
C  18.52400 51.83100 23.31700
C  15.66000 52.01200 21.25300
C  19.27600 52.96000 21.08200
C  20.53500 53.55700 21.69700
N  19.28700 51.11500 26.08000
C  19.88600 50.63900 25.02400
C  21.06600 49.85600 25.39100
C  20.93000 49.76100 26.75000
C  19.89900 50.64400 27.08000
C  21.94300 49.04700 24.48600
C  21.46600 49.14500 27.94700
O  22.38000 48.40800 28.16800
C  20.70000 49.84100 29.05400
C  20.27300 48.86000 30.04600
O  19.67300 47.82100 29.80200
O  20.78500 49.09100 31.28700
C  20.52500 48.12400 32.40700
H  14.66600 52.90400 29.71300
H  14.74700 53.81400 23.27500
H  20.20700 50.77900 22.82200
H  18.53100 50.30400 31.05200
H  16.28200 51.97800 31.26700
H  15.61600 49.80600 29.43600
H  15.01400 50.06400 31.22100
H  16.36400 49.07300 30.66300
H  18.33300 53.35800 31.01400
H  19.87500 52.47600 30.90100
H  18.60100 53.38900 33.23000
H  19.86600 52.15200 33.13500
H  13.03400 54.15400 29.26400
H  11.68500 54.07500 28.11900
H  12.57100 55.59700 28.26700
H  11.68800 56.13500 26.45300
H  10.87900 54.56600 25.94200
H  10.91800 56.00800 24.85000
H  16.81300 53.82300 21.58200
H  18.05700 51.14400 21.43100
H  15.82000 50.98100 20.93600
H  15.48500 52.57300 20.33400
H  14.68700 52.14800 21.72300
H  18.77300 53.83900 20.67800
H  19.47900 52.27900 20.25500
H  20.65900 54.55100 21.26500
H  21.38800 52.91500 21.47800
H  20.51300 53.56000 22.78600
H  22.98900 49.17900 24.76200
H  21.92200 49.38400 23.44900
H  21.63200 48.00700 24.58300
H  21.43800 50.49800 29.51600
H  20.65600 47.08700 32.09600
H  19.54400 48.35200 32.82400
H  21.35700 48.43200 33.04000

