158

Mg 24.37400 -5.60100 46.14700
C  26.56800 -3.27900 44.68600
C  21.96000 -4.48000 44.23800
C  22.89600 -8.42000 47.03400
C  27.35400 -6.84200 47.88900
N  24.38700 -4.25500 44.27800
C  25.37600 -3.32900 43.95700
C  24.76900 -2.28700 42.97600
C  23.27800 -2.50500 43.05000
C  23.18600 -3.83100 43.91800
C  22.37000 -1.42100 43.55600
C  25.39600 -2.42100 41.54800
C  25.38700 -1.13400 40.62900
H  24.39800 -1.14600 39.48000
N  22.68200 -6.26100 45.82700
C  21.76300 -5.68400 45.01500
C  20.57600 -6.57800 45.02200
C  20.78200 -7.70800 45.82300
C  22.18700 -7.54800 46.26900
C  19.30700 -6.10800 44.24300
C  19.81000 -8.75200 46.07300
O  18.70600 -8.64400 45.54100
C  20.07800 -9.94900 46.81300
N  25.07000 -7.36700 47.28800
C  24.19100 -8.39300 47.53700
C  24.88300 -9.58300 48.21900
C  26.11600 -8.89300 48.81600
C  26.25400 -7.67700 47.83300
C  23.97200 -10.28800 49.29100
C  27.39200 -9.73000 48.83700
C  28.31500 -9.56900 50.10000
N  26.57900 -5.08100 46.39000
C  27.58900 -5.65200 47.13300
C  28.77500 -4.86900 47.08100
C  28.39600 -3.83200 46.14200
C  27.05500 -4.09200 45.70600
C  30.02100 -5.26000 47.75200
C  28.89100 -2.78700 45.36100
O  30.02600 -2.34400 45.26900
C  27.77300 -2.41900 44.36900
C  27.43200 -0.99800 44.35400
O  26.71100 -0.43900 45.14900
O  27.95400 -0.33300 43.30300
C  27.65100 1.09700 43.21200
H  21.09900 -4.07500 43.70300
H  22.39400 -9.34100 47.33800
H  28.16300 -7.32600 48.44100
H  25.09800 -1.32800 43.37600
H  22.90700 -2.73500 42.05100
H  23.06400 -0.88800 44.20600
H  21.53700 -1.76400 44.17000
H  22.05300 -0.77500 42.73700
H  24.78700 -3.15500 41.02000
H  26.38600 -2.86400 41.65500
H  26.38700 -0.95200 40.23500
H  25.14500 -0.22900 41.18500
H  19.12000 -6.71100 43.35400
H  19.46800 -5.12000 43.81200
H  18.35600 -5.96300 44.75700
H  19.17800 -10.42900 47.19800
H  20.54600 -9.64900 47.75100
H  20.60700 -10.76000 46.31200
H  25.17200 -10.29400 47.44500
H  25.95700 -8.50000 49.82000
H  23.85000 -11.35300 49.09300
H  22.99500 -9.81200 49.37500
H  24.50800 -10.28100 50.24000
H  27.92300 -9.39100 47.94700
H  27.12000 -10.78300 48.76400
H  27.72300 -9.41400 51.00300
H  29.02400 -8.75900 49.93100
H  28.81400 -10.52300 50.27300
H  30.15800 -4.78700 48.72500
H  30.83800 -4.93100 47.10900
H  30.07700 -6.32900 47.95500
H  28.24000 -2.65200 43.41100
H  26.82600 1.20700 42.50700
H  28.50400 1.60800 42.76400
H  27.51900 1.60300 44.16800
Mg -2.66600 34.87500 26.90100
C  -4.32700 33.14200 29.52900
C  -1.81200 37.30000 29.02700
C  -1.20100 36.39000 24.24800
C  -4.26900 32.66900 24.64700
N  -3.09400 35.25800 29.07500
C  -3.67200 34.30500 29.94900
C  -3.33700 34.77400 31.34000
C  -2.74600 36.20200 31.21100
C  -2.51700 36.31900 29.69100
C  -3.73300 37.39300 31.60700
C  -2.47400 33.76200 32.07900
C  -3.27400 33.06400 33.26800
H  -2.28100 32.99000 34.59100
N  -1.57400 36.57200 26.66400
C  -1.36000 37.48200 27.70600
C  -0.50900 38.53800 27.17100
C  -0.41100 38.36500 25.74100
C  -1.13900 37.05100 25.50600
C  0.14400 39.63100 28.00800
C  0.21000 39.27000 24.67700
O  0.11500 39.01100 23.50000
C  1.00000 40.46000 25.02500
N  -2.81100 34.63200 24.77400
C  -2.02100 35.32100 23.87700
C  -2.09900 34.73900 22.47800
C  -2.84800 33.36400 22.73800
C  -3.37100 33.55100 24.16200
C  -2.77400 35.76600 21.53000
C  -2.13800 31.96200 22.73000
C  -0.93900 31.65800 23.66200
N  -3.97300 33.21100 27.01300
C  -4.57900 32.47700 26.02900
C  -5.22100 31.38600 26.55400
C  -5.26700 31.56100 27.93700
C  -4.46000 32.75000 28.15700
C  -5.98400 30.33800 25.69700
C  -5.67000 31.13600 29.29800
O  -6.34700 30.21900 29.72600
C  -5.02800 32.10700 30.34200
C  -6.11700 32.66500 31.19300
O  -6.75000 33.71600 30.98400
O  -6.26300 31.89900 32.37200
C  -7.41700 32.29200 33.22600
H  -1.30700 38.01400 29.68000
H  -0.53600 36.73100 23.45200
H  -4.60700 31.87800 23.97500
H  -4.32300 35.01100 31.74000
H  -1.81900 36.37700 31.75800
H  -4.14600 37.91500 30.74400
H  -3.20000 38.16300 32.16400
H  -4.47700 37.08200 32.34100
H  -1.61000 34.28100 32.49500
H  -2.16200 32.92600 31.45300
H  -3.57100 32.07900 32.90900
H  -4.17500 33.65300 33.43500
H  0.11100 39.36800 29.06500
H  -0.39400 40.54700 27.76700
H  1.20800 39.70700 27.78300
H  1.79100 40.01800 25.63000
H  0.27500 40.97100 25.65900
H  1.41300 40.94900 24.14300
H  -1.07400 34.59600 22.13900
H  -3.71700 33.22600 22.09400
H  -2.82700 36.77100 21.94800
H  -3.80600 35.47600 21.33500
H  -2.21300 35.87400 20.60100
H  -1.70400 31.76200 21.75000
H  -2.85800 31.14500 22.77100
H  -1.35800 30.87600 24.29600
H  -0.68800 32.59100 24.16600
H  -0.07700 31.22700 23.15300
H  -5.54400 30.20400 24.70900
H  -7.03600 30.61700 25.63500
H  -5.92900 29.36300 26.18100
H  -4.27700 31.61800 30.96100
H  -8.25800 32.68400 32.65300
H  -7.15400 33.17800 33.80400
H  -7.64600 31.50600 33.94500

