158

Mg 48.78800 35.08500 26.47200
C  46.84500 33.51100 28.96900
C  48.91100 37.85200 28.60200
C  50.12100 36.72800 23.95500
C  48.24200 32.30800 24.33700
N  48.06800 35.52200 28.62200
C  47.33000 34.72100 29.38300
C  47.34600 35.24200 30.79800
C  47.68900 36.68700 30.63800
C  48.31000 36.75000 29.22200
C  46.45900 37.69700 30.88800
C  48.44700 34.41800 31.62300
C  48.13600 33.94900 33.07100
H  47.72900 34.97000 34.11700
N  49.36400 37.02800 26.30500
C  49.31700 38.05700 27.24900
C  49.91200 39.29300 26.66100
C  50.27700 38.95700 25.31200
C  49.93300 37.54500 25.12700
C  50.07400 40.58400 27.45400
C  50.91900 39.79300 24.26600
O  51.29600 39.38400 23.16700
C  51.35900 41.16900 24.68000
N  48.99500 34.63100 24.32800
C  49.78800 35.42000 23.63700
C  50.16300 34.82700 22.26600
C  49.68700 33.29400 22.45200
C  48.94400 33.41600 23.78700
C  49.48400 35.47600 21.11300
C  50.71500 32.15700 22.61000
C  50.40200 30.75700 22.05500
N  47.78800 33.27700 26.55700
C  47.65100 32.22800 25.65700
C  46.82700 31.14300 26.20400
C  46.45100 31.63300 27.48900
C  47.08000 32.93300 27.69900
C  46.34700 29.87000 25.56600
C  45.70000 31.33800 28.65300
O  44.94600 30.42500 28.94600
C  45.72700 32.61700 29.47600
C  45.79600 32.34100 30.95200
O  46.52500 31.54500 31.45500
O  44.82700 32.98500 31.54500
C  44.64500 32.81900 32.99200
H  48.97800 38.79000 29.15600
H  50.61800 37.12700 23.06800
H  48.09400 31.41900 23.72000
H  46.41400 35.10200 31.34500
H  48.58300 36.92900 31.21200
H  46.34300 38.42300 30.08300
H  46.66700 38.39000 31.70300
H  45.50800 37.19700 31.07200
H  49.44000 34.86700 31.62000
H  48.63300 33.46700 31.12500
H  49.01500 33.64800 33.64100
H  47.44000 33.11500 33.16800
H  49.28900 40.46900 28.20100
H  49.84900 41.39400 26.75900
H  51.13400 40.72800 27.66600
H  50.62300 41.97200 24.73200
H  52.06300 41.58800 23.96000
H  51.84600 41.07800 25.65100
H  51.22000 34.87800 22.00700
H  48.90900 32.97600 21.75800
H  48.64600 36.07800 21.46600
H  49.15100 34.74500 20.37600
H  50.24300 36.10900 20.65200
H  50.91100 31.98000 23.66700
H  51.71000 32.47500 22.29800
H  50.42100 30.09500 22.92000
H  51.12500 30.42200 21.31100
H  49.37900 30.66900 21.68900
H  45.27000 29.92000 25.40400
H  46.60100 29.00800 26.18400
H  46.84800 29.89500 24.59900
H  44.82600 33.18000 29.23200
H  43.75500 32.25000 33.26200
H  44.58200 33.82100 33.41500
H  45.48500 32.24200 33.37900
Mg 9.41100 48.67000 26.40700
C  7.55900 48.61500 29.47500
C  11.98500 50.09700 28.19600
C  11.08900 48.90000 23.54200
C  6.66600 47.34300 24.78000
N  9.63300 49.45100 28.61200
C  8.76200 49.20200 29.64200
C  9.32000 49.95700 30.98100
C  10.80200 50.26200 30.53900
C  10.79100 49.93500 28.99400
C  11.26300 51.74700 30.77000
C  9.23700 49.04800 32.23900
C  10.17000 49.40000 33.37600
H  9.55100 49.63700 34.76600
N  11.32800 49.20100 25.96100
C  12.25500 49.76800 26.83700
C  13.53900 49.96500 26.16000
C  13.31200 49.60200 24.81900
C  11.87600 49.19500 24.69300
C  14.80500 50.51900 26.80100
C  14.26900 49.51800 23.62600
O  13.92000 49.32900 22.44900
C  15.76300 49.74000 23.93200
N  8.82100 48.35000 24.46100
C  9.67500 48.58000 23.47200
C  9.05700 48.20300 22.12100
C  7.82500 47.35400 22.48700
C  7.71800 47.68500 23.98300
C  8.78500 49.50700 21.30700
C  7.93300 45.84200 22.13000
C  9.22000 45.17400 22.63700
N  7.42400 48.16800 26.93400
C  6.41700 47.63300 26.17600
C  5.20200 47.48500 26.95100
C  5.60100 47.76100 28.24600
C  6.96100 48.27500 28.18600
C  3.88600 46.95000 26.55000
C  5.23400 47.77500 29.68800
O  4.23400 47.42500 30.20200
C  6.46200 48.29100 30.45500
C  6.80700 47.14500 31.31700
O  7.48500 46.21700 30.98300
O  6.18100 47.23100 32.54900
C  6.56100 46.31700 33.64800
H  12.80400 50.56600 28.74600
H  11.62000 49.06400 22.60100
H  5.78900 46.85000 24.35500
H  8.74600 50.86700 31.15400
H  11.51500 49.68100 31.12400
H  10.41900 52.37200 31.06300
H  11.65900 52.13800 29.83200
H  12.10800 51.76700 31.45800
H  9.23500 48.03300 31.84200
H  8.24500 49.11600 32.68400
H  10.77200 50.28200 33.16100
H  10.98300 48.67800 33.30300
H  15.17900 51.40100 26.28100
H  15.59900 49.77300 26.79800
H  14.75100 50.77400 27.86000
H  16.27200 49.48700 23.00100
H  16.19200 49.14500 24.73800
H  15.85500 50.77900 24.24700
H  9.70900 47.57300 21.51600
H  6.93500 47.72300 21.97700
H  9.36200 50.27800 21.81800
H  7.71200 49.69100 21.35100
H  9.08500 49.29700 20.28100
H  7.91500 45.80800 21.04100
H  7.16900 45.23300 22.61500
H  8.94100 44.29000 23.21000
H  9.75200 45.79700 23.35600
H  9.82900 44.87200 21.78500
H  3.16800 47.75800 26.40600
H  3.48500 46.37300 27.38300
H  3.95100 46.34500 25.64500
H  6.09300 49.11400 31.06700
H  7.54600 45.89600 33.44600
H  5.87300 45.50100 33.86600
H  6.72900 46.89600 34.55600

