158

Mg 26.16800 -0.76700 29.43100
C  28.14500 -1.14700 32.43400
C  23.53600 -0.37200 31.44700
C  24.44800 -0.24400 26.57900
C  29.02100 -1.66500 27.50800
N  25.89800 -0.92000 31.71800
C  26.86400 -0.82100 32.72800
C  26.22000 -0.64900 34.16300
C  24.64300 -0.72900 33.82600
C  24.68000 -0.66300 32.25400
C  23.91100 -1.96600 34.36000
C  26.80100 0.57600 34.95100
C  27.37200 0.38200 36.30100
H  26.48900 -0.30400 37.35000
N  24.27900 -0.30900 29.05600
C  23.26300 -0.25900 29.99900
C  22.02900 -0.06200 29.35200
C  22.25000 0.06400 27.99700
C  23.71100 -0.12600 27.82200
C  20.64300 0.00500 30.07400
C  21.27800 0.09200 26.79600
O  21.59600 0.23000 25.61100
C  19.78600 0.10600 26.98900
N  26.63800 -1.07800 27.27000
C  25.80100 -0.65300 26.31200
C  26.44400 -0.60500 24.90500
C  27.87200 -1.17200 25.20200
C  27.85300 -1.42700 26.73800
C  25.63600 -1.30200 23.82300
C  28.98800 -0.14200 24.71900
C  30.31600 -0.89600 24.49900
N  28.16400 -1.24400 29.83300
C  29.20000 -1.64600 28.93000
C  30.43000 -1.69000 29.73300
C  30.05600 -1.57200 31.05900
C  28.66400 -1.35500 31.09100
C  31.81200 -1.99200 29.18900
C  30.55200 -1.58800 32.43600
O  31.71300 -1.85300 32.83000
C  29.39700 -1.32200 33.32400
C  29.28100 -2.50900 34.18800
O  28.54900 -3.45400 33.87400
O  30.04100 -2.39300 35.33700
C  29.76400 -3.43800 36.36100
H  22.59100 -0.27200 31.98400
H  23.96500 0.05100 25.64500
H  29.94300 -1.80900 26.94200
H  26.56300 -1.53900 34.69000
H  24.18600 0.21800 34.11200
H  23.46000 -2.59300 33.59100
H  23.16700 -1.55600 35.04200
H  24.61200 -2.57000 34.93700
H  25.90700 1.19900 34.97500
H  27.48900 1.11800 34.30100
H  27.42900 1.34400 36.80900
H  28.29300 -0.20000 36.33100
H  20.22200 0.99300 29.88700
H  20.74300 -0.18400 31.14300
H  20.02400 -0.78200 29.64200
H  19.63900 1.04100 27.52900
H  19.41100 -0.77200 27.51400
H  19.29100 0.20500 26.02400
H  26.57000 0.41800 24.55000
H  28.04800 -2.10100 24.66100
H  26.13100 -2.22000 23.50500
H  25.50200 -0.61000 22.99100
H  24.63500 -1.54000 24.18200
H  29.19800 0.60500 25.48400
H  28.62900 0.35700 23.81900
H  30.91500 -0.67500 25.38200
H  30.70800 -0.71900 23.49800
H  30.28100 -1.98400 24.43900
H  31.98800 -1.40600 28.28600
H  31.87100 -3.01700 28.82500
H  32.52100 -1.82300 29.99900
H  29.57400 -0.43600 33.93400
H  29.60300 -4.45100 35.99000
H  28.94500 -3.21600 37.04500
H  30.58200 -3.36800 37.07800
Mg 51.91300 24.52000 45.28800
C  49.13200 26.49300 44.59700
C  50.22700 21.77000 44.09800
C  54.94200 22.76000 45.36000
C  53.73300 27.34900 46.35500
N  49.95000 24.16500 44.26400
C  48.95200 25.13100 44.11400
C  47.77000 24.51500 43.32900
C  47.94800 22.99300 43.63100
C  49.45200 22.93200 44.02600
C  47.03000 22.66800 44.74900
C  47.73600 24.93000 41.77900
C  49.14000 25.30200 41.20900
H  49.13200 25.48500 39.66600
N  52.53900 22.53900 44.81100
C  51.62000 21.57000 44.42900
C  52.39900 20.31500 44.37600
C  53.74100 20.59300 44.49100
C  53.81400 22.03100 44.94000
C  51.78400 19.03600 43.93500
C  54.90800 19.64600 44.27100
O  54.62400 18.59600 43.70900
C  56.38300 19.90700 44.54500
N  54.09000 25.01600 45.61700
C  55.05400 24.11600 45.65100
C  56.47200 24.69200 45.97000
C  56.09700 26.20000 46.32800
C  54.53900 26.22800 46.02600
C  57.23000 23.84600 47.13700
C  56.88500 27.20200 45.38900
C  57.65300 28.21600 46.12800
N  51.50300 26.53000 45.53500
C  52.32900 27.56500 45.97700
C  51.44800 28.74000 46.19300
C  50.21200 28.33700 45.63600
C  50.30800 27.01100 45.26700
C  51.88800 30.08200 46.77700
C  48.86900 28.76400 45.32600
O  48.40200 29.91000 45.44600
C  48.11600 27.66800 44.58800
C  47.68000 28.10500 43.29400
O  48.38200 28.31200 42.31200
O  46.32400 28.26100 43.38100
C  45.70000 28.86700 42.22500
H  49.63500 20.86200 43.96200
H  55.85000 22.16900 45.49100
H  54.27100 28.14000 46.88100
H  46.88800 24.94900 43.80000
H  47.73200 22.36500 42.76700
H  47.29600 21.66100 45.07000
H  46.02900 22.71900 44.32000
H  46.92300 23.37300 45.57300
H  46.99100 25.72400 41.71800
H  47.39400 24.10600 41.15300
H  49.76200 24.42200 41.37600
H  49.57600 26.19000 41.66600
H  51.41300 19.01800 42.91100
H  50.92800 18.76800 44.55400
H  52.50600 18.26100 44.19100
H  57.09700 19.20300 44.11700
H  56.55100 20.07100 45.60900
H  56.62200 20.82600 44.01000
H  57.04800 24.57000 45.05200
H  56.34900 26.50300 47.34400
H  56.45300 23.28400 47.65500
H  57.76400 24.56400 47.76000
H  57.91800 23.16800 46.63200
H  56.16200 27.84900 44.89300
H  57.52000 26.70400 44.65600
H  57.26200 29.21400 45.92800
H  58.71600 28.12100 45.91000
H  57.50100 28.14300 47.20500
H  51.06100 30.79100 46.73200
H  52.79500 30.34100 46.23000
H  52.16600 30.07700 47.83100
H  47.25000 27.50000 45.22800
H  44.62400 29.01800 42.31000
H  45.95000 28.36600 41.28900
H  46.06900 29.88200 42.08100

