158

Mg 42.71900 4.22200 47.32400
C  40.99100 7.18400 46.97100
C  39.71500 2.47400 47.06100
C  44.38600 1.15300 47.22900
C  45.74800 5.85500 46.86200
N  40.67000 4.74100 46.91600
C  40.17700 6.04900 46.82200
C  38.69100 6.03700 46.53100
C  38.22200 4.60300 46.92700
C  39.64900 3.86100 46.99900
C  37.44300 4.63400 48.36400
C  38.28900 6.41400 45.05300
C  39.36100 6.13400 43.92500
H  38.91100 6.35800 42.48500
N  42.12300 2.14300 47.18400
C  40.86600 1.67200 47.12200
C  40.82200 0.23800 47.17600
C  42.13600 -0.19300 47.16200
C  43.00900 1.06500 47.21400
C  39.46400 -0.61800 47.32000
C  42.55400 -1.62100 47.08600
O  41.75000 -2.48900 47.17000
C  43.95500 -2.03800 47.07100
N  44.81700 3.53700 47.10900
C  45.19200 2.25900 47.10700
C  46.72300 2.14900 47.03100
C  47.17900 3.64400 46.95800
C  45.82900 4.41100 46.97700
C  47.38300 1.23600 48.08700
C  48.06400 3.85200 45.71800
C  49.51900 4.14500 46.15700
N  43.31700 6.16800 47.07000
C  44.58600 6.70700 46.91400
C  44.41800 8.18500 46.90000
C  43.02500 8.37200 47.00900
C  42.42100 7.12100 47.01800
C  45.55200 9.18500 46.84100
C  41.94500 9.35500 46.96700
O  42.04400 10.58600 46.91200
C  40.60500 8.60200 46.99300
C  39.86800 8.82600 48.25900
O  39.78800 8.05800 49.21300
O  39.20900 10.01800 48.13900
C  38.58000 10.52100 49.36400
H  38.77200 1.92900 47.14000
H  44.93200 0.20800 47.26700
H  46.70200 6.38500 46.83700
H  38.12600 6.72300 47.16200
H  37.70600 4.00700 46.17500
H  37.02100 3.67600 48.66500
H  36.70200 5.42900 48.28400
H  38.18900 4.79600 49.14200
H  37.97300 7.45000 44.93200
H  37.40500 5.84400 44.76500
H  39.75500 5.11700 43.91300
H  40.20100 6.82700 43.95600
H  38.65400 -0.38900 46.62700
H  39.17000 -0.35100 48.33500
H  39.58900 -1.70000 47.31500
H  44.47800 -1.55100 46.24900
H  43.96300 -3.10400 46.84500
H  44.44100 -1.72100 47.99400
H  46.86900 1.76200 46.02300
H  47.68300 3.84100 47.90400
H  46.68800 0.84500 48.83000
H  48.29300 1.62900 48.54100
H  47.79700 0.40500 47.51600
H  47.68300 4.74600 45.22500
H  48.17700 3.03900 45.00100
H  49.59900 5.23200 46.13400
H  50.18900 3.65200 45.45300
H  49.73500 3.93300 47.20400
H  46.06800 9.22500 47.80100
H  45.04400 10.11800 46.59700
H  46.30000 9.03800 46.06200
H  39.99800 9.01400 46.18700
H  37.51800 10.32900 49.20900
H  38.82900 11.56500 49.55500
H  38.87700 9.93200 50.23100
Mg 40.54200 8.02200 29.28400
C  42.19600 9.44200 31.94200
C  38.37600 6.67900 31.51400
C  38.79700 6.86500 26.78300
C  43.25000 8.72500 27.26600
N  40.34900 8.06400 31.51400
C  41.03500 8.84200 32.34800
C  40.43900 8.78700 33.75500
C  39.36300 7.61200 33.59600
C  39.36600 7.37600 32.11000
C  39.73900 6.33700 34.42200
C  39.87100 10.20100 34.21400
C  39.85100 10.43100 35.75500
H  40.92700 11.36200 36.35900
N  38.80600 7.01400 29.18000
C  38.03800 6.45500 30.18800
C  37.00700 5.63300 29.61400
C  37.07800 5.81000 28.20600
C  38.24700 6.63400 27.98400
C  36.05000 4.88400 30.60500
C  36.13300 5.33100 27.13900
O  36.29700 5.74200 25.99400
C  34.97600 4.45800 27.44100
N  40.97000 7.89500 27.30100
C  40.02600 7.51000 26.38700
C  40.67000 7.25800 24.92800
C  41.98300 8.09600 25.07200
C  42.07700 8.29300 26.63000
C  40.88300 5.79900 24.39000
C  41.87700 9.46800 24.30000
C  41.07300 10.61300 25.00600
N  42.41600 8.95200 29.44000
C  43.44000 9.10600 28.61800
C  44.54500 9.76900 29.23600
C  44.11900 9.98900 30.53200
C  42.79300 9.37700 30.64000
C  45.84500 9.99700 28.55700
C  44.41200 10.49300 31.87000
O  45.43300 11.01600 32.19100
C  43.22100 10.24300 32.80200
C  43.72200 9.45300 34.00200
O  44.03800 8.26500 34.04100
O  43.71000 10.27200 35.09400
C  43.88700 9.52500 36.30000
H  37.78900 6.18600 32.29200
H  38.42400 6.41600 25.86000
H  44.11100 8.95100 26.63300
H  41.16800 8.54800 34.52900
H  38.41400 8.03600 33.92400
H  38.99700 6.07000 35.17400
H  40.69700 6.51900 34.91100
H  39.89200 5.58600 33.64700
H  38.79900 10.19000 34.01900
H  40.31400 11.02300 33.65000
H  39.74300 9.45300 36.22500
H  38.87300 10.86400 35.96900
H  36.21400 5.16500 31.64500
H  36.33100 3.83100 30.59900
H  34.98900 4.87100 30.35500
H  35.27900 3.76500 28.22500
H  34.67600 4.00900 26.49500
H  34.15200 5.08300 27.78600
H  40.11700 7.86000 24.20700
H  42.79600 7.49700 24.66200
H  41.04100 5.07000 25.18500
H  41.72600 5.75600 23.70100
H  39.97000 5.43700 23.91800
H  41.44600 9.25800 23.32100
H  42.88400 9.84600 24.12300
H  40.21100 10.95600 24.43500
H  41.78100 11.43600 25.10200
H  40.59200 10.35600 25.95000
H  45.81800 10.99800 28.12700
H  46.09800 9.28700 27.77000
H  46.58100 9.87000 29.35100
H  42.79100 11.18600 33.13900
H  43.53800 10.12500 37.14100
H  44.94500 9.27500 36.37500
H  43.15800 8.71500 36.31900

