158

Mg 42.22200 41.77800 26.56300
C  41.42300 44.34500 28.92900
C  43.13200 39.79600 29.20600
C  43.10400 39.42800 24.33000
C  41.67600 44.03900 24.06800
N  42.35300 42.06800 28.81800
C  41.92700 43.14400 29.58900
C  42.08100 42.84500 31.11000
C  42.78000 41.42700 31.09800
C  42.73200 41.05700 29.63600
C  44.17800 41.43000 31.80400
C  40.73900 42.83900 31.90200
C  40.80700 43.56700 33.28200
H  40.12100 42.84100 34.39300
N  43.05100 39.87700 26.72600
C  43.26800 39.20800 27.88600
C  43.77300 37.85100 27.59100
C  43.91600 37.78600 26.16000
C  43.40100 39.10900 25.70200
C  44.24900 36.91700 28.65000
C  44.46100 36.76300 25.25700
O  44.55200 36.78200 23.99900
C  44.74100 35.44800 25.82100
N  42.59700 41.76200 24.45100
C  42.71700 40.63600 23.80900
C  42.36300 40.82300 22.27700
C  41.73700 42.26600 22.22900
C  41.90700 42.70800 23.70000
C  43.62000 40.49100 21.40100
C  40.26200 42.39300 21.78700
C  39.16600 41.38000 22.25800
N  41.68800 43.76400 26.44600
C  41.59500 44.60000 25.32400
C  41.27800 45.87900 25.76600
C  41.23200 45.87800 27.13900
C  41.47000 44.52400 27.53700
C  41.15400 47.00400 24.74900
C  41.00800 46.66500 28.28500
O  40.74500 47.84800 28.45500
C  41.09700 45.75300 29.50200
C  42.09100 46.28500 30.51200
O  43.26200 46.37700 30.21200
O  41.54800 46.66000 31.71600
C  42.54000 46.77900 32.77900
H  43.29200 39.11500 30.04500
H  43.26200 38.63100 23.60000
H  41.31500 44.73800 23.31100
H  42.76500 43.52600 31.61500
H  42.12400 40.74200 31.63500
H  44.10900 40.81700 32.70300
H  44.39200 42.43900 32.15700
H  44.83300 41.11400 30.99200
H  40.36900 41.84400 32.14900
H  39.96000 43.36500 31.35000
H  40.41000 44.57900 33.21000
H  41.82500 43.70800 33.64800
H  43.79100 35.94900 28.44700
H  43.88500 37.28800 29.60800
H  45.33400 36.82500 28.70800
H  45.40400 35.55000 26.68000
H  45.09400 34.83300 24.99200
H  43.83500 35.04200 26.27100
H  41.52700 40.17700 22.00800
H  42.40200 42.91700 21.66200
H  43.92500 41.45200 20.98900
H  43.43700 39.74200 20.63100
H  44.49700 40.12900 21.93700
H  40.30300 42.22800 20.71000
H  40.03200 43.42500 22.05100
H  38.75800 41.85000 23.15300
H  39.59000 40.43600 22.59900
H  38.51900 41.32200 21.38200
H  40.22300 46.83400 24.21000
H  42.04800 47.10300 24.13300
H  41.07000 47.85400 25.42600
H  40.11300 45.61400 29.94900
H  43.04900 45.83700 32.98500
H  42.02500 47.18000 33.65200
H  43.31400 47.50300 32.52600
Mg -3.74100 26.18800 25.69600
C  -2.37300 27.40900 28.60200
C  -5.86300 24.19400 27.41200
C  -4.26600 24.48800 22.81500
C  -1.28200 28.04700 23.85400
N  -4.07300 25.81800 27.76700
C  -3.44400 26.54100 28.81600
C  -3.97500 26.05800 30.20100
C  -5.04000 24.87600 29.72500
C  -4.96600 24.99600 28.18900
C  -4.71700 23.41600 30.25000
C  -4.63300 27.26000 31.00900
C  -5.68500 26.91200 32.13700
H  -5.33200 25.74500 33.06000
N  -5.00200 24.59200 25.21300
C  -5.86500 23.94400 26.01100
C  -6.76300 23.07200 25.22900
C  -6.17000 23.08200 23.88900
C  -5.15600 24.13100 23.94800
C  -7.82400 22.31500 25.87300
C  -6.43400 22.20400 22.70100
O  -5.78300 22.21600 21.63600
C  -7.58000 21.22500 22.70600
N  -2.85800 26.25200 23.59900
C  -3.20600 25.39300 22.66500
C  -2.49300 25.53000 21.26000
C  -1.57000 26.68600 21.65700
C  -1.96400 27.12400 23.08900
C  -1.84700 24.19000 20.73900
C  -1.51200 27.86100 20.62700
C  -0.13700 28.47200 20.58300
N  -2.33100 27.63600 26.05400
C  -1.41600 28.33400 25.24400
C  -0.71300 29.32000 26.08600
C  -0.96600 28.84000 27.38200
C  -1.95700 27.89200 27.30100
C  0.21800 30.25700 25.61700
C  -0.56600 29.01900 28.77100
O  0.32100 29.72300 29.22400
C  -1.46200 28.12400 29.64100
C  -0.62400 27.33300 30.55000
O  0.17900 26.46700 30.27200
O  -0.83700 27.73200 31.79400
C  -0.27400 26.89800 32.79800
H  -6.52200 23.55300 28.00100
H  -4.52600 24.00000 21.87200
H  -0.52100 28.47300 23.19700
H  -3.20300 25.57100 30.79700
H  -6.07400 25.08700 29.99500
H  -3.65900 23.29700 30.48200
H  -4.91800 22.70500 29.44900
H  -5.27800 23.06800 31.11700
H  -4.81400 28.01300 30.24300
H  -3.78600 27.57700 31.61800
H  -6.61700 26.69500 31.61500
H  -5.91200 27.76900 32.77200
H  -8.62100 22.15000 25.14800
H  -8.20000 22.78000 26.78400
H  -7.41500 21.33300 26.11200
H  -7.46500 20.76700 23.68800
H  -7.47200 20.45600 21.94200
H  -8.58500 21.59100 22.49400
H  -3.28900 25.78200 20.55900
H  -0.57200 26.26600 21.78800
H  -2.48500 23.67500 20.02200
H  -1.47000 23.62000 21.58800
H  -0.96500 24.57100 20.22300
H  -2.13400 28.69400 20.95700
H  -1.80000 27.70000 19.58800
H  -0.09100 28.85800 19.56400
H  0.58600 27.68000 20.77900
H  -0.10000 29.32300 21.26300
H  -0.15600 30.62400 24.66100
H  1.28100 30.02100 25.66300
H  0.20500 31.15900 26.22900
H  -2.13800 28.71500 30.25900
H  0.73100 27.29600 32.94000
H  -0.29400 25.83100 32.57700
H  -0.91300 27.08900 33.66000

