158

Mg 43.29900 42.81900 26.00900
C  42.42800 45.41500 28.19600
C  44.63900 41.05600 28.48400
C  44.17000 40.59400 23.65100
C  42.57000 45.16700 23.42600
N  43.44300 43.16500 28.12500
C  42.90600 44.20300 28.88700
C  43.01500 43.95600 30.40800
C  44.01800 42.70100 30.39800
C  44.08100 42.25900 28.90100
C  45.38900 42.87300 31.20600
C  41.53100 43.80000 30.90500
C  41.19100 44.16400 32.31800
H  42.28200 43.93700 33.35300
N  44.35800 41.08400 26.03800
C  44.75600 40.43300 27.22600
C  45.40600 39.20000 26.89500
C  45.12600 38.94500 25.45600
C  44.52700 40.21400 24.94500
C  45.89200 38.39700 28.04800
C  45.47400 37.79800 24.54000
O  45.14400 37.81800 23.36000
C  46.23300 36.69200 25.13800
N  43.49400 42.94900 23.83100
C  43.86300 41.86600 23.12600
C  43.56100 41.97800 21.68600
C  42.77100 43.32300 21.66600
C  42.87700 43.88100 23.06600
C  44.92400 42.04900 20.90900
C  41.31600 43.19100 21.02600
C  40.40200 42.05500 21.52700
N  42.67200 44.86200 25.81300
C  42.46800 45.65400 24.72000
C  42.09800 47.01000 25.12900
C  42.06100 46.96500 26.52500
C  42.41400 45.64200 26.83400
C  41.79700 48.13000 24.18100
C  41.85100 47.72400 27.70700
O  41.54100 48.87900 27.86000
C  42.14100 46.74400 28.89900
C  43.20500 47.18700 29.84400
O  44.41000 47.19600 29.68000
O  42.57900 47.46400 31.00800
C  43.37000 48.01900 32.08500
H  45.14200 40.50700 29.28300
H  44.10400 39.80300 22.90100
H  42.20700 45.80600 22.61900
H  43.59900 44.73000 30.90600
H  43.43200 42.02400 31.01900
H  45.64300 43.87300 31.55700
H  46.10200 42.46800 30.48800
H  45.47100 42.20800 32.06600
H  41.02600 42.86900 30.64800
H  40.84800 44.43700 30.34300
H  40.37800 43.51900 32.65300
H  40.84500 45.19300 32.42100
H  46.52700 38.97100 28.72400
H  46.50500 37.55400 27.72800
H  45.03000 37.92300 28.51600
H  45.60600 36.27900 25.92800
H  47.11900 37.18600 25.53700
H  46.59500 35.89600 24.48700
H  42.93600 41.16500 21.31700
H  43.23800 44.07500 21.03000
H  45.76000 42.01700 21.60700
H  45.02200 42.88900 20.22100
H  45.10700 41.06300 20.48100
H  41.46000 43.29600 19.95100
H  40.85600 44.09200 21.43000
H  39.41900 42.46800 21.75100
H  40.77900 41.54600 22.41400
H  40.23400 41.21600 20.85200
H  42.73800 48.15000 23.63200
H  41.58000 49.01400 24.78200
H  40.95800 47.89000 23.52700
H  41.19300 46.57000 29.40800
H  44.15300 48.71200 31.77600
H  43.75000 47.41300 32.90800
H  42.68100 48.73000 32.54200
Mg 27.01000 50.69700 26.62500
C  24.85000 51.58800 29.24100
C  29.39500 49.80200 29.00800
C  29.02300 49.91900 24.17600
C  24.66200 51.90400 24.34000
N  27.07900 50.80900 28.82000
C  26.00700 50.93400 29.70000
C  26.40400 50.63900 31.18600
C  27.95900 50.40700 31.04700
C  28.14200 50.26200 29.49900
C  28.87500 51.39000 31.76500
C  25.58400 49.42100 31.85100
C  24.57400 49.76100 33.01800
H  24.63100 48.99700 34.32400
N  28.91600 49.95700 26.63700
C  29.77400 49.67700 27.67000
C  31.01100 49.27700 27.20700
C  30.95600 49.29700 25.77300
C  29.55400 49.76600 25.47000
C  32.15200 48.88400 28.07500
C  32.04900 49.07900 24.70500
O  31.89800 49.18500 23.44700
C  33.48300 48.82400 25.11900
N  26.84500 50.90300 24.55700
C  27.80900 50.44700 23.72200
C  27.34400 50.35300 22.25700
C  25.96900 51.02200 22.39100
C  25.81600 51.26200 23.86200
C  28.29800 50.96100 21.23000
C  24.77400 50.18900 21.83300
C  25.00300 49.53700 20.36600
N  25.15100 51.66500 26.70600
C  24.35700 52.07100 25.68000
C  23.19300 52.71200 26.26200
C  23.38100 52.54800 27.66600
C  24.58400 51.95000 27.84600
C  22.04000 53.32500 25.58400
C  22.74200 52.76300 28.97200
O  21.73100 53.39300 29.30900
C  23.61600 52.07600 30.02100
C  23.93000 53.14200 30.88600
O  24.60400 54.16700 30.60000
O  23.59400 52.77700 32.16000
C  24.31200 53.65700 33.11500
H  30.11500 49.51500 29.77700
H  29.71800 49.73600 23.35300
H  23.80100 52.06200 23.68700
H  26.20000 51.48200 31.84700
H  28.17000 49.39800 31.40100
H  28.29000 52.26800 32.04100
H  29.69700 51.73700 31.14000
H  29.28100 50.97700 32.68900
H  26.23600 48.61000 32.17700
H  24.94500 49.03600 31.05600
H  23.63100 49.66100 32.48100
H  24.55200 50.82400 33.25800
H  32.12300 49.09600 29.14400
H  32.92900 49.59300 27.79100
H  32.60100 47.92300 27.82300
H  34.09800 48.48300 24.28600
H  33.47700 47.95300 25.77400
H  33.82300 49.68300 25.69800
H  27.14400 49.32300 21.95800
H  25.97700 51.98000 21.87200
H  28.88100 50.20400 20.70600
H  29.06200 51.65800 21.57500
H  27.78900 51.54300 20.46200
H  23.83300 50.73800 21.81700
H  24.60900 49.37800 22.54200
H  25.01900 48.45400 20.49200
H  25.95400 49.80900 19.90800
H  24.21300 49.76500 19.65100
H  22.06000 54.40400 25.43100
H  21.14100 53.03500 26.12800
H  21.91600 52.91700 24.58100
H  23.03100 51.27900 30.48100
H  25.19500 53.06700 33.36200
H  23.68200 53.67200 34.00400
H  24.56900 54.68300 32.85000

