158

Mg 34.74000 49.17400 26.31100
C  35.36600 46.92800 28.96500
C  33.57000 51.50000 28.62100
C  33.88500 51.30900 23.75100
C  35.78500 46.77300 24.09200
N  34.49900 49.18300 28.49700
C  34.92500 48.20600 29.39800
C  34.89500 48.70700 30.82200
C  33.91500 49.89300 30.72500
C  34.04300 50.27000 29.16300
C  32.39900 49.52900 31.04800
C  36.35100 48.95600 31.38000
C  36.60800 48.47500 32.84100
H  36.50200 49.44300 33.97800
N  33.97000 51.19900 26.19700
C  33.59100 51.94300 27.29000
C  33.10200 53.26900 26.85900
C  33.31600 53.33900 25.44200
C  33.70000 51.94400 25.03600
C  32.60600 54.40600 27.84400
C  33.09800 54.47300 24.40700
O  33.24400 54.27600 23.19900
C  32.72000 55.85000 24.86000
N  34.81300 49.04100 24.36200
C  34.42400 50.05800 23.42800
C  34.63600 49.64300 21.94400
C  35.50200 48.32500 22.10800
C  35.32400 48.02300 23.63000
C  33.26100 49.36600 21.21800
C  36.99400 48.44500 21.74500
C  37.51100 47.43800 20.71800
N  35.20100 47.11800 26.42000
C  35.74500 46.30200 25.45400
C  36.24700 45.10300 26.03000
C  36.12900 45.35000 27.42800
C  35.40700 46.51600 27.59800
C  36.99500 44.04100 25.27400
C  36.53200 44.76000 28.72300
O  37.14100 43.73900 28.89300
C  35.99100 45.78200 29.81600
C  35.06300 45.08600 30.74700
O  34.05300 44.49600 30.47400
O  35.61200 45.29300 32.00400
C  34.83400 44.69400 33.12400
H  33.16500 52.16400 29.38600
H  33.52300 51.83300 22.86400
H  36.25800 46.11800 23.35800
H  34.42600 47.94600 31.44500
H  34.31000 50.75200 31.26800
H  32.23500 48.49000 31.33400
H  31.86400 49.72100 30.11700
H  31.90200 50.20500 31.74300
H  36.56600 50.02400 31.34100
H  37.07900 48.50000 30.70900
H  37.58300 47.98800 32.85800
H  35.90500 47.65900 33.00400
H  33.36700 55.16400 27.66300
H  32.62600 54.02700 28.86600
H  31.62200 54.78600 27.57000
H  32.39600 56.33800 23.94100
H  33.56500 56.35300 25.33000
H  31.86400 55.73700 25.52500
H  35.16100 50.50000 21.52200
H  34.91200 47.55700 21.60900
H  33.05600 49.93400 20.31100
H  32.51200 49.55800 21.98600
H  33.25800 48.32900 20.88200
H  37.61600 48.31700 22.63000
H  37.22400 49.44400 21.37600
H  37.06200 47.45800 19.72500
H  37.22700 46.49100 21.17600
H  38.59900 47.50800 20.71400
H  37.75300 44.43900 24.59900
H  36.28700 43.32900 24.85000
H  37.49700 43.45800 26.04600
H  36.89300 46.02800 30.37700
H  33.94200 44.21000 32.72600
H  34.60900 45.50700 33.81400
H  35.46100 43.97000 33.64500
Mg 26.90000 50.75200 25.93200
C  25.09400 51.97400 28.84400
C  29.40900 49.80100 27.98700
C  28.55800 49.62400 23.24400
C  24.56400 52.28500 23.83400
N  27.11400 50.72900 28.21600
C  26.27700 51.22600 29.18100
C  26.90500 51.17900 30.54100
C  28.37600 50.70800 30.20800
C  28.36300 50.41700 28.66700
C  29.53400 51.59000 30.71500
C  26.06200 50.40400 31.64000
C  25.74700 51.16500 32.94900
H  26.72400 51.07800 34.13500
N  28.65200 49.69500 25.68800
C  29.57800 49.38700 26.67300
C  30.67100 48.62700 26.04300
C  30.28100 48.41700 24.70400
C  29.13200 49.33800 24.49100
C  31.83800 48.09200 26.79000
C  30.88400 47.50500 23.65300
O  30.41700 47.50100 22.49300
C  31.95000 46.48800 23.98200
N  26.64300 51.03400 23.81100
C  27.42400 50.37800 22.89300
C  27.01400 50.61000 21.41100
C  25.63700 51.27400 21.68200
C  25.58200 51.56900 23.22000
C  28.11100 51.41100 20.69400
C  24.40500 50.42100 21.50400
C  23.35400 50.89400 20.36000
N  25.18400 51.85400 26.19300
C  24.31300 52.38000 25.23600
C  23.20000 52.96900 25.95300
C  23.47900 52.84500 27.32300
C  24.70300 52.17600 27.43900
C  21.97000 53.58300 25.33400
C  22.94200 53.04900 28.66600
O  21.81200 53.44000 29.00500
C  24.02300 52.56300 29.67700
C  24.45300 53.68200 30.59200
O  25.36200 54.45100 30.40000
O  23.60600 53.79500 31.68000
C  23.97900 55.04600 32.41400
H  30.22900 49.52700 28.65500
H  29.11000 49.25000 22.38000
H  23.75200 52.74500 23.26700
H  26.98400 52.22400 30.83900
H  28.57800 49.74600 30.67800
H  30.22900 51.84300 29.91400
H  30.02200 51.11700 31.56800
H  29.08400 52.53300 31.02300
H  26.70600 49.54200 31.81400
H  25.14300 49.98100 31.23400
H  24.76500 50.85000 33.30100
H  25.50700 52.20100 32.71000
H  31.76100 48.29600 27.85800
H  32.62400 48.74600 26.41200
H  32.17800 47.08700 26.54200
H  31.68300 45.75100 24.73900
H  32.71900 47.17100 24.34000
H  32.17400 46.06100 23.00400
H  26.91800 49.80200 20.68600
H  25.51800 52.19100 21.10600
H  28.76400 51.95400 21.37800
H  27.51100 52.17600 20.20100
H  28.64800 50.78600 19.98000
H  23.70900 50.37000 22.34100
H  24.69200 49.38100 21.34700
H  23.73100 51.53700 19.56400
H  22.51500 51.35200 20.88400
H  22.90000 50.06900 19.81200
H  22.04600 54.66900 25.38900
H  21.08700 53.27200 25.89100
H  21.76600 53.25300 24.31500
H  23.45300 51.80900 30.22000
H  25.03600 55.14500 32.66100
H  23.55300 54.92300 33.41000
H  23.58200 55.89500 31.85800

