158

Mg 35.80200 0.63500 28.85200
C  33.73000 1.85300 31.28800
C  38.38000 0.36900 31.24600
C  37.97900 -0.02300 26.37000
C  33.42300 1.54100 26.33800
N  36.02700 1.20200 30.98300
C  34.98100 1.55100 31.78500
C  35.38700 1.51500 33.26300
C  36.93400 1.35400 33.18300
C  37.15600 0.92000 31.75100
C  37.81600 2.50700 33.71200
C  34.59800 0.53600 34.22200
C  34.34900 1.01900 35.63800
H  34.87000 2.41000 36.13900
N  37.91000 0.11200 28.84500
C  38.75400 0.02500 29.93300
C  40.06700 -0.49300 29.47900
C  39.95500 -0.57300 27.98500
C  38.56400 -0.14600 27.69500
C  41.20800 -0.86000 30.37700
C  41.04900 -0.90400 27.03700
O  40.89200 -0.94600 25.85300
C  42.31500 -1.38400 27.59400
N  35.62100 0.42000 26.66300
C  36.69200 0.22400 25.89200
C  36.26000 0.28300 24.37000
C  34.77700 0.48400 24.51200
C  34.54400 0.83300 25.91700
C  37.06600 1.38400 23.63500
C  33.87800 -0.76700 24.12100
C  32.61700 -0.40300 23.40200
N  33.97400 1.52600 28.76100
C  33.08400 1.80900 27.65300
C  31.99700 2.41500 28.17200
C  32.06100 2.40100 29.62600
C  33.35100 1.88900 29.85100
C  30.83500 2.87100 27.39300
C  31.39000 2.72000 30.91100
O  30.33300 3.31600 31.10600
C  32.43500 2.36000 32.00900
C  32.74400 3.62800 32.79200
O  33.52300 4.50600 32.48900
O  31.74300 3.73700 33.80900
C  31.78300 5.02800 34.54300
H  39.21900 0.29900 31.94200
H  38.69700 -0.20500 25.56800
H  32.83300 1.87500 25.48200
H  35.14100 2.53100 33.57300
H  37.26900 0.57000 33.86400
H  37.20300 3.33000 34.08000
H  38.39100 2.84300 32.84900
H  38.41900 2.21800 34.57200
H  35.12900 -0.40900 34.33500
H  33.65500 0.37500 33.70100
H  34.81500 0.26300 36.27000
H  33.30300 0.94500 35.93600
H  41.03600 -0.51300 31.39600
H  41.93400 -0.16900 29.94600
H  41.48100 -1.91400 30.43300
H  42.88000 -0.58100 28.06700
H  42.91400 -1.77300 26.77000
H  42.07100 -2.21700 28.25400
H  36.53600 -0.66100 23.90200
H  34.58800 1.41700 23.98200
H  37.52700 2.13400 24.27700
H  36.38100 1.96200 23.01400
H  37.84000 0.93500 23.01200
H  33.54600 -1.29200 25.01700
H  34.37000 -1.41600 23.39700
H  32.79000 -0.85300 22.42500
H  32.48900 0.67700 23.32600
H  31.76900 -0.84400 23.92700
H  30.28900 2.01600 26.99200
H  31.19200 3.49800 26.57700
H  30.09100 3.45800 27.93100
H  32.07600 1.56200 32.65900
H  32.53700 4.87000 35.31400
H  30.85200 5.20500 35.08100
H  31.89700 6.00700 34.07700
Mg 35.60000 48.90700 25.14800
C  35.86500 47.15300 28.35200
C  34.31400 51.48300 26.80500
C  34.80500 50.28000 22.15100
C  36.70500 45.95800 23.71200
N  35.06700 49.22200 27.31600
C  35.40500 48.50200 28.48700
C  35.09900 49.22200 29.83300
C  34.48900 50.52800 29.24800
C  34.65500 50.47500 27.68800
C  33.03400 50.98900 29.55600
C  36.33300 49.54600 30.79300
C  36.27600 49.05100 32.33500
H  34.87900 48.89000 32.98800
N  34.88200 50.67400 24.51600
C  34.40500 51.65100 25.40300
C  34.05800 52.86700 24.68700
C  34.04100 52.48800 23.25700
C  34.60200 51.08600 23.23500
C  33.62500 54.16600 25.28300
C  33.57100 53.25700 22.05200
O  33.63100 52.88800 20.86700
C  33.01500 54.69000 22.27800
N  35.67600 48.18400 23.18300
C  35.36500 48.90400 22.08900
C  35.81100 48.16300 20.79800
C  36.71500 47.00200 21.34200
C  36.30800 47.00800 22.83200
C  34.65000 47.70000 19.89700
C  38.21800 47.31300 21.13700
C  39.22400 46.19100 21.57700
N  35.99100 46.90800 25.83400
C  36.37300 45.80000 25.09400
C  36.63300 44.68800 25.99000
C  36.46000 45.17700 27.24700
C  36.03600 46.53500 27.08900
C  37.11100 43.34600 25.58200
C  36.48800 44.80100 28.65600
O  36.82300 43.71800 29.21700
C  36.03300 46.09900 29.37700
C  34.80100 45.76900 30.03800
O  33.74300 46.27800 29.84000
O  35.09200 44.98400 31.13300
C  34.00300 44.72100 32.11000
H  34.08700 52.46900 27.21500
H  34.66400 50.69700 21.15100
H  37.11300 45.13400 23.12300
H  34.27600 48.67800 30.29700
H  35.19000 51.31000 29.54000
H  33.02900 52.00700 29.94600
H  32.73500 50.38300 30.41100
H  32.32900 50.80600 28.74500
H  36.58800 50.59500 30.94300
H  37.27100 49.17600 30.37700
H  37.03100 49.56100 32.93300
H  36.62200 48.01800 32.33200
H  32.58200 54.14500 25.59700
H  33.83800 55.14200 24.84700
H  34.07400 54.28500 26.26900
H  33.65100 55.50400 22.62700
H  32.22300 54.83400 23.01300
H  32.52600 55.06100 21.37700
H  36.32300 48.93800 20.22600
H  36.50800 45.99500 20.98100
H  33.66500 47.75200 20.36000
H  34.83600 46.67200 19.58400
H  34.72700 48.31700 19.00300
H  38.43200 48.29000 21.57000
H  38.33100 47.35600 20.05400
H  39.83100 46.41100 22.45600
H  39.88300 45.91900 20.75200
H  38.71600 45.27200 21.86900
H  36.33400 42.58900 25.68800
H  38.04700 42.99000 26.01100
H  37.19300 43.30600 24.49500
H  36.82500 46.42900 30.04900
H  33.17000 44.41600 31.47700
H  33.83200 45.56000 32.78500
H  34.16000 43.81600 32.69600

