158

Mg 2.38000 -0.67400 43.28800
C  5.78700 0.06300 42.85500
C  1.75900 2.25200 41.52700
C  -0.78100 -1.55300 42.95600
C  3.26900 -3.75900 44.69700
N  3.65300 0.99700 42.16500
C  4.98900 1.10400 42.18800
C  5.49800 2.24900 41.33600
C  4.21300 3.07600 41.13800
C  3.12200 2.07500 41.66600
C  4.17600 4.50700 41.78300
C  6.10600 1.63800 40.02900
C  7.15100 2.47700 39.28900
H  6.74800 3.02800 37.89400
N  0.74600 0.15900 42.33600
C  0.67900 1.43200 41.75800
C  -0.62600 1.67100 41.38500
C  -1.38900 0.50200 41.61500
C  -0.46100 -0.34800 42.34300
C  -1.10700 2.90900 40.67300
C  -2.87500 0.21600 41.16800
O  -3.45000 1.09700 40.51600
C  -3.59300 -1.11800 41.34900
N  1.34700 -2.39400 43.81000
C  0.02700 -2.49900 43.60100
C  -0.50700 -3.83500 44.15100
C  0.79400 -4.64600 44.46700
C  1.88300 -3.54600 44.32100
C  -1.48300 -3.58700 45.32600
C  1.13900 -5.82400 43.48400
C  1.63700 -7.17100 44.02400
N  4.13300 -1.61000 43.87900
C  4.38300 -2.86100 44.45900
C  5.82100 -3.01200 44.72000
C  6.38800 -1.82400 44.21600
C  5.33600 -1.06100 43.57600
C  6.50500 -4.16900 45.44600
C  7.65700 -1.08300 44.05400
O  8.78800 -1.29400 44.37000
C  7.34000 0.14000 43.18200
C  7.42300 1.24700 44.12800
O  6.65300 1.40700 45.07400
O  8.40800 2.12700 43.79200
C  8.65900 3.23400 44.75700
H  1.40300 3.19100 41.09800
H  -1.85800 -1.72200 43.01000
H  3.44800 -4.70200 45.22000
H  6.30500 2.78200 41.84000
H  4.13600 3.33100 40.08100
H  5.11900 4.59700 42.32300
H  3.33200 4.71600 42.44100
H  4.26700 5.33300 41.07800
H  5.22700 1.36200 39.44600
H  6.61400 0.68900 40.20300
H  7.99600 1.82600 39.06200
H  7.52900 3.30700 39.88500
H  -1.88200 2.78900 39.91600
H  -0.28100 3.33200 40.10100
H  -1.49700 3.62000 41.40100
H  -4.55500 -1.14200 40.83700
H  -3.77500 -1.23500 42.41700
H  -2.96600 -1.89800 40.91700
H  -1.06300 -4.30500 43.33900
H  0.80700 -5.04900 45.48000
H  -1.24500 -4.10900 46.25300
H  -2.49600 -3.85600 45.02700
H  -1.50200 -2.50700 45.47300
H  1.95300 -5.44200 42.86700
H  0.32000 -6.07300 42.80900
H  1.14100 -8.03300 43.57800
H  1.65600 -7.24000 45.11200
H  2.68100 -7.29900 43.74100
H  6.14100 -4.28400 46.46700
H  7.58400 -4.03100 45.36500
H  6.35400 -5.00700 44.76500
H  7.95600 0.18700 42.28300
H  7.69100 3.67100 45.00200
H  9.40000 3.95800 44.41600
H  8.94800 2.76500 45.69700
Mg 47.50900 24.85500 28.02100
C  48.22300 27.24600 30.53000
C  46.84700 22.54300 30.50100
C  47.07400 22.50400 25.68000
C  48.46700 27.20900 25.52900
N  47.62900 24.97500 30.22800
C  47.81300 26.04800 31.04200
C  47.44700 25.76300 32.56400
C  47.23900 24.15500 32.46400
C  47.23700 23.86200 30.96200
C  48.19800 23.28800 33.27500
C  46.25000 26.62200 33.06700
C  45.63000 26.15700 34.45500
H  45.87400 26.98900 35.74900
N  46.99000 22.82200 28.09300
C  46.81300 22.05500 29.19200
C  46.55700 20.69300 28.82000
C  46.56200 20.61300 27.38300
C  46.85500 22.03100 26.99000
C  46.25400 19.64700 29.76900
C  46.28000 19.42300 26.41400
O  46.11500 19.47100 25.20200
C  46.05300 17.93900 26.89300
N  47.95000 24.86300 25.97000
C  47.62500 23.70300 25.24000
C  47.72100 24.00600 23.73100
C  47.89900 25.56000 23.62200
C  48.09900 25.94700 25.12900
C  48.86900 23.25900 22.97500
C  46.69900 26.38000 22.98600
C  45.35800 26.57900 23.73400
N  48.38000 26.81400 27.97400
C  48.71300 27.62100 26.91500
C  48.98800 28.92700 27.42400
C  48.85200 28.81600 28.81400
C  48.42700 27.53300 29.13600
C  49.54500 30.12000 26.61600
C  49.02900 29.58000 30.05000
O  49.46700 30.64600 30.24900
C  48.44200 28.58300 31.18900
C  49.42300 28.57300 32.33300
O  50.47800 27.96300 32.37500
O  48.97100 29.42600 33.31200
C  49.78600 29.36200 34.48200
H  46.81000 21.81500 31.31400
H  46.80200 21.84100 24.85600
H  48.63500 27.99800 24.79300
H  48.18900 25.84500 33.35800
H  46.23000 23.91700 32.80000
H  48.98300 23.95300 33.63400
H  48.52900 22.51100 32.58600
H  47.67100 22.84000 34.11900
H  45.50200 26.71500 32.28000
H  46.71700 27.58200 33.28600
H  45.92600 25.14100 34.71600
H  44.54500 26.15000 34.35100
H  46.99600 18.85200 29.83800
H  45.29400 19.18500 29.53600
H  46.21700 20.01500 30.79400
H  45.02600 17.88500 27.25600
H  46.76300 17.69400 27.68300
H  46.14800 17.16100 26.13500
H  46.75800 23.72700 23.30100
H  48.82000 25.80100 23.09200
H  49.14700 22.44100 23.64000
H  49.75400 23.85000 22.73700
H  48.48400 22.76300 22.08400
H  46.43000 26.06900 21.97700
H  47.21900 27.33400 22.89700
H  45.55800 27.35800 24.46900
H  45.00200 25.67000 24.22100
H  44.62600 27.02500 23.06000
H  50.63200 30.13300 26.54500
H  49.24100 31.02100 27.15000
H  49.19500 30.11700 25.58300
H  47.46300 28.96900 31.47400
H  49.62400 30.25100 35.09100
H  50.83100 29.09700 34.32200
H  49.39600 28.53100 35.06900

