158

Mg 43.11000 41.95900 25.74100
C  41.98200 44.17200 27.96400
C  44.03600 39.71400 28.27900
C  43.83600 39.44600 23.44800
C  42.16500 44.07700 23.16300
N  43.04700 41.98500 27.84300
C  42.45800 42.99800 28.57400
C  42.46500 42.64000 30.03000
C  43.40800 41.32600 30.09300
C  43.60500 40.97900 28.62300
C  44.77900 41.40400 30.74900
C  40.96800 42.49400 30.53400
C  40.56000 43.02600 31.97300
H  41.53300 42.80500 33.22700
N  43.95700 39.88400 25.85100
C  44.14400 39.18800 26.94100
C  44.61300 37.86800 26.60300
C  44.60600 37.78700 25.20300
C  44.17400 39.08100 24.74300
C  44.95500 36.90000 27.67300
C  44.88900 36.59900 24.32500
O  44.86300 36.66400 23.12100
C  45.44000 35.27700 24.83900
N  42.96400 41.78800 23.58300
C  43.39600 40.68300 22.86200
C  43.32600 40.94100 21.36900
C  42.64900 42.42300 21.28600
C  42.60200 42.79000 22.77400
C  44.73000 40.75400 20.72100
C  41.21300 42.45000 20.62600
C  40.04000 41.78000 21.42500
N  42.38500 43.86300 25.48900
C  41.99200 44.62900 24.43000
C  41.55200 45.91800 24.85400
C  41.42000 45.82400 26.31200
C  41.96900 44.53100 26.59200
C  41.19000 47.05500 23.95700
C  40.93400 46.32700 27.51900
O  40.32300 47.41200 27.63400
C  41.31000 45.35300 28.60900
C  42.09700 46.10300 29.66800
O  43.30600 46.02800 29.75900
O  41.25500 46.65400 30.62400
C  41.89800 47.07300 31.88700
H  44.08400 39.04900 29.14400
H  44.02300 38.71400 22.66000
H  41.74600 44.78100 22.44100
H  42.93200 43.35600 30.70700
H  42.75700 40.55500 30.50400
H  44.72400 40.70700 31.58600
H  44.97300 42.40200 31.14100
H  45.57300 41.26600 30.01500
H  40.81900 41.42100 30.65800
H  40.26300 42.87800 29.79600
H  39.56900 42.65100 32.23100
H  40.42800 44.10200 31.86000
H  45.45700 37.49200 28.43900
H  45.54400 35.99700 27.51500
H  43.92500 36.69200 27.96100
H  45.10100 34.93000 25.81500
H  46.49900 35.53700 24.84100
H  45.23700 34.44300 24.16700
H  42.67100 40.30700 20.77200
H  43.28100 43.14600 20.77100
H  45.45800 40.37500 21.43800
H  45.07700 41.72400 20.36500
H  44.59800 40.05900 19.89200
H  41.09200 41.88400 19.70200
H  40.95400 43.46200 20.31700
H  39.38300 41.16700 20.80800
H  39.51100 42.59400 21.92200
H  40.49900 41.06000 22.10200
H  40.23900 46.96900 23.43100
H  41.94800 47.14800 23.17900
H  41.27100 48.03200 24.43400
H  40.33600 45.08400 29.01900
H  42.07800 46.24000 32.56600
H  41.43200 47.90100 32.42100
H  42.84800 47.51500 31.58800
Mg 26.85400 50.58600 26.94700
C  24.68300 51.85500 29.43600
C  29.02100 49.82500 29.29500
C  29.04200 49.82200 24.32800
C  24.45300 51.68000 24.43400
N  26.78000 50.65700 29.12600
C  25.84100 51.26900 29.92100
C  26.21900 51.09500 31.35600
C  27.66900 50.55800 31.32100
C  27.81900 50.17600 29.83200
C  28.80400 51.58000 31.83500
C  25.23900 50.07300 32.08700
C  24.34700 50.66600 33.25800
H  24.21400 49.82800 34.53600
N  28.85700 50.14400 26.86200
C  29.60400 49.83400 28.01200
C  30.90200 49.56100 27.55800
C  30.88500 49.39400 26.15400
C  29.55200 49.75400 25.68700
C  32.00800 49.36400 28.64800
C  32.04900 48.99600 25.23200
O  31.92500 48.94500 24.02800
C  33.37600 48.74700 25.81000
N  26.72200 50.63800 24.66200
C  27.75500 50.25800 23.87500
C  27.31100 50.16700 22.36200
C  25.89200 50.86100 22.37600
C  25.63400 51.04600 23.91200
C  28.30500 50.81600 21.36300
C  24.72400 50.10400 21.55600
C  23.94800 50.95400 20.51900
N  24.89700 51.37800 26.87100
C  24.08400 51.83400 25.82400
C  22.87200 52.39300 26.37600
C  23.12200 52.52000 27.74300
C  24.33300 51.86600 28.05000
C  21.70500 53.08600 25.66100
C  22.53400 53.02500 29.02900
O  21.48100 53.62500 29.31900
C  23.56400 52.52000 30.13500
C  24.04100 53.53500 31.02500
O  24.86800 54.38700 30.79100
O  23.30800 53.48000 32.21300
C  23.56500 54.50300 33.24500
H  29.69800 49.49300 30.08400
H  29.71500 49.39900 23.57900
H  23.73200 51.99600 23.67700
H  26.19000 52.11200 31.74800
H  27.84600 49.65800 31.90900
H  28.25500 52.50200 32.02400
H  29.65200 51.70600 31.16200
H  29.19100 51.31100 32.81800
H  25.78700 49.17200 32.36200
H  24.45900 49.83300 31.36400
H  23.35200 50.81500 32.83900
H  24.65600 51.66800 33.55400
H  32.30900 48.32300 28.76400
H  31.80100 49.69200 29.66700
H  32.88800 49.87100 28.25200
H  33.29800 48.08800 26.67500
H  33.80100 49.71800 26.06500
H  34.08800 48.19400 25.19700
H  27.40400 49.10300 22.14400
H  26.00500 51.84700 21.92500
H  28.77700 49.99600 20.82000
H  29.03700 51.39200 21.92900
H  28.03500 51.47800 20.54000
H  23.96100 49.79800 22.27300
H  24.97700 49.19000 21.01800
H  23.66400 50.32800 19.67300
H  24.51400 51.82000 20.17600
H  23.00400 51.27300 20.96200
H  20.81100 52.47000 25.75200
H  21.95300 53.24800 24.61100
H  21.55100 54.01200 26.21500
H  23.05600 51.70800 30.65300
H  23.99600 55.37300 32.74900
H  24.23700 54.12100 34.01400
H  22.62800 54.83000 33.69500

