158

Mg 46.20900 24.76900 28.53000
C  46.39700 27.21900 31.10900
C  45.06300 22.51500 30.85500
C  46.21700 22.52600 26.13000
C  48.00900 26.95500 26.48000
N  45.58600 24.93100 30.70300
C  45.83100 25.99600 31.58200
C  45.45500 25.58700 33.00500
C  45.28300 24.01300 32.88400
C  45.37000 23.78400 31.37100
C  46.29500 23.20700 33.73800
C  44.31200 26.42600 33.57500
C  44.71100 27.09100 34.86900
H  45.11700 26.28900 36.20100
N  45.63200 22.90000 28.48900
C  45.12800 22.13900 29.53000
C  44.75200 20.85200 28.96200
C  45.02500 20.82600 27.55800
C  45.64700 22.10000 27.34900
C  44.13200 19.71400 29.77000
C  44.75500 19.82800 26.52100
O  45.03100 19.95500 25.33600
C  43.87700 18.58600 26.87500
N  46.95800 24.79000 26.60500
C  46.84700 23.68500 25.77800
C  47.31500 23.99800 24.27900
C  47.98500 25.41800 24.42600
C  47.56600 25.80700 25.88000
C  48.20000 23.01600 23.46200
C  47.58800 26.49900 23.39200
C  46.08000 26.95400 23.21100
N  47.04600 26.74100 28.67400
C  47.73600 27.45300 27.75500
C  48.13700 28.72600 28.31600
C  47.65500 28.62400 29.63400
C  46.98400 27.40900 29.84300
C  49.04300 29.76700 27.72800
C  47.62900 29.34800 30.92700
O  48.02100 30.45500 31.17400
C  46.86300 28.42200 31.95900
C  47.93200 28.00000 32.86700
O  48.62300 26.94500 32.78100
O  47.94800 28.71600 34.06200
C  48.95400 28.31000 35.06600
H  44.68300 21.97100 31.72300
H  46.17400 21.85700 25.26800
H  48.56200 27.51200 25.72100
H  46.32500 25.69800 33.65400
H  44.29900 23.76200 33.27700
H  47.19100 23.75400 34.03200
H  46.62600 22.54700 32.93600
H  45.84900 22.72200 34.60600
H  43.48700 25.78400 33.88200
H  44.07300 27.20300 32.84800
H  43.84500 27.67400 35.17900
H  45.62400 27.67800 34.76400
H  44.60500 18.73500 29.69200
H  43.05800 19.71300 29.58300
H  44.33800 19.92900 30.81800
H  44.41100 17.91300 27.54600
H  43.59800 18.20200 25.89400
H  42.99000 18.92200 27.41200
H  46.33400 24.12600 23.82000
H  49.06300 25.28400 24.33300
H  49.00500 23.58500 22.99800
H  47.66200 22.36500 22.77300
H  48.78700 22.37500 24.12100
H  47.90000 25.98800 22.48100
H  48.20200 27.38700 23.54000
H  45.64600 26.50600 22.31700
H  46.03800 28.03100 23.04600
H  45.40500 26.64900 24.01000
H  49.95500 29.27000 27.39800
H  49.36400 30.42400 28.53600
H  48.54300 30.25500 26.89100
H  46.06700 28.87300 32.55300
H  48.38600 27.56900 35.62800
H  49.03900 29.24800 35.61500
H  49.88600 27.94200 34.63600
Mg 49.95500 44.76000 42.97000
C  46.66800 45.43800 41.94500
C  49.36200 41.38000 42.39500
C  53.38100 44.17400 42.56500
C  50.60300 48.15000 42.49900
N  48.18600 43.48900 42.53000
C  47.02100 44.07400 42.01000
C  46.04700 42.93700 41.63800
C  46.73800 41.65600 42.29400
C  48.17400 42.13300 42.47100
C  46.22000 41.24300 43.68200
C  45.90300 42.87300 40.12100
C  44.45900 43.00700 39.67500
H  44.11600 43.97200 38.54300
N  51.25100 43.04000 42.64700
C  50.77200 41.77200 42.38400
C  51.92800 40.93000 42.16200
C  53.12300 41.69700 42.23900
C  52.63300 43.03000 42.50400
C  51.79800 39.40000 41.82700
C  54.58100 41.25100 42.02000
O  54.71000 40.05900 41.79900
C  55.85700 41.99600 42.31400
N  51.74700 46.03500 42.61500
C  53.02300 45.55500 42.62100
C  54.08100 46.67100 42.67100
C  53.20600 47.96700 42.18800
C  51.76200 47.39000 42.49000
C  54.60500 46.62800 44.09300
C  53.17200 48.43300 40.64500
C  53.15400 49.96200 40.34200
N  48.84200 46.52000 42.66100
C  49.24200 47.82200 42.53000
C  48.09200 48.65700 42.24400
C  47.07100 47.75500 42.03000
C  47.56300 46.44700 42.29500
C  48.10200 50.05900 41.79700
C  45.69700 47.70200 41.60800
O  44.82400 48.55300 41.38700
C  45.35400 46.14900 41.54100
C  44.18800 45.79000 42.41000
O  44.32200 45.73400 43.64100
O  43.05500 45.45200 41.69400
C  41.78800 45.32100 42.39600
H  49.29500 40.29500 42.28700
H  54.45200 44.03800 42.39700
H  50.77200 49.22100 42.37100
H  45.07500 43.12600 42.09400
H  46.95100 40.81900 41.62800
H  47.00400 41.48700 44.39800
H  46.19100 40.15300 43.71100
H  45.41000 41.87500 44.04700
H  46.41200 42.01100 39.69100
H  46.34800 43.74500 39.64100
H  43.83400 43.25300 40.53400
H  44.20300 42.00100 39.34200
H  52.47000 39.09200 41.02600
H  50.81500 39.30500 41.36600
H  51.78400 38.88500 42.78800
H  56.12900 42.59300 41.44400
H  56.67100 41.27300 42.35600
H  55.89000 42.48400 43.28800
H  54.86600 46.39600 41.96600
H  53.60200 48.81100 42.75300
H  55.68600 46.49200 44.10600
H  54.10100 45.88100 44.70700
H  54.48300 47.52200 44.70400
H  52.22600 48.09100 40.22700
H  53.88000 47.86400 40.04100
H  52.86100 50.16800 39.31200
H  54.14800 50.39800 40.45000
H  52.42300 50.50700 40.93800
H  48.37900 50.66400 42.65900
H  47.19800 50.42800 41.31100
H  48.94700 50.14800 41.11400
H  45.14600 45.99900 40.48100
H  41.72800 46.01300 43.23700
H  41.84000 44.26400 42.65700
H  40.94800 45.36500 41.70300

