158

Mg -2.24400 34.92100 26.20700
C  -4.20800 33.49100 28.53600
C  -1.33300 37.36400 28.47000
C  -0.39600 36.51600 23.76200
C  -3.93100 33.17900 23.66500
N  -2.63000 35.23800 28.32700
C  -3.36100 34.45600 29.08100
C  -3.30800 34.90200 30.55200
C  -2.51600 36.24400 30.46700
C  -2.17700 36.31600 28.96600
C  -3.33900 37.56000 30.89900
C  -2.71600 33.78000 31.45400
C  -2.31900 34.16900 32.93100
H  -2.86600 33.28000 34.02700
N  -0.99800 36.68900 26.13700
C  -0.83500 37.54600 27.18600
C  0.13400 38.61500 26.81900
C  0.46400 38.37800 25.42200
C  -0.27800 37.12100 25.02600
C  0.62800 39.61600 27.79100
C  1.27200 39.21600 24.42200
O  1.44500 38.95100 23.21000
C  1.88300 40.45300 24.91500
N  -2.18800 34.90700 23.98800
C  -1.20100 35.52100 23.23500
C  -1.19200 34.94700 21.81100
C  -2.51000 34.11900 21.81000
C  -2.89000 34.05400 23.21000
C  -1.13100 35.93800 20.59700
C  -2.35500 32.73200 21.16800
C  -3.41700 32.30000 20.16100
N  -3.72100 33.59000 26.03900
C  -4.22600 32.85800 24.97500
C  -5.16600 31.85000 25.41700
C  -5.14500 32.08200 26.84300
C  -4.25500 33.12300 27.16800
C  -5.98100 30.95100 24.56400
C  -5.76800 31.56900 28.10700
O  -6.47100 30.59800 28.25200
C  -5.21100 32.59400 29.21400
C  -6.43900 33.29200 29.76100
O  -7.25600 34.02800 29.18500
O  -6.56900 33.05400 31.10000
C  -7.56600 33.75800 31.93000
H  -0.99100 38.10800 29.19300
H  0.26200 36.93400 22.99700
H  -4.57300 32.64400 22.96300
H  -4.35400 35.08100 30.80500
H  -1.68900 36.35400 31.16900
H  -4.31800 37.25400 31.26700
H  -3.48300 38.32600 30.13800
H  -2.73100 38.06300 31.65200
H  -1.90800 33.29800 30.90400
H  -3.57000 33.11100 31.56000
H  -2.60100 35.21300 33.06500
H  -1.23100 34.18500 32.99300
H  -0.02300 40.48900 27.82100
H  1.62400 39.88400 27.43700
H  0.77000 39.16500 28.77300
H  1.23000 40.94700 25.63300
H  2.15800 40.96600 23.99300
H  2.87300 40.18600 25.28700
H  -0.37800 34.22100 21.80700
H  -3.22300 34.72500 21.25100
H  -0.10900 36.15500 20.28800
H  -1.40600 36.88500 21.06000
H  -1.86400 35.63300 19.85100
H  -2.36400 31.99300 21.96800
H  -1.43600 32.63200 20.59100
H  -2.90700 32.10900 19.21800
H  -4.05500 33.15200 19.92500
H  -3.99500 31.45200 20.52600
H  -6.79100 31.53600 24.12800
H  -6.26700 29.99700 25.00600
H  -5.31800 30.61300 23.76700
H  -4.74300 32.02800 30.01900
H  -7.00900 34.22200 32.74400
H  -8.13900 32.94800 32.38100
H  -8.16500 34.53600 31.45600
Mg -10.22100 17.39400 40.73300
C  -6.78400 17.19000 40.90900
C  -9.84800 20.76800 40.16100
C  -13.56500 17.52600 40.09100
C  -10.28600 13.98600 40.55200
N  -8.52400 18.78900 40.45800
C  -7.26700 18.47600 40.68600
C  -6.29800 19.68800 40.46500
C  -7.31200 20.90400 40.72100
C  -8.66000 20.11900 40.49800
C  -7.27700 21.44800 42.11800
C  -5.59900 19.72200 39.06100
C  -4.09400 19.46200 39.03400
H  -3.50900 18.65000 37.92700
N  -11.52100 18.91400 40.18900
C  -11.16600 20.27000 39.96400
C  -12.30500 21.01700 39.59400
C  -13.45300 20.14800 39.74000
C  -12.86900 18.78300 39.95400
C  -12.19800 22.49400 39.13800
C  -14.91300 20.56800 39.66300
O  -15.19900 21.73300 39.50200
C  -15.99200 19.61400 39.60600
N  -11.72800 15.93000 40.47600
C  -13.01500 16.23200 40.36700
C  -13.80900 14.92800 40.22700
C  -12.77700 13.80300 40.17500
C  -11.51900 14.65100 40.39300
C  -14.94500 14.73900 41.26700
C  -12.81500 13.08100 38.86100
C  -12.69600 11.54900 39.03400
N  -8.86900 15.86400 40.76200
C  -9.00600 14.47900 40.76800
C  -7.81400 13.79200 40.87700
C  -6.92700 14.92300 40.97900
C  -7.63100 16.07500 40.92500
C  -7.63300 12.32800 40.87700
C  -5.45800 15.15200 41.04300
O  -4.58300 14.30400 41.08100
C  -5.38600 16.69200 41.19100
C  -4.95900 17.15600 42.55700
O  -3.88000 17.70800 42.72100
O  -5.92300 17.00400 43.48700
C  -5.63600 17.60500 44.82000
H  -9.83700 21.85700 40.07600
H  -14.62300 17.39400 39.85100
H  -10.32200 12.89500 40.53200
H  -5.51200 19.70100 41.22100
H  -7.19300 21.68000 39.96500
H  -6.90600 22.46700 42.00200
H  -6.55800 20.93800 42.75900
H  -8.29300 21.47700 42.51100
H  -5.68300 20.66400 38.52000
H  -6.26000 19.06000 38.50100
H  -3.73100 19.36800 40.05700
H  -3.68800 20.43800 38.76800
H  -12.13200 23.12600 40.02400
H  -13.13900 22.76300 38.65900
H  -11.26000 22.69700 38.62000
H  -16.04400 18.94600 38.74700
H  -16.94000 20.14600 39.67900
H  -15.90800 19.08900 40.55800
H  -14.23000 15.07500 39.23200
H  -13.00300 13.19100 41.04800
H  -15.12300 15.63900 41.85600
H  -14.78600 13.92800 41.97700
H  -15.83500 14.58800 40.65600
H  -11.99000 13.47500 38.26700
H  -13.76900 13.33000 38.39600
H  -11.67500 11.22600 38.82800
H  -13.37300 11.00100 38.37900
H  -12.88100 11.34500 40.08900
H  -7.94000 11.94300 39.90500
H  -8.33000 11.84600 41.56200
H  -6.62000 11.95700 41.03200
H  -4.66600 16.98800 40.42700
H  -4.80400 17.14700 45.35400
H  -6.59600 17.47700 45.32000
H  -5.42100 18.67100 44.74800

