158

Mg 49.41700 46.85500 43.18000
C  46.18300 47.44100 42.15700
C  49.22800 43.96400 41.16400
C  52.69300 46.39800 43.56000
C  49.66600 49.97900 44.36500
N  47.90900 45.81700 41.86600
C  46.68500 46.32900 41.55000
C  46.02300 45.53200 40.44200
C  46.94600 44.29600 40.19200
C  48.13600 44.72500 41.11900
C  46.25600 42.85700 40.40700
C  45.65300 46.23200 39.19000
C  44.23100 45.92700 38.64800
H  44.15000 45.82000 37.08500
N  50.82300 45.29100 42.64300
C  50.46300 44.17200 41.85500
C  51.65900 43.25500 41.86000
C  52.65700 43.91500 42.69500
C  52.05100 45.22700 43.06900
C  51.83100 41.90300 41.14400
C  53.98700 43.39400 43.09500
O  54.38300 42.25700 42.72400
C  54.82500 44.01800 44.27100
N  50.94000 48.04200 43.95800
C  52.21700 47.64300 43.97700
C  53.20300 48.70700 44.59700
C  52.18100 49.77200 44.96800
C  50.81200 49.23200 44.41800
C  54.23100 48.32800 45.63000
C  52.56400 51.21100 44.34600
C  52.53700 52.27200 45.41200
N  48.22400 48.39000 43.39200
C  48.42000 49.60800 43.91700
C  47.13300 50.35600 43.95300
C  46.22500 49.46200 43.35800
C  46.93000 48.29600 42.98600
C  46.87100 51.79500 44.51400
C  44.90100 49.35900 42.94900
O  44.01300 50.19200 43.03100
C  44.77900 48.02700 42.13600
C  43.78600 47.03700 42.76300
O  43.79900 46.78900 43.96700
O  42.87400 46.68300 41.77100
C  41.80300 45.83300 42.35100
H  49.32200 43.14200 40.45100
H  53.72800 46.16400 43.81700
H  49.75600 51.00800 44.72100
H  45.07300 45.25200 40.89700
H  47.37100 44.30600 39.18800
H  45.31900 42.86300 40.96400
H  47.05400 42.32600 40.92500
H  46.08800 42.47400 39.40000
H  46.39900 46.07600 38.41000
H  45.86500 47.29100 39.33300
H  43.58100 46.71200 39.03600
H  43.90200 44.98200 39.07900
H  52.54800 42.02200 40.33200
H  50.89900 41.55100 40.70200
H  52.19700 41.14000 41.83000
H  55.41700 43.21300 44.70600
H  54.19900 44.32600 45.10800
H  55.41200 44.87900 43.95300
H  53.74400 48.91000 43.67300
H  52.05000 49.77200 46.05100
H  54.40700 49.07500 46.40400
H  55.18100 48.06400 45.16600
H  53.76900 47.46800 46.11300
H  51.94000 51.49700 43.49900
H  53.61300 51.19100 44.04900
H  51.73800 52.90400 45.02400
H  53.53900 52.69900 45.37200
H  52.32400 51.95900 46.43400
H  45.92700 51.86500 45.05500
H  46.83400 52.60400 43.78400
H  47.64800 52.07500 45.22500
H  44.48400 48.29400 41.12100
H  41.28000 46.36500 43.14600
H  42.29800 44.99300 42.83800
H  41.10400 45.37600 41.65100
Mg -10.74400 37.84300 41.61200
C  -8.69500 35.02800 41.33300
C  -8.31700 39.67400 39.84600
C  -12.82400 40.51600 41.32700
C  -13.21200 35.84500 42.88400
N  -8.72000 37.37700 40.64600
C  -8.14000 36.13100 40.59800
C  -6.81400 36.22400 39.90600
C  -6.62800 37.77900 39.69700
C  -8.00600 38.28300 39.99100
C  -5.34200 38.41800 40.39800
C  -6.80500 35.44600 38.57500
C  -5.49800 34.59300 38.32600
H  -4.44200 35.15300 37.29000
N  -10.53200 39.82800 40.90400
C  -9.45300 40.33700 40.21400
C  -9.58000 41.73700 39.99300
C  -10.86800 42.10000 40.45200
C  -11.52300 40.78800 40.92600
C  -8.53900 42.56100 39.19700
C  -11.53500 43.46600 40.44800
O  -10.81000 44.45000 40.04600
C  -12.84500 43.76400 41.01900
N  -12.76400 38.13200 41.90500
C  -13.36900 39.33500 41.88600
C  -14.88100 39.23200 42.27800
C  -14.98800 37.73400 42.84300
C  -13.56900 37.15200 42.46000
C  -15.32500 40.36700 43.32900
C  -16.24300 37.00600 42.32900
C  -16.23000 36.04500 41.16800
N  -10.94500 35.84400 42.14500
C  -11.97900 35.21100 42.68900
C  -11.57000 33.78100 43.01300
C  -10.27100 33.68200 42.46700
C  -9.95100 34.97200 41.92600
C  -12.47400 32.77800 43.68000
C  -9.18900 32.80900 42.24800
O  -9.13000 31.65700 42.56800
C  -8.11400 33.64500 41.46300
C  -6.79300 33.56300 42.08700
O  -6.31800 32.49500 42.34100
O  -6.33200 34.74500 42.59400
C  -5.26000 34.73200 43.56900
H  -7.49200 40.20200 39.36200
H  -13.49100 41.37800 41.40100
H  -14.05600 35.19100 43.11500
H  -6.00200 35.95900 40.58300
H  -6.43300 38.07500 38.66600
H  -4.80800 37.73800 41.06200
H  -5.68800 39.18000 41.09700
H  -4.72500 38.97900 39.69600
H  -6.84200 36.10900 37.71100
H  -7.65200 34.76100 38.52900
H  -5.88300 33.64900 37.94100
H  -4.92700 34.35100 39.22200
H  -8.12700 43.17700 39.99700
H  -8.99600 43.13300 38.39000
H  -7.78900 41.93700 38.70900
H  -13.01100 43.36300 42.01900
H  -13.59400 43.43900 40.29700
H  -13.00300 44.84200 41.07000
H  -15.33500 39.31000 41.29000
H  -15.12500 37.76200 43.92400
H  -15.87800 41.14000 42.79600
H  -14.46900 40.84000 43.81100
H  -15.93600 39.99500 44.15100
H  -16.98000 37.76000 42.05200
H  -16.64000 36.42500 43.16100
H  -16.97200 36.38300 40.44500
H  -16.43500 35.00900 41.43800
H  -15.22600 36.07800 40.74300
H  -12.76500 32.01600 42.95700
H  -13.31300 33.32200 44.11600
H  -11.98300 32.19500 44.45900
H  -8.01800 33.23600 40.45700
H  -5.62900 34.82200 44.59100
H  -4.58400 35.57100 43.40500
H  -4.64200 33.83400 43.55700

