158

Mg -1.67600 17.76500 27.94000
C  -2.00100 15.62700 30.64300
C  -2.19900 20.44600 30.05900
C  -1.26900 19.89000 25.34700
C  -1.47000 15.03900 25.82200
N  -2.10100 17.96200 30.08500
C  -2.15600 16.94200 30.98700
C  -2.52800 17.41800 32.42500
C  -2.57100 18.97900 32.18500
C  -2.37800 19.15100 30.62400
C  -3.84600 19.66400 32.76900
C  -1.57300 17.01100 33.65800
C  -1.53800 17.82700 34.99300
H  -0.39000 17.40800 35.99000
N  -1.77000 19.86100 27.63600
C  -1.91700 20.78300 28.72300
C  -1.84300 22.09600 28.19400
C  -1.75000 21.98800 26.78400
C  -1.57600 20.54300 26.51800
C  -2.09800 23.36400 29.01500
C  -1.81800 23.10000 25.70500
O  -1.64000 22.87900 24.47500
C  -2.13800 24.51600 26.19600
N  -1.42500 17.48800 25.87000
C  -1.33900 18.51300 24.97100
C  -1.20200 17.96600 23.53300
C  -0.98600 16.39800 23.75100
C  -1.30100 16.26100 25.21800
C  -2.46400 18.41900 22.70500
C  0.27800 15.72200 23.29900
C  1.49500 15.85100 24.22500
N  -1.83200 15.77500 28.14300
C  -1.68300 14.77600 27.17900
C  -1.66900 13.58900 27.86300
C  -1.74200 13.81800 29.22100
C  -1.88400 15.20100 29.33000
C  -1.42500 12.27600 27.24800
C  -1.78900 13.19100 30.55200
O  -1.72400 11.97900 30.91200
C  -2.00400 14.37200 31.52100
C  -0.80200 14.30200 32.45600
O  0.27800 14.75100 32.25400
O  -1.29100 13.58900 33.57600
C  -0.23800 13.08700 34.54100
H  -2.46900 21.21300 30.78800
H  -1.00700 20.45700 24.45100
H  -1.27600 14.18900 25.16500
H  -3.52900 17.06200 32.67000
H  -1.69400 19.34300 32.71900
H  -3.72800 20.63700 33.24700
H  -4.43800 18.97900 33.37500
H  -4.47100 19.84200 31.89400
H  -0.58200 16.92900 33.21000
H  -1.76400 16.03600 34.10700
H  -2.40400 17.42300 35.51600
H  -1.76900 18.89200 35.01200
H  -2.33800 23.08800 30.04100
H  -2.92300 23.89500 28.54000
H  -1.20200 23.98400 28.99400
H  -3.18500 24.47300 26.49400
H  -2.13400 25.22800 25.37100
H  -1.36600 24.88300 26.87300
H  -0.35300 18.33800 22.96100
H  -1.71900 15.83900 23.16900
H  -2.94800 19.27900 23.16900
H  -3.17100 17.58900 22.70200
H  -2.07000 18.64800 21.71500
H  0.49000 15.98300 22.26200
H  -0.00800 14.68100 23.15100
H  1.38900 16.21200 25.24800
H  1.98200 16.62400 23.63200
H  2.15800 14.99100 24.12300
H  -0.73400 12.31600 26.40500
H  -2.41700 12.02300 26.87400
H  -1.01500 11.53700 27.93600
H  -2.98000 14.33500 32.00400
H  -0.24800 11.99800 34.51500
H  -0.49300 13.37900 35.56000
H  0.71700 13.57100 34.33600
Mg 9.45100 4.21500 28.08500
C  10.66200 2.64000 30.92600
C  7.58700 6.33000 30.18800
C  8.17900 5.75200 25.38500
C  10.73400 1.69700 26.11600
N  9.15500 4.39500 30.29000
C  9.77300 3.66000 31.26100
C  9.38700 4.05500 32.71200
C  8.54100 5.37700 32.38500
C  8.42700 5.39500 30.83100
C  7.17700 5.52400 33.17000
C  10.55300 4.34000 33.71300
C  10.29200 5.26200 34.87100
H  10.76200 4.79500 36.22500
N  7.96800 5.82100 27.84100
C  7.33900 6.52800 28.81700
C  6.39600 7.40000 28.18900
C  6.66600 7.32300 26.82400
C  7.59800 6.25700 26.62100
C  5.48600 8.31200 29.00400
C  6.12800 8.21000 25.80000
O  6.38500 8.04400 24.59800
C  5.00500 9.17000 26.07900
N  9.48200 3.77300 26.01800
C  8.96000 4.61700 25.09700
C  9.37700 4.16500 23.70000
C  10.09100 2.78800 23.92400
C  10.17800 2.77500 25.44400
C  8.19100 4.14400 22.68500
C  11.50700 2.61500 23.18600
C  11.50800 1.55300 22.16500
N  10.50500 2.49200 28.42800
C  11.00200 1.58200 27.51000
C  11.88000 0.63600 28.18000
C  11.67500 0.98900 29.53500
C  10.88000 2.17900 29.62400
C  12.54300 -0.60200 27.56200
C  12.03600 0.58300 30.85400
O  12.65200 -0.34100 31.19900
C  11.38700 1.62500 31.87600
C  10.47500 0.91400 32.82200
O  9.37400 0.38000 32.56500
O  11.02900 0.97800 34.07300
C  10.28900 0.33600 35.12100
H  7.20000 7.03200 30.92900
H  7.88200 6.26800 24.46900
H  11.09300 0.88900 25.47500
H  8.82800 3.19700 33.08700
H  9.16500 6.23000 32.65200
H  6.93400 4.69800 33.83900
H  6.37300 5.55200 32.43500
H  7.23300 6.49900 33.65200
H  11.41300 4.63300 33.11100
H  10.89500 3.41500 34.17900
H  9.25700 5.60000 34.91400
H  10.91600 6.12100 34.62100
H  5.49400 7.98200 30.04300
H  4.48600 8.25600 28.57300
H  5.90800 9.31400 28.92600
H  4.09000 8.76500 26.51000
H  4.86900 9.61400 25.09200
H  5.30100 10.03200 26.67800
H  10.13900 4.92900 23.54900
H  9.36400 2.03200 23.62600
H  7.26500 4.00200 23.24300
H  8.21800 3.38000 21.90800
H  8.12400 5.07900 22.13000
H  12.35600 2.44600 23.84800
H  11.61200 3.56700 22.66600
H  11.25300 1.93100 21.17500
H  10.76200 0.77400 22.32400
H  12.45800 1.02000 22.12300
H  12.77700 -0.46900 26.50600
H  11.93500 -1.50600 27.60300
H  13.52100 -0.82300 27.99000
H  12.09700 2.22200 32.44800
H  10.23800 1.07900 35.91600
H  10.96200 -0.46400 35.43000
H  9.30700 -0.09700 34.93000

