158

Mg 49.10200 47.27600 42.19200
C  45.69800 47.65100 41.12900
C  49.15600 44.30300 40.43800
C  52.37300 47.22400 42.68400
C  49.06300 50.75100 42.79200
N  47.63000 46.20400 40.84800
C  46.32100 46.49700 40.58300
C  45.62300 45.65300 39.55300
C  46.57100 44.41400 39.66400
C  47.88300 44.97800 40.37500
C  45.94800 43.16300 40.46700
C  45.65200 46.28600 38.15000
C  44.40700 46.15400 37.41900
H  44.63500 45.67400 35.97600
N  50.57900 45.79800 41.86900
C  50.39200 44.63200 41.15600
C  51.62500 43.92500 41.20600
C  52.56700 44.74200 41.92900
C  51.89700 45.96300 42.27400
C  51.82600 42.49000 40.66800
C  53.99400 44.42400 42.31100
O  54.44000 43.31500 42.08800
C  54.95000 45.38800 43.01600
N  50.53200 48.75700 42.73100
C  51.81000 48.49300 42.84600
C  52.64400 49.75400 43.25200
C  51.64200 50.84400 42.95000
C  50.28000 50.07000 42.90400
C  53.24700 49.77000 44.71600
C  52.05500 51.58200 41.63900
C  52.53100 52.93300 41.91100
N  47.64900 48.82500 42.32400
C  47.78800 50.17000 42.59500
C  46.54100 50.90200 42.37300
C  45.60000 49.84800 41.98500
C  46.38000 48.69600 41.85200
C  46.39300 52.32700 42.46800
C  44.23200 49.54100 41.63200
O  43.16900 50.24200 41.65900
C  44.24500 48.09700 41.02200
C  43.14300 47.30400 41.70500
O  43.17000 46.97800 42.92500
O  42.22200 46.83200 40.81100
C  41.83000 45.41500 41.01800
H  49.24400 43.32900 39.95100
H  53.45700 47.21700 42.81100
H  49.13500 51.83300 42.91500
H  44.60900 45.38200 39.84900
H  46.74500 44.07200 38.64300
H  45.15400 42.72700 39.86000
H  45.41200 43.50400 41.35300
H  46.71000 42.43200 40.73800
H  46.42800 45.70200 37.65400
H  45.98700 47.32300 38.19100
H  43.83900 47.07900 37.51500
H  43.77700 45.40300 37.89400
H  51.36300 42.12900 39.75000
H  51.57000 41.76700 41.44300
H  52.88100 42.31400 40.45800
H  54.61200 45.81100 43.96200
H  55.04700 46.22200 42.32100
H  55.89200 44.85500 43.14700
H  53.47800 49.68800 42.55400
H  51.65400 51.59800 43.73700
H  52.72300 49.04100 45.33400
H  53.24700 50.77500 45.13600
H  54.30400 49.50500 44.76100
H  51.11200 51.65500 41.09800
H  52.69200 50.89300 41.08500
H  52.92700 53.39800 41.00900
H  53.19800 53.00100 42.77100
H  51.62000 53.45900 42.19900
H  46.82000 52.73700 43.38300
H  45.34500 52.53400 42.68800
H  46.58800 52.93700 41.58600
H  43.89800 48.26700 40.00300
H  42.53400 44.80600 41.58600
H  41.74700 44.96100 40.03000
H  40.90400 45.35900 41.59000
Mg 0.74400 42.71800 25.91800
C  2.17100 42.99800 29.00200
C  -2.22200 41.77900 27.34200
C  -0.38200 41.78700 22.74500
C  3.89500 43.42700 24.40300
N  0.03700 42.36900 27.96200
C  0.81000 42.64200 29.07800
C  -0.06000 42.57100 30.33400
C  -1.46000 41.97000 29.82400
C  -1.22300 42.12800 28.28300
C  -1.79500 40.50200 30.24800
C  -0.13600 43.98400 31.05400
C  0.54900 44.05800 32.42500
H  -0.35700 43.91400 33.63900
N  -1.08200 42.03200 25.17900
C  -2.19100 41.74500 25.93800
C  -3.28100 41.30000 25.01600
C  -2.75500 41.28200 23.71900
C  -1.36700 41.66700 23.86900
C  -4.63100 40.95300 25.50700
C  -3.45500 40.88600 22.40600
O  -2.88600 40.88900 21.33500
C  -4.92200 40.58200 22.27400
N  1.64300 42.66700 23.91300
C  0.98100 42.13100 22.82200
C  1.93800 41.90600 21.68200
C  3.09700 42.92900 22.00400
C  2.95200 42.96500 23.54000
C  2.34400 40.41000 21.55000
C  3.08400 44.34400 21.24200
C  2.38400 45.52200 22.01800
N  2.59200 43.12000 26.54000
C  3.73100 43.48000 25.81000
C  4.75600 43.76200 26.76900
C  4.23100 43.47400 28.04000
C  2.87200 43.18200 27.81800
C  6.13200 44.20700 26.37900
C  4.53500 43.37800 29.46900
O  5.55500 43.42100 30.15900
C  3.21500 43.11700 30.17700
C  3.46700 41.85600 30.94700
O  3.34800 40.70000 30.56100
O  3.74200 42.22200 32.27200
C  3.77300 41.08600 33.13400
H  -3.17800 41.50900 27.79500
H  -0.69100 41.48000 21.74300
H  4.87300 43.63900 23.96600
H  0.29000 41.81200 31.03300
H  -2.28700 42.60600 30.14100
H  -0.92400 40.05200 30.72500
H  -2.18400 39.90100 29.42600
H  -2.63400 40.49700 30.94500
H  -1.19000 44.24700 31.14400
H  0.48400 44.70000 30.51300
H  1.02700 45.03600 32.48100
H  1.30100 43.28000 32.56500
H  -5.30100 41.53800 24.87800
H  -4.77000 41.20900 26.55700
H  -4.79200 39.88900 25.33400
H  -5.28400 39.86700 23.01400
H  -5.19600 40.16800 21.30400
H  -5.37800 41.54900 22.48500
H  1.40100 42.25500 20.79900
H  4.01200 42.41300 21.71500
H  1.47000 39.90900 21.96700
H  3.18600 40.17400 22.20100
H  2.23700 39.99600 20.54800
H  2.58000 44.27600 20.27800
H  4.09700 44.73000 21.12800
H  3.09000 46.29200 22.33100
H  1.89700 45.23700 22.95000
H  1.64400 45.93300 21.33200
H  6.63400 44.77800 27.16000
H  6.00600 44.73400 25.43300
H  6.85800 43.42300 26.16400
H  3.00800 43.97300 30.81800
H  4.82600 40.80900 33.18400
H  3.11000 40.24900 32.91500
H  3.42500 41.50200 34.08000

