158

Mg 24.00300 -5.67400 45.78200
C  26.13400 -3.34500 44.38400
C  21.55000 -4.74100 43.47900
C  22.16800 -8.66900 46.19000
C  26.74300 -7.24800 47.32400
N  23.88100 -4.17000 44.16500
C  24.85100 -3.29100 43.76300
C  24.42600 -2.27300 42.68900
C  22.86500 -2.49800 42.81200
C  22.74800 -3.98600 43.48200
C  22.15400 -1.47200 43.69700
C  25.16600 -2.62400 41.28800
C  26.09400 -1.52800 40.59800
H  26.01900 -1.26200 39.08300
N  21.96600 -6.50700 45.10600
C  21.20800 -5.86600 44.18100
C  19.97600 -6.62200 44.07800
C  20.11800 -7.83400 44.80900
C  21.40800 -7.72600 45.52300
C  18.75400 -6.23700 43.20400
C  19.01100 -8.89100 44.89100
O  17.88700 -8.69700 44.36300
C  19.16900 -10.13200 45.79100
N  24.36300 -7.60500 46.63400
C  23.49700 -8.64300 46.69000
C  23.99700 -9.84000 47.53600
C  25.43700 -9.40200 47.87500
C  25.56500 -8.01600 47.26400
C  23.05800 -10.23100 48.66400
C  26.53200 -10.44800 47.42700
C  26.95000 -11.46100 48.55400
N  25.99700 -5.23900 46.03700
C  27.01000 -5.96700 46.68700
C  28.25300 -5.23400 46.58900
C  28.02300 -4.15100 45.61800
C  26.59300 -4.30300 45.38400
C  29.51300 -5.52800 47.22200
C  28.56000 -3.04400 44.82800
O  29.63700 -2.56700 44.69500
C  27.35900 -2.44500 44.03100
C  27.19700 -0.95500 44.22000
O  26.68200 -0.46100 45.19400
O  27.75200 -0.30400 43.19800
C  27.70500 1.09500 43.07900
H  20.78000 -4.44800 42.76300
H  21.56900 -9.55100 46.42500
H  27.58900 -7.65700 47.87900
H  24.86600 -1.33400 43.02700
H  22.52500 -2.47000 41.77700
H  22.83000 -0.96900 44.38700
H  21.40500 -2.00800 44.28000
H  21.62900 -0.76900 43.04900
H  24.47100 -3.08400 40.58500
H  25.84500 -3.43700 41.54800
H  27.10800 -1.78200 40.90600
H  25.74700 -0.63500 41.11800
H  18.62800 -6.97100 42.40900
H  18.79400 -5.25900 42.72500
H  17.95900 -6.10300 43.93800
H  19.24500 -9.86300 46.84400
H  19.99500 -10.71400 45.38200
H  18.24400 -10.70500 45.85700
H  23.89600 -10.61200 46.77400
H  25.56600 -9.28700 48.95100
H  23.57400 -10.43100 49.60300
H  22.50700 -11.14200 48.43200
H  22.31000 -9.48000 48.92100
H  27.47000 -10.05200 47.03700
H  26.09200 -11.08500 46.66000
H  26.98200 -12.37800 47.96700
H  26.19700 -11.36300 49.33700
H  27.97000 -11.20100 48.83700
H  29.88000 -4.67800 47.79700
H  30.27000 -5.72500 46.46200
H  29.54700 -6.40900 47.86200
H  27.65500 -2.64100 43.00000
H  28.68200 1.57800 43.06500
H  27.29500 1.52700 43.99200
H  27.07000 1.42400 42.25600
Mg 49.81000 46.23800 43.23700
C  46.60600 46.78500 41.96900
C  49.85100 43.10800 41.79200
C  53.17700 46.09100 43.74000
C  49.82900 49.47000 44.54800
N  48.33600 45.12200 41.91700
C  47.06700 45.47000 41.58400
C  46.32600 44.30500 40.90100
C  47.30900 43.06700 41.15600
C  48.64000 43.81200 41.53600
C  46.75300 42.03400 42.15900
C  46.13900 44.68000 39.38200
C  44.72700 44.42300 38.85500
H  44.63000 43.35700 37.75200
N  51.30100 44.72500 42.91900
C  51.08400 43.53100 42.32000
C  52.26700 42.72900 42.41300
C  53.28900 43.54000 42.96700
C  52.65700 44.88300 43.19200
C  52.32300 41.23300 41.96500
C  54.70900 43.06000 43.23700
O  54.99900 41.87800 43.11200
C  55.68500 43.94200 43.84100
N  51.32800 47.66000 43.72600
C  52.54800 47.25800 44.07400
C  53.33800 48.32500 44.85100
C  52.19900 49.33000 45.25400
C  51.09700 48.81600 44.38800
C  54.19000 47.71000 46.07400
C  52.46000 50.83500 45.07800
C  52.10100 51.75200 46.26000
N  48.56400 47.88800 43.22500
C  48.62700 49.10200 43.86700
C  47.42900 49.88100 43.56200
C  46.59900 49.00700 42.84600
C  47.31900 47.78200 42.64400
C  47.19600 51.28200 43.89700
C  45.29100 48.88800 42.21700
O  44.33300 49.65300 42.05800
C  45.29000 47.45100 41.54600
C  44.08200 46.68500 42.09500
O  44.15500 46.11000 43.22500
O  42.98900 46.80000 41.37700
C  41.72700 46.20300 41.84600
H  49.80400 42.04600 41.54000
H  54.24200 46.00900 43.96400
H  49.82500 50.34100 45.20700
H  45.36400 44.14400 41.38800
H  47.42400 42.63400 40.16200
H  47.01500 41.06700 41.73200
H  45.67000 42.11000 42.25300
H  47.30300 42.11900 43.09700
H  46.84700 44.23200 38.68500
H  46.23200 45.76500 39.40600
H  44.23400 45.28000 38.39600
H  44.03500 44.10900 39.63700
H  51.47600 40.92900 41.35000
H  52.31400 40.54100 42.80700
H  53.19500 41.07100 41.33200
H  56.57000 43.38000 44.14100
H  55.30900 44.44800 44.73000
H  55.84500 44.70000 43.07400
H  54.06800 48.75800 44.16600
H  51.83300 49.16700 46.26800
H  53.87700 48.30600 46.93000
H  55.26600 47.82200 45.94600
H  53.83800 46.69800 46.27600
H  51.98400 51.25500 44.19200
H  53.53400 50.96300 44.94400
H  51.58900 52.63900 45.88500
H  52.98200 52.09200 46.80400
H  51.44200 51.34000 47.02400
H  48.03700 51.73900 44.42000
H  46.25900 51.30100 44.45300
H  47.02600 51.90300 43.01800
H  45.16200 47.62900 40.47900
H  41.90600 45.37100 42.52600
H  41.18700 45.68500 41.05400
H  41.16900 46.98100 42.36700

