158

Mg 48.15000 15.95100 28.49100
C  46.06300 15.72800 31.32100
C  50.40800 17.61700 30.38300
C  49.71800 16.65100 25.67800
C  45.30500 15.02500 26.58400
N  48.19500 16.70600 30.55100
C  47.29200 16.39900 31.58700
C  47.85700 16.93500 32.91700
C  49.05400 17.84500 32.49300
C  49.23100 17.44600 31.06400
C  48.94100 19.37300 32.84300
C  48.25000 15.79600 33.80300
C  47.83100 15.96400 35.31600
H  47.46300 17.41200 35.80300
N  49.93400 16.87600 28.06200
C  50.79600 17.43700 29.02600
C  52.00500 17.88700 28.28100
C  51.87300 17.44900 26.92100
C  50.44900 16.97700 26.86200
C  53.13000 18.72200 28.92100
C  52.76900 17.39600 25.76200
O  52.48100 16.95100 24.69500
C  54.26200 17.68600 26.01400
N  47.61500 15.70300 26.44700
C  48.48300 16.01600 25.49100
C  47.91000 15.80000 24.08700
C  46.57200 15.10000 24.34500
C  46.48400 15.32200 25.87000
C  47.77300 17.01700 23.03700
C  46.57900 13.56700 24.00600
C  47.43400 12.61000 24.89200
N  46.12300 15.30100 28.81100
C  45.12700 14.98100 28.01100
C  43.98100 14.42900 28.76400
C  44.31700 14.68800 30.07000
C  45.59400 15.29300 30.02300
C  42.86700 13.64700 28.19500
C  43.88700 14.60800 31.43400
O  42.86600 14.11300 31.93100
C  44.94200 15.40900 32.25400
C  44.21300 16.53400 32.94700
O  43.80100 17.55400 32.45700
O  44.08000 16.26400 34.30100
C  43.18700 17.16900 35.01200
H  51.14700 18.10300 31.02400
H  50.09800 16.91300 24.68800
H  44.54800 14.68200 25.87500
H  47.00500 17.49400 33.30400
H  49.99900 17.69900 33.01600
H  49.10700 20.00600 31.97100
H  49.57200 19.59400 33.70400
H  47.90900 19.53600 33.15300
H  49.33900 15.78300 33.77600
H  47.98000 14.86600 33.30300
H  48.69600 15.61800 35.88200
H  47.04700 15.23200 35.51200
H  53.33900 19.53200 28.22200
H  53.95400 18.07000 29.21200
H  52.65000 19.04500 29.84500
H  54.68800 17.44600 26.98800
H  54.33500 18.76200 25.85400
H  54.90900 17.30500 25.22400
H  48.57300 15.10600 23.57000
H  45.74200 15.54300 23.79500
H  48.20100 17.95900 23.38100
H  46.73600 17.19600 22.75200
H  48.26700 16.66400 22.13200
H  47.01500 13.57000 23.00700
H  45.55800 13.20300 23.89100
H  47.86400 11.97700 24.11600
H  46.89200 11.92100 25.54000
H  48.32400 12.94800 25.42300
H  43.35500 12.69700 27.97800
H  42.63600 14.07300 27.21800
H  41.97900 13.44000 28.79300
H  45.48600 14.83500 33.00400
H  42.43700 17.52600 34.30700
H  43.86500 17.90400 35.44600
H  42.66500 16.64200 35.81100
Mg 41.13400 41.01700 26.95400
C  40.38200 43.59200 29.32600
C  42.14600 39.11900 29.66300
C  41.70400 38.58800 24.76400
C  40.56700 43.24100 24.48400
N  41.21700 41.27400 29.22300
C  40.91600 42.41900 29.94400
C  41.02300 42.20500 31.54100
C  41.56600 40.74600 31.55500
C  41.70200 40.36600 30.03900
C  42.81400 40.50000 32.39100
C  39.67600 42.38900 32.26300
C  39.63800 43.31900 33.48800
H  38.89000 42.79200 34.76000
N  41.82800 39.12800 27.19300
C  42.19600 38.50100 28.35400
C  42.58900 37.12700 28.10100
C  42.53700 37.00200 26.62400
C  42.02800 38.26700 26.12100
C  43.17500 36.21800 29.17200
C  43.03400 35.73300 25.90500
O  43.10000 35.67200 24.70100
C  43.57500 34.55400 26.61300
N  41.40300 40.98400 24.86500
C  41.45200 39.81600 24.19000
C  41.06900 40.02300 22.68300
C  40.64500 41.48400 22.59600
C  40.83200 41.92000 24.07800
C  42.26200 39.75200 21.67300
C  39.19800 41.54900 22.21000
C  38.21900 40.94900 23.21600
N  40.57800 43.08100 26.90900
C  40.44700 43.80500 25.78500
C  40.04500 45.12700 26.19200
C  39.97600 45.14700 27.62800
C  40.31500 43.82500 27.93800
C  39.68800 46.31000 25.32100
C  39.67700 45.92300 28.76800
O  39.22000 47.04900 28.83600
C  39.77400 44.91700 29.89000
C  40.70400 45.63700 30.81500
O  41.91400 45.71600 30.69400
O  40.02600 46.08000 31.88800
C  40.89200 46.54600 33.00400
H  42.32700 38.53600 30.56900
H  41.77200 37.75900 24.05500
H  40.36900 43.77300 23.55100
H  41.77900 42.95800 31.76400
H  40.81700 40.08400 31.98800
H  43.45600 39.97500 31.68300
H  42.57300 39.85900 33.23800
H  43.32300 41.37200 32.80200
H  39.42000 41.40900 32.66400
H  38.83400 42.60000 31.60400
H  39.04600 44.20100 33.24200
H  40.67900 43.55900 33.70400
H  42.53900 35.33300 29.16700
H  43.11600 36.74000 30.12700
H  44.19200 35.89400 28.95200
H  42.81500 34.16600 27.29100
H  44.50900 34.83400 27.10100
H  44.00800 33.80600 25.94900
H  40.27900 39.32500 22.40600
H  41.34600 42.15600 22.10000
H  43.03500 39.14600 22.14600
H  42.69500 40.68500 21.31100
H  41.97400 39.11800 20.83500
H  39.19500 40.95600 21.29500
H  38.92500 42.59500 22.07000
H  38.40700 41.22200 24.25400
H  38.00600 39.90500 22.98600
H  37.25400 41.43000 23.05600
H  39.08600 46.02600 24.45700
H  40.63700 46.77800 25.06000
H  39.03400 46.87600 25.98500
H  38.82800 44.75500 30.40800
H  40.23400 46.77500 33.84200
H  41.53800 47.32800 32.60500
H  41.60700 45.82400 33.39700

