158

Mg -10.25100 39.87000 39.45200
C  -9.26000 36.48800 38.54600
C  -7.13000 40.89300 38.23600
C  -11.49300 43.02400 39.17400
C  -13.42400 38.66900 39.92000
N  -8.41500 38.76600 38.46700
C  -8.26200 37.43600 38.22800
C  -6.90500 37.21200 37.55000
C  -6.10800 38.54200 37.79000
C  -7.24300 39.44000 38.28500
C  -4.79600 38.49600 38.65600
C  -7.02600 36.68900 36.11300
C  -7.42200 37.74200 35.01100
H  -8.53000 37.61400 34.02900
N  -9.38800 41.73900 38.88700
C  -8.08700 41.85500 38.48900
C  -7.93600 43.32100 38.29500
C  -9.08700 44.01200 38.79600
C  -10.09300 42.94800 38.97000
C  -6.69100 43.93400 37.74200
C  -9.32500 45.52900 38.91800
O  -8.42500 46.33700 38.67000
C  -10.69800 46.18100 39.30400
N  -12.16000 40.67500 39.37000
C  -12.47200 42.03800 39.41700
C  -13.95100 42.38300 39.73500
C  -14.41300 40.92900 40.09700
C  -13.32200 40.01200 39.71200
C  -14.22900 43.49000 40.79400
C  -15.80600 40.56400 39.39700
C  -15.83700 39.96900 37.98000
N  -11.14500 37.92400 39.51100
C  -12.43900 37.66300 39.76400
C  -12.63100 36.27400 39.83700
C  -11.40100 35.72500 39.34400
C  -10.51700 36.82700 39.13500
C  -13.85400 35.59400 40.34300
C  -10.74800 34.52400 38.97300
O  -11.01100 33.34300 38.98900
C  -9.33700 35.00900 38.45200
C  -8.28900 34.28100 39.17700
O  -8.09100 34.34100 40.35700
O  -7.50700 33.59900 38.26300
C  -6.29800 33.01300 38.70800
H  -6.12300 41.19600 37.94100
H  -11.90100 44.03400 39.24800
H  -14.40100 38.25700 40.18200
H  -6.39900 36.50400 38.20600
H  -5.80200 39.02900 36.86400
H  -4.67300 37.47700 39.02100
H  -4.82700 39.11400 39.55400
H  -3.91100 38.73300 38.06600
H  -7.63900 35.78800 36.08200
H  -6.03900 36.33600 35.81200
H  -6.54700 37.67000 34.36500
H  -7.47500 38.72800 35.47200
H  -5.91100 43.95600 38.50400
H  -6.88000 44.96400 37.44200
H  -6.35000 43.27300 36.94500
H  -11.08900 45.60300 40.14100
H  -11.33900 45.92900 38.45900
H  -10.60200 47.26200 39.40800
H  -14.49400 42.66900 38.83500
H  -14.63500 41.00100 41.16200
H  -13.18300 43.64600 41.05900
H  -14.89000 43.26000 41.63000
H  -14.69400 44.29600 40.22600
H  -16.32900 41.51900 39.35400
H  -16.29700 39.93300 40.13800
H  -15.92700 38.88200 37.96900
H  -14.86500 40.11600 37.51000
H  -16.59700 40.45900 37.37200
H  -13.72000 34.56300 40.67000
H  -14.58700 35.64500 39.53800
H  -14.21400 36.21900 41.16000
H  -9.25100 34.70900 37.40800
H  -6.48100 32.00400 39.07600
H  -5.72600 33.60000 39.42700
H  -5.68900 33.12700 37.81200
Mg 0.27100 44.04400 25.94000
C  2.47800 43.86200 28.64300
C  -2.31200 43.62700 28.24000
C  -1.82800 43.88400 23.49400
C  2.96800 44.35900 23.82100
N  0.11600 43.93000 28.18400
C  1.16300 43.80500 29.01800
C  0.58900 43.68800 30.45300
C  -0.92000 43.30300 30.32800
C  -1.06500 43.67000 28.80100
C  -1.25600 41.75900 30.64800
C  0.85300 44.99800 31.24800
C  1.38300 44.70800 32.66800
H  0.63700 43.68200 33.50600
N  -1.76500 43.85200 25.89100
C  -2.64800 43.73600 26.93200
C  -4.04500 43.69700 26.49400
C  -3.93000 43.81300 25.04700
C  -2.45600 43.87500 24.76300
C  -5.30500 43.56600 27.39000
C  -5.01400 43.91200 24.03400
O  -4.78600 43.97600 22.84700
C  -6.53600 43.98500 24.46500
N  0.63700 43.88700 23.92000
C  -0.45100 43.87200 23.11400
C  -0.02900 44.03000 21.66800
C  1.50400 44.45200 21.74800
C  1.71100 44.21700 23.21500
C  -0.24900 42.79700 20.78800
C  1.80800 45.88200 21.20500
C  2.14400 45.78800 19.67100
N  2.41000 44.01100 26.14300
C  3.35800 44.15800 25.17300
C  4.65600 44.08500 25.77400
C  4.38100 44.03100 27.14500
C  2.99600 43.90400 27.30100
C  6.02600 44.00100 25.03600
C  4.89600 43.88200 28.50500
O  6.06900 43.93200 28.91700
C  3.70500 43.88000 29.50100
C  3.83200 42.72700 30.39300
O  3.68000 41.60500 29.98600
O  4.35500 43.05900 31.65800
C  4.79300 41.94600 32.48600
H  -3.08600 43.57100 29.00900
H  -2.47900 43.89200 22.61800
H  3.66900 44.59800 23.01800
H  1.20300 42.84800 30.77600
H  -1.50100 44.07300 30.83700
H  -0.32900 41.26200 30.93200
H  -1.63300 41.39400 29.69300
H  -1.93900 41.67300 31.49400
H  -0.05200 45.58500 31.40600
H  1.61600 45.59500 30.75000
H  1.45700 45.69800 33.11600
H  2.45600 44.57200 32.53500
H  -5.79800 44.51400 27.60200
H  -4.97800 43.22000 28.37000
H  -5.97900 42.82500 26.96100
H  -6.83800 42.98300 24.77000
H  -7.00900 44.41900 23.58500
H  -6.58800 44.64700 25.33000
H  -0.62800 44.81800 21.21200
H  2.18300 43.74100 21.27700
H  0.51800 42.48400 20.08100
H  -1.07800 42.97900 20.10400
H  -0.54900 41.93900 21.39000
H  2.73400 46.28900 21.61000
H  0.96300 46.56800 21.24900
H  1.68700 46.67000 19.22100
H  1.56700 44.92200 19.34800
H  3.19800 45.70000 19.41000
H  6.77500 44.42200 25.70700
H  5.89900 44.60600 24.13800
H  6.30500 42.97500 24.79500
H  3.80400 44.77000 30.12200
H  5.86500 41.78700 32.36600
H  4.23800 41.01200 32.39800
H  4.69500 42.20400 33.54100

