158

Mg 16.55800 -1.90800 27.64000
C  15.38300 0.18700 30.24900
C  18.39900 -3.58700 29.97900
C  17.91200 -3.55100 25.13000
C  14.81200 0.11900 25.37000
N  17.11300 -1.48000 29.87700
C  16.34200 -0.71300 30.72800
C  16.69900 -1.11300 32.15800
C  17.77700 -2.20700 32.09400
C  17.80500 -2.46100 30.57600
C  19.17300 -1.94500 32.65100
C  15.37100 -1.31300 33.02200
C  15.25000 -0.45600 34.29100
H  16.52000 0.10400 34.98000
N  17.92800 -3.35400 27.54100
C  18.56900 -3.92900 28.61600
C  19.31500 -5.03300 28.05500
C  19.28200 -4.96000 26.61400
C  18.37700 -3.92100 26.36700
C  20.11300 -6.01400 28.96000
C  19.89400 -5.94600 25.54900
O  19.72500 -5.86500 24.32900
C  20.66000 -7.14900 26.07000
N  16.39100 -1.73600 25.49700
C  17.07300 -2.50200 24.68300
C  16.84500 -2.10300 23.18600
C  15.55000 -1.18900 23.37500
C  15.49800 -0.92300 24.82100
C  18.09800 -1.39900 22.62900
C  14.23000 -1.81800 22.83400
C  13.40800 -0.87000 21.98200
N  15.23500 -0.17900 27.75600
C  14.59800 0.53400 26.76300
C  13.82600 1.53800 27.37900
C  14.03300 1.42700 28.79000
C  14.91400 0.37800 28.95400
C  12.81900 2.39200 26.64000
C  13.62300 1.99700 30.05000
O  12.82200 2.91100 30.27000
C  14.47200 1.21800 31.08800
C  15.29100 2.29700 31.70700
O  16.38800 2.57900 31.14600
O  14.65800 2.98600 32.73100
C  15.50900 4.06800 33.18900
H  18.85500 -4.26700 30.70200
H  18.28700 -4.04300 24.23000
H  14.24000 0.77900 24.71400
H  17.20800 -0.21900 32.51900
H  17.43600 -3.16500 32.48700
H  19.50500 -2.69700 33.36700
H  19.10100 -0.96100 33.11400
H  19.88000 -1.84300 31.82800
H  15.28700 -2.38500 33.20000
H  14.39300 -1.18700 32.55600
H  14.82200 -1.17200 34.99200
H  14.54500 0.33500 34.03700
H  19.71100 -6.99100 28.69400
H  19.87200 -5.88900 30.01500
H  21.20000 -5.96700 28.88200
H  21.13200 -7.55400 25.17500
H  20.07000 -7.95700 26.50400
H  21.42800 -6.80500 26.76400
H  16.72100 -3.06300 22.68500
H  15.65100 -0.29700 22.75700
H  17.89900 -0.73000 21.79300
H  18.81000 -2.16700 22.32600
H  18.68700 -0.82500 23.34500
H  13.63600 -2.19600 23.66600
H  14.41000 -2.72900 22.26200
H  12.98000 -0.16500 22.69400
H  12.54000 -1.35300 21.53200
H  13.91200 -0.31100 21.19300
H  12.81200 2.27000 25.55600
H  12.85400 3.46100 26.85100
H  11.78200 2.16900 26.89200
H  13.91200 0.67400 31.84900
H  15.64500 4.70200 32.31300
H  16.46700 3.69000 33.54500
H  15.09400 4.58500 34.05400
Mg 5.94300 52.94100 40.56700
C  5.88300 49.33400 40.12300
C  9.21200 52.93400 39.75100
C  5.67700 56.22200 40.31300
C  2.34700 52.67200 41.08900
N  7.29500 51.27400 39.82000
C  7.16800 49.87900 39.93500
C  8.56400 49.21500 39.86600
C  9.54300 50.42700 40.14500
C  8.63300 51.68900 39.99200
C  10.15000 50.49100 41.62400
C  8.86500 48.54300 38.48000
C  8.76100 49.47500 37.20200
H  7.65700 49.14900 36.23000
N  7.25500 54.39500 39.96700
C  8.56500 54.16100 39.65700
C  9.17100 55.40100 39.29600
C  8.17900 56.43900 39.54400
C  6.95500 55.75000 39.90400
C  10.52200 55.53800 38.67500
C  8.39000 57.85500 39.31800
O  9.47700 58.25500 38.91600
C  7.34300 58.91400 39.66900
N  4.20900 54.29000 40.77300
C  4.44000 55.62200 40.66800
C  3.12800 56.31200 40.84200
C  2.02900 55.20100 41.02000
C  2.87200 53.94100 40.97200
C  3.15200 57.43100 41.98900
C  0.85900 55.23100 39.97300
C  -0.54600 55.69000 40.53400
N  4.42600 51.42900 40.72100
C  3.03500 51.44900 40.86800
C  2.48200 50.08400 40.88200
C  3.58400 49.27900 40.58700
C  4.74200 50.07900 40.48900
C  0.95400 49.82000 40.99800
C  3.92300 47.83000 40.32800
O  3.20400 46.83400 40.47900
C  5.44100 47.86400 39.95000
C  5.53000 47.32000 38.64100
O  5.11400 47.87000 37.65300
O  6.19500 46.12100 38.61000
C  6.33100 45.55300 37.27800
H  10.29900 52.83300 39.70900
H  5.55700 57.30600 40.26400
H  1.27000 52.51100 41.17500
H  8.58300 48.41400 40.60500
H  10.48900 50.44000 39.60500
H  10.52100 49.57900 42.09200
H  9.46700 51.00600 42.30000
H  11.03500 51.12800 41.63700
H  8.11400 47.75300 38.49800
H  9.83900 48.05400 38.50500
H  9.74100 49.18400 36.82400
H  8.85100 50.53700 37.42800
H  10.46500 56.36000 37.96200
H  10.69100 54.59600 38.15300
H  11.25200 55.68300 39.47100
H  7.67900 59.93000 39.46400
H  7.09600 58.77900 40.72200
H  6.42600 58.69500 39.12200
H  3.04200 56.80100 39.87200
H  1.64900 55.26300 42.04000
H  3.59500 58.36900 41.65400
H  3.68700 57.00900 42.84000
H  2.19100 57.71200 42.42100
H  0.66700 54.25000 39.53900
H  1.13200 55.85500 39.12200
H  -0.43700 56.02200 41.56600
H  -1.20800 54.82500 40.49300
H  -0.81800 56.54900 39.92000
H  0.46800 49.93400 40.02900
H  0.47100 50.52900 41.67000
H  0.82700 48.85000 41.47700
H  5.90000 47.17600 40.66000
H  7.19100 45.96000 36.74600
H  5.51900 45.61000 36.55300
H  6.46100 44.50600 37.55000

