158

Mg 24.67000 -6.21100 45.80400
C  27.05500 -3.99200 44.41800
C  22.32800 -5.06500 43.46300
C  22.83100 -8.81800 46.49700
C  27.38500 -7.79800 47.51800
N  24.66400 -4.50900 44.25300
C  25.75100 -3.82100 43.83900
C  25.38500 -2.84300 42.68800
C  23.80700 -3.00800 42.53400
C  23.54800 -4.27600 43.46500
C  23.09000 -1.68000 42.96600
C  26.18500 -2.93200 41.33200
C  26.79000 -1.70700 40.68300
H  26.22500 -1.42800 39.27900
N  22.88600 -6.75300 45.14100
C  22.03600 -6.13600 44.24400
C  20.86000 -6.86900 44.21300
C  20.91200 -7.85000 45.20300
C  22.25100 -7.86100 45.68700
C  19.63200 -6.40300 43.32100
C  19.79000 -8.81400 45.54900
O  18.79500 -8.74800 44.87600
C  19.72500 -9.73900 46.73500
N  25.05800 -8.04000 46.89500
C  24.09900 -8.96600 46.99400
C  24.56200 -10.29100 47.68800
C  26.01000 -9.81700 48.10000
C  26.17600 -8.50000 47.44800
C  23.69200 -10.86300 48.87300
C  27.01000 -10.89500 47.56500
C  27.28100 -12.08400 48.55300
N  26.73800 -5.88300 46.07800
C  27.68800 -6.55700 46.86600
C  29.01500 -5.96400 46.72800
C  28.75900 -4.96400 45.77800
C  27.37400 -4.88700 45.44900
C  30.24300 -6.42300 47.51400
C  29.38800 -3.87100 45.13800
O  30.52000 -3.42200 45.18500
C  28.34100 -3.23200 44.09800
C  28.34700 -1.81100 44.37700
O  28.02700 -1.26900 45.48800
O  28.67700 -1.04800 43.26600
C  28.32600 0.36500 43.42200
H  21.74100 -4.56000 42.69400
H  22.11900 -9.60700 46.74800
H  28.24200 -8.16600 48.08600
H  25.61300 -1.81500 42.96700
H  23.63400 -3.25800 41.48800
H  23.21300 -1.50600 44.03500
H  22.03300 -1.71700 42.70400
H  23.51400 -0.80600 42.47100
H  25.57300 -3.38100 40.54900
H  26.88800 -3.73800 41.54000
H  27.86500 -1.83200 40.55600
H  26.49700 -0.81900 41.24200
H  19.09900 -7.11400 42.69100
H  20.01900 -5.72700 42.55900
H  18.97000 -5.89700 44.02400
H  18.74400 -10.17200 46.92900
H  20.10800 -9.23600 47.62300
H  20.33300 -10.55700 46.34900
H  24.58000 -11.17100 47.04500
H  26.04300 -9.61600 49.17100
H  23.50500 -11.92300 48.70100
H  22.67200 -10.47800 48.87500
H  24.04900 -10.75400 49.89700
H  28.01300 -10.52300 47.35900
H  26.59300 -11.38200 46.68400
H  28.34200 -12.28500 48.70500
H  26.75300 -12.94100 48.13400
H  26.86600 -11.80300 49.52100
H  30.43600 -7.47500 47.30600
H  29.95000 -6.30500 48.55800
H  31.03700 -5.77500 47.14200
H  28.68600 -3.36700 43.07300
H  29.06000 0.76500 44.12100
H  27.27900 0.47000 43.70500
H  28.32500 0.73200 42.39500
Mg 26.09300 1.59900 29.63300
C  28.09800 0.85000 32.51700
C  23.44700 1.70200 31.76600
C  24.25600 1.44500 26.98800
C  28.91700 0.78400 27.72400
N  25.83200 1.36900 31.93900
C  26.76800 1.11700 32.87200
C  26.17300 1.31200 34.25800
C  24.60600 1.32400 34.02400
C  24.58700 1.42000 32.46600
C  23.80900 0.07700 34.61600
C  26.76600 2.50100 35.05200
C  27.45000 2.09400 36.36900
H  27.13700 3.07500 37.53700
N  24.12600 1.72100 29.37800
C  23.18200 1.81800 30.34300
C  21.87300 1.90900 29.69700
C  22.07700 1.83700 28.29400
C  23.50500 1.66400 28.17500
C  20.52600 1.95300 30.47500
C  21.04600 1.74200 27.19000
O  21.36500 1.47900 26.03500
C  19.59500 1.89600 27.44300
N  26.60400 1.27300 27.54700
C  25.57600 1.24900 26.65500
C  26.11800 1.05000 25.19300
C  27.68800 0.96900 25.42100
C  27.75200 0.99100 27.01200
C  25.48000 -0.09800 24.40300
C  28.50500 2.15700 24.90800
C  29.86000 1.84900 24.26100
N  28.14300 1.06200 30.01300
C  29.13400 0.71300 29.12100
C  30.34300 0.26800 29.84900
C  29.97800 0.42600 31.18600
C  28.62700 0.78500 31.24300
C  31.67000 -0.22900 29.29800
C  30.43700 0.17000 32.52900
O  31.53200 -0.14500 32.94400
C  29.28900 0.53200 33.49100
C  29.09700 -0.64600 34.38500
O  28.43400 -1.65500 34.11000
O  29.61900 -0.37800 35.61000
C  29.39800 -1.35100 36.65900
H  22.62200 1.89500 32.45500
H  23.62400 1.28000 26.11300
H  29.79400 0.51000 27.13400
H  26.50500 0.44400 34.82700
H  24.19500 2.19500 34.53300
H  23.15100 -0.29300 33.82900
H  23.15400 0.50400 35.37600
H  24.49400 -0.65500 35.04300
H  25.88300 3.08800 35.30900
H  27.55100 2.97900 34.46600
H  28.53400 2.20100 36.32200
H  27.31100 1.08400 36.75400
H  20.71100 2.09500 31.54000
H  19.94900 1.04500 30.30100
H  19.99500 2.83100 30.10600
H  19.35100 2.86100 27.88800
H  19.23600 1.06600 28.05100
H  19.02800 1.82900 26.51500
H  25.93200 1.98900 24.67200
H  28.03400 -0.01800 25.11600
H  25.52500 -1.00000 25.01300
H  25.92900 -0.25900 23.42400
H  24.44200 0.22300 24.31800
H  28.72600 2.93300 25.64100
H  27.96600 2.56500 24.05300
H  30.65100 2.48300 24.66200
H  29.84200 2.09100 23.19800
H  30.12500 0.79500 24.34400
H  31.97800 0.31800 28.40700
H  31.67100 -1.29900 29.08800
H  32.46700 0.01300 30.00100
H  29.59200 1.29000 34.21300
H  30.31700 -1.37900 37.24400
H  29.24400 -2.38200 36.34100
H  28.57300 -1.02400 37.29200

