158

Mg 3.15800 -0.09400 44.31200
C  5.98100 1.96700 44.12700
C  1.59800 2.25100 42.30500
C  0.53500 -2.15100 44.13700
C  5.14900 -2.67000 45.58500
N  3.88700 1.89700 43.13200
C  5.03800 2.56500 43.33900
C  5.13100 3.86100 42.57000
C  3.59000 4.00400 42.27100
C  2.94600 2.64400 42.52000
C  2.95500 5.03300 43.24400
C  6.13600 3.75500 41.41600
C  6.21000 2.46100 40.57900
H  6.19500 2.64400 39.06600
N  1.34100 0.02700 43.38000
C  0.86600 1.12500 42.71300
C  -0.59800 1.03700 42.63500
C  -0.95100 -0.31800 43.02000
C  0.33900 -0.85500 43.55100
C  -1.47900 2.10800 41.88500
C  -2.32500 -0.98100 42.89500
O  -3.28500 -0.34000 42.56900
C  -2.49000 -2.43600 43.22700
N  2.98400 -2.23900 44.61900
C  1.73200 -2.88100 44.59300
C  1.80300 -4.39600 45.06100
C  3.31600 -4.49100 45.58100
C  3.86000 -3.01900 45.28400
C  0.72300 -4.97700 46.10400
C  4.23400 -5.64500 44.96900
C  5.28000 -6.17800 46.06800
N  5.16300 -0.35600 44.84000
C  5.79800 -1.43100 45.42800
C  7.17100 -1.05900 45.74700
C  7.33000 0.28900 45.33400
C  6.08400 0.65300 44.70700
C  8.16200 -1.87500 46.53500
C  8.23900 1.46700 45.15000
O  9.42700 1.57800 45.35600
C  7.35200 2.56500 44.42300
C  7.28300 3.74500 45.35300
O  8.21800 4.56900 45.51300
O  6.00100 3.85400 45.87200
C  5.72900 5.05600 46.58700
H  1.07500 3.03200 41.74900
H  -0.29600 -2.83600 44.31900
H  5.70000 -3.41500 46.16300
H  5.37600 4.70000 43.22100
H  3.29100 4.31200 41.27000
H  1.94000 4.68000 43.42800
H  3.04000 6.04200 42.84300
H  3.31500 5.08500 44.27200
H  7.12000 3.81500 41.88000
H  5.98200 4.60800 40.75500
H  5.33900 1.84600 40.80400
H  7.15200 1.96400 40.80900
H  -1.46500 2.03800 40.79700
H  -1.16500 3.10900 42.18100
H  -2.53000 2.14700 42.16900
H  -3.47600 -2.80900 42.94800
H  -2.33200 -2.65600 44.28300
H  -1.79700 -2.90200 42.52600
H  1.68700 -4.88400 44.09400
H  3.35000 -4.60600 46.66400
H  -0.10700 -5.37000 45.51800
H  0.37900 -4.20700 46.79400
H  1.20300 -5.75500 46.69800
H  4.88900 -5.25300 44.19100
H  3.62800 -6.44500 44.54300
H  6.30700 -6.00900 45.74400
H  5.13600 -7.24800 46.21500
H  5.31200 -5.69700 47.04500
H  8.31600 -2.82100 46.01700
H  7.75800 -2.08300 47.52600
H  9.13600 -1.39100 46.60500
H  7.97000 2.88400 43.58400
H  4.67500 5.07800 46.86300
H  6.08300 5.93000 46.04000
H  6.20600 5.06600 47.56700
Mg 9.20100 48.63300 24.80700
C  7.00600 48.65300 27.54500
C  11.64200 49.94100 26.66500
C  11.05000 48.61100 22.15100
C  6.24200 48.21900 22.76700
N  9.22500 49.31100 26.85200
C  8.33600 49.09200 27.82900
C  8.78900 49.67200 29.14400
C  10.10600 50.44700 28.73700
C  10.36100 49.87000 27.35800
C  10.08400 52.01000 28.74700
C  9.14700 48.49500 30.18800
C  8.51500 48.70500 31.60300
H  8.63500 47.36700 32.51500
N  11.09800 48.95000 24.52400
C  12.00800 49.46400 25.43200
C  13.32900 49.31600 24.88600
C  13.24200 48.87600 23.50200
C  11.75200 48.67100 23.33700
C  14.54800 49.78900 25.72900
C  14.23500 48.59100 22.38100
O  13.96800 48.12400 21.25900
C  15.64500 48.82300 22.79500
N  8.62300 48.59400 22.78300
C  9.67100 48.60700 21.89600
C  9.16600 48.63700 20.45300
C  7.69000 48.19700 20.63800
C  7.46000 48.39900 22.13700
C  9.46200 50.04800 19.80600
C  7.33800 46.72100 20.17100
C  5.87200 46.44300 19.80200
N  7.05000 48.42700 25.05400
C  6.04600 48.27100 24.14700
C  4.77900 48.04000 24.80400
C  5.15700 48.11700 26.15700
C  6.52300 48.41500 26.26400
C  3.35900 47.77300 24.25400
C  4.63600 47.99600 27.49000
O  3.59000 47.60400 27.93700
C  5.82500 48.51800 28.45200
C  5.77300 47.51400 29.51800
O  6.28400 46.36600 29.55000
O  5.03000 48.07600 30.48700
C  4.75700 47.29300 31.69300
H  12.47200 50.28300 27.28700
H  11.67900 48.52800 21.26200
H  5.39900 48.00100 22.10800
H  8.05900 50.30600 29.64800
H  11.00500 50.19100 29.29800
H  10.13500 52.34800 27.71200
H  10.98900 52.30100 29.28000
H  9.22300 52.51800 29.18000
H  10.20800 48.27500 30.31200
H  8.82700 47.56600 29.71600
H  7.46000 48.96400 31.51600
H  9.00400 49.45600 32.22300
H  14.89000 48.94400 26.32500
H  14.28100 50.45800 26.54800
H  15.30300 50.38600 25.21800
H  15.98500 48.19800 23.62000
H  15.64000 49.89000 23.02100
H  16.36500 48.70300 21.98500
H  9.75900 47.88800 19.92800
H  7.04700 48.83900 20.03600
H  8.53800 50.61700 19.70400
H  9.90700 50.08500 18.81200
H  10.06100 50.74200 20.39600
H  7.49400 46.14100 21.08100
H  7.92900 46.29300 19.36100
H  5.39900 45.74600 20.49500
H  5.63800 46.05100 18.81200
H  5.34900 47.38100 19.98300
H  3.34300 48.21100 23.25600
H  2.59900 48.22600 24.89200
H  3.25800 46.69000 24.18400
H  5.55100 49.48200 28.88100
H  5.30400 47.73800 32.52400
H  4.92100 46.22700 31.53900
H  3.71000 47.43600 31.96000

