158

Mg -0.06800 7.76000 27.37500
C  0.83800 9.88600 29.89900
C  0.20100 5.14700 29.46600
C  -0.44900 5.73000 24.66400
C  0.01000 10.63200 25.25400
N  0.43800 7.52600 29.41100
C  0.71900 8.50000 30.25300
C  0.77400 7.92900 31.71100
C  0.81100 6.42000 31.51900
C  0.50200 6.36100 30.06100
C  2.13000 5.71600 31.92000
C  -0.44700 8.37600 32.57500
C  -0.73100 7.67700 33.90000
H  0.32900 6.90500 34.68000
N  -0.18800 5.68600 27.10100
C  -0.09700 4.83500 28.13100
C  -0.47200 3.49400 27.61300
C  -0.49000 3.61000 26.18700
C  -0.33600 5.06900 25.87400
C  -0.85000 2.38500 28.56200
C  -0.64300 2.47500 25.14800
O  -0.54100 2.65900 23.94000
C  -1.03300 0.99900 25.61000
N  -0.21300 8.18800 25.30900
C  -0.38500 7.14000 24.43800
C  -0.39600 7.70900 23.01900
C  -0.73600 9.26700 23.17000
C  -0.36800 9.42000 24.70100
C  1.02800 7.48400 22.31000
C  -2.26000 9.77100 22.87600
C  -2.37000 10.62000 21.61300
N  0.28900 9.88200 27.59700
C  0.37500 10.85700 26.64800
C  0.88600 12.17800 27.24800
C  1.05100 11.80000 28.57700
C  0.62500 10.45500 28.70900
C  1.20600 13.45900 26.43200
C  1.56400 12.18300 29.83900
O  2.00600 13.26300 30.24300
C  1.20400 11.05100 30.83300
C  2.22700 10.84200 31.85600
O  3.38000 10.65200 31.61800
O  1.73800 11.21300 33.05200
C  2.61700 11.54500 34.21300
H  0.12700 4.27200 30.11600
H  -0.66400 5.17700 23.74700
H  0.10800 11.42700 24.51200
H  1.60600 8.32500 32.29300
H  -0.01400 5.95100 32.05600
H  1.96600 5.24200 32.88800
H  2.85200 6.53200 31.95300
H  2.48400 4.92900 31.25500
H  -1.38400 8.13600 32.07300
H  -0.38000 9.45200 32.73200
H  -1.63300 7.10600 33.68300
H  -1.03200 8.54600 34.48500
H  -1.86600 2.18300 28.22600
H  -0.87000 2.40700 29.65200
H  -0.19800 1.52400 28.41100
H  -0.18000 0.66900 26.20300
H  -1.14800 0.35800 24.73500
H  -1.98300 1.06800 26.13800
H  -1.26300 7.35600 22.46000
H  0.03600 9.76000 22.57900
H  1.74100 8.29300 22.46600
H  0.87100 7.21900 21.26500
H  1.53700 6.65200 22.79800
H  -2.62600 10.38100 23.70200
H  -2.99600 8.97600 22.75900
H  -1.54800 10.27500 20.98600
H  -2.45200 11.65400 21.94800
H  -3.28600 10.38000 21.07400
H  1.68100 13.03500 25.54700
H  1.80300 14.01000 27.15800
H  0.27800 13.95500 26.14900
H  0.25300 11.34900 31.27600
H  2.13300 11.32900 35.16600
H  2.95200 12.57400 34.08300
H  3.50400 10.92400 34.08600
Mg 16.33800 -1.05900 27.40800
C  15.42200 1.04800 29.92400
C  18.22600 -2.89300 29.60600
C  17.43300 -2.91900 24.89600
C  14.76600 1.10500 25.15300
N  16.93000 -0.81600 29.49400
C  16.23200 -0.00900 30.31300
C  16.60100 -0.33000 31.76700
C  17.71800 -1.45800 31.63000
C  17.70000 -1.70500 30.12400
C  19.10000 -1.14000 32.20800
C  15.40900 -0.63500 32.77700
C  15.40900 -0.03600 34.19200
H  16.82500 0.31900 34.80300
N  17.75200 -2.70400 27.29100
C  18.28200 -3.41100 28.30300
C  18.99300 -4.56300 27.76700
C  18.79700 -4.51500 26.38000
C  17.97100 -3.34900 26.13700
C  19.73600 -5.51200 28.65000
C  19.48100 -5.38700 25.32400
O  19.25600 -5.25600 24.14400
C  20.52400 -6.35100 25.78900
N  15.97100 -1.05900 25.31000
C  16.68300 -1.83900 24.45200
C  16.53900 -1.51100 22.97400
C  15.66000 -0.23900 23.06000
C  15.35700 -0.03000 24.58500
C  17.93000 -1.16700 22.34000
C  14.31700 -0.44200 22.28000
C  14.15600 0.71800 21.26600
N  15.04100 0.53700 27.47400
C  14.55000 1.38300 26.49200
C  14.02100 2.58000 27.12100
C  14.25600 2.41400 28.44800
C  14.95000 1.23500 28.65300
C  13.30400 3.67800 26.41200
C  14.13500 3.05100 29.71200
O  13.61500 4.07000 29.98900
C  14.74100 2.12700 30.80300
C  15.59700 2.87800 31.68400
O  16.80700 3.17800 31.54500
O  14.92800 3.22000 32.82900
C  15.56000 3.84000 34.02600
H  18.89100 -3.34500 30.34500
H  17.86000 -3.45400 24.04500
H  14.40300 1.83000 24.42200
H  17.21600 0.50000 32.11400
H  17.31000 -2.37200 32.06100
H  19.86800 -1.06400 31.43800
H  19.49200 -1.88700 32.89800
H  19.02000 -0.24700 32.82800
H  15.35300 -1.69200 33.03700
H  14.51000 -0.35100 32.22900
H  14.99600 -0.77500 34.87900
H  14.83100 0.88800 34.16500
H  20.75300 -5.16200 28.82700
H  19.71400 -6.55000 28.31800
H  19.36400 -5.41800 29.67000
H  21.11900 -6.69200 24.94200
H  20.04000 -7.24500 26.18400
H  21.10600 -5.75600 26.49300
H  16.08300 -2.34600 22.44200
H  16.25700 0.59200 22.68400
H  18.82300 -1.62900 22.76200
H  18.16300 -0.11600 22.51100
H  17.89900 -1.41900 21.28000
H  13.48400 -0.48100 22.98200
H  14.35400 -1.41800 21.79600
H  14.98700 0.97300 20.60900
H  13.78900 1.59800 21.79400
H  13.35000 0.45100 20.58200
H  12.30700 3.36200 26.10500
H  13.80700 4.09600 25.54000
H  13.22500 4.50900 27.11300
H  13.87200 1.71700 31.31800
H  15.41500 3.25400 34.93400
H  15.02400 4.73100 34.35100
H  16.62500 4.04700 33.92300

