158

Mg 50.23200 35.04400 26.23100
C  48.09600 33.62600 28.71300
C  50.18300 37.98800 28.09500
C  52.09800 36.51600 23.77100
C  49.75400 32.26200 24.28400
N  49.28000 35.69700 28.12700
C  48.54000 34.89800 29.00200
C  48.29200 35.63400 30.31700
C  48.82300 37.08000 30.03500
C  49.48300 36.94000 28.65600
C  47.82800 38.26400 30.18500
C  49.23600 34.90000 31.38500
C  48.73100 34.68400 32.81700
H  47.47200 35.52000 33.31000
N  51.03000 36.98800 25.99500
C  50.89500 38.03400 26.89000
C  51.67800 39.13100 26.44300
C  52.34400 38.75500 25.23700
C  51.89400 37.37500 24.93700
C  51.75700 40.42700 27.15900
C  53.30900 39.53400 24.37600
O  53.82000 39.06000 23.37300
C  53.66600 40.93900 24.72800
N  50.75400 34.58000 24.20500
C  51.58100 35.26800 23.39900
C  51.78500 34.50500 22.08600
C  51.46600 33.08400 22.53000
C  50.53900 33.33400 23.69300
C  51.05200 35.11200 20.87000
C  52.72500 32.22300 22.99200
C  53.49300 31.47200 21.88500
N  49.20700 33.24600 26.47000
C  49.08400 32.23300 25.56000
C  48.30700 31.13000 26.14400
C  47.79200 31.68300 27.33000
C  48.46100 32.93500 27.52700
C  48.08000 29.75000 25.51900
C  46.99500 31.39600 28.45800
O  46.45200 30.31900 28.70400
C  47.13300 32.60400 29.38400
C  47.62700 31.96800 30.67400
O  48.59000 31.24000 30.79500
O  46.59200 32.03500 31.54600
C  46.66100 31.18400 32.73900
H  50.13600 38.84900 28.76600
H  52.74300 37.03400 23.05800
H  49.93500 31.29500 23.80900
H  47.22600 35.75000 30.51100
H  49.70200 37.21900 30.66400
H  46.97900 37.83300 30.71600
H  47.51600 38.66800 29.22100
H  48.34400 38.97300 30.83300
H  50.13300 35.50300 31.52400
H  49.44700 33.90900 30.98400
H  49.47000 34.99300 33.55600
H  48.48700 33.62400 32.87700
H  52.81900 40.49500 27.39500
H  51.16900 40.60500 28.06000
H  51.38300 41.21500 26.50500
H  52.77900 41.56300 24.83600
H  54.38900 41.40100 24.05600
H  54.12600 40.93000 25.71600
H  52.85000 34.60100 21.87400
H  51.01200 32.39900 21.81400
H  50.48400 34.24900 20.52100
H  51.67700 35.37100 20.01500
H  50.50900 36.04400 21.02600
H  52.33900 31.54400 23.75100
H  53.42600 32.83000 23.56600
H  54.55700 31.68900 21.98800
H  53.05200 31.66700 20.90700
H  53.26100 30.41200 21.97900
H  48.79300 29.34100 24.80300
H  47.09100 29.62600 25.07800
H  48.07500 29.14900 26.42800
H  46.14100 33.02600 29.54300
H  45.86600 31.52500 33.40200
H  47.59600 31.21900 33.29800
H  46.32600 30.19300 32.43400
Mg 0.53500 41.99700 25.39100
C  1.81600 41.89500 28.75500
C  -2.39400 40.95700 26.51200
C  -0.26100 41.22800 22.27200
C  3.80500 42.87700 24.34900
N  -0.20600 41.57500 27.38900
C  0.41200 41.60400 28.58900
C  -0.52300 41.34200 29.75900
C  -1.79100 40.77100 29.09500
C  -1.44900 41.11900 27.55600
C  -2.05800 39.26700 29.39600
C  -0.69900 42.79200 30.35700
C  -0.99800 42.72300 31.95100
H  -1.66300 41.51000 32.69300
N  -1.18600 41.38900 24.43500
C  -2.33900 41.09900 25.09500
C  -3.37800 40.88000 24.13000
C  -2.73600 40.90000 22.81500
C  -1.33700 41.16500 23.15200
C  -4.84500 40.67800 24.41700
C  -3.37100 40.75200 21.42300
O  -2.72400 40.97600 20.40400
C  -4.86000 40.56100 21.38500
N  1.60100 42.00700 23.64800
C  1.06600 41.61600 22.43300
C  2.09500 41.69100 21.37900
C  3.10700 42.67500 21.95900
C  2.86800 42.47000 23.43100
C  2.63200 40.33500 20.74200
C  3.09200 44.19700 21.55400
C  3.98200 44.59300 20.34500
N  2.47100 42.21600 26.32400
C  3.65300 42.67600 25.73800
C  4.67700 42.96600 26.78400
C  4.02700 42.63900 28.06500
C  2.67500 42.16800 27.67400
C  6.05400 43.45500 26.53500
C  4.09500 42.47700 29.48100
O  4.99900 42.59700 30.24400
C  2.70200 42.06000 29.92600
C  2.73000 40.77100 30.68800
O  2.90100 39.62400 30.30900
O  2.28800 41.08600 31.97200
C  1.81200 39.97400 32.77400
H  -3.39100 40.58500 26.75700
H  -0.42100 40.87500 21.25100
H  4.78200 43.17800 23.96600
H  0.08600 40.70500 30.40100
H  -2.70100 41.28900 29.39500
H  -2.41400 39.22000 30.42500
H  -1.22400 38.62400 29.11500
H  -2.83800 38.86600 28.74700
H  -1.57500 43.14800 29.81400
H  0.18900 43.36300 30.08800
H  -1.52000 43.65000 32.18600
H  0.02900 42.92100 32.25700
H  -5.37700 41.53700 24.00600
H  -5.00800 40.77300 25.49100
H  -5.26200 39.73100 24.07600
H  -5.27400 40.29600 20.41200
H  -5.32800 41.48000 21.73600
H  -4.96800 39.67100 22.00500
H  1.70900 42.24700 20.52500
H  4.05100 42.21500 21.66900
H  1.89000 39.53700 20.78600
H  3.50500 39.96100 21.27700
H  2.83400 40.54300 19.69200
H  3.42700 44.85500 22.35600
H  2.08600 44.52700 21.29300
H  3.33900 44.95100 19.54100
H  4.51700 43.74300 19.92000
H  4.74500 45.33500 20.58000
H  6.09600 44.17700 25.72000
H  6.73900 42.67100 26.21500
H  6.34500 43.94000 27.46700
H  2.35200 42.86800 30.56900
H  1.51600 40.56200 33.64300
H  2.62300 39.25900 32.91600
H  0.91000 39.51800 32.36500

