158

Mg 46.45400 25.97400 28.19600
C  47.13600 28.09100 30.85300
C  45.58000 23.50100 30.62000
C  46.02400 23.88300 25.70900
C  48.02800 28.15800 26.09000
N  46.28100 25.87100 30.50000
C  46.57600 26.91700 31.33200
C  46.30300 26.54600 32.77800
C  46.06500 25.03100 32.67400
C  45.99500 24.70600 31.20500
C  47.11100 24.15100 33.41700
C  45.13800 27.44200 33.38100
C  44.84600 27.12700 34.80500
H  44.90300 28.24400 35.80900
N  45.86500 23.97300 28.13500
C  45.58400 23.16500 29.22200
C  45.35000 21.84600 28.65000
C  45.47500 21.89900 27.21400
C  45.75600 23.30000 26.97500
C  45.12200 20.60700 29.58100
C  45.44100 20.82700 26.18900
O  45.76400 20.99200 25.00400
C  45.01600 19.50200 26.61900
N  47.00200 25.99400 26.23200
C  46.54600 25.05300 25.35500
C  46.60800 25.50100 23.86100
C  47.27000 26.95500 23.97100
C  47.37800 27.06800 25.53700
C  47.32500 24.57900 22.86900
C  46.48800 28.12100 23.27700
C  47.40800 29.07800 22.39100
N  47.34500 27.79900 28.33700
C  48.05900 28.56800 27.42000
C  48.56200 29.72800 28.03400
C  48.22900 29.65700 29.37800
C  47.54100 28.40400 29.53500
C  49.42000 30.75700 27.35000
C  48.35500 30.27200 30.67800
O  48.85200 31.31300 31.09500
C  47.69500 29.20700 31.73700
C  48.81300 28.68600 32.64000
O  49.67600 27.93400 32.28100
O  48.80400 29.39500 33.79000
C  49.95400 29.13400 34.67000
H  45.13500 22.75700 31.28400
H  45.97200 23.31500 24.77800
H  48.33600 28.85400 25.30700
H  47.18400 26.78300 33.37500
H  45.06900 24.95100 33.10900
H  47.75800 24.68300 34.11500
H  47.71000 23.65300 32.65400
H  46.56900 23.40300 33.99500
H  44.21300 27.15900 32.87800
H  45.42300 28.48900 33.27900
H  45.65100 26.47400 35.14300
H  43.91300 26.56300 34.81000
H  44.20400 20.11000 29.26700
H  44.91800 20.77600 30.63800
H  45.94100 19.89800 29.46200
H  45.83300 19.09100 27.21100
H  45.00100 18.78700 25.79700
H  44.05300 19.56200 27.12600
H  45.61600 25.64800 23.43400
H  48.26000 26.83800 23.53200
H  46.51600 23.91500 22.56600
H  48.13300 24.06600 23.39000
H  47.75800 25.10600 22.01900
H  46.12300 28.69600 24.12800
H  45.65400 27.61000 22.79700
H  47.21400 29.03000 21.32000
H  48.45700 28.78500 22.43800
H  47.33400 30.08800 22.79400
H  49.71100 30.61400 26.31000
H  50.36100 30.92600 27.87200
H  48.81900 31.65700 27.48400
H  47.05200 29.92400 32.24700
H  50.31100 28.10500 34.62700
H  49.67400 29.48500 35.66300
H  50.73600 29.86500 34.46300
Mg 27.13200 51.46100 25.80500
C  25.10600 52.29100 28.49900
C  29.58500 50.56500 27.90100
C  28.91600 50.62700 23.02800
C  24.70800 52.99000 23.70000
N  27.36900 51.50800 27.95600
C  26.30700 51.69300 28.88900
C  26.80900 51.36100 30.34100
C  28.38800 51.21300 30.09400
C  28.47300 51.12300 28.59200
C  29.31100 52.19700 30.77900
C  26.03800 50.20300 30.97800
C  25.21600 50.38200 32.26600
H  25.99700 50.84700 33.48800
N  28.96600 50.64600 25.51300
C  29.84100 50.35600 26.54100
C  31.06600 49.79200 25.95200
C  30.89900 49.79700 24.50100
C  29.51100 50.34600 24.33700
C  32.28000 49.38900 26.72400
C  31.88700 49.38900 23.51500
O  31.66300 49.42600 22.30600
C  33.22100 48.99100 23.80600
N  26.86700 51.69000 23.73100
C  27.71400 51.36600 22.74500
C  27.21200 51.57300 21.32200
C  25.81900 52.19700 21.52200
C  25.76700 52.33000 23.06100
C  28.14400 52.42600 20.40400
C  24.56800 51.39900 21.00400
C  23.46500 52.35600 20.40200
N  25.33400 52.45500 26.03400
C  24.47200 52.97800 25.10400
C  23.34800 53.61000 25.76100
C  23.55200 53.36400 27.11100
C  24.76900 52.62600 27.19600
C  22.23900 54.40100 25.10100
C  23.13000 53.70200 28.45000
O  22.12500 54.34000 28.78800
C  23.99600 52.81900 29.41200
C  24.51000 53.84300 30.40000
O  25.49100 54.52900 30.27600
O  23.61900 53.83000 31.49000
C  24.02200 54.62000 32.60800
H  30.38300 50.32100 28.60600
H  29.49300 50.37400 22.13600
H  23.92400 53.31800 23.01400
H  26.57700 52.31200 30.82100
H  28.68900 50.22000 30.42700
H  29.83600 52.80500 30.04300
H  30.07400 51.64100 31.32400
H  28.81800 52.91300 31.43700
H  26.69000 49.36600 31.23200
H  25.34500 49.86500 30.20800
H  24.52200 49.58800 32.54200
H  24.57100 51.23500 32.05500
H  32.29500 48.30800 26.86100
H  32.23400 49.69000 27.77100
H  33.14000 49.86900 26.25700
H  33.41200 48.05500 24.33100
H  33.59400 49.88600 24.30200
H  33.76100 48.87100 22.86700
H  27.05900 50.58300 20.89100
H  25.76700 53.23700 21.20300
H  28.79700 52.97000 21.08600
H  27.55100 53.09700 19.78300
H  28.62300 51.58000 19.91100
H  23.99600 50.93000 21.80400
H  24.86800 50.66100 20.26000
H  22.52700 52.26400 20.94900
H  23.24500 51.92700 19.42500
H  23.79200 53.39500 20.34900
H  21.23400 54.13400 25.42800
H  22.34600 54.40700 24.01600
H  22.26700 55.42100 25.48500
H  23.55000 51.96100 29.91500
H  24.79400 54.13600 33.20700
H  23.13000 54.70500 33.22800
H  24.35900 55.62000 32.33400

