158

Mg -3.35300 17.43100 26.63800
C  -3.72900 15.10500 29.28200
C  -3.20500 19.93400 28.77500
C  -3.41600 19.55900 23.94800
C  -3.94900 14.74800 24.34600
N  -3.44400 17.48200 28.66300
C  -3.55400 16.44600 29.62100
C  -3.42200 16.95200 31.06200
C  -3.30400 18.49900 30.90000
C  -3.41900 18.64000 29.34400
C  -4.43200 19.39500 31.61500
C  -2.25400 16.35000 31.99600
C  -1.88700 17.07800 33.33600
H  -2.03600 16.38300 34.67100
N  -3.33900 19.51100 26.34200
C  -3.19600 20.35900 27.41200
C  -3.13600 21.73000 26.93900
C  -3.05600 21.62900 25.52100
C  -3.22200 20.20500 25.18000
C  -3.16600 22.98600 27.78300
C  -2.77300 22.64000 24.44100
O  -2.58100 22.32400 23.23400
C  -2.64200 24.06400 24.83000
N  -3.77400 17.20800 24.45700
C  -3.65800 18.24100 23.63100
C  -3.79700 17.74000 22.09000
C  -3.88200 16.27400 22.25400
C  -3.88000 16.05000 23.76600
C  -4.99400 18.38500 21.41000
C  -2.68700 15.42800 21.52400
C  -1.24400 15.71400 22.05400
N  -3.82600 15.41800 26.71000
C  -3.87000 14.43900 25.70600
C  -3.97900 13.11400 26.28500
C  -4.05700 13.33600 27.69200
C  -3.88100 14.69200 27.94100
C  -4.09400 11.87100 25.60200
C  -4.26300 12.71900 28.96100
O  -4.36300 11.52900 29.37400
C  -4.14700 13.82300 30.08600
C  -2.99700 13.29900 30.95200
O  -1.79800 13.41000 30.76300
O  -3.49100 12.50400 31.96700
C  -2.60000 11.76600 32.85500
H  -3.10400 20.77600 29.46200
H  -3.36700 20.21000 23.07300
H  -4.11500 13.89400 23.68600
H  -4.31800 16.74100 31.64500
H  -2.35100 18.81000 31.33000
H  -5.41200 18.92300 31.68200
H  -4.55300 20.32900 31.06600
H  -4.08800 19.71000 32.60000
H  -1.35600 16.31100 31.37900
H  -2.53400 15.34700 32.31800
H  -2.56100 17.93100 33.41500
H  -0.85900 17.43900 33.30900
H  -2.22500 23.53600 27.80200
H  -3.42300 22.76900 28.82000
H  -3.85900 23.74300 27.41700
H  -3.58400 24.26300 25.34000
H  -2.44200 24.72100 23.98400
H  -1.75800 24.03800 25.46800
H  -2.89900 18.04300 21.55300
H  -4.84200 15.90600 21.88900
H  -4.66000 18.80600 20.46200
H  -5.41000 19.17800 22.03000
H  -5.78000 17.67400 21.15300
H  -2.64300 15.70500 20.47100
H  -2.96800 14.37500 21.52000
H  -0.67200 15.93300 21.15100
H  -0.71600 14.82100 22.38800
H  -1.13300 16.48300 22.81800
H  -3.44700 11.12200 26.05800
H  -3.68200 11.88300 24.59300
H  -5.12800 11.53900 25.50700
H  -5.03700 14.03600 30.67800
H  -1.91100 11.08700 32.35300
H  -3.09000 11.13900 33.60000
H  -2.10800 12.55500 33.42500
Mg 24.93200 1.66200 29.62100
C  27.08200 1.67400 32.29800
C  22.30500 2.05300 31.75100
C  23.02800 1.98800 26.88600
C  27.80700 1.58200 27.42700
N  24.71100 1.61400 31.80400
C  25.71400 1.67100 32.73200
C  25.20900 2.04900 34.08000
C  23.59800 1.87700 33.96800
C  23.51000 1.87300 32.46600
C  22.86200 0.67300 34.61700
C  25.58400 3.47900 34.61200
C  26.39400 3.61400 35.91500
H  25.85600 4.43800 37.09400
N  22.92900 1.78000 29.37400
C  22.03400 1.95200 30.36100
C  20.69100 1.97900 29.78200
C  20.88100 2.06300 28.35800
C  22.28900 1.95200 28.11100
C  19.40100 2.17800 30.64700
C  19.77700 2.20700 27.32900
O  20.01700 2.25000 26.15700
C  18.35500 2.08200 27.81200
N  25.39600 1.48600 27.38300
C  24.32900 1.73300 26.53500
C  24.84300 2.00800 25.15000
C  26.44200 2.00400 25.28000
C  26.59300 1.66400 26.80100
C  24.25200 1.04900 24.02600
C  27.12300 3.36000 24.97200
C  26.48300 4.61900 25.50000
N  26.94300 1.36300 29.76800
C  27.98600 1.40700 28.81300
C  29.27500 1.39000 29.50500
C  29.00900 1.55400 30.85700
C  27.56300 1.40500 30.94600
C  30.63100 1.21100 28.81000
C  29.54500 1.78100 32.14100
O  30.71100 1.84700 32.55300
C  28.34200 1.91800 33.08300
C  28.61700 0.89700 34.12600
O  28.24200 -0.25600 34.01100
O  29.14100 1.49400 35.25600
C  29.08600 0.50500 36.38000
H  21.44700 2.29000 32.38300
H  22.32100 2.15800 26.07100
H  28.65200 1.64400 26.73900
H  25.71300 1.26400 34.64400
H  23.01000 2.70900 34.35700
H  22.34900 0.12400 33.82800
H  22.14200 0.95500 35.38600
H  23.66400 0.08200 35.06000
H  24.62800 3.97000 34.79600
H  26.23300 3.99900 33.90700
H  27.28000 4.16500 35.60200
H  26.64800 2.62000 36.28400
H  19.08700 3.21200 30.50800
H  19.56700 1.82700 31.66600
H  18.62800 1.48900 30.30800
H  18.31600 1.07000 28.21500
H  17.64800 2.01600 26.98500
H  17.95200 2.81100 28.51500
H  24.60300 3.03800 24.88500
H  26.76800 1.12000 24.73200
H  23.50000 1.50500 23.38200
H  23.72700 0.23800 24.53100
H  25.08900 0.60500 23.48800
H  26.97100 3.50700 23.90300
H  28.19500 3.37100 25.17100
H  25.87300 4.51700 26.39800
H  25.71200 4.94600 24.80300
H  27.20600 5.43200 25.56900
H  30.70700 1.82500 27.91300
H  30.77700 0.21100 28.40100
H  31.43300 1.43200 29.51500
H  28.22500 2.86600 33.60800
H  28.20000 0.71500 36.97900
H  29.92100 0.76300 37.03200
H  28.93300 -0.53200 36.08100

