158

Mg 26.81900 50.30200 26.65700
C  24.70600 51.68400 29.17500
C  29.16500 49.76200 29.12000
C  29.03100 49.36200 24.27900
C  24.64500 51.61500 24.13300
N  26.82400 50.65200 28.94100
C  25.86500 51.16500 29.70800
C  26.20400 50.91900 31.13700
C  27.75800 50.46000 31.12500
C  27.95000 50.28800 29.67600
C  28.80500 51.36600 31.78800
C  25.31000 49.74100 31.83200
C  24.45200 50.18500 33.08200
H  24.56400 49.27800 34.29900
N  28.75200 49.60700 26.76600
C  29.65000 49.42800 27.83300
C  30.90600 48.91200 27.40800
C  30.84900 48.88200 26.03200
C  29.49600 49.23700 25.64600
C  32.00700 48.54400 28.39800
C  31.98500 48.57300 24.98300
O  31.85900 48.69000 23.77400
C  33.27300 48.14900 25.48700
N  26.70500 50.24400 24.48600
C  27.78200 49.74700 23.73800
C  27.37300 49.71700 22.26000
C  25.98800 50.51600 22.22500
C  25.73700 50.85800 23.71100
C  28.57300 50.25400 21.30400
C  24.80300 49.76900 21.57700
C  23.78800 50.67100 20.82100
N  25.07300 51.35200 26.65500
C  24.26100 51.80000 25.55600
C  23.03000 52.39700 26.08300
C  23.17400 52.32500 27.50300
C  24.47100 51.75700 27.78100
C  21.91000 52.98100 25.20000
C  22.57000 52.74300 28.72600
O  21.52600 53.34800 28.98000
C  23.44400 52.21400 29.87900
C  23.76100 53.27500 30.84900
O  24.60500 54.13800 30.74400
O  22.92300 53.14300 31.92800
C  23.27900 53.93700 33.15700
H  29.94400 49.43100 29.81100
H  29.68800 48.97200 23.49900
H  24.02500 52.06800 23.35700
H  26.14900 51.85800 31.68700
H  27.94200 49.50300 31.61400
H  29.37400 50.89900 32.59200
H  28.23000 52.16200 32.26100
H  29.45300 51.85500 31.06100
H  25.96600 48.97000 32.23700
H  24.65900 49.26500 31.09900
H  23.39100 50.29300 32.85900
H  24.78800 51.15700 33.44100
H  31.76900 48.82000 29.42500
H  32.95400 49.08200 28.35700
H  32.17300 47.46700 28.35400
H  33.94100 48.15700 24.62600
H  33.20200 47.14100 25.89500
H  33.70700 48.74700 26.28800
H  27.24100 48.65000 22.08200
H  26.08800 51.46700 21.70200
H  29.41100 50.56600 21.92700
H  28.22400 51.13700 20.76900
H  28.80600 49.42300 20.63700
H  24.23000 49.23600 22.33500
H  25.29200 48.99200 20.98900
H  23.68400 50.33100 19.79100
H  24.19400 51.68200 20.78200
H  22.81600 50.73200 21.31200
H  22.41100 53.71400 24.56800
H  21.12300 53.46600 25.77700
H  21.37500 52.23100 24.61700
H  22.99000 51.41900 30.47100
H  23.72400 53.32600 33.94200
H  22.36100 54.35800 33.56700
H  23.91900 54.77800 32.89000
Mg -5.94200 24.92600 25.91200
C  -4.46600 26.37200 28.59500
C  -7.15900 22.52700 27.93000
C  -7.38000 23.51400 23.25400
C  -3.98100 26.93200 23.86000
N  -5.70800 24.49200 28.02300
C  -5.25500 25.34200 28.99400
C  -5.52600 24.88200 30.38200
C  -6.16100 23.48200 30.15100
C  -6.36100 23.44500 28.65100
C  -5.44000 22.24100 30.67500
C  -6.52200 25.80000 31.17800
C  -6.65500 25.54000 32.74300
H  -5.81000 24.41500 33.34400
N  -7.14900 23.24600 25.62600
C  -7.56500 22.44700 26.62600
C  -8.60700 21.55400 26.09900
C  -8.70700 21.80700 24.68000
C  -7.73700 22.88000 24.43900
C  -9.25100 20.51200 27.04900
C  -9.37700 21.05100 23.55500
O  -9.16900 21.27000 22.37900
C  -10.37300 19.99400 23.95700
N  -5.75200 25.20700 23.86000
C  -6.47800 24.50000 22.91900
C  -6.20500 24.96700 21.48900
C  -5.09900 25.99800 21.71200
C  -4.82600 26.04700 23.20200
C  -5.94800 23.93700 20.40000
C  -5.32900 27.37600 20.98100
C  -4.18500 27.92300 20.11200
N  -4.58100 26.38200 26.12600
C  -3.96100 27.19100 25.25500
C  -2.97900 28.04200 25.92300
C  -3.27600 27.89500 27.28400
C  -4.14300 26.78500 27.30300
C  -1.97600 28.97700 25.29000
C  -2.82800 28.20000 28.61500
O  -1.97100 28.94100 28.99900
C  -3.72500 27.28300 29.59000
C  -2.77800 26.43100 30.42000
O  -2.10900 25.51500 30.00500
O  -2.58800 27.04100 31.67400
C  -1.51600 26.39800 32.50900
H  -7.58500 21.75200 28.57100
H  -7.77000 22.97200 22.39000
H  -3.45000 27.59000 23.16900
H  -4.62400 24.92000 30.99300
H  -7.16100 23.38300 30.57200
H  -4.99600 21.73300 29.81900
H  -6.14200 21.61200 31.22300
H  -4.61400 22.48500 31.34400
H  -7.50600 25.77100 30.71100
H  -6.23100 26.84700 31.10100
H  -7.70300 25.29300 32.91400
H  -6.36400 26.46200 33.24800
H  -9.79400 20.94900 27.88700
H  -8.50200 19.79700 27.38600
H  -9.96400 19.91700 26.47900
H  -9.87700 19.22700 24.55000
H  -10.79000 19.50500 23.07700
H  -11.08700 20.42400 24.66000
H  -7.14000 25.44300 21.19600
H  -4.12700 25.59200 21.43200
H  -6.92600 23.47900 20.24800
H  -5.43400 23.09700 20.86700
H  -5.61200 24.34200 19.44600
H  -5.43000 28.10800 21.78200
H  -6.26600 27.35400 20.42400
H  -4.55700 27.72300 19.10700
H  -3.27700 27.32900 20.21000
H  -4.11600 28.99300 20.30900
H  -2.56400 29.57100 24.59000
H  -1.14500 28.47400 24.79500
H  -1.55400 29.68800 26.00000
H  -4.38800 27.90400 30.19200
H  -1.69500 25.33000 32.63500
H  -1.26100 26.89800 33.44300
H  -0.63400 26.49000 31.87400

