158

Mg 47.30600 25.35100 28.06200
C  48.26200 27.55000 30.48600
C  46.46400 23.11400 30.66800
C  46.84000 22.90800 25.81400
C  48.58500 27.40500 25.61600
N  47.06800 25.44900 30.26100
C  47.70700 26.43000 31.07300
C  47.45000 26.27600 32.53200
C  46.93800 24.73400 32.56800
C  46.86600 24.36600 31.02800
C  47.77300 23.66100 33.29900
C  46.46100 27.31500 33.12400
C  45.57300 26.98500 34.34000
H  45.53400 27.95200 35.54300
N  46.53700 23.29200 28.17300
C  46.34800 22.56700 29.33300
C  46.07900 21.18800 28.99600
C  46.00800 21.16700 27.63600
C  46.42900 22.46800 27.12200
C  45.89900 20.06400 30.06100
C  45.49700 20.12300 26.66500
O  45.58400 20.07700 25.42900
C  44.85300 18.98200 27.29200
N  47.55000 25.20000 26.00400
C  47.29300 24.13300 25.30900
C  47.78400 24.28100 23.83800
C  48.06700 25.79300 23.66100
C  48.21300 26.13500 25.18100
C  48.95300 23.42700 23.27400
C  46.83200 26.53300 23.08400
C  47.17800 27.81800 22.45900
N  48.19500 27.09800 28.01400
C  48.64500 27.79200 26.95600
C  49.16400 29.10000 27.41600
C  49.04400 29.01400 28.79200
C  48.48500 27.75900 29.10600
C  49.77700 30.17500 26.59300
C  49.27000 29.74800 30.06200
O  49.72700 30.85100 30.32400
C  48.66800 28.81200 31.15300
C  49.64200 28.68300 32.25800
O  50.62200 27.94200 32.23100
O  49.34900 29.59000 33.28800
C  50.30200 29.51700 34.43800
H  46.36500 22.37300 31.46300
H  46.79400 22.13300 25.04600
H  48.95300 28.04700 24.81300
H  48.42600 26.34700 33.01200
H  45.93100 24.65700 32.97800
H  47.08400 22.94800 33.75100
H  48.33400 24.08100 34.13500
H  48.44300 23.19800 32.57600
H  45.91000 27.67600 32.25500
H  47.12900 28.08200 33.51700
H  46.00800 26.07500 34.75300
H  44.62100 26.73900 33.86800
H  46.46000 19.23300 29.63400
H  44.83200 19.87900 30.18700
H  46.29800 20.27700 31.05200
H  45.58900 18.28800 27.69800
H  44.18900 18.54900 26.54300
H  44.24200 19.39900 28.09200
H  46.90900 24.01600 23.24500
H  48.96500 25.95300 23.06300
H  49.88000 23.89000 23.61200
H  48.80800 23.26000 22.20700
H  48.92300 22.58800 23.96800
H  46.03900 26.61800 23.82700
H  46.44600 25.96200 22.23900
H  46.50600 28.60500 22.80000
H  47.10200 27.79200 21.37100
H  48.18000 28.22600 22.59000
H  50.73600 29.77000 26.27200
H  49.92000 31.03200 27.25200
H  49.30900 30.47200 25.65400
H  47.80500 29.27700 31.63100
H  50.20200 28.48900 34.78700
H  49.84200 30.19000 35.16100
H  51.35800 29.75600 34.31800
Mg 42.23400 40.87100 26.50400
C  41.39300 43.39800 28.87200
C  43.00400 38.94100 29.06900
C  42.79400 38.58900 24.21800
C  41.79300 43.35400 23.98700
N  42.11200 41.12500 28.67000
C  41.69600 42.18800 29.44200
C  41.73300 41.89300 30.93800
C  42.66300 40.59300 30.92000
C  42.60400 40.15400 29.44400
C  44.09200 40.84200 31.49100
C  40.28600 41.69100 31.55600
C  39.88300 42.57900 32.74400
H  39.49100 41.76300 33.96000
N  42.82600 39.00100 26.65000
C  43.05600 38.32500 27.79500
C  43.55800 37.02900 27.42300
C  43.47400 36.94100 25.96500
C  42.94300 38.19900 25.55400
C  43.80300 36.00400 28.41000
C  43.83500 35.76700 25.11200
O  43.79600 35.76900 23.89100
C  44.46100 34.58400 25.57100
N  42.34800 41.06600 24.35500
C  42.54100 39.89800 23.62300
C  42.39200 40.16400 22.15200
C  42.20100 41.68800 22.08500
C  42.10200 42.08900 23.54300
C  43.45000 39.55600 21.15700
C  40.96000 42.11500 21.16000
C  41.27500 43.08600 19.99200
N  41.68400 42.94500 26.37800
C  41.53900 43.78400 25.29800
C  41.14000 45.11100 25.77000
C  40.97900 44.94800 27.19800
C  41.38800 43.65500 27.49800
C  40.84200 46.30700 24.92100
C  40.41700 45.58200 28.37100
O  39.72900 46.63100 28.45000
C  40.77700 44.63100 29.54100
C  41.71000 45.24900 30.50900
O  42.88200 45.46900 30.41300
O  41.01600 45.58700 31.57300
C  41.74900 46.25900 32.69500
H  43.25800 38.35000 29.95100
H  42.86800 37.86200 23.40600
H  41.54000 44.12800 23.25800
H  42.21500 42.67900 31.51900
H  42.27000 39.77000 31.51700
H  44.84900 41.08800 30.74600
H  44.43700 39.97900 32.06000
H  44.07900 41.73500 32.11600
H  40.00200 40.65300 31.72700
H  39.63600 41.95400 30.72100
H  38.94700 43.01400 32.39600
H  40.52300 43.43400 32.96200
H  44.87700 35.83700 28.32500
H  43.46800 34.97600 28.27200
H  43.44500 36.41100 29.35500
H  43.73300 33.91300 26.02600
H  45.10700 34.95100 26.36900
H  45.03900 34.11000 24.77800
H  41.41800 39.70700 21.97400
H  43.06200 42.16100 21.61400
H  44.09900 40.25400 20.62700
H  42.92100 38.97800 20.40000
H  44.11400 38.90000 21.71900
H  40.09100 42.50200 21.69200
H  40.57900 41.23600 20.63900
H  42.34100 43.20600 19.79800
H  40.86700 44.07000 20.22300
H  40.79700 42.81800 19.05000
H  41.26900 46.35200 23.91900
H  41.09100 47.13300 25.58600
H  39.75400 46.24700 24.90700
H  39.83500 44.28600 29.96700
H  42.59600 46.87100 32.38600
H  42.09600 45.49600 33.39200
H  41.08300 46.92800 33.24000

