158

Mg -1.45600 34.36900 26.81900
C  -3.15900 32.56700 29.18700
C  0.21800 36.10300 29.39100
C  -0.65800 36.90800 24.63000
C  -3.49500 33.01200 24.41200
N  -1.44100 34.28900 29.01700
C  -2.23400 33.46300 29.76200
C  -1.93200 33.57500 31.20600
C  -0.99400 34.78600 31.25200
C  -0.64000 35.07400 29.78900
C  -1.52100 36.10100 32.08100
C  -1.42700 32.24600 31.84900
C  -2.05800 31.91500 33.21700
H  -1.02500 31.93300 34.41900
N  -0.10800 36.04800 26.90500
C  0.41300 36.59400 28.05100
C  1.24300 37.75100 27.67600
C  1.02200 37.99600 26.28400
C  0.06800 37.00500 25.87100
C  1.88500 38.62000 28.68400
C  1.65000 38.99100 25.39600
O  1.29400 39.16300 24.23400
C  2.84500 39.80800 25.90000
N  -2.10700 34.97500 24.88100
C  -1.61700 36.03600 24.20200
C  -2.20400 36.16100 22.85100
C  -2.91500 34.79800 22.70000
C  -2.79100 34.18100 24.06800
C  -3.17300 37.31700 22.59100
C  -2.28600 33.84300 21.57700
C  -3.22800 33.04000 20.60700
N  -2.97900 32.89200 26.80100
C  -3.59100 32.35700 25.68700
C  -4.46400 31.31200 26.10000
C  -4.37300 31.33400 27.49100
C  -3.42000 32.33000 27.87500
C  -5.22800 30.34400 25.19800
C  -4.87600 30.78700 28.75200
O  -5.67800 29.89500 28.97800
C  -4.06100 31.55400 29.86500
C  -5.12700 32.15100 30.72000
O  -5.92200 33.04300 30.42300
O  -5.12800 31.49600 31.97900
C  -6.22500 31.88000 32.92300
H  0.75500 36.57000 30.22000
H  -0.30400 37.58900 23.85300
H  -4.09200 32.53700 23.63100
H  -2.81300 33.95600 31.72200
H  -0.10400 34.50200 31.81300
H  -1.26300 37.00200 31.52300
H  -0.82800 36.14100 32.92100
H  -2.52500 35.99100 32.49000
H  -0.35700 32.41400 31.97600
H  -1.46400 31.46300 31.09200
H  -2.45300 30.90000 33.24100
H  -2.88100 32.61700 33.34900
H  1.15500 38.53300 29.48900
H  1.92500 39.66000 28.35800
H  2.85700 38.26200 29.02000
H  3.40000 40.33700 25.12500
H  3.58200 39.16900 26.38600
H  2.43800 40.58000 26.55200
H  -1.40900 36.28800 22.11600
H  -3.97600 34.92300 22.48300
H  -3.17700 37.84600 23.54400
H  -4.16800 37.02500 22.25500
H  -2.85800 37.84400 21.69000
H  -1.67600 33.18000 22.19200
H  -1.58000 34.48800 21.05300
H  -2.98100 33.28400 19.57400
H  -4.27100 33.33200 20.73600
H  -3.21900 31.95300 20.69200
H  -4.62600 30.02200 24.34800
H  -6.10300 30.94900 24.96100
H  -5.54400 29.49700 25.80800
H  -3.53800 30.85100 30.51400
H  -7.01100 32.51500 32.51300
H  -5.77300 32.42100 33.75400
H  -6.73300 31.00500 33.32700
Mg -5.33000 25.20100 25.60700
C  -3.69400 26.68400 28.27100
C  -6.95900 23.07100 27.96200
C  -6.70800 23.52800 22.99200
C  -3.39700 27.12400 23.38100
N  -5.20900 24.82400 27.93300
C  -4.59100 25.66100 28.80900
C  -5.10900 25.48200 30.24200
C  -5.89500 24.12400 30.13500
C  -6.03600 23.96900 28.57200
C  -5.05900 22.98300 30.73600
C  -5.78100 26.68200 30.96300
C  -6.09500 26.45700 32.50900
H  -5.47600 25.30300 33.31500
N  -6.58800 23.49300 25.51900
C  -7.17100 22.85900 26.62200
C  -8.19200 21.95700 26.08100
C  -8.21200 22.17200 24.66300
C  -7.04800 23.02300 24.31900
C  -9.11100 21.22400 27.03400
C  -9.29000 21.67700 23.69900
O  -9.12600 21.72900 22.49700
C  -10.56800 21.09200 24.25100
N  -5.01000 25.20600 23.46000
C  -5.79700 24.50600 22.58800
C  -5.34500 24.74700 21.14100
C  -4.46400 26.01000 21.29800
C  -4.27500 26.10900 22.80900
C  -4.59200 23.52500 20.55800
C  -5.00000 27.33500 20.67600
C  -4.10400 28.19500 19.73400
N  -3.91600 26.61700 25.76300
C  -3.27500 27.36200 24.79900
C  -2.43700 28.34200 25.40800
C  -2.54700 28.04300 26.79100
C  -3.46700 27.02200 26.96100
C  -1.55600 29.32100 24.71300
C  -2.00400 28.48500 28.07900
O  -1.11000 29.34100 28.29500
C  -2.76900 27.60500 29.08900
C  -1.85100 27.02000 30.09600
O  -0.76200 26.47300 29.82100
O  -2.17600 27.44300 31.35300
C  -1.44300 26.87900 32.45300
H  -7.44800 22.51200 28.76200
H  -7.15800 23.09600 22.09600
H  -3.02500 27.80800 22.61600
H  -4.23500 25.46200 30.89400
H  -6.85900 24.18200 30.64100
H  -4.29900 23.34600 31.42800
H  -4.49000 22.46100 29.96700
H  -5.68600 22.22500 31.20500
H  -6.73800 26.73600 30.44400
H  -5.17500 27.56700 30.77100
H  -7.15800 26.41500 32.74500
H  -5.62700 27.30300 33.01100
H  -8.40500 20.81800 27.75800
H  -9.45100 20.32800 26.51400
H  -9.98300 21.80500 27.33500
H  -10.95200 21.69500 25.07400
H  -10.48600 20.05000 24.56000
H  -11.27700 21.02300 23.42600
H  -6.19900 24.88800 20.47800
H  -3.52800 25.70600 20.83100
H  -3.58200 23.83300 20.29000
H  -5.05500 23.11300 19.66100
H  -4.39300 22.87200 21.40800
H  -5.16700 27.96700 21.54800
H  -5.90800 26.98200 20.18700
H  -4.63000 28.38600 18.79800
H  -3.22200 27.56600 19.61400
H  -3.80200 29.15900 20.14300
H  -2.09300 30.24600 24.50500
H  -1.25300 28.73200 23.84700
H  -0.63600 29.53300 25.25800
H  -3.27400 28.45900 29.54000
H  -0.37200 27.08500 32.45100
H  -1.72100 25.82700 32.51200
H  -1.75700 27.13000 33.46600

