158

Mg 17.06700 51.94500 26.57500
C  19.37000 50.38500 28.86400
C  15.15900 52.56000 29.31900
C  14.96900 53.31700 24.46500
C  19.20900 50.86400 23.93200
N  17.31600 51.57600 28.85200
C  18.33500 51.01600 29.58200
C  18.17500 51.21800 31.15600
C  16.63100 51.63800 31.19400
C  16.30900 51.97300 29.69700
C  15.69100 50.50500 31.67500
C  19.11400 52.33100 31.76900
C  19.44400 52.15300 33.19300
H  18.36500 51.71000 34.17700
N  15.34600 52.80600 26.87500
C  14.63600 52.91400 28.02400
C  13.42600 53.74700 27.83600
C  13.31600 53.90400 26.39100
C  14.53600 53.32800 25.83500
C  12.51400 54.08300 28.93200
C  12.26100 54.64700 25.51800
O  12.29900 54.70700 24.31400
C  11.11500 55.33100 26.16900
N  17.07500 52.03200 24.45200
C  16.09400 52.67500 23.85800
C  16.33200 52.68700 22.29800
C  17.65700 51.95600 22.17500
C  18.06200 51.61100 23.61200
C  15.13400 51.95900 21.51700
C  18.73400 52.80800 21.39500
C  19.23100 54.17800 21.89900
N  18.86500 50.85800 26.35100
C  19.58800 50.54500 25.20600
C  20.67300 49.70200 25.50200
C  20.63300 49.56400 26.94300
C  19.52000 50.35000 27.42100
C  21.52800 48.97700 24.47100
C  21.23000 48.91200 28.09800
O  22.08800 48.06200 28.16700
C  20.63300 49.69300 29.28700
C  20.39900 48.73000 30.37200
O  19.62900 47.83500 30.34900
O  21.15700 49.00100 31.50600
C  20.81400 48.22800 32.63700
H  14.53500 52.76800 30.19100
H  14.50500 53.95000 23.70500
H  19.81100 50.35400 23.17700
H  18.34400 50.25800 31.64400
H  16.40700 52.46700 31.86500
H  14.72400 50.74500 32.11700
H  16.29900 49.75600 32.18400
H  15.30300 49.89900 30.85600
H  18.60000 53.29100 31.71800
H  20.00300 52.37500 31.14000
H  19.90300 53.11600 33.41500
H  20.28900 51.46600 33.14400
H  12.46200 55.11700 29.27200
H  12.69600 53.48100 29.82300
H  11.49200 53.86900 28.62000
H  10.66100 54.64600 26.88500
H  10.36400 55.75100 25.50000
H  11.54100 56.15600 26.74000
H  16.42400 53.69700 21.90000
H  17.50900 51.04400 21.59600
H  15.51300 51.17700 20.86000
H  14.57900 52.65600 20.88900
H  14.32600 51.54400 22.11900
H  18.34100 53.05100 20.40800
H  19.63400 52.19400 21.34400
H  20.29000 54.04300 22.11900
H  18.58900 54.60700 22.66900
H  19.07200 54.83200 21.04200
H  21.31100 48.94900 23.40300
H  21.39600 47.90000 24.57800
H  22.56100 49.29200 24.61300
H  21.33400 50.45100 29.63900
H  20.64500 47.23600 32.21900
H  19.84600 48.41700 33.10100
H  21.58900 48.22100 33.40500
Mg -12.26100 15.66900 41.64000
C  -9.17800 13.92600 41.46200
C  -10.70000 18.42700 40.35900
C  -15.35900 17.04700 40.96200
C  -13.81000 12.62000 42.34900
N  -10.16200 16.03600 40.83900
C  -9.09700 15.27600 41.04900
C  -7.87900 15.96400 40.54800
C  -8.40600 17.46500 40.43900
C  -9.80500 17.33400 40.63600
C  -7.75200 18.45900 41.37700
C  -7.24500 15.33200 39.29000
C  -5.71500 15.56800 39.15400
H  -5.17500 16.26800 37.90300
N  -12.96600 17.52500 40.91800
C  -12.07100 18.51900 40.54600
C  -12.86900 19.68300 40.27000
C  -14.24000 19.35800 40.52700
C  -14.27100 17.92200 40.85500
C  -12.29700 21.05600 39.90000
C  -15.40900 20.29300 40.31200
O  -15.16900 21.43300 39.97000
C  -16.83400 19.95300 40.68000
N  -14.30300 14.85900 41.41300
C  -15.39900 15.65000 41.29600
C  -16.70900 14.85700 41.41000
C  -16.17900 13.49400 41.90600
C  -14.66600 13.61200 41.84400
C  -17.84500 15.46100 42.26000
C  -16.73600 12.24300 41.11600
C  -17.19800 11.15100 42.05000
N  -11.69900 13.69500 41.92800
C  -12.40600 12.61600 42.36400
C  -11.53000 11.46300 42.62000
C  -10.24100 12.00800 42.34100
C  -10.42500 13.30900 41.89100
C  -12.00700 10.18200 43.21900
C  -8.83800 11.66700 42.31600
O  -8.21900 10.64900 42.59500
C  -8.11000 12.89700 41.73900
C  -7.06500 13.24100 42.71800
O  -7.24800 13.47800 43.90800
O  -5.89500 13.49300 42.09000
C  -4.91100 14.31000 42.88000
H  -10.26000 19.38100 40.06500
H  -16.30500 17.55900 40.77600
H  -14.27500 11.69300 42.69100
H  -7.07900 16.01500 41.28600
H  -8.20300 17.90600 39.46300
H  -6.75100 18.16500 41.69100
H  -8.31100 18.62100 42.29900
H  -7.55200 19.35200 40.78500
H  -7.75100 15.82600 38.46100
H  -7.41500 14.25500 39.31100
H  -5.23200 14.59400 39.22400
H  -5.48000 16.04500 40.10500
H  -11.35600 21.12600 39.35500
H  -12.19900 21.57100 40.85500
H  -12.94500 21.67100 39.27500
H  -17.23800 19.22100 39.98000
H  -17.54400 20.74900 40.45400
H  -16.84100 19.69100 41.73800
H  -17.15300 14.69100 40.42800
H  -16.36500 13.46200 42.97900
H  -18.51400 16.02700 41.61100
H  -17.40600 16.14100 42.98900
H  -18.32900 14.63400 42.77900
H  -16.07200 11.74200 40.41200
H  -17.64100 12.65100 40.66500
H  -16.48700 10.33000 41.96800
H  -18.21400 10.76200 41.98700
H  -17.21400 11.43800 43.10100
H  -12.89700 9.83400 42.69600
H  -12.17400 10.39500 44.27500
H  -11.23600 9.41200 43.19800
H  -7.48000 12.52500 40.93100
H  -5.36100 15.21400 43.29200
H  -4.17300 14.76400 42.21900
H  -4.42800 13.69000 43.63600

