158

Mg 42.76900 3.91000 46.63500
C  40.89000 6.90400 46.61300
C  39.78400 2.12200 46.72200
C  44.53900 1.28200 45.83200
C  45.61200 5.97100 46.15000
N  40.67600 4.45000 46.77800
C  40.14200 5.75200 46.78700
C  38.62900 5.68500 47.04500
C  38.29100 4.16400 47.08100
C  39.65600 3.52700 46.90500
C  37.69100 3.69700 48.44300
C  37.59200 6.51100 46.20200
C  37.40900 6.09600 44.73800
H  37.86600 7.00300 43.67200
N  42.26900 1.93100 46.42600
C  40.99100 1.38800 46.42400
C  41.07600 -0.02700 46.09400
C  42.45100 -0.28700 45.89100
C  43.12200 1.00600 45.95200
C  39.88900 -0.99800 46.04100
C  42.98500 -1.65000 45.62400
O  42.24100 -2.61500 45.87900
C  44.48200 -1.97500 45.27400
N  44.82200 3.71500 46.08100
C  45.29400 2.43300 46.00200
C  46.82000 2.47700 45.84800
C  47.14900 4.00800 45.94400
C  45.79900 4.60900 46.10200
C  47.51000 1.60600 46.96600
C  48.09100 4.58700 44.90100
C  49.26900 5.48000 45.43500
N  43.24500 6.02300 46.49800
C  44.41700 6.68500 46.24100
C  44.27100 8.15000 46.24000
C  42.84500 8.23900 46.34400
C  42.26800 6.91600 46.50000
C  45.22600 9.29900 45.98600
C  41.71300 9.20900 46.27700
O  41.71800 10.43100 46.12400
C  40.45600 8.32200 46.61000
C  39.87500 8.72400 47.96200
O  40.44100 8.50700 48.99900
O  38.76200 9.50200 47.78600
C  38.17000 9.77200 49.10400
H  38.87400 1.52600 46.81800
H  45.26400 0.46900 45.75400
H  46.51200 6.50800 45.84500
H  38.59500 6.14000 48.03500
H  37.66200 3.70300 46.32000
H  37.17100 4.51100 48.94900
H  38.37100 3.15900 49.10300
H  36.84400 3.08400 48.13600
H  37.67500 7.59300 46.30600
H  36.63100 6.34200 46.68700
H  36.35900 5.88200 44.54100
H  37.98200 5.18000 44.59100
H  38.94300 -0.45900 45.99200
H  39.85400 -1.65000 46.91400
H  40.08000 -1.54300 45.11600
H  45.20800 -1.67800 46.03100
H  44.72000 -1.47800 44.33400
H  44.46300 -3.03900 45.03900
H  47.14200 1.92400 44.96600
H  47.63400 4.16400 46.90800
H  46.83800 1.29800 47.76600
H  48.27800 2.20900 47.45100
H  47.92700 0.70400 46.52000
H  47.61000 5.12700 44.08500
H  48.57000 3.67300 44.55200
H  50.20200 5.23400 44.93000
H  49.45600 5.32700 46.49800
H  49.04700 6.54100 45.31600
H  45.86700 9.55300 46.83000
H  44.73500 10.18700 45.58700
H  45.89600 9.10100 45.14900
H  39.66900 8.53700 45.88700
H  37.16800 10.15600 48.91700
H  38.74500 10.57900 49.55600
H  38.12500 8.90300 49.76100
Mg 26.77900 49.94000 27.42400
C  24.80300 51.04500 30.10800
C  29.05200 48.93800 29.71500
C  28.82600 49.56700 24.76000
C  24.47800 51.53200 25.33400
N  26.92900 50.14400 29.69400
C  25.93000 50.36800 30.60600
C  26.37700 50.04600 32.05500
C  27.80200 49.54800 31.81900
C  27.98400 49.59300 30.31800
C  28.91000 50.34900 32.56000
C  25.41400 48.97700 32.72500
C  24.64300 49.54700 33.96500
H  24.69000 48.71800 35.25200
N  28.58000 49.21700 27.25300
C  29.39400 48.86300 28.35100
C  30.68900 48.42100 27.81600
C  30.74800 48.68300 26.41600
C  29.31200 49.21300 26.08800
C  31.78700 47.83500 28.66200
C  31.97300 48.55700 25.40100
O  31.81000 48.83400 24.23600
C  33.32000 48.15200 25.82200
N  26.52700 50.28500 25.24600
C  27.52900 50.01500 24.38000
C  27.01100 50.18500 22.96700
C  25.50500 50.66100 23.20600
C  25.43000 50.88200 24.67700
C  27.83700 51.15100 22.11900
C  24.43800 49.66700 22.72700
C  23.22200 50.40200 21.99000
N  25.05900 51.16500 27.60000
C  24.18600 51.62900 26.70000
C  23.02700 52.21000 27.30400
C  23.20100 52.03500 28.69600
C  24.45200 51.40100 28.77500
C  21.93200 52.94900 26.70600
C  22.68200 52.17500 30.01900
O  21.55400 52.60100 30.29600
C  23.73900 51.64100 30.97500
C  24.25800 52.79900 31.81200
O  25.11100 53.64300 31.46900
O  23.68200 52.74400 33.07700
C  24.30100 53.73300 34.00200
H  29.82900 48.42600 30.28600
H  29.49800 49.36300 23.92400
H  23.71400 51.96500 24.68500
H  26.52500 50.99600 32.56900
H  27.96400 48.52700 32.16600
H  29.62700 50.83700 31.90000
H  29.54700 49.69900 33.15900
H  28.59500 51.13500 33.24600
H  25.88700 48.03000 32.98400
H  24.69400 48.68700 31.96100
H  23.61400 49.76200 33.67700
H  25.28500 50.40100 34.18100
H  32.52100 48.46000 29.17000
H  32.29600 47.09800 28.04000
H  31.27000 47.23000 29.40700
H  33.21600 47.13800 26.20900
H  33.59900 48.83000 26.62900
H  34.10400 48.20500 25.06700
H  26.99500 49.19100 22.52100
H  25.27900 51.61500 22.72900
H  28.73400 51.40500 22.68400
H  27.41600 52.15600 22.12100
H  27.92700 50.74500 21.11200
H  24.00900 49.16700 23.59500
H  24.89500 48.86300 22.15000
H  22.87600 49.95200 21.06000
H  23.33000 51.48100 21.88200
H  22.32500 50.23000 22.58500
H  21.06300 52.54100 27.22200
H  21.85900 52.67000 25.65400
H  22.02700 54.02400 26.85900
H  23.22900 50.98200 31.67700
H  25.35100 53.89300 33.75600
H  24.36900 53.23500 34.96900
H  23.88700 54.72600 34.17200

