158

Mg 35.87000 1.87200 30.27100
C  33.19800 3.08500 32.36700
C  37.90700 2.15300 32.91800
C  38.29600 0.93700 28.34900
C  33.55000 2.05300 27.63500
N  35.52700 2.45000 32.42600
C  34.34600 2.82600 33.08400
C  34.60900 3.05800 34.61000
C  36.20000 3.02300 34.66800
C  36.58600 2.51400 33.24800
C  36.83900 4.43500 35.07700
C  33.79000 2.06300 35.46400
C  34.40500 1.50700 36.68100
H  34.91400 2.52200 37.72200
N  37.77400 1.50300 30.61300
C  38.50100 1.61600 31.76000
C  39.86100 1.17800 31.57200
C  40.01300 0.94500 30.22400
C  38.66700 1.09000 29.64500
C  40.78000 1.08200 32.76400
C  41.25600 0.58900 29.41500
O  41.30800 0.66400 28.22000
C  42.59100 0.43200 30.18100
N  35.90000 1.57800 28.28700
C  37.04100 1.14500 27.66100
C  36.85600 0.86300 26.19100
C  35.32500 1.20400 25.97400
C  34.88700 1.65500 27.36500
C  37.79000 1.65300 25.25700
C  34.44500 0.07400 25.26200
C  33.47600 0.46800 24.07500
N  33.77000 2.45900 30.00600
C  32.98700 2.48300 28.87500
C  31.66000 2.88200 29.28100
C  31.65900 3.16000 30.62200
C  32.98300 2.87200 30.99700
C  30.56100 3.19800 28.34400
C  30.89200 3.74000 31.72800
O  29.81000 4.32400 31.74400
C  31.82200 3.53500 32.93200
C  31.95400 4.82400 33.69700
O  32.76100 5.71500 33.42000
O  31.24300 4.62900 34.81900
C  31.38000 5.60000 35.81800
H  38.56700 2.35900 33.76300
H  39.00400 0.60900 27.58500
H  32.84700 2.11400 26.80100
H  34.37400 4.08100 34.90100
H  36.57400 2.30300 35.39600
H  37.40100 4.40100 36.01000
H  36.19300 5.30800 34.98500
H  37.70500 4.63600 34.44500
H  33.21900 1.27500 34.97200
H  32.96200 2.68700 35.79800
H  35.23500 0.89600 36.32700
H  33.67400 0.87600 37.18700
H  41.33100 2.01300 32.63500
H  41.43900 0.21500 32.71200
H  40.27100 1.11700 33.72800
H  42.62100 1.33000 30.79800
H  43.37600 0.19600 29.46300
H  42.35000 -0.34200 30.91100
H  37.10500 -0.19400 26.10000
H  35.31700 2.10600 25.36200
H  38.65900 1.09900 24.90200
H  38.23900 2.58900 25.58900
H  37.16200 1.97000 24.42400
H  33.94700 -0.48000 26.05700
H  35.22400 -0.59700 24.90100
H  33.76400 -0.09200 23.18600
H  33.57900 1.52300 23.82000
H  32.43800 0.36600 24.39300
H  30.32600 2.38200 27.66000
H  30.76600 4.03100 27.67300
H  29.72500 3.45300 28.99500
H  31.38200 2.71900 33.50400
H  30.42900 5.83300 36.29800
H  31.72200 6.57600 35.47400
H  31.97000 5.23000 36.65700
Mg 6.31100 54.43200 39.58600
C  6.00000 50.91100 39.51500
C  9.66700 53.99800 38.55900
C  6.46800 57.77400 39.17700
C  2.99400 54.77700 40.49600
N  7.64700 52.68200 38.87400
C  7.28600 51.33300 38.98400
C  8.44700 50.39800 38.80400
C  9.68500 51.40600 38.77900
C  8.96600 52.85100 38.76900
C  10.64700 51.29200 39.94600
C  8.34700 49.58200 37.53700
C  7.75000 50.31700 36.28500
H  6.26100 50.02000 35.85400
N  7.83600 55.69500 38.86200
C  9.18600 55.34100 38.48700
C  9.93400 56.55100 38.25100
C  9.02100 57.62900 38.43200
C  7.68800 57.08400 38.82700
C  11.47500 56.55900 37.90300
C  9.41600 59.15300 38.24700
O  10.56800 59.45400 38.02000
C  8.38700 60.23500 38.26500
N  4.76300 55.98100 39.43700
C  5.21200 57.31100 39.45400
C  4.07600 58.31700 39.79800
C  2.89900 57.32800 40.06100
C  3.57900 55.98300 40.01400
C  4.35800 59.34600 40.89100
C  1.64800 57.38000 39.03800
C  0.30000 57.83600 39.66600
N  4.78100 53.18800 39.86200
C  3.54000 53.45100 40.44600
C  2.87600 52.19800 40.80000
C  3.86800 51.22000 40.50600
C  4.91500 51.87600 39.88200
C  1.55400 51.85700 41.48800
C  4.11400 49.74400 40.62500
O  3.41200 48.76700 40.91400
C  5.50700 49.54500 40.05400
C  5.30400 48.44800 39.07400
O  4.70600 48.60600 38.02900
O  5.66100 47.25600 39.65600
C  5.05200 46.11200 38.92800
H  10.75600 54.03600 38.62400
H  6.62500 58.84200 39.33800
H  1.97300 54.92600 40.85500
H  8.35000 49.81400 39.71800
H  10.34200 51.23100 37.92700
H  10.73800 50.24500 40.23500
H  10.40000 51.94900 40.78000
H  11.61600 51.67400 39.62600
H  7.65100 48.80500 37.85500
H  9.31800 49.11600 37.36800
H  8.45900 49.98900 35.52500
H  7.92200 51.39000 36.36900
H  11.87500 55.54800 37.97900
H  12.02700 57.09600 38.67500
H  11.57000 56.87300 36.86400
H  7.59500 59.83100 37.63500
H  8.78700 61.16600 37.86300
H  8.08100 60.52200 39.27100
H  3.81600 58.90500 38.91800
H  2.52000 57.50400 41.06800
H  5.40300 59.19400 41.16100
H  3.60300 59.29500 41.67600
H  4.40500 60.34700 40.46300
H  1.45900 56.49300 38.43400
H  1.83900 58.20800 38.35500
H  -0.42700 57.02800 39.58400
H  -0.07800 58.76600 39.24200
H  0.39000 58.10400 40.71800
H  1.64500 51.62700 42.55000
H  1.02200 51.04600 40.99000
H  0.88400 52.71000 41.38500
H  6.16500 49.07200 40.78400
H  5.28900 46.31800 37.88400
H  3.97000 46.05100 39.04500
H  5.48300 45.16800 39.25900

