158

Mg 45.75300 24.09500 28.37800
C  46.61300 26.30200 30.88200
C  44.62100 21.84800 30.71000
C  45.76000 21.66300 26.01000
C  47.80400 25.93800 26.07800
N  45.55400 24.12500 30.45100
C  45.97000 25.17200 31.28300
C  45.60200 24.87500 32.80100
C  45.05000 23.44300 32.64800
C  45.06800 23.08500 31.19000
C  45.73800 22.43400 33.56300
C  44.47100 25.82700 33.31500
C  43.98000 25.56100 34.74800
H  44.58800 26.43400 35.90100
N  45.10600 22.14200 28.30600
C  44.66500 21.34000 29.37600
C  44.26400 20.04700 28.85900
C  44.39400 20.09800 27.42200
C  45.07900 21.35400 27.19200
C  43.93100 18.88500 29.74200
C  43.80000 19.15200 26.32200
O  43.99300 19.27500 25.11300
C  42.90500 18.10900 26.76100
N  46.63100 23.87300 26.21700
C  46.33200 22.81800 25.48600
C  47.03800 22.83600 24.10800
C  47.69600 24.26000 24.13100
C  47.39800 24.75200 25.57800
C  47.96700 21.67900 23.70500
C  47.35100 25.26700 23.03300
C  46.09800 26.09900 23.20200
N  46.87800 25.87100 28.44400
C  47.58100 26.49500 27.43400
C  48.09600 27.69800 27.94200
C  47.75500 27.71200 29.28400
C  47.06100 26.49600 29.56900
C  48.86900 28.73600 27.18900
C  47.80800 28.48000 30.52200
O  48.28300 29.57000 30.85800
C  47.02400 27.55200 31.60100
C  48.09500 27.20100 32.65300
O  49.08700 26.55500 32.34600
O  47.77700 27.54100 33.97300
C  48.88300 27.47800 34.95600
H  44.20900 21.13400 31.42700
H  45.78500 20.85100 25.28000
H  48.53000 26.49400 25.48000
H  46.55100 25.01200 33.31900
H  43.97600 23.48600 32.82400
H  46.36600 21.69100 33.07100
H  45.03200 22.06200 34.30500
H  46.39200 22.97000 34.25100
H  43.70100 25.78300 32.54400
H  44.94000 26.81000 33.28500
H  44.22700 24.52800 34.99500
H  42.89400 25.64800 34.73900
H  44.74800 18.16600 29.68500
H  43.00700 18.40200 29.42400
H  43.87300 19.25300 30.76700
H  42.41400 17.46100 26.03500
H  42.10400 18.50300 27.38700
H  43.42500 17.46000 27.46400
H  46.23900 22.86800 23.36800
H  48.78000 24.21700 24.02700
H  48.97300 22.04500 23.49900
H  47.64800 21.23900 22.76000
H  47.95700 20.85000 24.41300
H  47.40200 24.71600 22.09400
H  48.24300 25.89200 22.98500
H  45.71700 25.99300 24.21800
H  45.34300 25.81400 22.47000
H  46.32700 27.15900 23.08900
H  49.05300 28.56700 26.12800
H  49.88500 28.67300 27.57800
H  48.39800 29.71200 27.30400
H  46.15200 28.03300 32.04400
H  49.01500 26.46800 35.34600
H  48.75300 28.18300 35.77700
H  49.78500 27.72000 34.39500
Mg 16.60000 52.78300 26.99800
C  18.44700 51.22600 29.57600
C  14.21500 53.78000 29.30500
C  14.73600 54.15100 24.59100
C  18.79000 51.29800 24.68700
N  16.39900 52.43200 29.12900
C  17.38100 51.95400 29.99400
C  17.05700 52.29700 31.43600
C  15.61800 53.00900 31.33600
C  15.35100 53.09400 29.80900
C  14.41000 52.25500 32.03400
C  18.20300 53.29500 31.98200
C  18.22600 53.33400 33.54500
H  17.17400 52.59100 34.31600
N  14.70700 53.83200 26.94300
C  13.87100 54.11000 27.97300
C  12.70300 54.83700 27.48900
C  12.83500 55.02800 26.09800
C  14.11800 54.30300 25.82100
C  11.55800 55.03900 28.39900
C  11.93700 55.79200 25.18500
O  12.11300 55.82600 23.97400
C  10.77700 56.60600 25.82200
N  16.69800 52.70800 24.91500
C  15.89900 53.49600 24.14800
C  16.26800 53.22100 22.66700
C  17.64200 52.49800 22.71300
C  17.76100 52.20000 24.22000
C  15.19800 52.21500 22.11800
C  18.85800 53.30500 22.29500
C  20.09000 52.64400 21.62300
N  18.29100 51.47900 27.03300
C  19.08600 51.02800 26.06100
C  20.24800 50.41000 26.62700
C  20.03900 50.35000 28.01200
C  18.78600 51.04800 28.24500
C  21.33200 49.71300 25.86000
C  20.51900 49.95600 29.33700
O  21.48900 49.31300 29.72700
C  19.45900 50.47700 30.37800
C  18.94800 49.38600 31.29600
O  18.08500 48.60800 30.99700
O  19.69700 49.25000 32.48200
C  19.06700 48.50300 33.58700
H  13.46100 54.10700 30.02500
H  14.11500 54.58700 23.80600
H  19.47000 50.76900 24.01600
H  17.00700 51.47800 32.15400
H  15.50200 54.04800 31.64500
H  13.87300 51.49000 31.47400
H  13.75600 53.00100 32.48600
H  14.83900 51.71300 32.87800
H  17.99100 54.29500 31.60500
H  19.22400 53.01300 31.72400
H  18.33200 54.39200 33.78700
H  19.13600 52.83000 33.87000
H  11.64000 55.98500 28.93400
H  11.56000 54.37300 29.26200
H  10.59200 55.01300 27.89400
H  10.05700 55.93300 26.28700
H  10.42700 57.32000 25.07600
H  11.21800 57.21600 26.61000
H  16.26800 54.15000 22.09800
H  17.70100 51.57400 22.13700
H  14.65900 51.77000 22.95400
H  15.60500 51.44300 21.46400
H  14.49600 52.80000 21.52500
H  19.15100 53.82800 23.20600
H  18.53300 54.16700 21.71300
H  19.92300 51.59400 21.38100
H  20.93900 52.56500 22.30300
H  20.37400 53.13000 20.69000
H  21.51900 50.10700 24.86100
H  21.05400 48.66800 25.72400
H  22.26800 49.74100 26.41800
H  20.08400 51.12400 30.99400
H  19.13600 47.42400 33.44800
H  18.03800 48.83300 33.72700
H  19.70700 48.75700 34.43200

