158

Mg 24.51800 -4.77500 46.55600
C  26.43500 -2.49600 44.87900
C  22.19100 -4.42900 44.06400
C  22.84900 -7.48800 47.88300
C  27.49500 -5.85500 48.42400
N  24.24800 -3.49100 44.75900
C  25.16000 -2.53600 44.32500
C  24.69600 -1.86600 43.00600
C  23.17600 -2.36100 42.94900
C  23.17200 -3.49700 43.96200
C  22.12000 -1.25400 43.36300
C  25.54600 -2.32600 41.76200
C  26.24600 -1.17300 41.03100
H  25.74900 -1.07400 39.58000
N  22.73500 -5.71700 46.16300
C  21.92100 -5.44800 45.05500
C  20.81700 -6.31500 45.01200
C  20.87400 -7.01100 46.25900
C  22.20700 -6.75800 46.88300
C  19.68500 -6.16700 43.99100
C  19.71800 -7.92300 46.75700
O  18.69300 -8.02000 46.11500
C  19.79700 -8.62000 47.99700
N  25.04800 -6.44400 47.96900
C  24.14500 -7.35000 48.40300
C  24.87500 -8.33700 49.32200
C  26.40100 -7.96800 49.37200
C  26.30400 -6.65900 48.62400
C  24.26400 -8.49800 50.77500
C  27.39700 -9.02800 48.75700
C  28.51600 -9.44700 49.77200
N  26.53100 -4.15200 46.88300
C  27.61200 -4.72400 47.58100
C  28.79000 -3.98200 47.21100
C  28.40100 -3.12000 46.17400
C  27.04600 -3.33000 45.95500
C  30.10900 -4.14000 47.79400
C  28.86800 -2.10000 45.27600
O  29.91100 -1.40800 45.19900
C  27.66000 -1.64400 44.35200
C  27.49200 -0.15800 44.63600
O  26.86400 0.29800 45.58300
O  28.20100 0.54000 43.76000
C  28.06100 1.97600 43.84900
H  21.43500 -4.23200 43.30100
H  22.30800 -8.35900 48.25700
H  28.38400 -6.25100 48.92100
H  24.65600 -0.78300 43.11400
H  22.81200 -2.77200 42.00700
H  22.60000 -0.41600 43.86700
H  21.41800 -1.55500 44.14100
H  21.47300 -0.98300 42.52800
H  24.97300 -2.89100 41.02700
H  26.39100 -2.89500 42.15100
H  27.31300 -1.39500 41.03100
H  26.04600 -0.19300 41.46600
H  19.99200 -5.78500 43.01800
H  18.81000 -5.70400 44.44800
H  19.34400 -7.14300 43.64500
H  20.17000 -7.91100 48.73500
H  20.29900 -9.58400 47.90900
H  18.79300 -8.78300 48.39000
H  24.84400 -9.33500 48.88300
H  26.50300 -7.83100 50.44900
H  24.77000 -7.91300 51.54400
H  24.29000 -9.56100 51.01300
H  23.21500 -8.27300 50.58600
H  27.91500 -8.62700 47.88600
H  26.96000 -9.91800 48.30400
H  29.46300 -9.84600 49.41000
H  27.99400 -9.96600 50.57500
H  28.76800 -8.48400 50.21600
H  30.01300 -4.28400 48.87000
H  30.75100 -3.26700 47.67800
H  30.61500 -5.01800 47.39200
H  27.82000 -1.82900 43.29000
H  28.23700 2.33900 42.83600
H  28.84800 2.39400 44.47700
H  27.07200 2.30800 44.16700
Mg 28.35500 56.43200 40.87800
C  25.76300 54.18000 40.34000
C  30.56300 54.12600 39.60200
C  30.66600 58.92100 40.63600
C  25.74100 58.90900 41.28500
N  28.13300 54.39000 39.99300
C  27.02600 53.64600 39.89300
C  27.27900 52.29200 39.18000
C  28.80100 52.27700 39.19000
C  29.19500 53.71800 39.59800
C  29.38000 51.07900 39.98300
C  26.44400 52.11600 37.91300
C  26.21000 53.42400 37.02600
H  26.77300 53.42600 35.64800
N  30.41500 56.49100 40.41700
C  31.11000 55.45300 39.88500
C  32.50200 55.87200 39.73100
C  32.55000 57.24300 40.16100
C  31.20000 57.62400 40.45000
C  33.65800 54.94500 39.20000
C  33.79800 58.13500 40.18200
O  34.94800 57.72000 39.90200
C  33.83700 59.60800 40.61300
N  28.15100 58.63900 40.53100
C  29.31500 59.40800 40.78300
C  28.90600 60.79600 41.01100
C  27.32200 60.84800 41.16200
C  27.01000 59.40400 40.85600
C  29.70200 61.56700 42.15400
C  26.43100 61.94700 40.50000
C  25.40200 62.68400 41.40100
N  26.22200 56.57800 40.84300
C  25.32600 57.59700 41.10000
C  24.02100 57.07800 41.35800
C  24.13200 55.69800 41.03600
C  25.47500 55.50500 40.69800
C  22.78100 57.75800 41.73100
C  23.45800 54.45000 41.08700
O  22.30800 54.04800 41.29800
C  24.38600 53.45600 40.38200
C  24.48500 52.09400 41.05000
O  23.74000 51.19800 40.71600
O  25.48200 52.08000 42.02900
C  25.53900 50.75800 42.60300
H  31.21200 53.34700 39.19500
H  31.31700 59.79000 40.52000
H  24.99100 59.65000 41.56700
H  26.83000 51.48700 39.76300
H  29.06500 52.21100 38.13500
H  29.01200 50.29200 39.32500
H  29.08600 51.11400 41.03200
H  30.46500 51.03000 39.89400
H  25.56100 51.52200 38.14600
H  26.96900 51.32200 37.38200
H  26.52200 54.34300 37.52200
H  25.13200 53.51400 36.89000
H  33.35800 54.60400 38.20900
H  33.66400 54.06400 39.84200
H  34.60000 55.49300 39.20800
H  33.24300 59.46900 41.51700
H  33.38300 60.19800 39.81800
H  34.84300 59.95500 40.84900
H  29.28200 61.36100 40.15900
H  27.31500 60.83100 42.25200
H  30.16700 60.82900 42.80700
H  28.96500 62.17100 42.68200
H  30.48000 62.16300 41.67700
H  25.92700 61.57300 39.60900
H  27.10300 62.73400 40.15800
H  25.55600 62.39800 42.44200
H  24.40200 62.40800 41.06600
H  25.43600 63.76900 41.30100
H  22.84900 58.68600 42.29900
H  22.21300 57.06600 42.35200
H  22.28200 57.95500 40.78200
H  23.95900 53.28400 39.39400
H  25.98300 50.14400 41.82000
H  24.59200 50.44900 43.04600
H  26.30100 50.75600 43.38300

