158

Mg 46.94900 25.24200 28.19500
C  48.25500 27.40300 30.73300
C  46.13600 23.13100 30.72500
C  45.89500 23.17800 25.89700
C  48.32200 27.41800 25.84600
N  47.05400 25.32200 30.43600
C  47.48800 26.35900 31.22300
C  47.29700 26.04900 32.71100
C  46.73100 24.62500 32.69000
C  46.58000 24.33100 31.20900
C  47.57900 23.58000 33.47000
C  46.50000 27.12300 33.54900
C  47.15900 27.87600 34.70400
H  46.32200 28.42400 35.95800
N  46.04800 23.36300 28.32000
C  45.88400 22.58200 29.41500
C  45.22600 21.28000 29.05300
C  44.97400 21.42400 27.64000
C  45.66400 22.67900 27.21600
C  45.05900 20.19600 30.02900
C  44.21300 20.51500 26.61600
O  44.06500 20.70000 25.42900
C  43.71200 19.24100 27.20500
N  47.18400 25.25800 26.13900
C  46.52400 24.27700 25.41500
C  46.69200 24.58900 23.93400
C  47.20000 26.02100 23.90300
C  47.60000 26.25200 25.34700
C  47.51500 23.59300 23.16300
C  46.16500 27.21700 23.46000
C  46.72100 28.21900 22.47500
N  48.05500 27.07500 28.19300
C  48.44500 27.87700 27.17500
C  49.07200 29.05200 27.73200
C  49.06700 28.87200 29.12900
C  48.40800 27.69000 29.35200
C  49.62600 30.14600 26.93600
C  49.51200 29.44200 30.38400
O  50.09300 30.45700 30.60500
C  49.09000 28.47500 31.50100
C  50.32700 27.96000 32.17300
O  51.02900 27.10400 31.72100
O  50.63600 28.68700 33.35900
C  51.89200 28.46600 33.95300
H  45.76500 22.45200 31.49500
H  45.51300 22.50000 25.13000
H  48.66800 28.09800 25.06400
H  48.28700 25.98000 33.16100
H  45.79000 24.52100 33.22900
H  46.98500 22.85700 34.03000
H  48.25200 24.10400 34.14800
H  48.10500 22.96800 32.73700
H  45.59200 26.66100 33.93800
H  46.20300 27.96100 32.91900
H  47.66800 28.75000 34.29800
H  47.84900 27.12700 35.09200
H  45.67600 20.34400 30.91600
H  45.50700 19.30800 29.58400
H  44.02600 19.98700 30.30700
H  43.25700 19.43800 28.17500
H  44.57700 18.58500 27.30100
H  42.78200 18.87700 26.76700
H  45.64200 24.64200 23.64700
H  48.15700 26.18200 23.40500
H  47.04300 23.18700 22.26800
H  47.79600 22.71900 23.75000
H  48.43800 24.02800 22.78100
H  45.84100 27.77700 24.33700
H  45.28600 26.77100 22.99600
H  46.91100 29.17800 22.95700
H  46.27700 28.33300 21.48600
H  47.73500 28.06200 22.10700
H  50.57800 29.88100 26.47700
H  49.80000 31.03700 27.54000
H  48.87400 30.31600 26.16500
H  48.44100 29.03100 32.17800
H  52.75600 28.68400 33.32500
H  51.87100 27.41500 34.24100
H  51.92700 29.07600 34.85600
Mg 49.65400 45.95200 42.73200
C  46.20500 46.68400 41.99100
C  49.24200 42.94700 41.31400
C  52.98900 45.56700 43.10300
C  49.77000 49.24000 44.04700
N  47.86400 44.99500 41.81400
C  46.65200 45.38200 41.54700
C  45.77600 44.34000 40.90200
C  46.70300 43.17200 40.61800
C  48.03800 43.75600 41.28200
C  46.37800 41.79900 41.20800
C  44.94100 44.77200 39.66100
C  43.81900 43.81100 39.10900
H  43.98000 43.03500 37.81000
N  50.94000 44.49500 42.18700
C  50.59500 43.22600 41.74000
C  51.76600 42.45100 41.78300
C  52.83700 43.16300 42.40000
C  52.28800 44.48900 42.54500
C  51.71600 40.93400 41.38200
C  54.23000 42.64800 42.73900
O  54.39400 41.47500 42.56600
C  55.42100 43.53800 43.08600
N  51.25600 47.25600 43.31200
C  52.56600 46.88900 43.39500
C  53.46900 48.10800 43.85400
C  52.39700 49.15300 44.33900
C  50.99900 48.52300 43.91000
C  54.61500 47.75500 44.86400
C  52.67900 50.65300 43.85700
C  52.72500 51.87000 44.85500
N  48.36400 47.63100 42.97800
C  48.55000 48.78700 43.64300
C  47.33700 49.51900 43.77000
C  46.35600 48.66300 43.16900
C  47.05800 47.54600 42.66900
C  47.01600 50.96700 44.25000
C  44.95900 48.59400 42.82400
O  44.03800 49.33800 42.92100
C  44.85700 47.27600 41.97900
C  43.76000 46.50400 42.64900
O  43.85300 45.87000 43.66600
O  42.63500 46.57900 41.81200
C  41.33600 46.21000 42.40600
H  49.10600 41.90700 41.00800
H  54.06000 45.54000 43.31400
H  49.71100 50.20700 44.55000
H  45.09800 43.99500 41.68300
H  47.01800 43.16000 39.57400
H  46.76700 41.67500 42.21800
H  46.97300 41.06400 40.66600
H  45.36500 41.40500 41.11700
H  45.61600 44.77500 38.80400
H  44.52000 45.76600 39.81400
H  42.96700 44.45100 38.87800
H  43.45000 43.13400 39.87900
H  52.60800 40.64800 40.82300
H  50.84600 40.97900 40.72700
H  51.51900 40.33000 42.26700
H  55.36700 43.91600 44.10700
H  55.60000 44.22100 42.25500
H  56.36300 42.99100 43.08600
H  53.84400 48.51100 42.91400
H  52.20900 49.15200 45.41300
H  55.48400 47.95900 44.23700
H  54.66400 46.73100 45.23300
H  54.70300 48.42400 45.72000
H  51.95600 50.86600 43.06900
H  53.67900 50.69500 43.42700
H  52.27100 52.75600 44.41000
H  53.75400 52.13100 45.10400
H  52.10500 51.57800 45.70200
H  47.68100 51.07400 45.10600
H  45.99600 51.26800 44.49000
H  47.41600 51.58500 43.44600
H  44.51100 47.67700 41.02600
H  41.25200 46.75100 43.34900
H  41.23900 45.14300 42.60600
H  40.53800 46.47700 41.71300

