158

Mg 1.09500 -0.93600 43.76600
C  4.49900 -0.44000 43.08100
C  0.19800 1.66900 41.83700
C  -2.20100 -2.15700 43.66000
C  1.96000 -4.05000 45.11800
N  2.26400 0.26800 42.28400
C  3.63100 0.42800 42.31100
C  3.98600 1.66600 41.57700
C  2.59300 2.45700 41.55300
C  1.58300 1.41200 41.89000
C  2.44400 3.68400 42.39400
C  4.83000 1.48900 40.26700
C  6.23400 2.16600 40.09100
H  6.49000 2.96500 38.80100
N  -0.75300 -0.25500 43.01200
C  -0.83800 0.82200 42.11900
C  -2.15400 1.06700 41.89300
C  -2.93200 0.00300 42.42600
C  -1.98500 -0.86200 43.08900
C  -2.62300 2.37800 41.20700
C  -4.46500 -0.03700 42.42000
O  -5.10900 0.89700 41.94900
C  -5.19400 -1.22100 42.92700
N  0.02200 -2.83000 44.23000
C  -1.30300 -3.04900 44.21600
C  -1.73700 -4.46400 44.77600
C  -0.40600 -4.92700 45.38600
C  0.57800 -3.90200 44.84200
C  -3.04300 -4.61400 45.57600
C  -0.09500 -6.39800 45.00400
C  -0.26300 -7.35700 46.20700
N  2.85200 -2.05600 44.12200
C  3.02100 -3.23000 44.77600
C  4.42600 -3.44100 45.02000
C  5.06000 -2.38000 44.27600
C  4.06900 -1.54200 43.78800
C  5.17000 -4.53700 45.69900
C  6.32700 -1.75000 43.96700
O  7.46100 -2.07000 44.27400
C  6.02700 -0.49900 43.13200
C  6.62100 0.76400 43.69300
O  6.24400 1.17800 44.81500
O  7.67500 1.30600 42.99100
C  8.48500 2.24100 43.79100
H  0.02300 2.67700 41.45500
H  -3.19700 -2.60600 43.66100
H  2.27600 -4.90100 45.72600
H  4.63400 2.21700 42.25800
H  2.46100 2.71900 40.50400
H  3.30700 3.93000 43.01300
H  1.55000 3.72800 43.01500
H  2.45200 4.48600 41.65600
H  4.33700 1.94500 39.40800
H  4.91000 0.40600 40.16900
H  7.02000 1.41000 40.09100
H  6.45000 2.67100 41.03300
H  -1.92700 3.21100 41.10500
H  -3.44100 2.78500 41.80100
H  -2.92700 2.22400 40.17200
H  -5.09800 -1.34600 44.00600
H  -4.66000 -2.02100 42.41400
H  -6.23000 -1.25800 42.59100
H  -1.89700 -4.91900 43.79900
H  -0.40800 -4.71500 46.45600
H  -3.48600 -3.65200 45.83600
H  -2.79700 -4.96900 46.57700
H  -3.62600 -5.38100 45.06700
H  0.90100 -6.44400 44.56200
H  -0.70100 -6.75600 44.17200
H  -1.19300 -7.09700 46.71200
H  0.60100 -7.32500 46.87000
H  -0.40200 -8.36000 45.80200
H  4.64200 -4.81700 46.61100
H  6.15200 -4.14300 45.95900
H  5.18300 -5.39400 45.02600
H  6.35000 -0.79000 42.13300
H  7.92400 3.14500 44.02900
H  9.37600 2.45600 43.20100
H  8.91500 1.76400 44.67200
Mg 47.20200 16.98200 28.62400
C  44.95100 16.48600 31.43800
C  48.96200 19.19800 30.50100
C  48.66900 17.89900 25.74600
C  44.87400 15.19000 26.74700
N  46.95900 17.73900 30.78700
C  46.10600 17.30000 31.77400
C  46.45500 17.84800 33.16900
C  47.62600 18.75100 32.73300
C  47.91000 18.58400 31.26200
C  47.35600 20.28700 32.92500
C  46.75100 16.65000 34.05600
C  46.11200 16.61900 35.46500
H  45.81700 18.00400 36.13900
N  48.55900 18.40200 28.22100
C  49.17600 19.21400 29.10800
C  50.09800 20.03300 28.32200
C  50.07600 19.60200 27.00300
C  49.02300 18.64900 26.94000
C  51.09400 20.92300 29.00000
C  50.95300 19.97300 25.78800
O  50.87300 19.43100 24.69700
C  52.00500 20.95100 25.86500
N  46.73800 16.61900 26.62200
C  47.58600 17.04800 25.64700
C  47.38200 16.39400 24.33500
C  46.13200 15.46800 24.56300
C  45.86500 15.78600 26.03300
C  47.30500 17.30500 23.03500
C  46.41500 14.02900 24.11700
C  45.41300 13.36400 23.11300
N  45.30800 15.94000 28.96000
C  44.50900 15.24400 28.09900
C  43.39300 14.69500 28.83100
C  43.50900 15.15000 30.16500
C  44.72700 15.91600 30.18000
C  42.20100 13.99000 28.29500
C  42.84800 15.22800 31.43300
O  41.83100 14.70200 31.92800
C  43.78700 16.00200 32.41100
C  42.98700 17.14800 32.94400
O  42.39700 17.99200 32.28400
O  42.84300 17.00400 34.30900
C  42.12000 18.14700 34.88300
H  49.62000 19.78900 31.14100
H  49.31700 17.89700 24.86700
H  44.33900 14.56500 26.02900
H  45.60100 18.43400 33.50900
H  48.50800 18.49000 33.31800
H  46.43400 20.52500 33.45600
H  47.25800 20.70900 31.92500
H  48.18100 20.71000 33.49900
H  47.81800 16.54100 34.24800
H  46.37100 15.75100 33.57000
H  46.77900 16.04100 36.10400
H  45.11000 16.19400 35.39700
H  51.06600 21.13600 30.06900
H  51.06100 21.87100 28.46300
H  52.03700 20.43000 28.76600
H  51.56800 21.88400 26.21900
H  52.40800 21.15400 24.87300
H  52.84600 20.60800 26.46800
H  48.21300 15.74000 24.07000
H  45.36100 16.02100 24.02800
H  46.36800 17.26400 22.47900
H  48.16300 17.00200 22.43500
H  47.44800 18.37400 23.19100
H  46.70600 13.35300 24.92100
H  47.38100 14.04400 23.61200
H  44.46200 13.86200 23.30200
H  45.29900 12.29400 23.28800
H  45.75100 13.61300 22.10700
H  42.39200 13.65300 27.27600
H  41.29300 14.59200 28.27300
H  42.01000 13.04900 28.81200
H  44.10600 15.34000 33.21600
H  42.70700 19.03000 34.63300
H  42.03300 18.08000 35.96800
H  41.12700 18.23700 34.44400

