158

Mg 5.67200 53.12800 41.76300
C  5.83400 49.76300 40.66400
C  8.59000 53.63300 40.15400
C  5.28800 56.36000 42.27900
C  2.47900 52.55800 42.95800
N  6.88600 51.87800 40.34400
C  6.78900 50.55200 40.07700
C  7.84800 50.08000 39.08800
C  8.96700 51.11600 39.47900
C  8.09800 52.31300 39.99900
C  9.98500 50.55400 40.49200
C  7.33300 50.29500 37.63600
C  7.81300 49.22000 36.71800
H  6.83300 48.75200 35.55700
N  6.85300 54.81500 41.28100
C  8.06800 54.80500 40.73100
C  8.68200 56.08200 40.90200
C  7.70200 56.91400 41.41200
C  6.51100 56.03500 41.70000
C  9.97300 56.46400 40.38200
C  7.85100 58.42500 41.57400
O  8.84900 59.01000 41.17000
C  6.80300 59.25000 42.05400
N  3.96700 54.33200 42.25900
C  4.18900 55.62600 42.56100
C  2.96200 56.25100 43.22500
C  1.92800 55.01100 43.20200
C  2.87900 53.87100 42.87200
C  3.10900 56.72500 44.71600
C  0.72500 55.19100 42.20100
C  -0.67400 55.05200 42.88100
N  4.38300 51.47300 41.83500
C  3.19100 51.39400 42.54200
C  2.74300 49.97500 42.50100
C  3.80000 49.23200 41.84600
C  4.76700 50.21000 41.43900
C  1.46800 49.41300 43.10300
C  4.38200 47.92300 41.47400
O  3.89400 46.76600 41.60800
C  5.68600 48.22900 40.69700
C  5.57100 47.72600 39.38400
O  4.83900 48.13100 38.46900
O  6.44500 46.61400 39.34500
C  6.32400 45.75900 38.17200
H  9.65400 53.75600 39.94300
H  5.06400 57.39300 42.55300
H  1.50600 52.41100 43.43100
H  8.08300 49.04800 39.35000
H  9.60300 51.48100 38.67300
H  10.28400 51.38600 41.12900
H  10.81300 50.11000 39.93800
H  9.59700 49.67200 41.00200
H  7.79000 51.22600 37.30100
H  6.25900 50.40000 37.48300
H  7.98100 48.25600 37.19800
H  8.80600 49.40200 36.30600
H  9.82200 56.93500 39.41000
H  10.71000 55.66100 40.37800
H  10.48700 57.19600 41.00600
H  6.99400 60.32200 42.10100
H  6.64500 58.87000 43.06300
H  6.00700 59.08100 41.32900
H  2.61400 57.13800 42.69600
H  1.49200 54.98900 44.20100
H  3.97600 56.17700 45.08300
H  2.22200 56.42500 45.27400
H  3.41900 57.76900 44.68500
H  0.94200 54.65200 41.27800
H  0.67100 56.23800 41.90500
H  -0.77100 55.70100 43.75100
H  -0.90200 53.99600 43.02900
H  -1.37300 55.41000 42.12600
H  1.11200 48.55500 42.53300
H  0.73600 50.21700 43.17800
H  1.77200 49.11200 44.10600
H  6.60500 47.86500 41.15700
H  7.26500 45.61000 37.64200
H  5.60000 46.10200 37.43200
H  5.86700 44.85700 38.57700
Mg 1.26800 42.71800 26.20600
C  2.69500 42.65800 29.33200
C  -1.59700 41.48700 27.63100
C  -0.00300 42.48700 23.14500
C  4.54800 43.33900 24.84800
N  0.60600 42.20500 28.24300
C  1.28900 42.54400 29.40000
C  0.45000 42.39300 30.64800
C  -0.91700 41.92700 30.07700
C  -0.64100 41.78600 28.54200
C  -1.62500 40.59100 30.63800
C  0.50300 43.69400 31.50900
C  0.75800 43.55200 33.07800
H  0.36200 42.22200 33.67000
N  -0.62100 42.06900 25.46600
C  -1.64200 41.55200 26.19000
C  -2.66600 41.14100 25.33100
C  -2.14600 41.20100 23.98800
C  -0.91500 41.98600 24.14800
C  -3.94800 40.51000 25.89200
C  -2.69500 40.68600 22.68400
O  -2.12600 40.92000 21.67100
C  -3.97000 39.88400 22.54300
N  2.20200 43.06200 24.31700
C  1.34900 42.90800 23.24700
C  2.16500 43.15300 21.97300
C  3.48900 43.72700 22.50800
C  3.50500 43.30100 23.98000
C  2.26800 41.88000 21.07500
C  3.65900 45.21300 22.28000
C  2.39800 46.08200 22.50000
N  3.18300 42.97000 26.88600
C  4.43200 43.27200 26.27200
C  5.43300 43.33300 27.27300
C  4.80400 43.04400 28.45500
C  3.43600 42.88700 28.19400
C  6.89900 43.46100 27.06600
C  5.04100 43.07300 29.84800
O  6.07300 43.18900 30.46200
C  3.65900 42.79900 30.54800
C  3.94700 41.53300 31.28400
O  4.18100 40.45500 30.74600
O  4.09000 41.83400 32.54700
C  4.44900 40.73400 33.44800
H  -2.52200 41.13700 28.09500
H  -0.28900 42.20000 22.13100
H  5.57800 43.54300 24.54700
H  0.90800 41.55200 31.16700
H  -1.67700 42.70200 30.17300
H  -1.63000 39.75200 29.94300
H  -2.62300 40.80900 31.02000
H  -0.96900 40.22400 31.42700
H  -0.39700 44.26700 31.28600
H  1.31200 44.30200 31.10300
H  0.13800 44.30000 33.57200
H  1.81700 43.66200 33.31000
H  -3.99500 39.44600 25.66000
H  -4.78200 41.11600 25.53900
H  -4.06300 40.73500 26.95200
H  -4.21000 39.38300 23.48100
H  -3.89100 39.22000 21.68100
H  -4.87300 40.48500 22.43500
H  1.64300 43.86400 21.33200
H  4.33200 43.20200 22.05900
H  1.77900 40.97300 21.43000
H  3.32000 41.64700 20.91000
H  1.77800 42.17300 20.14600
H  3.97300 45.28300 21.23900
H  4.53200 45.60200 22.80400
H  1.50800 45.55400 22.84300
H  2.02800 46.56500 21.59500
H  2.68000 46.78300 23.28500
H  7.19800 43.84700 26.09100
H  7.34700 42.51400 27.36800
H  7.20200 44.18200 27.82500
H  3.43700 43.67400 31.15800
H  4.12600 41.01300 34.45200
H  5.53400 40.69600 33.53700
H  4.14200 39.72200 33.18700

