158

Mg 1.23500 -1.24000 44.40100
C  4.49400 -0.30600 43.71400
C  0.12100 1.78200 43.31400
C  -1.88000 -2.54200 44.39000
C  2.46500 -4.50000 45.02000
N  2.20400 0.48300 43.52600
C  3.49800 0.66200 43.34000
C  3.79500 1.97200 42.60900
C  2.49400 2.68900 42.91400
C  1.52200 1.59500 43.27600
C  2.44800 3.76200 44.04300
C  4.03800 1.77000 41.07700
C  5.09900 2.72300 40.56200
H  4.92500 3.11900 39.06000
N  -0.67700 -0.47600 43.82100
C  -0.92300 0.82100 43.49900
C  -2.36600 1.00300 43.41300
C  -2.94100 -0.32500 43.62800
C  -1.86400 -1.20600 43.95500
C  -3.03000 2.34000 43.04600
C  -4.36600 -0.60500 43.47300
O  -5.16600 0.34200 43.43600
C  -5.03800 -2.01300 43.41000
N  0.44000 -3.30700 44.69700
C  -0.91800 -3.52900 44.62600
C  -1.27700 -5.02500 45.04400
C  0.15100 -5.62700 45.24600
C  1.08800 -4.44900 44.96000
C  -2.26600 -5.25100 46.26300
C  0.50300 -6.75400 44.22800
C  1.46700 -7.88500 44.80200
N  3.11500 -2.20800 44.54900
C  3.47000 -3.51600 44.90200
C  4.92600 -3.57300 45.12400
C  5.36600 -2.31000 44.57100
C  4.22000 -1.55300 44.30200
C  5.72800 -4.68500 45.50100
C  6.55200 -1.50900 44.20200
O  7.74400 -1.77000 44.29400
C  5.97400 -0.15400 43.59100
C  6.49700 0.99100 44.42000
O  6.28800 1.07500 45.61200
O  7.12200 1.95900 43.69200
C  7.63300 3.07100 44.49100
H  -0.12200 2.79200 42.97900
H  -2.84700 -3.04200 44.47200
H  2.83800 -5.46200 45.38000
H  4.55200 2.59100 43.09100
H  2.19500 3.25800 42.03400
H  3.40500 4.00900 44.50200
H  1.94300 3.32000 44.90100
H  1.78100 4.57000 43.74000
H  3.18400 1.85900 40.40600
H  4.42600 0.76000 40.94300
H  6.02000 2.14300 40.50200
H  5.32400 3.65000 41.08900
H  -3.96700 2.52200 43.57300
H  -3.22000 2.29100 41.97400
H  -2.24800 3.06500 43.27000
H  -6.07500 -1.96800 43.07600
H  -5.03500 -2.55700 44.35500
H  -4.39000 -2.68100 42.84300
H  -1.73400 -5.44500 44.14900
H  0.30800 -5.94700 46.27600
H  -2.60500 -4.26500 46.58000
H  -1.87200 -5.79100 47.12400
H  -3.14700 -5.79300 45.91900
H  0.97200 -6.36000 43.32700
H  -0.39700 -7.23800 43.84900
H  1.68600 -7.72500 45.85700
H  2.38500 -7.81500 44.22000
H  1.04700 -8.87900 44.64400
H  5.17800 -5.44800 46.05100
H  6.52900 -4.20300 46.06200
H  6.09600 -5.20600 44.61700
H  6.32300 -0.10800 42.55900
H  6.89300 3.79600 44.82900
H  8.40000 3.61400 43.93900
H  8.03600 2.69200 45.43000
Mg -10.74400 37.84300 41.61200
C  -8.69500 35.02800 41.33300
C  -8.31700 39.67400 39.84600
C  -12.82400 40.51600 41.32700
C  -13.21200 35.84500 42.88400
N  -8.72000 37.37700 40.64600
C  -8.14000 36.13100 40.59800
C  -6.81400 36.22400 39.90600
C  -6.62800 37.77900 39.69700
C  -8.00600 38.28300 39.99100
C  -5.34200 38.41800 40.39800
C  -6.80500 35.44600 38.57500
C  -5.49800 34.59300 38.32600
H  -4.44200 35.15300 37.29000
N  -10.53200 39.82800 40.90400
C  -9.45300 40.33700 40.21400
C  -9.58000 41.73700 39.99300
C  -10.86800 42.10000 40.45200
C  -11.52300 40.78800 40.92600
C  -8.53900 42.56100 39.19700
C  -11.53500 43.46600 40.44800
O  -10.81000 44.45000 40.04600
C  -12.84500 43.76400 41.01900
N  -12.76400 38.13200 41.90500
C  -13.36900 39.33500 41.88600
C  -14.88100 39.23200 42.27800
C  -14.98800 37.73400 42.84300
C  -13.56900 37.15200 42.46000
C  -15.32500 40.36700 43.32900
C  -16.24300 37.00600 42.32900
C  -16.23000 36.04500 41.16800
N  -10.94500 35.84400 42.14500
C  -11.97900 35.21100 42.68900
C  -11.57000 33.78100 43.01300
C  -10.27100 33.68200 42.46700
C  -9.95100 34.97200 41.92600
C  -12.47400 32.77800 43.68000
C  -9.18900 32.80900 42.24800
O  -9.13000 31.65700 42.56800
C  -8.11400 33.64500 41.46300
C  -6.79300 33.56300 42.08700
O  -6.31800 32.49500 42.34100
O  -6.33200 34.74500 42.59400
C  -5.26000 34.73200 43.56900
H  -7.49200 40.20200 39.36200
H  -13.49100 41.37800 41.40100
H  -14.05600 35.19100 43.11500
H  -6.00200 35.95900 40.58300
H  -6.43300 38.07500 38.66600
H  -4.80800 37.73800 41.06200
H  -5.68800 39.18000 41.09700
H  -4.72500 38.97900 39.69600
H  -6.84200 36.10900 37.71100
H  -7.65200 34.76100 38.52900
H  -5.88300 33.64900 37.94100
H  -4.92700 34.35100 39.22200
H  -8.12700 43.17700 39.99700
H  -8.99600 43.13300 38.39000
H  -7.78900 41.93700 38.70900
H  -13.01100 43.36300 42.01900
H  -13.59400 43.43900 40.29700
H  -13.00300 44.84200 41.07000
H  -15.33500 39.31000 41.29000
H  -15.12500 37.76200 43.92400
H  -15.87800 41.14000 42.79600
H  -14.46900 40.84000 43.81100
H  -15.93600 39.99500 44.15100
H  -16.98000 37.76000 42.05200
H  -16.64000 36.42500 43.16100
H  -16.97200 36.38300 40.44500
H  -16.43500 35.00900 41.43800
H  -15.22600 36.07800 40.74300
H  -12.76500 32.01600 42.95700
H  -13.31300 33.32200 44.11600
H  -11.98300 32.19500 44.45900
H  -8.01800 33.23600 40.45700
H  -5.62900 34.82200 44.59100
H  -4.58400 35.57100 43.40500
H  -4.64200 33.83400 43.55700

