158

Mg 1.86900 -0.97600 43.40200
C  5.26000 -0.51500 43.05500
C  1.27900 1.88900 41.64400
C  -1.45500 -1.78700 43.41700
C  2.54600 -4.21200 44.71500
N  3.12400 0.49500 42.49100
C  4.51800 0.48100 42.42900
C  5.03500 1.47400 41.47600
C  3.75700 2.34400 41.08100
C  2.63900 1.50900 41.78100
C  3.79800 3.90600 41.39400
C  5.66700 0.86200 40.21300
C  7.08900 1.36200 39.86400
H  7.27700 2.42700 38.75400
N  0.15200 -0.00100 42.79800
C  0.13500 1.14200 42.04600
C  -1.19100 1.57600 41.86400
C  -1.97200 0.48500 42.31900
C  -1.07900 -0.50000 42.89900
C  -1.47100 2.81600 41.13100
C  -3.49800 0.38500 42.25200
O  -4.19500 1.25200 41.83100
C  -4.42100 -0.80800 42.77000
N  0.68900 -2.80100 43.88900
C  -0.62600 -2.83600 43.80900
C  -1.22600 -4.15000 44.25700
C  0.02700 -4.90400 44.82600
C  1.20800 -3.91300 44.44200
C  -2.46100 -4.18900 45.22300
C  0.29800 -6.41600 44.39000
C  0.70000 -7.35800 45.53500
N  3.57400 -2.08200 44.03900
C  3.66300 -3.34600 44.48900
C  5.04100 -3.69300 44.73800
C  5.79900 -2.58200 44.13400
C  4.79400 -1.64800 43.71700
C  5.52000 -4.94600 45.40100
C  7.12400 -2.06500 43.66200
O  8.25300 -2.48900 43.82900
C  6.74800 -0.68500 42.98700
C  7.38400 0.27600 43.74600
O  7.02000 0.69100 44.86000
O  8.43400 0.86600 42.98600
C  8.93700 1.99900 43.69300
H  1.13600 2.85200 41.14900
H  -2.49400 -2.08300 43.26100
H  2.77300 -5.20300 45.11100
H  5.72200 2.15200 41.98300
H  3.52900 2.29100 40.01700
H  3.44800 4.44600 40.51400
H  4.85200 4.16100 41.50400
H  3.27300 4.29300 42.26700
H  5.03100 1.00500 39.34000
H  5.73400 -0.21600 40.36100
H  7.71600 0.50100 39.63300
H  7.45200 1.85600 40.76500
H  -1.02300 2.88300 40.13900
H  -0.99200 3.60100 41.71500
H  -2.54800 2.95100 41.03700
H  -5.46800 -0.50300 42.75500
H  -4.12800 -1.03500 43.79400
H  -4.32500 -1.69100 42.13700
H  -1.62500 -4.79400 43.47300
H  -0.01500 -4.90800 45.91500
H  -2.34400 -4.57400 46.23600
H  -3.23300 -4.77800 44.72800
H  -2.86500 -3.18400 45.34900
H  0.93600 -6.34800 43.50900
H  -0.57000 -6.83500 43.88100
H  0.41600 -6.89700 46.48100
H  1.75900 -7.61100 45.56400
H  0.13700 -8.29100 45.49100
H  4.81000 -5.65700 45.82400
H  6.19600 -4.65600 46.20400
H  6.07800 -5.51200 44.65500
H  7.22500 -0.69000 42.00700
H  9.47200 1.77100 44.61500
H  8.10800 2.67400 43.90500
H  9.75900 2.36600 43.07700
Mg 47.63100 34.37500 27.28100
C  45.79100 33.15300 29.90700
C  48.22300 37.22800 29.13900
C  48.96000 35.62900 24.54300
C  46.93800 31.37100 25.48500
N  46.92000 35.21100 29.26200
C  46.39800 34.42100 30.20000
C  46.53700 35.00300 31.65900
C  47.02400 36.46000 31.35100
C  47.36100 36.35000 29.80600
C  45.93500 37.59600 31.49700
C  47.58600 34.19400 32.50400
C  47.48000 34.44100 34.03700
H  48.38500 35.59000 34.61100
N  48.35300 36.20000 26.83200
C  48.56400 37.18800 27.72600
C  49.07900 38.30900 27.07300
C  49.41300 37.87800 25.73800
C  48.90500 36.53500 25.61400
C  49.32000 39.66100 27.75600
C  50.18800 38.58300 24.58900
O  50.24800 38.15600 23.45300
C  50.76100 39.96800 24.90500
N  47.72000 33.64900 25.16800
C  48.50200 34.33200 24.32300
C  48.97100 33.56000 23.09700
C  48.42500 32.12200 23.49900
C  47.61800 32.36600 24.80100
C  48.47500 33.97600 21.72300
C  49.37300 30.91700 23.57400
C  48.78400 29.66100 22.90500
N  46.60100 32.58500 27.58800
C  46.46400 31.46200 26.82300
C  45.69100 30.49600 27.56700
C  45.39800 31.13600 28.73500
C  45.94000 32.36900 28.74300
C  45.26600 29.13300 27.15900
C  44.67000 30.91500 29.95100
O  43.84000 30.07800 30.32600
C  44.71300 32.38800 30.73500
C  45.02900 32.07300 32.14800
O  45.87300 31.27100 32.50700
O  44.11300 32.62600 33.02400
C  43.95600 32.06600 34.31900
H  48.60500 38.10100 29.67200
H  49.58600 36.04200 23.74900
H  46.92400 30.33200 25.14800
H  45.58100 34.92600 32.17600
H  47.94900 36.72000 31.86500
H  45.98900 38.31500 30.67900
H  46.04300 38.17000 32.41700
H  44.91900 37.21200 31.58500
H  48.58300 34.58800 32.30600
H  47.62600 33.13200 32.26200
H  47.94900 33.53700 34.42600
H  46.45300 34.42300 34.40000
H  49.36700 40.44500 27.00100
H  50.24200 39.70200 28.33700
H  48.45800 39.89800 28.38000
H  51.51000 40.07200 24.12000
H  51.20500 40.04800 25.89800
H  49.91100 40.63100 24.74800
H  50.06100 33.55000 23.10300
H  47.71600 31.82700 22.72600
H  47.47200 34.30800 21.98900
H  48.54400 33.09700 21.08200
H  49.05600 34.84900 21.42400
H  49.78300 30.73900 24.56700
H  50.29300 31.15700 23.04100
H  49.29300 29.53800 21.94900
H  47.71500 29.74700 22.71100
H  48.89000 28.83200 23.60400
H  45.38000 28.91300 26.09700
H  44.24000 29.07100 27.52200
H  45.81700 28.32300 27.63700
H  43.74800 32.87400 30.59500
H  43.14800 31.33400 34.33200
H  43.75100 32.81400 35.08400
H  44.81800 31.47000 34.61900

