158

Mg 50.92200 45.64700 42.45500
C  47.74600 46.72400 41.05300
C  49.99400 42.53900 41.09300
C  54.06200 44.72700 42.76300
C  51.72700 49.02300 42.80100
N  49.13800 44.77300 41.01700
C  47.94500 45.40200 40.86500
C  46.99700 44.37500 40.29500
C  47.55600 43.04400 40.71900
C  49.01000 43.46100 40.99400
C  46.92800 42.31700 42.04000
C  46.71700 44.57600 38.79300
C  45.36300 44.42200 38.16000
H  45.33400 43.53300 36.94100
N  51.92900 43.88600 41.92100
C  51.31400 42.68700 41.52300
C  52.36500 41.70200 41.66100
C  53.58000 42.31000 42.10900
C  53.20600 43.66500 42.38000
C  52.22700 40.27800 41.21700
C  54.88200 41.52300 42.41500
O  54.99700 40.32100 42.12900
C  56.05300 42.05700 43.06300
N  52.64600 46.69600 42.72100
C  53.81800 46.06800 42.96000
C  55.00700 47.04800 43.26300
C  54.21400 48.45600 43.15000
C  52.80500 48.10100 42.87200
C  55.67000 46.73700 44.59100
C  54.89300 49.43200 42.07800
C  55.27000 50.81000 42.61700
N  49.90400 47.56900 42.28900
C  50.37300 48.84000 42.47200
C  49.27100 49.74600 42.29700
C  48.24100 49.00400 41.72000
C  48.66800 47.66900 41.68800
C  49.36300 51.26900 42.46500
C  46.93500 49.03700 41.24200
O  46.09100 49.96200 41.18800
C  46.56700 47.57800 40.71300
C  45.36100 47.09200 41.43500
O  45.27200 46.84500 42.63700
O  44.25200 47.09700 40.58600
C  42.83800 46.94200 41.07900
H  49.87700 41.46800 40.91400
H  55.08500 44.56700 43.10700
H  52.10000 50.04700 42.87300
H  46.06000 44.37000 40.85100
H  47.48600 42.25100 39.97400
H  46.29900 41.48100 41.73300
H  46.25500 43.03700 42.50600
H  47.69500 41.96300 42.72800
H  47.50900 44.03800 38.27200
H  46.94800 45.62200 38.59200
H  44.64900 45.24500 38.13400
H  44.84900 43.73200 38.82900
H  52.69500 39.61600 41.94700
H  52.80400 40.20200 40.29500
H  51.25400 39.90100 40.90500
H  55.78100 42.65700 43.93100
H  56.60300 42.65000 42.33200
H  56.74200 41.26100 43.34400
H  55.73400 46.95000 42.45700
H  54.39200 48.89100 44.13400
H  56.66300 46.32400 44.41600
H  55.13500 46.01700 45.21100
H  55.73800 47.67500 45.14200
H  54.15200 49.66400 41.31300
H  55.70500 49.06800 41.44900
H  54.63500 51.52500 42.09200
H  56.29000 51.16600 42.47600
H  54.96600 50.91600 43.65800
H  50.37900 51.66000 42.51200
H  48.97200 51.49000 43.45800
H  48.83800 51.71000 41.61800
H  46.30200 47.66600 39.65900
H  42.76400 47.34800 42.08800
H  42.47200 45.92100 41.19400
H  42.17300 47.50800 40.42700
Mg 28.67700 57.02100 40.44400
C  25.69700 55.27900 39.89400
C  30.30100 54.28600 39.11000
C  31.51200 58.82000 40.20900
C  26.91600 59.74100 41.49500
N  27.98700 55.08900 39.51900
C  26.73700 54.55700 39.39900
C  26.75200 53.13100 38.82800
C  28.28800 52.81500 38.63500
C  28.89300 54.13400 39.06200
C  28.86900 51.54000 39.25000
C  25.94900 52.84600 37.58400
C  25.82600 53.91700 36.50400
H  26.15600 53.58300 35.04300
N  30.61100 56.60600 39.76900
C  31.11600 55.43300 39.30700
C  32.52400 55.53400 39.12900
C  32.84500 56.84100 39.19100
C  31.66600 57.52500 39.67400
C  33.38300 54.35400 38.84600
C  34.20700 57.42000 38.84500
O  35.25600 56.78800 38.56000
C  34.48700 58.83400 38.93900
N  29.15600 59.01800 40.85300
C  30.37200 59.49100 40.77200
C  30.44000 61.00100 41.19300
C  29.01900 61.21600 41.83100
C  28.31000 59.89900 41.44500
C  31.63200 61.43800 42.01500
C  28.39800 62.53900 41.40100
C  28.25100 63.59200 42.57500
N  26.73900 57.47200 40.72300
C  26.12500 58.66600 41.16100
C  24.64200 58.51300 41.11400
C  24.48300 57.12200 40.75000
C  25.73100 56.59300 40.44900
C  23.54700 59.57300 41.35100
C  23.42000 56.12800 40.52100
O  22.20600 56.16300 40.75500
C  24.20000 54.90500 39.90400
C  23.84300 53.63700 40.57500
O  23.16400 52.72900 40.04600
O  24.49500 53.54400 41.75800
C  24.64500 52.28900 42.40200
H  30.85400 53.44800 38.68000
H  32.44000 59.39500 40.18900
H  26.34800 60.53100 41.99000
H  26.39900 52.52000 39.65900
H  28.50000 52.77900 37.56600
H  28.61200 50.79200 38.50100
H  28.40400 51.29500 40.20500
H  29.94300 51.43700 39.40800
H  24.91100 52.59800 37.80800
H  26.46000 52.10200 36.97300
H  26.48100 54.76400 36.70700
H  24.83700 54.37200 36.56200
H  34.39000 54.54300 38.47600
H  32.85000 53.82100 38.05800
H  33.40300 53.69900 39.71800
H  34.62000 59.05400 39.99800
H  33.65300 59.40500 38.53100
H  35.46100 59.11100 38.53500
H  30.52700 61.62900 40.30600
H  29.06200 61.26700 42.91900
H  32.08500 62.29000 41.50800
H  32.35900 60.64300 42.17600
H  31.27800 61.82100 42.97300
H  27.34800 62.40500 41.14200
H  28.97500 63.05600 40.63400
H  28.84500 63.32500 43.45000
H  27.22400 63.73800 42.90900
H  28.38300 64.59100 42.16000
H  22.68200 59.12500 41.84000
H  23.32500 60.22800 40.50800
H  23.86500 60.21000 42.17600
H  23.94200 54.79600 38.85100
H  25.55300 52.21100 43.00000
H  24.62200 51.50800 41.64200
H  23.77700 52.10700 43.03600

