158

Mg 1.23300 -2.70500 44.18200
C  4.53800 -2.07300 43.54800
C  0.43200 -0.13500 41.97100
C  -1.89800 -3.34200 44.84100
C  2.18400 -5.69900 45.84200
N  2.35700 -1.37300 42.73200
C  3.74000 -1.22100 42.80600
C  4.25000 -0.04700 41.87500
C  2.88700 0.69700 41.62500
C  1.80300 -0.33300 42.11200
C  2.80500 2.02600 42.35500
C  4.96200 -0.59400 40.64400
C  6.09400 0.35500 40.15500
H  6.66800 0.00700 38.73500
N  -0.47600 -1.82100 43.50000
C  -0.60200 -0.83100 42.59800
C  -2.03900 -0.52800 42.46800
C  -2.79000 -1.45200 43.28000
C  -1.72500 -2.24000 43.93800
C  -2.56200 0.49200 41.56400
C  -4.30500 -1.60200 43.41900
O  -4.99100 -0.93000 42.73600
C  -4.96100 -2.40200 44.50200
N  0.29400 -4.43400 45.10900
C  -1.01300 -4.26800 45.41000
C  -1.51000 -5.52800 46.17600
C  -0.23100 -6.49700 46.28600
C  0.81700 -5.50200 45.73800
C  -2.13400 -5.37600 47.53800
C  -0.26900 -7.79000 45.40300
C  -0.37500 -9.05900 46.34500
N  3.06700 -3.69000 44.67500
C  3.30700 -4.79200 45.44400
C  4.67300 -4.88800 45.69900
C  5.26800 -3.74200 45.07700
C  4.18800 -3.08900 44.40200
C  5.47000 -5.94900 46.48100
C  6.45500 -2.96700 44.78200
O  7.56900 -3.14200 45.16500
C  5.99000 -1.91300 43.75800
C  6.41900 -0.61600 44.23300
O  7.44100 -0.06000 43.98800
O  5.57700 -0.07800 45.12700
C  5.82000 1.29300 45.60300
H  0.25300 0.74100 41.34500
H  -2.92300 -3.60200 45.11000
H  2.53000 -6.53200 46.45900
H  4.96100 0.43000 42.54900
H  2.63400 0.93900 40.59300
H  1.88600 2.24700 42.89600
H  3.08200 2.83600 41.68000
H  3.48500 2.01000 43.20700
H  4.23700 -0.74500 39.84400
H  5.40600 -1.58100 40.76900
H  6.87000 0.13600 40.88800
H  5.95300 1.43500 40.18600
H  -2.56600 0.12900 40.53600
H  -1.87500 1.33100 41.67300
H  -3.50500 0.91100 41.91300
H  -4.48000 -2.32400 45.47700
H  -5.10600 -3.44100 44.20300
H  -5.96100 -1.99900 44.65900
H  -2.25000 -6.00300 45.53300
H  0.07900 -6.83200 47.27600
H  -2.23600 -6.35400 48.00800
H  -3.12400 -4.96600 47.33600
H  -1.58900 -4.67000 48.16500
H  0.55500 -7.88100 44.69600
H  -1.19200 -7.75400 44.82400
H  0.60600 -9.53400 46.34800
H  -1.15900 -9.71500 45.96700
H  -0.80400 -8.93500 47.34000
H  5.99600 -5.53000 47.33900
H  6.06200 -6.46000 45.72200
H  4.71000 -6.61600 46.89000
H  6.60800 -2.16800 42.89700
H  5.77800 1.86600 44.67700
H  6.81800 1.56300 45.94700
H  4.98400 1.52900 46.26300
Mg -5.94200 24.92600 25.91200
C  -4.46600 26.37200 28.59500
C  -7.15900 22.52700 27.93000
C  -7.38000 23.51400 23.25400
C  -3.98100 26.93200 23.86000
N  -5.70800 24.49200 28.02300
C  -5.25500 25.34200 28.99400
C  -5.52600 24.88200 30.38200
C  -6.16100 23.48200 30.15100
C  -6.36100 23.44500 28.65100
C  -5.44000 22.24100 30.67500
C  -6.52200 25.80000 31.17800
C  -6.65500 25.54000 32.74300
H  -5.81000 24.41500 33.34400
N  -7.14900 23.24600 25.62600
C  -7.56500 22.44700 26.62600
C  -8.60700 21.55400 26.09900
C  -8.70700 21.80700 24.68000
C  -7.73700 22.88000 24.43900
C  -9.25100 20.51200 27.04900
C  -9.37700 21.05100 23.55500
O  -9.16900 21.27000 22.37900
C  -10.37300 19.99400 23.95700
N  -5.75200 25.20700 23.86000
C  -6.47800 24.50000 22.91900
C  -6.20500 24.96700 21.48900
C  -5.09900 25.99800 21.71200
C  -4.82600 26.04700 23.20200
C  -5.94800 23.93700 20.40000
C  -5.32900 27.37600 20.98100
C  -4.18500 27.92300 20.11200
N  -4.58100 26.38200 26.12600
C  -3.96100 27.19100 25.25500
C  -2.97900 28.04200 25.92300
C  -3.27600 27.89500 27.28400
C  -4.14300 26.78500 27.30300
C  -1.97600 28.97700 25.29000
C  -2.82800 28.20000 28.61500
O  -1.97100 28.94100 28.99900
C  -3.72500 27.28300 29.59000
C  -2.77800 26.43100 30.42000
O  -2.10900 25.51500 30.00500
O  -2.58800 27.04100 31.67400
C  -1.51600 26.39800 32.50900
H  -7.58500 21.75200 28.57100
H  -7.77000 22.97200 22.39000
H  -3.45000 27.59000 23.16900
H  -4.62400 24.92000 30.99300
H  -7.16100 23.38300 30.57200
H  -4.99600 21.73300 29.81900
H  -6.14200 21.61200 31.22300
H  -4.61400 22.48500 31.34400
H  -7.50600 25.77100 30.71100
H  -6.23100 26.84700 31.10100
H  -7.70300 25.29300 32.91400
H  -6.36400 26.46200 33.24800
H  -9.79400 20.94900 27.88700
H  -8.50200 19.79700 27.38600
H  -9.96400 19.91700 26.47900
H  -9.87700 19.22700 24.55000
H  -10.79000 19.50500 23.07700
H  -11.08700 20.42400 24.66000
H  -7.14000 25.44300 21.19600
H  -4.12700 25.59200 21.43200
H  -6.92600 23.47900 20.24800
H  -5.43400 23.09700 20.86700
H  -5.61200 24.34200 19.44600
H  -5.43000 28.10800 21.78200
H  -6.26600 27.35400 20.42400
H  -4.55700 27.72300 19.10700
H  -3.27700 27.32900 20.21000
H  -4.11600 28.99300 20.30900
H  -2.56400 29.57100 24.59000
H  -1.14500 28.47400 24.79500
H  -1.55400 29.68800 26.00000
H  -4.38800 27.90400 30.19200
H  -1.69500 25.33000 32.63500
H  -1.26100 26.89800 33.44300
H  -0.63400 26.49000 31.87400

