158

Mg 9.62700 48.72600 26.49900
C  7.61500 48.77800 29.35600
C  12.38100 49.50500 28.49000
C  11.48100 48.82300 23.77100
C  6.76500 48.21900 24.53500
N  9.91400 49.10700 28.66200
C  8.96600 49.09900 29.64600
C  9.61900 49.36900 31.02500
C  11.05000 49.95800 30.65600
C  11.18700 49.44100 29.20400
C  11.13900 51.43600 30.86200
C  9.65800 48.08600 32.04200
C  9.05300 48.29500 33.44400
H  9.28500 47.11600 34.44900
N  11.59400 49.13100 26.21300
C  12.59600 49.32300 27.14800
C  13.88200 49.38400 26.49400
C  13.64600 49.08000 25.15500
C  12.17200 49.01900 24.99200
C  15.16700 49.67500 27.18700
C  14.73200 48.87200 24.02100
O  14.37500 48.65000 22.89600
C  16.12600 49.02000 24.29400
N  9.13200 48.76900 24.43000
C  10.07400 48.82500 23.47100
C  9.53100 48.51400 22.04200
C  7.98100 48.35800 22.31400
C  7.93000 48.38800 23.85000
C  9.94600 49.62700 21.06300
C  7.35400 47.02400 21.64200
C  6.06700 47.23700 20.93000
N  7.53500 48.52500 26.81200
C  6.47600 48.30100 25.92800
C  5.26100 48.10700 26.67200
C  5.65500 48.21200 28.03900
C  7.05900 48.50400 28.06300
C  3.87300 47.81000 26.03800
C  5.15400 48.10400 29.36900
O  3.97500 47.94100 29.75500
C  6.40400 48.36500 30.27300
C  6.42000 47.16300 31.11200
O  7.06000 46.16400 30.99200
O  5.76800 47.50800 32.30300
C  5.93100 46.53600 33.36900
H  13.24700 49.72000 29.11900
H  12.10100 48.72600 22.87800
H  5.83600 47.95400 24.02400
H  9.04100 50.14500 31.52600
H  11.92400 49.53000 31.14700
H  10.21300 51.90000 31.20000
H  11.35300 51.87400 29.88700
H  11.99800 51.74000 31.46100
H  10.67700 47.70400 32.09100
H  9.09900 47.32100 31.50400
H  7.98200 48.46400 33.33200
H  9.46600 49.20600 33.87700
H  15.83000 48.81200 27.24500
H  15.01900 49.89800 28.24300
H  15.79200 50.44600 26.73500
H  16.41900 50.01100 24.63900
H  16.78400 48.73300 23.47300
H  16.30600 48.37000 25.15100
H  9.96800 47.59000 21.66300
H  7.39700 49.22800 22.01400
H  10.62300 50.31000 21.57600
H  9.02000 50.11300 20.75600
H  10.29000 49.13600 20.15300
H  7.25800 46.22100 22.37300
H  8.11600 46.58600 20.99800
H  6.20600 46.96100 19.88400
H  5.81100 48.29400 21.00100
H  5.28400 46.63400 21.39000
H  3.75400 46.74100 26.21600
H  3.73300 48.02600 24.97900
H  3.07700 48.36500 26.53500
H  6.10600 49.25700 30.82500
H  4.91200 46.42400 33.74000
H  6.71100 46.71300 34.11000
H  6.03700 45.55000 32.91700
Mg -11.61800 17.24300 42.23400
C  -8.12800 17.25300 42.58200
C  -11.57600 20.56800 41.56600
C  -14.90300 16.92800 41.48000
C  -11.42800 13.62500 42.29500
N  -10.04600 18.70100 42.17000
C  -8.69000 18.51200 42.26700
C  -7.92500 19.82900 42.02700
C  -9.11000 20.87000 42.24800
C  -10.32100 20.01600 41.94500
C  -9.08900 21.56300 43.65100
C  -7.35000 19.93200 40.62400
C  -5.81800 20.09100 40.60700
H  -5.01900 19.10500 39.85100
N  -13.09100 18.60100 41.67000
C  -12.84700 19.94800 41.47200
C  -14.08700 20.54300 41.17400
C  -15.13400 19.57000 41.14600
C  -14.41500 18.27200 41.39300
C  -14.19800 21.97500 40.86600
C  -16.61400 19.87100 40.95600
O  -16.99300 21.03800 40.83000
C  -17.65300 18.68000 40.83100
N  -12.93700 15.40200 41.55800
C  -14.23700 15.68600 41.61800
C  -15.09200 14.41900 41.88600
C  -13.96900 13.27900 41.98500
C  -12.72700 14.14100 42.05200
C  -16.05900 14.44700 43.09400
C  -13.91300 12.24800 40.80600
C  -14.13900 10.77000 41.24100
N  -10.10800 15.73000 42.38800
C  -10.20200 14.29500 42.43400
C  -8.84200 13.79100 42.63000
C  -8.05300 14.93200 42.78400
C  -8.84900 16.04200 42.60400
C  -8.34900 12.38300 42.64100
C  -6.66900 15.37800 43.14400
O  -5.68900 14.72300 43.38500
C  -6.69000 16.90900 43.06700
C  -6.39500 17.50100 44.38200
O  -6.89600 17.20000 45.46100
O  -5.44000 18.48600 44.21600
C  -5.30900 19.54900 45.20100
H  -11.51100 21.65700 41.51500
H  -15.96400 16.77200 41.27100
H  -11.31100 12.54200 42.37300
H  -7.11800 19.91700 42.75300
H  -9.15300 21.65500 41.49300
H  -8.24900 21.33900 44.30800
H  -9.92800 21.02000 44.08700
H  -9.19200 22.64700 43.69800
H  -7.80300 20.70500 40.00400
H  -7.55800 18.99500 40.10700
H  -5.39600 20.17800 41.60800
H  -5.65100 21.09800 40.22500
H  -14.31700 22.10900 39.79100
H  -13.32300 22.54600 41.17500
H  -15.03500 22.37000 41.44200
H  -18.59900 19.06900 40.45300
H  -17.90700 18.40600 41.85500
H  -17.34400 17.84900 40.19700
H  -15.72600 14.22300 41.02100
H  -13.96200 12.82800 42.97700
H  -16.32900 15.49200 43.24200
H  -15.63800 14.03200 44.00900
H  -16.98600 13.90800 42.89700
H  -12.93100 12.39000 40.35500
H  -14.58300 12.53800 39.99600
H  -13.35500 10.13700 40.82800
H  -15.06900 10.51700 40.73300
H  -14.35500 10.66900 42.30500
H  -8.76800 11.86400 41.78000
H  -8.91100 12.02200 43.50300
H  -7.26500 12.37100 42.75300
H  -5.93300 17.18900 42.33300
H  -5.03600 20.46800 44.68100
H  -4.63400 19.37100 46.03700
H  -6.25600 19.69200 45.72100

