158

Mg 26.70900 0.16100 29.46700
C  28.72200 -0.04100 32.45400
C  23.94100 0.65700 31.25400
C  25.09000 0.25300 26.50400
C  29.78700 -0.50100 27.75000
N  26.43500 0.29900 31.51300
C  27.33000 0.28600 32.63000
C  26.57500 0.57900 33.90600
C  25.10900 0.57400 33.48500
C  25.14700 0.49200 31.98400
C  24.14400 -0.46500 34.06900
C  27.12100 1.75500 34.76800
C  26.41800 1.80200 36.23000
H  27.18600 1.35100 37.49800
N  24.86000 0.23400 28.94900
C  23.77900 0.48600 29.84200
C  22.52100 0.62800 29.10800
C  22.82700 0.54600 27.72200
C  24.30100 0.32300 27.69600
C  21.19400 1.04300 29.79800
C  21.85300 0.40200 26.52100
O  22.22400 0.38800 25.36100
C  20.36600 0.28200 26.76900
N  27.39300 -0.11800 27.46700
C  26.47100 0.00700 26.43400
C  27.22000 0.09500 25.02000
C  28.70600 -0.10400 25.47000
C  28.65000 -0.25700 27.00400
C  26.86500 -0.94400 23.92100
C  29.73500 1.01300 25.16600
C  31.07500 0.60100 24.51100
N  28.77700 -0.28600 29.96500
C  29.81800 -0.61700 29.08200
C  30.92700 -1.07000 29.80200
C  30.55800 -0.76200 31.14200
C  29.28300 -0.29400 31.20900
C  32.17500 -1.70500 29.21400
C  31.10100 -0.68300 32.47400
O  32.27400 -0.89300 32.79300
C  29.86600 -0.22500 33.43300
C  29.67700 -1.21600 34.47800
O  28.95400 -2.17800 34.32400
O  30.43000 -0.93700 35.60700
C  30.29200 -1.93600 36.68400
H  23.07700 1.01600 31.81700
H  24.55500 0.44900 25.57200
H  30.74500 -0.66700 27.25300
H  26.64300 -0.32800 34.50700
H  24.75000 1.50800 33.91900
H  24.51700 -1.02300 34.92700
H  23.87000 -1.17300 33.28600
H  23.20100 -0.00900 34.37000
H  26.87300 2.74800 34.39200
H  28.21000 1.70100 34.76400
H  25.43600 1.32900 36.20800
H  26.30400 2.87300 36.39900
H  21.04800 2.11400 29.66200
H  21.17400 0.86200 30.87200
H  20.36600 0.50600 29.33400
H  20.12400 -0.60400 27.35600
H  19.79900 0.18700 25.84300
H  19.94400 1.19000 27.20100
H  26.87700 1.02900 24.57500
H  29.08800 -1.02400 25.02700
H  26.49300 -1.86300 24.37500
H  27.68000 -1.26700 23.27400
H  26.15200 -0.49600 23.22900
H  29.99500 1.66000 26.00400
H  29.36600 1.77000 24.47400
H  31.29000 1.41400 23.81700
H  31.10300 -0.23900 23.81800
H  31.88300 0.47100 25.23100
H  31.99700 -2.12600 28.22500
H  32.54200 -2.39100 29.97700
H  32.89900 -0.90800 29.04700
H  30.33500 0.70300 33.76000
H  30.51400 -2.96600 36.40600
H  29.39000 -1.79600 37.28100
H  31.17900 -1.77200 37.29600
Mg 53.35000 23.99500 45.50700
C  50.56700 26.21900 44.65600
C  51.24900 21.30200 44.78100
C  55.99200 22.05200 45.65100
C  55.28100 26.86400 45.92500
N  51.29000 23.85500 44.59900
C  50.28500 24.86000 44.51900
C  48.85900 24.21400 44.43200
C  49.11900 22.76900 44.87600
C  50.65800 22.59900 44.72100
C  48.73700 22.55200 46.41700
C  48.16400 24.40800 43.07400
C  49.02700 24.28900 41.79900
H  48.33500 23.62900 40.49000
N  53.55100 21.90500 45.28700
C  52.62500 21.00200 44.90400
C  53.29400 19.69500 44.85700
C  54.69000 19.89100 44.86300
C  54.81400 21.33400 45.29200
C  52.53600 18.42700 44.52800
C  55.74300 18.81200 44.61900
O  55.49800 17.80800 43.94500
C  57.19600 18.98200 44.98600
N  55.37300 24.44900 45.55100
C  56.26700 23.40200 45.76800
C  57.74200 24.04300 45.91600
C  57.48800 25.61000 45.96500
C  55.99500 25.70800 45.79800
C  58.70800 23.40400 46.91500
C  58.31500 26.43600 44.94900
C  57.51300 26.92900 43.74500
N  53.06000 26.06800 45.37400
C  53.91200 27.10800 45.60400
C  53.31900 28.43600 45.40900
C  51.92100 28.07000 45.11800
C  51.86400 26.65800 44.95800
C  53.99700 29.77100 45.62800
C  50.62800 28.62800 44.94600
O  50.26800 29.80500 44.86300
C  49.76600 27.50600 44.62200
C  49.25900 27.85800 43.28600
O  49.94600 27.83400 42.23700
O  47.93300 28.17900 43.33100
C  47.37200 28.81000 42.17300
H  50.66000 20.38300 44.74600
H  56.89900 21.44600 45.72000
H  55.90300 27.70300 46.24400
H  48.15300 24.73300 45.08000
H  48.56900 22.10600 44.20800
H  48.20300 23.39500 46.85500
H  49.60900 22.46900 47.06500
H  48.20600 21.60100 46.45100
H  47.67600 25.37800 42.97500
H  47.31800 23.72700 42.98900
H  49.89400 23.67200 42.03800
H  49.41700 25.27500 41.54700
H  53.07000 17.51700 44.80000
H  52.27000 18.18900 43.49900
H  51.65400 18.31100 45.15800
H  57.89600 18.16900 44.79000
H  57.11300 19.32800 46.01600
H  57.55600 19.79800 44.36000
H  58.20200 23.82100 44.95300
H  57.74600 25.89700 46.98400
H  59.13200 24.16600 47.56900
H  59.50700 22.97100 46.31400
H  58.27200 22.56700 47.46000
H  59.20100 25.93500 44.55600
H  58.55400 27.35600 45.48200
H  58.23300 26.96700 42.92700
H  57.07800 27.92800 43.77300
H  56.75800 26.19900 43.45400
H  54.22600 29.96700 46.67500
H  53.43700 30.65300 45.31600
H  54.89400 29.69800 45.01200
H  49.00100 27.35300 45.38400
H  46.43900 29.28100 42.48400
H  47.14700 28.10700 41.37200
H  48.00100 29.63300 41.83400

