158

Mg 40.94600 7.81300 29.66200
C  42.60200 9.49500 32.35800
C  38.53700 6.75900 31.93800
C  39.70000 5.93400 27.29600
C  43.70800 8.68000 27.55700
N  40.66100 8.03700 31.87300
C  41.42000 8.82200 32.73200
C  40.82500 8.84500 34.15200
C  39.62600 7.88200 33.93500
C  39.62900 7.48900 32.51100
C  39.38800 6.68100 34.88600
C  40.53800 10.33500 34.54400
C  39.89000 10.68600 35.87900
H  40.67400 11.58200 36.94300
N  39.30400 6.58500 29.61500
C  38.40000 6.33900 30.58200
C  37.30800 5.55200 30.10100
C  37.59600 5.46900 28.72100
C  38.94000 5.98900 28.46700
C  36.10400 5.02800 30.93500
C  36.71200 4.88300 27.65200
O  37.00300 4.79800 26.47100
C  35.32000 4.65200 27.98400
N  41.69900 7.24800 27.70100
C  40.96000 6.39500 26.93300
C  41.51900 6.30400 25.42300
C  42.82500 7.25200 25.55200
C  42.75200 7.79000 27.00200
C  41.66900 4.80800 24.80500
C  42.92200 8.36300 24.48900
C  42.06100 9.59400 24.66500
N  42.80300 8.86300 29.88500
C  43.73100 9.14000 28.89600
C  44.74800 9.94500 29.49100
C  44.37700 10.08600 30.88600
C  43.11900 9.48700 31.01400
C  45.92100 10.40200 28.68300
C  44.71600 10.75300 32.13200
O  45.71200 11.33200 32.46600
C  43.61400 10.35900 33.14900
C  44.23800 9.51100 34.16900
O  45.22600 8.79600 34.01300
O  43.74800 9.89000 35.39900
C  44.34000 9.32900 36.61000
H  37.68700 6.43600 32.54300
H  39.26800 5.31000 26.51100
H  44.49400 9.07300 26.90800
H  41.54700 8.39600 34.83500
H  38.79600 8.55400 34.15500
H  40.21900 6.39400 35.53100
H  39.19100 5.75100 34.35400
H  38.45000 6.77000 35.43400
H  39.93800 10.69300 33.70800
H  41.43600 10.94600 34.46800
H  39.67900 9.72800 36.35600
H  39.01200 11.27900 35.62600
H  36.30400 4.91700 32.00100
H  35.96100 3.98200 30.66400
H  35.26800 5.69500 30.72400
H  34.78500 4.37300 27.07700
H  34.87900 5.45900 28.56900
H  35.45800 3.73200 28.55400
H  40.74400 6.77600 24.82000
H  43.76600 6.70900 25.45600
H  41.10800 4.71400 23.87500
H  41.23600 4.01800 25.41800
H  42.72500 4.54700 24.73000
H  42.72200 8.01300 23.47600
H  43.98000 8.62400 24.50000
H  42.78100 10.29900 25.08000
H  41.33600 9.47400 25.47000
H  41.66000 9.97300 23.72400
H  46.63000 9.58800 28.53300
H  46.45100 11.07900 29.35300
H  45.70900 10.85800 27.71600
H  43.36500 11.35800 33.50800
H  45.35300 9.61200 36.89300
H  44.33100 8.25200 36.44400
H  43.63500 9.52300 37.41900
Mg 46.21300 44.25300 43.08100
C  42.90200 43.38000 42.53000
C  46.92400 40.94600 42.69100
C  49.49900 45.07500 42.80300
C  45.38400 47.68900 43.23000
N  45.07000 42.42700 42.64200
C  43.72500 42.27200 42.45600
C  43.21200 40.81500 42.39500
C  44.51300 40.03800 42.57800
C  45.58000 41.22100 42.66800
C  44.42800 39.07300 43.78200
C  42.41900 40.34700 41.18500
C  43.03800 40.93200 39.85800
H  42.57000 40.10700 38.66900
N  47.98200 43.12600 42.84200
C  48.05900 41.79500 42.69700
C  49.53700 41.39200 42.54700
C  50.29600 42.59000 42.75200
C  49.25000 43.66500 42.82500
C  50.01900 39.91500 42.38600
C  51.89000 42.72400 42.84300
O  52.57000 41.73600 42.70100
C  52.63700 43.99200 43.03900
N  47.19400 46.09400 42.86400
C  48.55700 46.13500 42.85500
C  49.09800 47.59100 42.76600
C  47.80300 48.35800 43.05800
C  46.70600 47.34000 43.00200
C  50.29600 47.96400 43.65100
C  47.58000 49.71400 42.27600
C  47.23000 50.92400 43.14900
N  44.48100 45.42300 42.82100
C  44.26500 46.76800 43.07700
C  42.79700 46.95200 42.98900
C  42.22500 45.64800 42.83300
C  43.34700 44.74400 42.71600
C  42.03300 48.23700 42.95200
C  40.96300 44.95200 42.67900
O  39.78500 45.26000 42.65800
C  41.42300 43.42500 42.58100
C  40.62000 42.57900 43.54600
O  40.03700 41.56300 43.26500
O  40.81500 42.95300 44.88600
C  40.32800 41.96300 45.81800
H  47.13900 39.87600 42.73100
H  50.51700 45.42900 42.62400
H  45.09500 48.71700 43.46100
H  42.73000 40.77300 43.37200
H  44.78700 39.43800 41.71000
H  43.42800 38.64500 43.84800
H  44.53600 39.67800 44.68200
H  45.18700 38.29600 43.69300
H  41.39900 40.69600 41.34600
H  42.53600 39.26500 41.25000
H  44.10700 41.13200 39.92700
H  42.50300 41.87300 39.72700
H  51.02800 39.94600 41.97400
H  49.37100 39.37500 41.69600
H  49.95000 39.42500 43.35700
H  52.68900 44.48900 42.07000
H  53.65300 43.81200 43.39000
H  52.20200 44.70200 43.74200
H  49.44500 47.66400 41.73500
H  47.70100 48.60800 44.11400
H  50.74200 47.08000 44.10700
H  49.80400 48.52000 44.44800
H  51.09200 48.49300 43.12600
H  46.71400 49.58600 41.62700
H  48.41400 49.93300 41.60900
H  47.79000 50.86400 44.08300
H  46.15700 50.91500 43.34100
H  47.41600 51.84500 42.59700
H  42.07000 48.43300 41.88100
H  42.48900 49.00100 43.58300
H  41.01200 48.19600 43.33100
H  41.05800 43.05800 41.62200
H  39.24000 41.90600 45.85100
H  40.64100 42.25400 46.82000
H  40.67900 40.94600 45.64300

