158

Mg 24.11900 -6.27600 46.52500
C  26.54700 -3.74000 45.69200
C  21.73700 -4.47200 44.79400
C  22.04500 -8.82600 46.90700
C  26.81900 -8.17300 47.90100
N  24.20700 -4.38000 45.31800
C  25.22900 -3.45200 45.18400
C  24.79200 -2.24700 44.31700
C  23.19300 -2.49500 44.29100
C  23.03400 -3.87300 44.92400
C  22.42000 -1.36700 44.95200
C  25.46900 -2.33100 42.88800
C  26.29900 -1.08400 42.53200
H  26.45700 -0.75300 41.07600
N  22.14200 -6.71100 45.86400
C  21.33700 -5.81100 45.12500
C  20.05500 -6.37100 45.02800
C  20.08700 -7.62800 45.66400
C  21.44500 -7.79700 46.19200
C  18.98300 -5.51700 44.36600
C  18.80900 -8.59300 45.82300
O  17.76900 -8.27700 45.17100
C  18.76500 -9.92500 46.64400
N  24.33400 -8.11400 47.27000
C  23.33200 -9.06800 47.35300
C  23.83200 -10.41400 47.86400
C  25.31200 -10.13400 48.27500
C  25.51300 -8.67800 47.86300
C  22.96700 -11.22700 48.88600
C  26.34800 -11.28000 47.87000
C  27.40700 -11.56600 48.98700
N  26.27300 -6.09100 46.75200
C  27.20000 -6.86700 47.39300
C  28.46000 -6.18800 47.54000
C  28.20300 -4.93000 46.84900
C  26.87400 -4.95600 46.36400
C  29.56600 -6.50800 48.40800
C  28.77400 -3.55700 46.53900
O  29.92000 -3.15200 46.79400
C  27.73400 -2.78700 45.68600
C  27.50800 -1.46700 46.22000
O  26.79500 -1.21800 47.18200
O  28.08700 -0.41100 45.61100
C  27.41900 0.92400 45.77800
H  21.04900 -3.74200 44.36400
H  21.35600 -9.60900 47.23200
H  27.64100 -8.81100 48.23400
H  25.10000 -1.34400 44.84400
H  22.80900 -2.53300 43.27100
H  23.15000 -0.71800 45.43800
H  21.65800 -1.66800 45.67100
H  22.00700 -0.68900 44.20600
H  24.63000 -2.27400 42.19500
H  26.01100 -3.24400 42.64300
H  27.28800 -1.41200 42.85200
H  26.00900 -0.16100 43.03400
H  19.40900 -5.04100 43.48200
H  18.53400 -4.74500 44.99000
H  18.24200 -6.20500 43.95900
H  17.72200 -10.23600 46.58700
H  19.04400 -9.58500 47.64100
H  19.51600 -10.56600 46.18100
H  23.75900 -11.03600 46.97200
H  25.27000 -10.13600 49.36400
H  23.50500 -11.15400 49.83100
H  22.76000 -12.26000 48.60800
H  21.95600 -10.82400 48.95500
H  26.76100 -10.92100 46.92700
H  25.79500 -12.20300 47.69400
H  28.46000 -11.64300 48.71900
H  27.30100 -12.56400 49.41200
H  27.27500 -10.89500 49.83600
H  29.36500 -6.17900 49.42800
H  30.45700 -5.95900 48.10100
H  29.82600 -7.56600 48.43400
H  28.15300 -2.68600 44.68400
H  28.11100 1.60900 46.26800
H  26.43400 0.97800 46.24200
H  27.15400 1.30900 44.79400
Mg 36.86500 50.17200 25.27400
C  37.00100 47.89700 27.89000
C  35.67600 52.60800 27.55000
C  35.96800 52.04000 22.77200
C  37.59700 47.57600 23.07700
N  36.31300 50.16500 27.42200
C  36.55600 49.20900 28.26300
C  36.37200 49.72200 29.67300
C  35.65600 51.09800 29.50500
C  35.80300 51.29700 28.08400
C  34.18100 51.24600 30.10600
C  37.75700 49.70400 30.54100
C  37.61500 48.91800 31.84100
H  36.29900 49.03000 32.58800
N  36.03500 52.12500 25.17700
C  35.57900 52.95100 26.18100
C  35.18100 54.18300 25.56900
C  35.24500 54.02500 24.13800
C  35.78800 52.75200 23.99000
C  34.77900 55.37300 26.37600
C  34.79700 55.03600 23.05600
O  34.69600 54.71400 21.88900
C  34.47200 56.49800 23.46500
N  36.71700 49.77500 23.15500
C  36.40500 50.76800 22.41000
C  36.76400 50.48000 20.91700
C  37.47900 49.03100 21.04100
C  37.22500 48.75300 22.52900
C  35.49000 50.55800 20.02900
C  38.94800 48.90900 20.53700
C  39.12900 47.65300 19.61000
N  37.24100 48.10600 25.38100
C  37.54000 47.22100 24.47000
C  37.65100 45.94600 25.06300
C  37.47500 46.18100 26.41600
C  37.18200 47.49600 26.57600
C  38.14900 44.73100 24.36300
C  37.46300 45.55500 27.66400
O  37.65600 44.42100 28.06000
C  37.23100 46.69200 28.76800
C  35.99900 46.45600 29.59000
O  34.85300 46.89200 29.34300
O  36.38700 45.61400 30.62200
C  35.35600 45.04300 31.39500
H  35.39400 53.33000 28.32000
H  36.01900 52.64000 21.86100
H  37.92800 46.83900 22.34300
H  35.67600 49.03700 30.15700
H  36.15100 51.86000 30.10700
H  34.05800 52.29200 30.38500
H  33.97100 50.80800 31.08100
H  33.38700 50.96900 29.41300
H  38.18100 50.67100 30.81000
H  38.53600 49.11800 30.05500
H  38.33000 49.36900 32.52900
H  37.79000 47.85700 31.66100
H  35.21300 56.30000 26.00300
H  34.98800 55.20900 27.43300
H  33.69000 55.38800 26.32400
H  33.68600 56.56800 24.21700
H  34.16600 56.90800 22.50200
H  35.31100 57.09800 23.81600
H  37.54800 51.14600 20.55800
H  36.71900 48.37200 20.62100
H  35.28200 51.62100 19.90800
H  34.72300 50.06500 20.62700
H  35.83100 50.12600 19.08900
H  39.71300 49.00200 21.30700
H  39.15600 49.73000 19.85200
H  40.05300 47.10900 19.80100
H  39.06800 48.01600 18.58400
H  38.36100 46.90100 19.79200
H  37.45000 44.32100 23.63400
H  38.44300 44.00400 25.12000
H  39.03100 44.97400 23.77000
H  38.10300 46.71600 29.42100
H  34.51700 45.71000 31.59400
H  35.67900 44.74800 32.39300
H  34.83700 44.18400 30.97000

