158

Mg 23.87600 -4.72700 45.14200
C  26.02000 -2.50100 43.60500
C  21.51300 -4.10600 42.83000
C  22.15800 -7.51100 46.21200
C  26.41900 -5.68000 47.35300
N  23.69100 -3.38300 43.44000
C  24.68800 -2.44300 43.08300
C  24.21400 -1.48900 41.92700
C  22.65100 -1.90200 41.86500
C  22.57800 -3.19900 42.74100
C  21.76000 -0.85900 42.57700
C  25.00900 -1.75000 40.65000
C  25.63000 -0.57900 39.88800
H  25.53200 -0.66700 38.42000
N  22.01100 -5.60700 44.64500
C  21.20900 -5.21400 43.63400
C  20.04600 -6.10500 43.57600
C  20.19900 -7.10800 44.58300
C  21.51500 -6.81800 45.21200
C  18.98200 -6.02000 42.53000
C  19.27900 -8.26600 44.75700
O  18.26100 -8.31600 44.03300
C  19.32900 -9.35800 45.83700
N  24.26800 -6.43200 46.52500
C  23.37200 -7.41900 46.81100
C  23.86000 -8.40700 47.91000
C  25.27600 -7.79100 48.34900
C  25.31200 -6.56300 47.37600
C  22.92800 -8.87700 49.08400
C  26.46400 -8.74600 48.12900
C  27.49600 -8.90500 49.22900
N  25.83300 -4.31300 45.44100
C  26.75900 -4.70300 46.39000
C  28.06600 -4.06100 46.10500
C  27.77000 -3.18800 45.02100
C  26.42000 -3.37600 44.66800
C  29.27500 -4.24900 46.91200
C  28.37900 -2.20100 44.15800
O  29.51500 -1.75400 44.26900
C  27.25600 -1.67500 43.18200
C  27.17200 -0.26000 43.39600
O  26.42300 0.41100 44.08300
O  28.16200 0.32100 42.64900
C  28.21500 1.82300 42.77400
H  20.80200 -3.90900 42.02400
H  21.52700 -8.30600 46.61500
H  27.23800 -5.98900 48.00500
H  24.25000 -0.43500 42.20400
H  22.21700 -2.08300 40.88200
H  20.84400 -1.33800 42.92200
H  21.32900 -0.10500 41.91700
H  22.18700 -0.33200 43.43000
H  24.33700 -2.08500 39.86000
H  25.81900 -2.47800 40.69000
H  26.70100 -0.53800 40.08800
H  25.13800 0.31800 40.26400
H  17.98200 -6.08700 42.95800
H  19.13800 -6.96600 42.01100
H  19.09500 -5.19100 41.83100
H  19.26000 -8.83300 46.79000
H  20.21400 -9.98700 45.74100
H  18.41400 -9.95100 45.81300
H  24.10600 -9.28500 47.31200
H  25.34000 -7.48000 49.39200
H  21.97100 -8.41200 49.32200
H  23.47800 -8.82700 50.02400
H  22.67500 -9.91700 48.87900
H  26.95700 -8.40600 47.21700
H  26.12800 -9.76000 47.91700
H  27.40600 -9.94300 49.54700
H  27.33500 -8.15400 50.00300
H  28.49000 -8.67900 48.84400
H  29.81900 -5.13400 46.58100
H  29.02200 -4.53500 47.93300
H  29.88200 -3.34500 46.86900
H  27.59500 -1.88400 42.16700
H  27.93400 2.20000 43.75800
H  27.54600 2.25900 42.03300
H  29.23700 2.19200 42.69300
Mg 17.33000 -0.54700 27.70500
C  15.97100 1.35800 30.31400
C  19.02900 -2.40400 29.97900
C  18.90600 -2.11500 25.13700
C  15.47200 1.34000 25.53900
N  17.36200 -0.54600 29.90300
C  16.80100 0.31300 30.78800
C  17.12500 -0.00800 32.22700
C  18.16900 -1.03700 32.10000
C  18.21200 -1.37700 30.58700
C  19.61100 -0.70600 32.66200
C  15.87700 -0.33300 33.08900
C  15.89200 0.27200 34.44000
H  17.22800 0.60700 34.98100
N  18.70700 -2.14100 27.55500
C  19.26100 -2.76800 28.62400
C  20.16200 -3.80700 28.16600
C  20.19200 -3.69100 26.76800
C  19.26400 -2.63400 26.42700
C  20.90000 -4.73400 29.17200
C  20.98300 -4.52000 25.71500
O  20.95300 -4.23200 24.49500
C  21.83600 -5.65100 26.17400
N  17.25200 -0.33000 25.66100
C  18.04000 -1.06500 24.80200
C  17.89400 -0.56600 23.35900
C  16.64100 0.32900 23.52600
C  16.38800 0.45700 24.98700
C  19.12600 0.13500 22.78200
C  15.33400 0.12800 22.66300
C  14.09500 -0.44400 23.33300
N  15.98400 1.06700 27.79800
C  15.27500 1.71400 26.84700
C  14.57200 2.85500 27.41500
C  14.86100 2.83500 28.81000
C  15.59200 1.60500 28.96200
C  13.58100 3.82300 26.76300
C  14.70400 3.48200 30.04000
O  14.06700 4.49500 30.34400
C  15.39600 2.51000 31.07600
C  16.37000 3.29400 31.91600
O  17.61800 3.31900 31.71300
O  15.74200 3.83100 33.03500
C  16.55000 4.58500 33.98100
H  19.63300 -2.90700 30.73700
H  19.39500 -2.58100 24.27900
H  14.91200 1.85200 24.75400
H  17.57200 0.92200 32.58000
H  17.84900 -1.94000 32.62000
H  19.88600 0.34600 32.72700
H  20.39400 -1.27200 32.15700
H  19.67500 -1.09100 33.68000
H  15.79200 -1.40200 33.28500
H  15.04300 0.08500 32.52600
H  15.38800 -0.49200 35.03000
H  15.13500 1.05500 34.38300
H  21.15200 -4.33100 30.15300
H  21.75800 -5.14100 28.63800
H  20.31700 -5.61900 29.42700
H  21.15900 -6.20200 26.82700
H  22.61200 -5.12800 26.73400
H  22.14100 -6.25200 25.31700
H  17.53600 -1.42000 22.78300
H  16.93100 1.30500 23.13900
H  19.87400 0.21700 23.57100
H  18.79200 1.13800 22.52000
H  19.44500 -0.40400 21.89000
H  15.55100 -0.66900 21.95300
H  15.01200 1.00600 22.10300
H  13.50500 0.37500 23.74300
H  14.35700 -1.21800 24.05400
H  13.50600 -0.95300 22.56900
H  14.17200 4.62200 26.31600
H  12.69500 4.19500 27.27600
H  13.14400 3.30500 25.90900
H  14.60700 2.18500 31.75500
H  16.23700 5.62800 34.03100
H  17.62700 4.49900 33.83800
H  16.21200 4.20200 34.94400

