158

Mg 41.27600 9.75200 29.14100
C  43.38100 10.47800 31.83900
C  39.06700 8.40300 31.22800
C  39.71100 8.40200 26.42200
C  44.03700 10.45700 26.95200
N  41.26600 9.47700 31.30900
C  42.10800 9.96100 32.26000
C  41.52700 9.84700 33.68000
C  40.20200 9.14700 33.41100
C  40.12800 9.05900 31.86900
C  40.09200 7.71800 34.07400
C  41.33400 11.19700 34.42700
C  40.89700 11.18200 35.92100
H  41.99900 11.44100 36.93800
N  39.65700 8.52200 28.83600
C  38.78500 8.11300 29.84200
C  37.65800 7.38000 29.30200
C  37.77500 7.64000 27.87000
C  39.13900 8.17500 27.66100
C  36.57100 6.72900 30.14500
C  36.77100 7.40800 26.76500
O  36.97200 7.65900 25.57200
C  35.43400 6.87500 27.05900
N  41.88000 9.37200 26.95900
C  40.95600 8.94600 26.04400
C  41.42000 9.17400 24.58000
C  42.72600 9.88700 24.82800
C  42.92300 9.93400 26.33400
C  41.57200 7.81900 23.79400
C  42.57600 11.28600 24.21600
C  42.09000 12.47500 25.14600
N  43.27700 10.36200 29.30400
C  44.23100 10.66900 28.34700
C  45.42500 11.12800 28.95900
C  45.13500 11.10200 30.33300
C  43.82300 10.65800 30.50400
C  46.69400 11.38200 28.23700
C  45.70700 11.30200 31.63500
O  46.84600 11.63300 32.02900
C  44.55100 10.89700 32.69700
C  44.92800 9.93100 33.69600
O  44.99100 8.74300 33.46600
O  45.24600 10.54300 34.85200
C  45.66400 9.63700 35.92700
H  38.41600 7.91200 31.95400
H  39.27800 7.84900 25.58600
H  44.75200 10.87400 26.23900
H  42.16400 9.16800 34.24800
H  39.31900 9.77100 33.54100
H  40.97500 7.41800 34.63800
H  39.92300 6.88800 33.38700
H  39.18300 7.94800 34.63000
H  40.68100 11.92500 33.94400
H  42.32700 11.63700 34.34100
H  40.43200 10.24400 36.22400
H  40.08500 11.90000 36.03600
H  36.79200 6.83500 31.20700
H  36.36700 5.68000 29.92600
H  35.64700 7.28700 29.99400
H  34.85100 6.88200 26.13800
H  34.93400 7.62100 27.67600
H  35.50800 5.89400 27.52800
H  40.71600 9.68500 23.92400
H  43.55400 9.43000 24.28600
H  41.44300 6.96500 24.46000
H  42.55300 7.67000 23.34200
H  40.78500 7.92500 23.04900
H  42.03600 11.40000 23.27600
H  43.59600 11.55100 23.93700
H  42.96700 13.06100 25.41900
H  41.56600 12.12700 26.03700
H  41.41300 13.08300 24.54500
H  47.52400 11.23400 28.92700
H  46.91100 12.36000 27.80700
H  46.75900 10.73000 27.36600
H  44.34200 11.81400 33.24900
H  44.73600 9.31300 36.39900
H  46.32300 10.16500 36.61600
H  46.29800 8.82900 35.56400
Mg 42.77400 41.10600 26.31700
C  42.00900 43.60800 28.71500
C  43.66400 39.00700 28.86000
C  43.43700 38.98200 23.95100
C  42.24100 43.61600 23.86400
N  42.81100 41.33900 28.52100
C  42.27600 42.40100 29.29000
C  42.29300 42.03700 30.81600
C  43.06800 40.63200 30.79700
C  43.16300 40.21500 29.32100
C  44.43400 40.62000 31.60700
C  40.84500 42.03400 31.38000
C  40.54700 43.03800 32.53900
H  39.94300 42.39600 33.81100
N  43.45700 39.26300 26.42700
C  43.81400 38.55300 27.53100
C  44.25900 37.23000 27.13000
C  44.13800 37.16200 25.65900
C  43.62600 38.49000 25.30100
C  44.65200 36.23200 28.19200
C  44.38000 36.01700 24.72200
O  44.03300 35.98400 23.53200
C  44.94400 34.79600 25.35300
N  43.10800 41.33800 24.18300
C  43.20900 40.21900 23.43900
C  43.40700 40.53800 21.97900
C  43.01200 42.02100 21.91800
C  42.75400 42.38200 23.40500
C  44.94300 40.38100 21.55100
C  41.81600 42.37600 20.99600
C  42.01500 43.59300 20.08700
N  42.24000 43.17900 26.29000
C  42.06800 44.03000 25.21200
C  41.55600 45.38900 25.64700
C  41.48600 45.28200 27.09700
C  42.02000 43.98000 27.37600
C  41.22500 46.52800 24.73900
C  41.18600 45.94700 28.32800
O  40.75900 47.04500 28.60200
C  41.60800 44.87500 29.44700
C  42.70700 45.41500 30.33700
O  43.88000 45.12500 30.19900
O  42.11500 46.05700 31.43900
C  43.19900 46.62900 32.25400
H  43.89200 38.31900 29.67600
H  43.46000 38.17300 23.21800
H  42.20500 44.44500 23.15500
H  42.89500 42.79000 31.32400
H  42.47000 39.91500 31.35900
H  44.40500 39.90800 32.43200
H  44.51000 41.59700 32.08400
H  45.22600 40.43400 30.88200
H  40.67400 41.11400 31.93900
H  40.10100 42.23200 30.60900
H  39.75700 43.74600 32.28700
H  41.41000 43.64900 32.80200
H  45.73000 36.07200 28.16400
H  44.09800 35.32100 27.96700
H  44.60200 36.44800 29.25900
H  45.39600 34.09000 24.65600
H  44.17500 34.34300 25.97800
H  45.78900 35.22400 25.89300
H  42.78900 39.92300 21.32400
H  43.86200 42.56000 21.49800
H  45.52800 40.35400 22.47000
H  45.47500 41.10200 20.93100
H  45.10200 39.47600 20.96400
H  40.90100 42.50400 21.57600
H  41.66100 41.53800 20.31700
H  41.46700 43.30300 19.19100
H  43.01100 43.95600 19.83400
H  41.35800 44.30400 20.58900
H  41.00000 46.09500 23.76400
H  42.06400 47.22100 24.80200
H  40.42700 47.06200 25.25400
H  40.77900 44.78000 30.14900
H  43.94600 47.20300 31.70500
H  43.54800 45.89800 32.98200
H  42.63600 47.29100 32.91200

