158

Mg 9.33700 3.82000 27.23500
C  10.29200 2.19200 30.31500
C  7.63000 6.07400 29.19600
C  7.88000 4.99000 24.47400
C  10.55200 1.05600 25.43800
N  9.02600 4.03600 29.57000
C  9.56800 3.28100 30.60800
C  9.07600 3.85100 31.94700
C  8.01900 4.90400 31.47800
C  8.23300 5.02900 30.02300
C  6.51900 4.51800 31.82100
C  10.31100 4.41100 32.71700
C  10.71500 3.70200 34.02700
H  11.09700 4.48500 35.34100
N  8.06100 5.43000 26.81600
C  7.59000 6.30100 27.76100
C  6.85600 7.33200 27.07600
C  6.76500 6.99700 25.67700
C  7.59100 5.75700 25.61400
C  6.19700 8.49200 27.76000
C  5.99700 7.62000 24.51600
O  5.91800 7.08100 23.41500
C  5.50000 9.07600 24.66200
N  9.15400 3.05900 25.35100
C  8.52000 3.75000 24.33000
C  8.56500 3.02800 22.98500
C  9.84700 2.01300 23.24800
C  9.85300 2.04600 24.77800
C  7.22100 2.37100 22.59000
C  11.22300 2.46300 22.58800
C  11.22900 2.32800 21.01200
N  10.30600 1.99000 27.76400
C  10.79100 1.07200 26.90700
C  11.36600 -0.05700 27.69300
C  11.21200 0.36500 29.02800
C  10.59800 1.65300 29.05400
C  11.85200 -1.40900 27.26100
C  11.38400 -0.04400 30.45100
O  11.83200 -1.09800 30.88600
C  10.91200 1.14600 31.32900
C  10.09800 0.51400 32.39100
O  8.88400 0.17100 32.26900
O  10.88800 0.33000 33.54600
C  10.18000 -0.30300 34.63200
H  7.08200 6.82700 29.76600
H  7.37800 5.28200 23.54900
H  10.73700 0.17000 24.82800
H  8.68600 3.03500 32.55700
H  8.17700 5.89400 31.90300
H  5.99100 4.32000 30.88700
H  6.12000 5.37300 32.36600
H  6.32700 3.57700 32.33700
H  10.28300 5.46000 33.01100
H  11.15600 4.32300 32.03500
H  11.64500 3.23300 33.70400
H  10.03200 2.92800 34.37700
H  6.18400 8.50600 28.85000
H  5.15900 8.40300 27.43700
H  6.54300 9.46900 27.42300
H  4.48900 9.07200 25.06900
H  5.38700 9.61200 23.72000
H  6.11700 9.59800 25.39400
H  8.82800 3.70500 22.17200
H  9.45800 1.04500 22.93400
H  7.40500 1.31100 22.42000
H  6.92400 2.88700 21.67700
H  6.50000 2.46500 23.40200
H  12.00900 1.77800 22.90500
H  11.41900 3.48700 22.90500
H  11.36000 3.31500 20.56800
H  10.30300 1.76900 20.87300
H  12.08600 1.73400 20.69600
H  12.93100 -1.49200 27.39100
H  11.69700 -1.52700 26.18800
H  11.28700 -2.17900 27.78500
H  11.73000 1.48800 31.96200
H  9.55400 -1.06300 34.16400
H  9.52500 0.36700 35.18900
H  10.88400 -0.84800 35.26000
Mg -10.10700 17.34200 42.67700
C  -6.60200 16.94400 42.74100
C  -9.50200 20.59100 41.41600
C  -13.41000 17.68600 42.09600
C  -10.45500 13.81300 43.04700
N  -8.23300 18.69400 42.24000
C  -6.92100 18.25200 42.39600
C  -5.93400 19.39500 42.11300
C  -6.90200 20.63700 41.76600
C  -8.31400 19.91400 41.79900
C  -6.74600 21.79600 42.82900
C  -4.97900 19.06300 40.90500
C  -5.56900 18.25600 39.71700
H  -5.01000 18.45700 38.29600
N  -11.27500 18.92500 41.86300
C  -10.84200 20.16800 41.51300
C  -11.93800 20.97100 41.10900
C  -13.12600 20.18000 41.25800
C  -12.66200 18.84700 41.79000
C  -11.76200 22.40700 40.70000
C  -14.60100 20.62100 40.91900
O  -14.78900 21.66100 40.30300
C  -15.80800 19.74600 41.09700
N  -11.74900 15.86600 42.39900
C  -13.02900 16.32400 42.40600
C  -13.99600 15.20600 42.57700
C  -13.03800 13.96400 42.97400
C  -11.66300 14.55300 42.78900
C  -15.15700 15.40000 43.58500
C  -13.29200 12.69600 42.16800
C  -13.26200 12.79900 40.63100
N  -8.92400 15.63200 42.89900
C  -9.14600 14.31100 43.03900
C  -7.93200 13.65900 43.28600
C  -6.99500 14.61100 43.30400
C  -7.59900 15.81200 42.91800
C  -7.80500 12.15700 43.39900
C  -5.59400 14.81100 43.44500
O  -4.79300 13.91000 43.64400
C  -5.26900 16.27900 43.05800
C  -4.55200 16.91700 44.15500
O  -3.43900 17.43600 44.08900
O  -5.47300 17.12700 45.20900
C  -5.15000 17.87100 46.41700
H  -9.23400 21.57000 41.01300
H  -14.50200 17.70300 42.10400
H  -10.58300 12.74100 43.21300
H  -5.32400 19.61900 42.98700
H  -6.58600 20.92300 40.76300
H  -6.11200 21.65600 43.70400
H  -7.69600 21.95800 43.33700
H  -6.53300 22.71300 42.28000
H  -4.21000 18.44000 41.36200
H  -4.58800 20.02300 40.56600
H  -6.62400 18.50200 39.59500
H  -5.44600 17.20600 39.98000
H  -11.69600 22.42700 39.61200
H  -10.93700 22.92500 41.18800
H  -12.61100 22.95900 41.10500
H  -15.62500 18.81200 40.56600
H  -16.57400 20.35100 40.61200
H  -16.02200 19.54300 42.14700
H  -14.39500 14.94800 41.59600
H  -13.17900 13.76600 44.03700
H  -15.74400 16.30000 43.40300
H  -14.84400 15.47900 44.62600
H  -15.84600 14.56100 43.68300
H  -14.31200 12.39800 42.41200
H  -12.56700 11.91400 42.39700
H  -13.16200 13.84400 40.33400
H  -14.23000 12.55200 40.19600
H  -12.49100 12.15600 40.20500
H  -8.69300 11.55800 43.19800
H  -7.43500 11.91500 44.39500
H  -7.19400 11.75900 42.58900
H  -4.67100 16.38900 42.15300
H  -5.13400 18.93600 46.18700
H  -4.18300 17.61300 46.85100
H  -5.93800 17.62200 47.12700

