158

Mg 27.26600 50.52500 26.25000
C  25.15400 51.64600 28.96000
C  29.48700 49.46300 28.46700
C  29.36400 50.03700 23.63600
C  25.02200 52.18200 24.04000
N  27.22600 50.53600 28.43800
C  26.31500 50.99400 29.37300
C  26.75100 50.56000 30.78600
C  28.22100 50.08100 30.56600
C  28.31700 50.04500 29.06100
C  29.33100 51.04800 31.10600
C  25.76100 49.57800 31.46200
C  24.99900 49.89400 32.75200
H  25.73500 50.44700 33.98000
N  29.10800 49.81400 26.05800
C  29.81400 49.31000 27.13300
C  31.07600 48.80200 26.59900
C  31.14800 49.08900 25.26200
C  29.92000 49.71900 24.90800
C  32.07500 48.03000 27.43400
C  32.24400 48.79200 24.20700
O  32.16800 49.14000 23.02600
C  33.49400 48.14000 24.63800
N  27.23600 51.17000 24.16600
C  28.20600 50.71300 23.30700
C  27.74200 50.90500 21.84300
C  26.37400 51.63000 21.94100
C  26.15200 51.60400 23.48300
C  28.76700 51.69700 20.93000
C  25.20900 50.88500 21.17800
C  24.70200 51.55800 19.87900
N  25.46700 51.67400 26.42100
C  24.67900 52.22100 25.39100
C  23.53200 52.96200 26.02200
C  23.72300 52.67900 27.38200
C  24.79500 51.98200 27.55200
C  22.47600 53.72600 25.26300
C  23.09000 52.90900 28.68000
O  22.05800 53.51400 29.00000
C  24.01700 52.29200 29.72700
C  24.49200 53.42400 30.58300
O  25.57000 54.02500 30.43000
O  23.75100 53.39200 31.75200
C  24.42700 53.94200 32.91800
H  30.15500 49.07200 29.23800
H  29.95900 49.94900 22.72400
H  24.34200 52.73500 23.38800
H  26.75300 51.42000 31.45600
H  28.32800 49.05800 30.92700
H  29.65400 50.55200 32.02200
H  28.99400 52.03200 31.43300
H  30.21000 51.20000 30.48000
H  26.47100 48.85900 31.87200
H  25.11500 49.16700 30.68500
H  24.59800 48.97000 33.16700
H  24.11100 50.49600 32.55600
H  31.84500 48.35200 28.44900
H  33.11500 48.33200 27.30400
H  31.96300 46.96200 27.24900
H  33.90800 48.90700 25.29300
H  34.05200 47.95300 23.72100
H  33.19900 47.20400 25.11300
H  27.64200 49.96000 21.31100
H  26.47500 52.66300 21.60700
H  29.66100 52.11200 21.39600
H  28.24000 52.53500 20.47500
H  29.09100 50.95100 20.20500
H  24.33000 50.54600 21.72700
H  25.55600 49.92800 20.78700
H  24.92200 50.99900 18.97000
H  25.22600 52.51200 19.83700
H  23.62600 51.69200 19.99900
H  22.91600 54.47400 24.60200
H  21.85800 54.25500 25.98700
H  21.86800 52.99500 24.73000
H  23.41700 51.55900 30.26700
H  24.40200 55.00700 32.69100
H  25.44700 53.57100 33.01700
H  23.84200 53.85800 33.83400
Mg 1.53100 41.99300 25.24000
C  2.82900 42.03100 28.62400
C  -1.33900 40.52300 26.45700
C  0.66200 41.51500 22.07200
C  4.80000 42.84000 24.29600
N  0.71000 41.67700 27.37700
C  1.45000 41.59600 28.56200
C  0.56000 41.16500 29.75400
C  -0.71500 40.69100 28.99000
C  -0.43200 40.95400 27.48300
C  -1.09400 39.20100 29.25900
C  0.24000 42.23800 30.83300
C  -0.14200 41.83700 32.22500
H  -1.19800 40.69500 32.41400
N  -0.08100 41.27900 24.32100
C  -1.21300 40.76700 24.99100
C  -2.14100 40.21600 24.03300
C  -1.64500 40.52100 22.72900
C  -0.30200 41.17700 23.00100
C  -3.39900 39.56000 24.49100
C  -2.10200 40.10500 21.35400
O  -1.47700 40.36700 20.29600
C  -3.36100 39.34600 21.22600
N  2.64800 42.05900 23.48300
C  2.02500 41.87800 22.23200
C  2.95100 42.18000 21.07500
C  4.11900 42.85600 21.82600
C  3.86400 42.56700 23.29300
C  3.30700 40.86600 20.24800
C  4.19600 44.34800 21.55300
C  3.04500 45.22400 21.97100
N  3.45100 42.33100 26.22700
C  4.65800 42.68200 25.66800
C  5.72100 42.75900 26.70000
C  5.00300 42.55400 27.91600
C  3.64100 42.26500 27.56100
C  7.18400 42.93600 26.55900
C  5.20600 42.37500 29.30400
O  6.17800 42.49900 30.02800
C  3.75300 42.03200 29.88700
C  3.74200 40.69400 30.55600
O  4.43800 39.71000 30.21200
O  2.90500 40.69600 31.65000
C  2.94400 39.47800 32.45200
H  -2.23600 40.02400 26.83200
H  0.38300 41.23100 21.05500
H  5.72900 43.25300 23.89800
H  0.98200 40.21600 30.08400
H  -1.50700 41.43600 29.06800
H  -0.37700 38.76700 29.95500
H  -0.93300 38.52200 28.42200
H  -2.06900 39.06600 29.72700
H  -0.56500 42.87600 30.47000
H  1.13400 42.85700 30.91100
H  -0.38500 42.73000 32.80000
H  0.79200 41.50800 32.68000
H  -3.66600 39.77600 25.52600
H  -3.28100 38.48200 24.38000
H  -4.27700 39.84500 23.91100
H  -3.25000 38.39700 21.75000
H  -3.39900 39.15600 20.15300
H  -4.26800 39.87500 21.51700
H  2.43100 42.75600 20.30900
H  5.03100 42.32900 21.54800
H  4.31000 40.51100 20.48400
H  3.27800 41.26500 19.23400
H  2.61800 40.03500 20.40300
H  4.45800 44.62400 20.53200
H  5.09200 44.71300 22.05700
H  2.63300 45.69900 21.08100
H  3.39700 45.93400 22.71900
H  2.24000 44.70200 22.48800
H  7.75800 42.12400 27.00600
H  7.38700 43.82100 27.16200
H  7.42200 43.07400 25.50400
H  3.43500 42.84700 30.53800
H  3.61400 38.70100 32.08200
H  1.91400 39.12900 32.51200
H  3.30300 39.64200 33.46800

