158

Mg 43.82100 4.11100 48.06400
C  41.74700 6.74000 47.08800
C  41.17500 1.91500 47.66200
C  45.85400 1.41600 48.85400
C  46.46000 6.17000 48.22400
N  41.74900 4.34900 47.39800
C  41.03900 5.54100 47.06600
C  39.64400 5.24200 46.44300
C  39.45000 3.70200 46.90300
C  40.90800 3.24600 47.37300
C  38.38500 3.49200 48.02400
C  39.76000 5.43200 44.87500
C  38.51800 6.10100 44.15900
H  38.12400 5.62800 42.75100
N  43.54300 1.92400 48.27100
C  42.34600 1.30100 48.20100
C  42.51900 -0.06600 48.51900
C  43.85500 -0.24800 48.70700
C  44.48400 1.08900 48.65900
C  41.47000 -1.16500 48.43100
C  44.49100 -1.61700 49.03400
O  43.80200 -2.65500 48.80600
C  45.81500 -1.79700 49.49400
N  45.96800 3.75900 48.23700
C  46.52300 2.58100 48.58200
C  48.02300 2.80200 48.73700
C  48.20700 4.34900 48.80100
C  46.76800 4.80000 48.46200
C  48.71400 2.16100 50.00100
C  49.26100 5.05800 47.83600
C  50.11700 6.16200 48.42600
N  44.09800 6.03500 47.64900
C  45.27100 6.74700 47.82400
C  45.05800 8.13300 47.39700
C  43.65700 8.17100 47.15600
C  43.11100 6.83200 47.32200
C  46.09300 9.29900 47.32700
C  42.53000 9.03400 46.79500
O  42.44700 10.24000 46.52200
C  41.21800 8.15400 46.65500
C  40.21700 8.67800 47.53000
O  40.01900 8.30600 48.66200
O  39.36800 9.57300 46.85200
C  38.13600 9.95700 47.63500
H  40.24700 1.33800 47.65800
H  46.46200 0.56100 49.15800
H  47.32000 6.83100 48.35300
H  38.95200 5.94900 46.90200
H  39.12900 3.07900 46.06800
H  38.85700 3.05800 48.90500
H  37.62000 2.96400 47.45500
H  37.96500 4.44600 48.34300
H  39.98100 4.43400 44.49600
H  40.67100 5.97500 44.62400
H  38.61600 7.18600 44.18400
H  37.67200 5.87800 44.80800
H  41.49400 -1.85700 49.27300
H  41.72800 -1.63800 47.48300
H  40.45900 -0.78100 48.29900
H  46.54400 -1.48200 48.74800
H  45.93900 -2.85800 49.71000
H  45.93400 -1.21100 50.40500
H  48.51000 2.51700 47.80500
H  48.35700 4.66500 49.83300
H  49.25500 2.97900 50.47700
H  49.44700 1.43000 49.66000
H  47.97600 1.80900 50.72200
H  48.69000 5.49300 47.01600
H  49.90000 4.25100 47.47700
H  49.95000 6.33900 49.48800
H  49.88700 7.06200 47.85700
H  51.18900 5.97100 48.36500
H  45.80500 9.96100 48.14400
H  45.97500 9.79200 46.36200
H  47.14900 9.07400 47.47600
H  40.89600 8.14100 45.61400
H  37.36600 10.18300 46.89600
H  38.22900 10.89000 48.19000
H  37.63200 9.11600 48.11300
Mg -4.55600 25.72400 25.76800
C  -3.34700 27.06600 28.62300
C  -6.21500 23.32400 27.85300
C  -6.01300 24.28500 23.07600
C  -2.70700 27.67400 23.87500
N  -4.88800 25.30600 28.10100
C  -4.29900 26.05800 28.98200
C  -4.77000 25.65200 30.33800
C  -5.58900 24.30300 30.12000
C  -5.55600 24.29600 28.62800
C  -5.00300 22.98500 30.77000
C  -5.58700 26.80500 31.02500
C  -5.69400 27.00900 32.57900
H  -5.28600 25.85300 33.56100
N  -5.84000 24.06800 25.47900
C  -6.29100 23.19200 26.42100
C  -7.10700 22.18400 25.79600
C  -7.08700 22.40500 24.35500
C  -6.29000 23.62000 24.22600
C  -7.84600 21.01900 26.58800
C  -7.62900 21.51300 23.28400
O  -7.43000 21.67800 22.06800
C  -8.55700 20.32900 23.62100
N  -4.30400 25.81700 23.71400
C  -5.13200 25.40300 22.84500
C  -5.06700 26.05700 21.47300
C  -3.93300 27.09700 21.66400
C  -3.64300 26.86800 23.19800
C  -4.71000 24.94700 20.29800
C  -4.18100 28.44700 21.20100
C  -4.70500 28.62300 19.78700
N  -3.26200 27.10000 26.09900
C  -2.52600 27.80700 25.24900
C  -1.73300 28.79400 25.99800
C  -1.96600 28.44200 27.32700
C  -2.96100 27.49200 27.32200
C  -0.89000 29.91300 25.40000
C  -1.72100 28.84800 28.63400
O  -1.08800 29.84000 29.04800
C  -2.61200 28.03000 29.53300
C  -1.80500 27.28900 30.43800
O  -1.10200 26.42200 30.08600
O  -2.01800 27.69300 31.70700
C  -1.36700 26.90300 32.77000
H  -6.77400 22.60300 28.45300
H  -6.54500 23.93200 22.19000
H  -2.20900 28.33600 23.16300
H  -3.99200 25.42000 31.06500
H  -6.57200 24.30100 30.59100
H  -4.69300 23.14800 31.80200
H  -4.06400 22.72100 30.28300
H  -5.73900 22.18200 30.75700
H  -6.59100 26.76200 30.60200
H  -5.18000 27.75300 30.67400
H  -6.73400 27.22600 32.82300
H  -5.17500 27.93600 32.81900
H  -7.83900 20.12900 25.95900
H  -8.87100 21.30200 26.82700
H  -7.29200 20.89100 27.51800
H  -7.81900 19.57700 23.90100
H  -9.16000 20.09900 22.74300
H  -9.25600 20.65600 24.39000
H  -6.03700 26.51800 21.28200
H  -3.04900 26.70200 21.16300
H  -4.04000 24.21200 20.74300
H  -4.21800 25.42000 19.44900
H  -5.61800 24.48400 19.91100
H  -3.24400 29.00200 21.25400
H  -4.94100 28.92300 21.82000
H  -4.92200 27.70000 19.25000
H  -3.96800 29.20400 19.23300
H  -5.58800 29.26200 19.75300
H  -1.17500 30.04600 24.35600
H  0.17400 29.68200 25.44000
H  -1.04900 30.83800 25.95500
H  -3.26600 28.73700 30.04400
H  -0.45500 27.39800 33.10500
H  -1.19400 25.87500 32.45100
H  -1.95100 26.76300 33.67900

