158

Mg 6.72800 53.93100 41.81500
C  6.46500 50.44200 41.49600
C  9.81000 53.73600 40.32100
C  6.72100 57.19600 41.75300
C  3.53400 53.87800 43.22500
N  7.82100 52.32000 40.73100
C  7.61500 50.98300 40.78000
C  8.62600 50.14900 40.05100
C  9.81400 51.17200 40.09400
C  9.16200 52.51800 40.31700
C  10.94100 50.81400 41.06300
C  8.26900 49.68700 38.63300
C  7.24400 50.48600 37.85200
H  6.89800 50.16800 36.40300
N  8.14500 55.28900 41.20500
C  9.36800 55.07100 40.63700
C  10.05900 56.33400 40.47800
C  9.19500 57.33900 40.96900
C  8.01900 56.66200 41.43300
C  11.41100 56.44800 39.94900
C  9.55900 58.77500 40.95600
O  10.46900 59.19000 40.26800
C  8.77900 59.69200 41.88000
N  5.12800 55.36300 42.13400
C  5.50900 56.72900 42.19000
C  4.47000 57.54200 42.91100
C  3.39000 56.42300 43.37600
C  4.06400 55.15100 42.90500
C  5.01400 58.54300 43.92000
C  1.95200 56.47300 42.82300
C  0.78100 56.60100 43.82500
N  5.20000 52.47800 42.27400
C  4.03700 52.62600 42.90000
C  3.53500 51.32700 43.29900
C  4.44500 50.44100 42.78000
C  5.41100 51.15600 42.09900
C  2.23800 51.01800 43.98100
C  4.77300 48.99900 42.55800
O  4.25000 47.96000 42.90900
C  6.01300 48.97000 41.59800
C  5.52400 48.25000 40.38400
O  4.85100 48.65600 39.43300
O  5.74600 46.89300 40.53200
C  5.29400 46.10400 39.39500
H  10.85300 53.67900 40.00500
H  6.56600 58.27600 41.79800
H  2.59000 53.81100 43.76900
H  9.00300 49.28000 40.59000
H  10.34100 51.26200 39.14500
H  11.87300 50.80100 40.49800
H  10.91000 49.79500 41.44800
H  10.92100 51.63600 41.77800
H  7.86300 48.68100 38.73200
H  9.19100 49.72000 38.05200
H  7.48400 51.54300 37.97300
H  6.29500 50.29200 38.35100
H  11.39900 56.66600 38.88200
H  11.93300 55.52500 40.20000
H  11.90900 57.18100 40.58400
H  8.42800 59.31000 42.83900
H  7.91000 60.07900 41.34700
H  9.49300 60.48600 42.09800
H  3.97500 58.13900 42.14600
H  3.36800 56.48300 44.46400
H  4.88800 59.56800 43.57200
H  6.07300 58.42400 44.15200
H  4.40900 58.56300 44.82700
H  1.80700 55.55500 42.25300
H  1.87300 57.34400 42.17300
H  0.29700 57.57600 43.76900
H  1.00000 56.44800 44.88200
H  -0.00800 55.89800 43.55800
H  1.47700 51.54200 43.40200
H  2.19300 51.18400 45.05800
H  2.02700 49.95100 43.91600
H  6.79400 48.40400 42.10700
H  5.82100 46.49600 38.52500
H  4.22300 46.26900 39.27200
H  5.49300 45.04200 39.53600
Mg -11.85800 15.68100 41.93500
C  -8.60400 14.01300 41.88000
C  -10.37800 18.38700 40.57300
C  -14.83700 16.81600 41.43800
C  -13.19700 12.54500 42.92300
N  -9.83100 16.06300 41.18500
C  -8.70500 15.35700 41.43000
C  -7.46200 16.11400 40.83900
C  -7.98400 17.62300 40.90000
C  -9.51900 17.38000 40.88700
C  -7.57700 18.42200 42.18200
C  -7.11600 15.51000 39.34700
C  -5.67700 15.07600 39.24700
H  -4.93100 15.90400 38.24500
N  -12.51700 17.35600 41.10700
C  -11.75200 18.34300 40.57400
C  -12.64000 19.35200 40.10000
C  -13.97500 18.89500 40.23900
C  -13.82200 17.60500 40.99100
C  -12.13400 20.63100 39.42400
C  -15.13700 19.65900 39.74200
O  -14.98500 20.78200 39.23000
C  -16.50500 19.05400 39.75800
N  -13.69000 14.73800 42.03600
C  -14.81300 15.50700 41.98200
C  -16.14500 14.77700 42.35400
C  -15.63600 13.35800 42.71000
C  -14.08400 13.55200 42.53700
C  -16.88400 15.42000 43.58600
C  -16.15500 12.17800 41.73700
C  -16.20000 10.77800 42.32300
N  -11.03400 13.74600 42.46900
C  -11.76300 12.57600 42.80100
C  -10.77400 11.48700 43.06800
C  -9.54600 11.98600 42.73100
C  -9.72000 13.35200 42.31700
C  -11.09700 10.12800 43.66400
C  -8.13700 11.69300 42.55500
O  -7.57100 10.61300 42.77200
C  -7.47200 12.97900 42.07400
C  -6.49000 13.54500 43.05700
O  -6.62400 13.78900 44.23700
O  -5.30900 13.64800 42.43600
C  -4.22300 14.40100 43.05800
H  -9.80900 19.20800 40.13100
H  -15.84000 17.20600 41.25200
H  -13.71800 11.62300 43.18900
H  -6.62000 15.89700 41.49700
H  -7.75800 18.12300 39.95800
H  -6.58600 18.17500 42.56200
H  -8.28200 18.15400 42.96800
H  -7.61300 19.49900 42.01700
H  -7.42600 16.25900 38.61800
H  -7.73000 14.62800 39.16000
H  -5.71600 14.00200 39.06400
H  -5.03900 15.30300 40.10000
H  -12.43900 20.77100 38.38700
H  -11.04900 20.71000 39.35300
H  -12.50800 21.48800 39.98400
H  -17.14900 19.50900 39.00600
H  -16.95600 19.06900 40.74900
H  -16.36100 18.03200 39.40600
H  -16.89400 14.77500 41.56200
H  -15.80000 13.05800 43.74500
H  -17.92800 15.71000 43.46900
H  -16.30800 16.34200 43.67800
H  -16.81800 14.78300 44.46800
H  -15.55300 12.00500 40.84500
H  -17.09800 12.51900 41.31000
H  -16.98900 10.16900 41.88100
H  -16.30000 10.89700 43.40200
H  -15.23700 10.29700 42.15300
H  -11.64700 9.52200 42.94400
H  -11.80700 10.14400 44.49000
H  -10.14500 9.68400 43.95600
H  -6.93700 12.93100 41.12600
H  -3.51700 14.31100 42.23200
H  -3.77700 13.91300 43.92400
H  -4.55100 15.42300 43.25200

