158

Mg 24.36500 -5.56100 46.30500
C  26.45700 -3.35900 44.61400
C  21.85600 -4.56600 44.16000
C  22.57100 -8.17900 47.29500
C  27.12700 -6.71100 47.98600
N  24.20900 -4.18500 44.49800
C  25.18500 -3.36200 44.06600
C  24.60400 -2.34900 43.00400
C  23.00800 -2.68500 42.94400
C  23.00800 -3.90400 43.94800
C  22.08800 -1.44400 43.47200
C  25.29300 -2.50500 41.64400
C  26.08100 -1.32700 41.17900
H  25.75900 -0.87500 39.73600
N  22.50000 -6.29900 45.78700
C  21.63600 -5.71800 44.86000
C  20.39400 -6.40100 44.85100
C  20.57600 -7.46800 45.79500
C  21.91100 -7.37300 46.36300
C  19.16900 -6.06000 43.96000
C  19.49200 -8.50200 46.07400
O  18.38200 -8.29200 45.66200
C  19.81600 -9.75900 46.81800
N  24.79700 -7.26900 47.41600
C  23.85200 -8.13200 47.77300
C  24.37200 -9.28300 48.59000
C  25.80100 -8.76700 48.95800
C  25.96500 -7.50000 48.06200
C  23.65200 -9.58900 49.97500
C  27.01200 -9.81200 48.80300
C  27.58800 -10.30200 50.17900
N  26.37700 -5.05500 46.53400
C  27.38400 -5.62900 47.22400
C  28.57200 -4.86000 47.05100
C  28.20000 -3.96600 46.03800
C  26.91200 -4.18000 45.65300
C  29.94800 -5.18300 47.55000
C  28.78100 -2.97300 45.15200
O  29.94200 -2.58100 45.15500
C  27.68600 -2.46400 44.18100
C  27.51800 -1.02800 44.48800
O  26.91400 -0.59600 45.46500
O  28.14300 -0.22100 43.57600
C  28.30500 1.23600 43.72900
H  21.11600 -4.19900 43.44600
H  22.02400 -9.02300 47.72100
H  27.99200 -7.14200 48.49200
H  24.73600 -1.32200 43.34300
H  22.57000 -2.85800 41.96100
H  21.78900 -0.93600 42.55500
H  22.63900 -0.68200 44.02400
H  21.26800 -1.66300 44.15500
H  24.53100 -2.93100 40.99100
H  25.97400 -3.35600 41.66900
H  27.15800 -1.49200 41.16800
H  26.05800 -0.46900 41.85200
H  18.47300 -6.89200 43.84800
H  19.49800 -5.78300 42.95800
H  18.72900 -5.14200 44.34800
H  18.99200 -10.34300 46.40900
H  19.90000 -9.55300 47.88500
H  20.76000 -10.17200 46.46300
H  24.26000 -10.22300 48.05000
H  25.73200 -8.28000 49.93000
H  23.25100 -8.62300 50.28200
H  24.34600 -9.84700 50.77500
H  22.90700 -10.38300 50.02700
H  27.81400 -9.32200 48.25100
H  26.66200 -10.61300 48.15200
H  28.33200 -11.02900 49.85500
H  26.80600 -10.65400 50.85300
H  27.96100 -9.30100 50.39600
H  30.27200 -6.10700 47.07100
H  29.87800 -5.29300 48.63300
H  30.65100 -4.45400 47.14900
H  28.15200 -2.55300 43.20000
H  28.78200 1.33300 44.70500
H  27.34100 1.73100 43.61300
H  28.98000 1.56400 42.93900
Mg -2.33400 33.97700 27.27300
C  -3.96200 32.05900 29.57000
C  -0.78300 35.68800 29.72200
C  -0.63700 35.72300 24.84900
C  -4.14300 32.42300 24.66800
N  -2.49700 33.97900 29.28000
C  -3.11100 33.03600 30.05400
C  -3.11800 33.26900 31.56600
C  -2.18500 34.55300 31.59900
C  -1.81900 34.81700 30.13000
C  -2.91500 35.75300 32.16200
C  -2.30900 31.98800 32.24000
C  -2.72600 31.46200 33.60500
H  -1.76600 31.89000 34.72100
N  -0.94400 35.54800 27.32700
C  -0.43200 36.13000 28.45800
C  0.64800 37.05800 28.09800
C  0.70200 37.08600 26.67100
C  -0.29800 36.09200 26.19100
C  1.55200 37.74000 29.12100
C  1.54800 37.94000 25.81500
O  1.43000 37.84600 24.61000
C  2.59400 38.92000 26.32100
N  -2.48500 34.12500 25.03200
C  -1.61300 34.92700 24.32200
C  -1.74100 34.71400 22.77800
C  -2.90100 33.62700 22.73700
C  -3.30100 33.44500 24.21300
C  -1.97600 36.01600 21.97700
C  -2.48400 32.27600 22.11000
C  -3.04000 31.92200 20.64000
N  -3.79500 32.58600 27.11100
C  -4.35700 31.98300 26.03400
C  -5.13300 30.84800 26.50100
C  -5.03800 30.77500 27.85500
C  -4.16100 31.86500 28.16600
C  -5.90400 29.79300 25.73800
C  -5.38400 30.06700 29.06400
O  -6.02100 29.04800 29.24200
C  -4.75100 30.91700 30.25700
C  -5.87600 31.44200 31.05500
O  -6.63000 32.35200 30.76000
O  -5.92900 30.64800 32.19200
C  -6.93000 30.98700 33.20900
H  -0.47300 36.32500 30.55300
H  0.04800 36.05200 24.06500
H  -4.69800 31.83800 23.93200
H  -4.13300 33.34100 31.95600
H  -1.26000 34.46900 32.16900
H  -3.99200 35.59600 32.22400
H  -2.82400 36.56700 31.44300
H  -2.48700 36.01300 33.13100
H  -1.26200 32.27600 32.33200
H  -2.40500 31.11800 31.59000
H  -2.70500 30.37300 33.64700
H  -3.74000 31.82700 33.76300
H  1.12500 37.53600 30.10300
H  1.42600 38.81400 28.98600
H  2.62300 37.57500 29.00300
H  3.02800 39.42600 25.45900
H  3.39000 38.32500 26.76900
H  2.24700 39.75400 26.93200
H  -0.84800 34.21700 22.40000
H  -3.75200 34.07100 22.22000
H  -1.79100 36.94000 22.52600
H  -3.00000 35.88700 21.62500
H  -1.19800 35.91300 21.22100
H  -2.93700 31.46000 22.67400
H  -1.40800 32.12300 22.19300
H  -3.56000 32.84500 20.38500
H  -3.58800 30.98100 20.68900
H  -2.20600 31.77100 19.95400
H  -5.35800 29.62700 24.80900
H  -6.86100 30.24000 25.46900
H  -6.00400 28.86900 26.30800
H  -4.16300 30.22800 30.86300
H  -6.60800 31.54000 34.09100
H  -7.22800 30.05700 33.69100
H  -7.79700 31.43900 32.72700

