158

Mg 35.66700 2.76100 30.20900
C  33.28400 3.87500 32.74400
C  37.88400 2.61300 32.79300
C  37.97800 2.40700 27.95600
C  33.16700 3.17500 27.85600
N  35.58400 3.35900 32.58500
C  34.53400 3.68800 33.34600
C  34.91400 3.57800 34.84600
C  36.52800 3.57300 34.78200
C  36.65900 3.07500 33.30800
C  37.22400 4.90900 35.18700
C  34.20500 2.31900 35.47000
C  33.62500 2.56500 36.91700
H  34.21800 3.71200 37.88300
N  37.67100 2.40300 30.32300
C  38.40200 2.43100 31.46400
C  39.76400 2.08500 31.04800
C  39.89500 2.12100 29.69800
C  38.48900 2.32800 29.23700
C  40.90000 1.83500 32.08900
C  41.03000 1.85300 28.76800
O  40.87600 1.83100 27.60900
C  42.46400 1.55800 29.32000
N  35.55100 2.90300 28.11900
C  36.66900 2.66000 27.42100
C  36.30800 2.33700 25.94000
C  34.80900 2.73400 25.86300
C  34.43600 2.93100 27.36600
C  37.10300 3.14800 24.80900
C  33.95100 1.73300 25.02100
C  33.21500 2.49000 23.98500
N  33.62000 3.29200 30.23800
C  32.76700 3.43800 29.20300
C  31.48000 3.77400 29.76000
C  31.61400 3.82900 31.10800
C  32.96400 3.69400 31.38400
C  30.16400 3.89300 29.04800
C  30.86900 4.12900 32.34400
O  29.71300 4.37500 32.56400
C  31.96800 4.07100 33.40700
C  31.93900 5.29600 34.23900
O  32.44100 6.39700 33.90900
O  31.23000 5.02200 35.37500
C  31.10800 6.09700 36.35900
H  38.70000 2.54100 33.51500
H  38.72600 2.21400 27.18400
H  32.39000 3.19800 27.08900
H  34.61400 4.49400 35.35500
H  37.01400 2.83400 35.41900
H  38.00700 5.09000 34.45100
H  37.66400 4.90700 36.18400
H  36.53800 5.75600 35.18500
H  34.83400 1.42900 35.49100
H  33.32800 1.99700 34.90800
H  33.73800 1.60200 37.41400
H  32.58100 2.79100 36.69900
H  41.17900 0.78100 32.09700
H  40.63100 1.95000 33.13900
H  41.82000 2.41300 32.00000
H  42.51000 0.60200 29.84300
H  42.84400 2.41200 29.87900
H  43.02300 1.60400 28.38500
H  36.34900 1.24900 25.88800
H  34.70000 3.77800 25.57100
H  37.57700 4.03900 25.22000
H  36.43200 3.57400 24.06200
H  37.69200 2.34200 24.37200
H  33.23100 1.10000 25.53900
H  34.67000 1.08700 24.51600
H  32.38900 1.86000 23.65600
H  33.92300 2.64100 23.17000
H  32.84300 3.41500 24.42500
H  30.30300 4.87700 28.60000
H  29.28000 3.99200 29.67800
H  30.02100 3.20300 28.21600
H  31.68300 3.24600 34.05900
H  30.79000 5.60900 37.28100
H  30.41100 6.88000 36.06100
H  32.09300 6.47700 36.63100
Mg 29.22500 57.92700 41.02600
C  26.67800 55.78000 39.65400
C  31.52800 55.65800 39.92500
C  31.41500 60.13600 41.66100
C  26.64700 60.21200 41.96600
N  28.98900 55.99600 39.89100
C  27.95300 55.35100 39.38700
C  28.45400 54.13300 38.61700
C  29.86800 53.85300 39.22600
C  30.15500 55.25600 39.76000
C  29.96500 52.82600 40.33500
C  28.54200 54.38700 37.11400
C  27.59900 53.47300 36.25600
H  26.78000 54.13100 35.16400
N  31.22700 57.90800 40.75300
C  32.00900 56.89800 40.31200
C  33.38300 57.28400 40.36400
C  33.36000 58.59900 40.98500
C  31.98700 58.92300 41.22300
C  34.52400 56.39400 39.93300
C  34.63600 59.31700 41.48900
O  35.70300 58.91000 41.12000
C  34.55400 60.64200 42.24700
N  29.06400 60.05700 41.59800
C  30.11700 60.66900 41.92700
C  29.83300 62.08300 42.34100
C  28.39600 61.94400 42.85200
C  27.97900 60.70200 42.01800
C  30.85300 62.68900 43.38800
C  27.47900 63.19000 42.55000
C  26.71900 63.75300 43.70200
N  27.12900 58.00800 40.88100
C  26.22200 59.03000 41.39100
C  24.88100 58.60000 41.08200
C  25.03400 57.34400 40.49900
C  26.38800 57.02600 40.34300
C  23.56000 59.38900 41.31800
C  24.25300 56.30000 39.90600
O  23.02100 56.23100 39.80800
C  25.27200 55.24300 39.26100
C  25.07500 53.97000 39.91300
O  25.51100 53.62900 41.00400
O  24.23800 53.23200 39.16600
C  23.61100 52.12200 39.81700
H  32.22600 54.82500 39.81800
H  32.17500 60.91500 41.75100
H  25.89800 60.88900 42.38200
H  27.76600 53.29300 38.70900
H  30.58400 53.56700 38.45600
H  29.94200 53.34000 41.29600
H  30.92500 52.30900 40.33600
H  29.13400 52.12500 40.26400
H  29.49800 54.13100 36.65900
H  28.37900 55.43700 36.87000
H  26.87400 53.03400 36.94200
H  28.15800 52.60800 35.90000
H  35.28200 56.96100 39.39200
H  34.23900 55.52300 39.34200
H  34.95700 55.95500 40.83200
H  35.51900 60.94400 42.65300
H  33.87000 60.62400 43.09500
H  34.29300 61.28900 41.41000
H  29.84200 62.71000 41.45000
H  28.42400 61.68400 43.91000
H  30.34800 63.26700 44.16200
H  31.49400 63.37000 42.82700
H  31.49200 61.91500 43.81300
H  26.60700 62.99100 41.92600
H  28.07800 63.89400 41.97300
H  26.78300 63.12400 44.58900
H  25.65600 63.80700 43.46600
H  27.14500 64.68300 44.07800
H  23.62100 60.39900 40.91300
H  23.34600 59.40600 42.38700
H  22.71200 58.91800 40.82000
H  25.15400 55.09400 38.18800
H  23.82500 51.15500 39.36200
H  22.54500 52.33000 39.90600
H  23.87900 52.04000 40.87100

