158

Mg 46.93000 16.33100 28.92500
C  44.78600 15.69500 31.56600
C  49.09600 17.62200 31.25700
C  49.01700 17.06600 26.43500
C  44.61300 15.02700 26.74300
N  46.71600 16.90800 31.06400
C  45.90700 16.33500 31.91900
C  46.18300 16.77100 33.37600
C  47.43000 17.73000 33.19400
C  47.82800 17.41900 31.73700
C  47.19600 19.25800 33.37700
C  46.53600 15.48700 34.19800
C  46.02100 15.50400 35.66400
H  46.04100 16.85300 36.36300
N  48.78700 17.22100 28.84300
C  49.56200 17.55900 29.91700
C  50.90300 17.74500 29.47900
C  50.95100 17.55300 28.01200
C  49.55800 17.23800 27.66700
C  52.06900 17.99400 30.39100
C  52.12800 17.73400 27.05700
O  51.98100 17.56500 25.86000
C  53.42500 18.31300 27.48100
N  46.82300 15.91000 26.82800
C  47.74400 16.49300 25.98800
C  47.26500 16.48900 24.53700
C  45.93200 15.62200 24.68100
C  45.74900 15.47500 26.14600
C  47.04100 17.94500 24.07600
C  46.08000 14.25100 23.93700
C  44.81400 13.80700 23.24700
N  45.04400 15.48900 29.04200
C  44.28700 14.94500 28.11100
C  43.11600 14.35900 28.74900
C  43.22000 14.63900 30.11700
C  44.45300 15.31800 30.24000
C  41.87800 13.75800 28.10000
C  42.61600 14.53400 31.45200
O  41.56700 14.05400 31.74700
C  43.63100 15.15200 32.43000
C  42.99900 16.12600 33.39700
O  42.86100 17.33800 33.12400
O  42.52500 15.48600 34.52100
C  41.78300 16.35800 35.44200
H  49.83200 17.92800 32.00400
H  49.70500 17.48500 25.69700
H  43.93800 14.59600 26.00000
H  45.37500 17.41300 33.72700
H  48.22500 17.48100 33.89700
H  46.17500 19.49100 33.68100
H  47.39100 19.88400 32.50600
H  47.83000 19.58700 34.20100
H  47.59700 15.24500 34.13500
H  46.06800 14.61600 33.74000
H  46.71500 14.85800 36.20000
H  45.04400 15.02500 35.59500
H  53.04400 18.23500 29.96700
H  52.21200 17.13400 31.04500
H  51.69000 18.85600 30.94000
H  54.02500 18.44100 26.58000
H  54.00500 17.74600 28.20900
H  53.22200 19.31200 27.86600
H  48.04700 16.03400 23.92900
H  45.08900 16.15600 24.24400
H  46.31800 17.96000 23.26000
H  48.02900 18.25400 23.73300
H  46.82600 18.64000 24.88800
H  46.54100 13.57100 24.65300
H  46.80200 14.48300 23.15400
H  44.77500 14.18400 22.22500
H  43.85600 14.02100 23.72000
H  44.82000 12.72500 23.11600
H  41.50500 14.28800 27.22400
H  41.08800 13.76900 28.85000
H  42.18400 12.73800 27.86700
H  44.02600 14.44200 33.15600
H  40.91800 16.73900 34.89800
H  42.46600 16.99700 36.00200
H  41.35600 15.64700 36.14900
Mg 30.51100 57.97800 40.10000
C  27.71300 56.12100 39.15700
C  32.51000 55.53700 38.53500
C  33.11300 60.11400 40.07800
C  28.47100 60.48600 41.15000
N  30.10000 56.03300 38.98200
C  28.87900 55.49000 38.83900
C  28.98000 54.06900 38.14300
C  30.53600 53.75600 38.50100
C  31.12800 55.21100 38.65900
C  30.69400 52.93600 39.80300
C  28.85100 54.12800 36.61000
C  27.78800 53.37200 35.93800
H  26.85700 54.16700 35.02600
N  32.59400 57.82000 39.45600
C  33.15300 56.74900 38.75000
C  34.51100 57.08300 38.55300
C  34.74300 58.36800 39.00400
C  33.46600 58.87300 39.49600
C  35.56600 56.20300 37.81100
C  36.13800 59.09000 38.89100
O  37.05100 58.54300 38.24200
C  36.42700 60.49400 39.46500
N  30.71300 59.96200 40.52400
C  31.91100 60.63000 40.53200
C  31.74900 62.06200 41.05000
C  30.20300 62.21000 41.39300
C  29.75500 60.78900 40.97300
C  32.76200 62.39600 42.17600
C  29.39300 63.35700 40.65700
C  28.33300 64.18500 41.40700
N  28.42800 58.29000 40.26000
C  27.75300 59.33800 40.73100
C  26.33300 59.03100 40.64500
C  26.25000 57.76200 40.09100
C  27.55400 57.37200 39.84400
C  25.23200 59.88200 41.16300
C  25.37400 56.69800 39.76900
O  24.16600 56.52600 39.83300
C  26.31200 55.59900 39.16000
C  26.28900 54.40700 40.07500
O  26.76500 54.42300 41.19700
O  25.73000 53.36600 39.38100
C  25.48500 52.06700 40.09300
H  33.09000 54.64600 38.28800
H  33.94300 60.82300 40.10100
H  27.79100 61.27900 41.46600
H  28.27300 53.36300 38.57600
H  31.03800 53.11500 37.77700
H  29.76800 52.98100 40.37600
H  31.52000 53.33000 40.39500
H  30.86800 51.87200 39.64100
H  29.82000 53.97100 36.13500
H  28.66600 55.16600 36.33500
H  27.15100 52.93400 36.70600
H  28.12000 52.52600 35.33600
H  35.99200 56.78400 36.99300
H  34.97000 55.44900 37.29800
H  36.23400 55.70000 38.51100
H  36.11200 60.54300 40.50800
H  35.70500 61.14400 38.97100
H  37.48100 60.75800 39.37800
H  32.03200 62.64500 40.17300
H  30.15500 62.25700 42.48100
H  33.42300 61.54700 42.34900
H  32.23700 62.62700 43.10200
H  33.36600 63.21900 41.79300
H  28.81500 62.90900 39.84800
H  30.04400 64.09800 40.19200
H  28.68100 65.20400 41.57400
H  28.11400 63.64000 42.32600
H  27.38900 64.23700 40.86500
H  25.54400 60.92600 41.18100
H  24.80700 59.71800 42.15400
H  24.50300 59.74400 40.36500
H  25.96300 55.19700 38.20900
H  24.80400 52.33100 40.90200
H  26.38100 51.55700 40.44900
H  24.95900 51.46600 39.35100

