158

Mg 28.43500 56.17200 40.14300
C  26.18500 53.58800 40.04700
C  30.95700 53.94000 39.17900
C  30.50600 58.67100 39.85300
C  25.64100 58.52000 40.24100
N  28.53400 53.95300 39.79000
C  27.45500 53.12400 39.67800
C  27.79500 51.79300 38.93900
C  29.36700 51.77600 39.16900
C  29.70600 53.28100 39.36700
C  29.79100 50.79800 40.23500
C  27.32900 51.85400 37.45600
C  27.11300 53.29000 36.85100
H  26.51800 53.26800 35.46000
N  30.38700 56.31000 39.58700
C  31.29300 55.27900 39.30500
C  32.61800 55.84700 39.04200
C  32.50700 57.25300 39.16500
C  31.11000 57.44100 39.68700
C  33.90100 55.04100 38.61900
C  33.67300 58.29400 38.89900
O  34.79200 57.91500 38.68100
C  33.47700 59.79800 38.96600
N  28.05100 58.30200 40.16500
C  29.22000 59.11100 40.06000
C  28.87600 60.63500 40.13300
C  27.31300 60.53800 40.17300
C  26.94200 59.04500 40.13700
C  29.58000 61.43500 41.17900
C  26.60700 61.20800 38.95000
C  25.38200 62.11000 39.37000
N  26.32500 56.13100 40.09500
C  25.32300 57.09100 40.19500
C  24.03700 56.44300 40.30100
C  24.34600 55.05700 40.30400
C  25.71800 54.90500 40.07500
C  22.73700 57.05000 40.46400
C  23.78300 53.76000 40.41400
O  22.61100 53.43800 40.69000
C  24.90800 52.77700 40.07100
C  24.99900 51.62600 41.08200
O  24.12800 50.76500 41.27700
O  26.06100 51.70500 41.91600
C  26.23000 50.63500 42.89700
H  31.69700 53.19200 38.88800
H  31.18900 59.51700 39.95000
H  24.75500 59.15800 40.24500
H  27.28900 50.92800 39.37000
H  29.80000 51.44300 38.22600
H  30.30400 51.34400 41.02700
H  30.25600 50.02100 39.63000
H  28.90000 50.35400 40.68000
H  26.49700 51.15600 37.36900
H  28.12400 51.40000 36.86400
H  28.02100 53.87200 36.68900
H  26.35700 53.85300 37.39900
H  33.88200 53.99300 38.91800
H  34.67700 55.42500 39.28100
H  34.13200 55.22900 37.57000
H  33.34200 60.17800 39.97900
H  32.65400 60.09700 38.31800
H  34.33500 60.29600 38.51300
H  29.13100 61.03300 39.15100
H  26.93700 60.91600 41.12300
H  30.10900 60.73000 41.81900
H  28.92200 61.99100 41.84700
H  30.20200 62.16300 40.65800
H  26.22100 60.42300 38.30000
H  27.24000 61.88000 38.36900
H  24.46100 61.66500 38.99400
H  25.51300 63.13900 39.03600
H  25.11400 62.08000 40.42700
H  22.70300 58.13800 40.51700
H  22.27900 56.71000 41.39200
H  22.07900 56.70700 39.66500
H  24.47300 52.42000 39.13800
H  26.00700 50.92200 43.92500
H  27.29700 50.41800 42.84900
H  25.82700 49.66400 42.61000
Mg 16.38500 51.79100 26.15600
C  17.92800 49.99000 28.74500
C  14.02000 52.93100 28.36800
C  14.77200 53.08600 23.51500
C  18.63600 50.18900 23.94900
N  16.10300 51.63400 28.35300
C  16.91500 50.89300 29.20400
C  16.62700 51.26100 30.69500
C  15.24700 52.00100 30.51800
C  15.05900 52.14500 29.02400
C  14.10300 51.26200 31.21200
C  17.78900 52.19800 31.28700
C  17.90600 52.43500 32.78800
H  16.97900 51.63400 33.76600
N  14.58400 52.83300 25.96200
C  13.80100 53.27200 27.00700
C  12.80300 54.16500 26.45900
C  12.92500 54.02700 25.01000
C  14.14700 53.33700 24.76600
C  11.77300 54.88400 27.36600
C  12.03500 54.62100 23.97100
O  12.28000 54.54500 22.78300
C  10.83500 55.37800 24.38800
N  16.45800 51.37800 23.81800
C  15.84600 52.28600 23.09700
C  16.70700 52.59700 21.82700
C  17.93600 51.60500 21.94800
C  17.66400 51.01400 23.29200
C  16.04700 52.47200 20.46200
C  19.31800 52.40300 21.84900
C  20.44100 51.74000 20.95500
N  17.86500 50.30700 26.24500
C  18.71000 49.74100 25.28800
C  19.69400 48.83200 25.82600
C  19.39300 48.88200 27.22900
C  18.31400 49.74300 27.38400
C  20.80600 48.16800 25.08000
C  19.82500 48.51000 28.55500
O  20.88400 48.03900 28.93000
C  18.82700 49.16800 29.60400
C  18.19300 48.08800 30.41100
O  17.55500 47.16700 29.94500
O  18.70400 48.13100 31.75100
C  18.41000 46.95500 32.59400
H  13.45600 53.37900 29.18900
H  14.51900 53.86200 22.79000
H  19.45300 49.92800 23.27400
H  16.50400 50.32000 31.23100
H  15.21800 52.98700 30.98200
H  14.39200 50.32200 31.68100
H  13.42900 50.92700 30.42300
H  13.64400 51.93400 31.93700
H  17.54900 53.22800 31.02200
H  18.78100 51.93200 30.92100
H  17.85600 53.50000 33.01500
H  18.89100 52.09400 33.10500
H  10.73800 54.76500 27.04700
H  12.07400 55.92600 27.47900
H  11.78900 54.50700 28.38800
H  10.21500 54.74600 25.02400
H  10.29100 55.75400 23.52100
H  11.24200 56.26800 24.86800
H  17.05000 53.62700 21.92800
H  17.82900 50.79700 21.22500
H  15.00600 52.15200 20.50100
H  16.47700 51.79900 19.71900
H  16.05800 53.47500 20.03700
H  19.70000 52.48300 22.86700
H  19.23400 53.46400 21.61400
H  20.89600 52.43400 20.24900
H  20.16100 50.86400 20.36900
H  21.13500 51.26800 21.65000
H  21.36600 48.81900 24.40800
H  20.47300 47.26600 24.56800
H  21.53400 47.91600 25.85100
H  19.52000 49.72400 30.23600
H  17.34200 46.73800 32.56700
H  18.90600 47.02100 33.56200
H  18.96200 46.13700 32.13300

