158

Mg 50.34600 45.17900 42.70800
C  47.19400 46.05100 41.58800
C  50.02800 42.10100 41.70200
C  53.74800 44.90100 42.94200
C  50.85200 48.78100 43.16600
N  48.86400 44.28000 41.66900
C  47.55200 44.74200 41.37900
C  46.65500 43.67300 40.77600
C  47.64600 42.39800 40.81600
C  48.92000 42.92700 41.46100
C  47.04200 41.18300 41.64900
C  46.27000 44.03200 39.28400
C  47.31900 44.65600 38.35500
H  47.82300 43.86100 37.16100
N  51.71400 43.66900 42.48500
C  51.34400 42.38100 42.09300
C  52.50000 41.48300 41.98800
C  53.61000 42.31600 42.39200
C  53.03500 43.67800 42.67200
C  52.33200 40.02000 41.62600
C  55.04000 41.72200 42.55800
O  55.25800 40.60500 42.19800
C  56.09600 42.47500 43.34800
N  51.99300 46.69400 43.01300
C  53.29900 46.21300 43.20900
C  54.22000 47.48200 43.37600
C  53.28600 48.68100 43.65700
C  51.98300 48.02700 43.17800
C  55.33500 47.46500 44.48900
C  53.65100 50.16300 43.17700
C  53.93400 51.09000 44.33400
N  49.29900 47.11800 42.36500
C  49.57600 48.45800 42.72000
C  48.33200 49.24100 42.67300
C  47.36400 48.28400 42.26900
C  47.96700 47.05700 42.06200
C  48.18200 50.63500 43.24800
C  45.95900 48.16100 41.84700
O  45.09500 48.97300 41.63700
C  45.73500 46.66900 41.54900
C  44.76900 46.07300 42.48800
O  43.56300 45.93600 42.23400
O  45.34300 45.63700 43.68000
C  44.39000 45.07400 44.62300
H  49.82300 41.10500 41.30500
H  54.83000 44.76000 42.89700
H  50.86100 49.85600 43.36100
H  45.78400 43.45800 41.39500
H  47.84900 41.95500 39.84100
H  46.21000 41.54500 42.25200
H  47.74600 40.94100 42.44600
H  46.94900 40.38100 40.91700
H  45.48500 44.77200 39.43900
H  45.81900 43.09500 38.95600
H  48.28800 44.71700 38.85200
H  47.00300 45.61000 37.93300
H  52.95000 39.71600 40.78100
H  51.28400 39.83100 41.39300
H  52.58400 39.49200 42.54500
H  56.61900 43.20900 42.73600
H  56.82500 41.74600 43.70100
H  55.61200 42.92800 44.21400
H  54.74700 47.46600 42.42100
H  53.10000 48.72300 44.73000
H  56.22900 47.12000 43.96900
H  55.08100 46.66700 45.18800
H  55.53200 48.45300 44.90600
H  52.86900 50.55200 42.52600
H  54.54500 50.15700 42.55200
H  54.55700 50.54600 45.04400
H  52.94800 51.29700 44.75100
H  54.46300 51.93000 43.88300
H  48.75000 51.19500 42.50500
H  48.61800 50.77300 44.23700
H  47.14200 50.96100 43.29600
H  45.30600 46.52100 40.55800
H  44.97300 44.55600 45.38500
H  43.63200 44.40300 44.21700
H  43.85700 45.85300 45.16900
Mg 1.51800 42.28300 25.90300
C  3.87900 42.01100 28.54100
C  -0.96100 41.54300 28.20100
C  -0.50900 41.80900 23.38100
C  4.22400 42.89500 23.74000
N  1.53500 41.88400 28.03000
C  2.52700 41.88700 28.92700
C  2.04400 41.90100 30.33700
C  0.54600 41.57400 30.27400
C  0.36200 41.69500 28.73600
C  0.24500 40.16300 30.93900
C  2.27400 43.31400 30.96000
C  2.58000 43.41500 32.44000
H  2.10000 42.22000 33.38200
N  -0.48100 41.79900 25.80300
C  -1.27200 41.38000 26.85100
C  -2.58800 40.92700 26.33400
C  -2.59100 41.08000 24.97200
C  -1.18600 41.58300 24.67800
C  -3.65000 40.35000 27.34400
C  -3.67400 40.86200 23.90400
O  -3.50100 41.11100 22.71700
C  -5.04600 40.27900 24.45700
N  1.84500 42.22200 23.86200
C  0.81200 42.22800 23.01100
C  1.27700 42.35300 21.52100
C  2.73400 43.02700 21.74200
C  2.92800 42.74800 23.25300
C  1.44200 41.00000 20.78400
C  2.70900 44.56600 21.43700
C  3.35800 45.09500 20.07600
N  3.65500 42.48100 26.02800
C  4.64900 42.73700 25.11600
C  5.89100 42.77500 25.78000
C  5.62100 42.51600 27.12700
C  4.27500 42.27900 27.21200
C  7.23100 43.14200 25.23300
C  6.29500 42.33800 28.44300
O  7.43800 42.35700 28.81700
C  5.08700 42.19700 29.40800
C  5.36500 41.12200 30.48200
O  5.08400 39.96100 30.32400
O  6.04800 41.64000 31.55500
C  6.23800 40.78900 32.68400
H  -1.75100 41.35900 28.93200
H  -1.25100 41.62000 22.60200
H  4.94200 43.29600 23.02200
H  2.64000 41.22400 30.95100
H  -0.03800 42.33100 30.79800
H  -0.01400 39.45300 30.15300
H  -0.63300 40.28600 31.57200
H  1.01300 39.82100 31.63300
H  1.37800 43.90400 30.76800
H  3.06300 43.84000 30.42200
H  1.99900 44.20800 32.91000
H  3.66200 43.49200 32.53800
H  -4.73400 40.35600 27.22900
H  -3.60200 40.92900 28.26700
H  -3.41200 39.31300 27.58100
H  -4.77300 39.37700 25.00500
H  -5.64000 40.05200 23.57200
H  -5.51500 41.03600 25.08600
H  0.58400 43.05100 21.05100
H  3.44900 42.46600 21.13900
H  2.43100 40.81500 20.36300
H  0.84700 41.15100 19.88300
H  0.94100 40.14200 21.23000
H  3.16300 45.11800 22.26000
H  1.65100 44.82100 21.50300
H  2.73700 45.90500 19.69500
H  3.38300 44.30500 19.32500
H  4.31000 45.58900 20.26900
H  7.46600 44.18800 25.42900
H  7.16600 43.14200 24.14500
H  8.09500 42.59600 25.60900
H  5.06800 43.15900 29.92000
H  7.27000 40.44000 32.65100
H  5.60700 39.90100 32.71200
H  6.27400 41.40400 33.58300

