158

Mg 47.32600 15.67800 29.17800
C  44.98500 14.84000 31.83700
C  48.74800 17.85900 31.39000
C  49.17800 16.59800 26.62900
C  45.01600 13.96400 26.97600
N  46.84800 16.30100 31.41700
C  46.03600 15.60100 32.24600
C  46.28800 16.09800 33.72300
C  47.20600 17.34700 33.53000
C  47.69100 17.15500 32.04200
C  46.53800 18.67900 33.78900
C  46.84800 14.93600 34.66200
C  46.34000 14.89500 36.09300
H  47.47900 14.90600 37.16200
N  48.86500 17.01800 29.05600
C  49.27700 17.86300 30.02200
C  50.39500 18.64100 29.45200
C  50.56000 18.32700 28.14700
C  49.56500 17.29000 27.86900
C  51.10900 19.67000 30.40800
C  51.54300 18.81900 27.12600
O  51.58500 18.38100 25.97200
C  52.51900 19.93000 27.51700
N  47.11600 15.33500 27.14400
C  48.06100 15.82100 26.23100
C  47.62800 15.51100 24.78900
C  46.46500 14.51200 24.98700
C  46.17500 14.58400 26.47700
C  47.33400 16.59200 23.81100
C  46.59100 13.12600 24.39300
C  47.56900 12.09900 25.08400
N  45.37600 14.58100 29.32000
C  44.64400 13.87600 28.33500
C  43.51100 13.28000 28.97400
C  43.61200 13.67500 30.31100
C  44.73400 14.45300 30.48400
C  42.58000 12.40200 28.23600
C  42.91900 13.59500 31.59900
O  41.90200 12.99300 31.94400
C  43.77000 14.34100 32.62900
C  42.91000 15.45500 33.14000
O  42.69700 16.51300 32.63200
O  42.48700 15.12900 34.42800
C  41.82400 16.07400 35.24600
H  49.15300 18.55800 32.12500
H  49.82500 16.85200 25.78700
H  44.29700 13.66800 26.20800
H  45.24700 16.33700 33.94200
H  48.10800 17.28800 34.13900
H  46.56400 18.81300 34.87100
H  45.51500 18.79100 33.42900
H  47.10000 19.47100 33.29500
H  47.93300 15.01800 34.72600
H  46.59800 13.99100 34.18100
H  45.75700 13.98600 36.24100
H  45.70600 15.77500 36.20300
H  50.61300 19.69200 31.37900
H  51.12000 20.63400 29.89900
H  52.11000 19.30900 30.64600
H  53.25800 20.15800 26.74800
H  52.99900 19.63300 28.44900
H  51.95300 20.85400 27.63400
H  48.47500 15.00000 24.32900
H  45.57600 14.92600 24.51000
H  47.67500 17.54500 24.21500
H  46.27100 16.74700 23.62500
H  47.84300 16.51700 22.85000
H  46.96800 13.19900 23.37200
H  45.59300 12.68900 24.37300
H  47.14600 11.17300 25.47400
H  48.09000 12.60100 25.89900
H  48.36800 11.76900 24.42100
H  41.84000 11.99800 28.92700
H  43.12800 11.55100 27.83100
H  42.13400 12.96200 27.41400
H  44.08500 13.77400 33.50500
H  41.81400 15.58400 36.22000
H  40.82200 16.28200 34.87000
H  42.53700 16.89500 35.30900
Mg 25.39900 51.29300 26.22400
C  23.49600 52.57800 28.82800
C  27.78200 50.17700 28.53800
C  27.65400 50.83400 23.70500
C  23.22200 52.64500 23.95900
N  25.55300 51.36300 28.38800
C  24.63000 51.88600 29.27800
C  25.06000 51.63100 30.71600
C  26.49500 51.00900 30.56400
C  26.63100 50.86800 29.05200
C  27.73500 51.78400 31.18100
C  24.06100 50.77400 31.54600
C  23.72200 51.33700 32.90900
H  24.96800 51.45200 33.84100
N  27.38500 50.55900 26.15300
C  28.16600 50.07100 27.16400
C  29.19200 49.33400 26.67200
C  29.24700 49.60800 25.22000
C  28.03600 50.40600 24.97700
C  30.01300 48.38600 27.47500
C  30.16000 48.99900 24.18800
O  30.07100 49.20300 22.97200
C  31.14400 47.95000 24.58900
N  25.46500 51.80500 24.13500
C  26.48600 51.45000 23.31300
C  26.19700 51.86800 21.89200
C  24.71700 52.18500 21.95600
C  24.38200 52.17700 23.43700
C  26.98100 53.06500 21.23100
C  23.87400 51.33700 21.01300
C  23.13600 50.07500 21.63600
N  23.56900 52.31800 26.30000
C  22.83500 52.86800 25.35100
C  21.58700 53.53000 25.88300
C  21.77900 53.39100 27.26200
C  23.06300 52.74400 27.42400
C  20.49400 54.20800 25.14700
C  21.26100 53.68300 28.55200
O  20.29300 54.33000 28.92700
C  22.31200 53.22500 29.55400
C  22.67200 54.23700 30.48800
O  23.59500 55.04700 30.33200
O  21.75900 54.33300 31.46000
C  21.72000 55.64900 32.27000
H  28.57900 49.96400 29.25500
H  28.16300 50.46200 22.81300
H  22.52200 52.98900 23.19500
H  25.01400 52.58100 31.24800
H  26.58600 50.13500 31.20900
H  27.16100 52.61000 31.60100
H  28.43700 52.12400 30.42000
H  28.30600 51.12000 31.83000
H  24.48600 49.78100 31.69500
H  23.21400 50.49600 30.91900
H  22.90500 50.82200 33.41500
H  23.34200 52.34500 32.74000
H  31.05200 48.70900 27.53300
H  30.05300 47.34300 27.16400
H  29.74300 48.33000 28.53000
H  31.71000 48.25900 25.46800
H  31.82100 47.66300 23.78500
H  30.58900 47.05700 24.87700
H  26.38300 51.08100 21.16200
H  24.57200 53.24800 21.76200
H  27.79800 52.69000 20.61500
H  27.37800 53.69100 22.03000
H  26.45500 53.65700 20.48300
H  24.39300 51.04700 20.10000
H  23.08500 51.95500 20.58300
H  22.09100 50.31900 21.82700
H  23.64800 49.76500 22.54700
H  23.19600 49.20800 20.97700
H  20.45100 53.90900 24.09900
H  20.82500 55.24600 25.15600
H  19.46800 54.05000 25.47900
H  21.93900 52.40300 30.16600
H  21.98300 56.49300 31.63200
H  22.39200 55.50800 33.11600
H  20.72800 55.76200 32.70800

