158

Mg 47.36100 16.86100 27.83000
C  45.43000 16.83000 30.80400
C  49.85300 18.58400 29.61600
C  48.98800 17.20300 25.08100
C  44.57300 15.54900 26.12700
N  47.55900 17.67300 29.95100
C  46.62700 17.54500 30.95700
C  47.22100 18.14800 32.26700
C  48.46100 18.93700 31.71100
C  48.62500 18.35000 30.33400
C  48.29400 20.47800 31.75300
C  47.58200 16.94200 33.21200
C  47.16800 17.14400 34.65900
H  46.69900 18.54600 35.08000
N  49.16000 17.65100 27.39500
C  50.04700 18.22700 28.27200
C  51.25000 18.51200 27.55100
C  51.02700 18.24400 26.18500
C  49.73400 17.62100 26.17200
C  52.53200 19.04400 28.19500
C  51.93300 18.43100 24.96400
O  51.53000 18.10000 23.84900
C  53.30100 19.15800 24.99300
N  46.85200 16.34200 25.92800
C  47.75200 16.56000 24.94800
C  47.16000 16.21300 23.57600
C  45.78200 15.53400 24.02000
C  45.75100 15.74400 25.47100
C  47.04700 17.40000 22.53300
C  45.76800 13.96400 23.64200
C  44.79000 13.66200 22.47500
N  45.46600 16.22700 28.31200
C  44.41800 15.75100 27.50700
C  43.20100 15.60000 28.30600
C  43.58100 15.94800 29.59900
C  44.89900 16.34900 29.55900
C  41.79400 15.21900 27.79800
C  43.04900 16.14200 30.91400
O  41.91500 15.94200 31.29500
C  44.22100 16.75600 31.72200
C  43.80600 18.12100 32.21300
O  44.01000 19.17500 31.66900
O  43.19700 17.97900 33.37700
C  42.48600 19.13100 33.95300
H  50.62400 19.13600 30.15700
H  49.38900 17.20900 24.06600
H  43.75600 14.97600 25.68300
H  46.39100 18.73200 32.66300
H  49.33600 18.69600 32.31400
H  47.45300 20.78600 32.37400
H  48.26700 20.75600 30.70000
H  49.10400 21.08400 32.15900
H  48.65900 16.79300 33.13000
H  46.94600 16.14200 32.83300
H  47.90300 16.76500 35.36900
H  46.27200 16.56500 34.88500
H  53.44000 18.51900 27.89800
H  52.50100 18.89600 29.27400
H  52.62100 20.10400 27.95600
H  53.54400 19.16800 23.93100
H  54.04000 18.67500 25.63400
H  53.17500 20.16400 25.39200
H  47.86500 15.44400 23.26300
H  44.90000 16.03800 23.62600
H  46.03300 17.35500 22.13600
H  47.74300 17.11000 21.74600
H  47.37500 18.32500 23.00700
H  45.49400 13.36600 24.51100
H  46.77600 13.56000 23.53900
H  45.08500 14.18800 21.56700
H  43.81800 14.01100 22.82300
H  44.62300 12.58600 22.42100
H  41.63500 15.56200 26.77500
H  41.10500 15.77600 28.43300
H  41.48200 14.17700 27.85800
H  44.45900 16.10800 32.56600
H  42.25400 19.76300 33.09600
H  43.11400 19.53200 34.74800
H  41.53700 18.84400 34.40800
Mg -5.77800 24.52400 26.48000
C  -4.31500 25.97400 29.38100
C  -7.74900 22.73700 28.48300
C  -6.81300 22.95500 23.73800
C  -3.38900 26.24400 24.57700
N  -5.97800 24.31300 28.74200
C  -5.34200 25.02800 29.72800
C  -5.81400 24.58700 31.08400
C  -6.71500 23.38800 30.77900
C  -6.90100 23.45000 29.28600
C  -6.15800 22.05700 31.22500
C  -6.61300 25.84900 31.75900
C  -6.36500 26.15900 33.20800
H  -6.03100 24.98800 34.09800
N  -7.19400 23.22900 26.10300
C  -7.95300 22.64500 27.05200
C  -8.93400 21.73800 26.38100
C  -8.69200 21.83500 24.96800
C  -7.54600 22.68200 24.89000
C  -10.07200 21.11900 27.09500
C  -9.43000 21.18500 23.78800
O  -9.13800 21.35700 22.57800
C  -10.62800 20.27100 24.01200
N  -5.20000 24.60500 24.46400
C  -5.73900 23.84500 23.52900
C  -5.14100 24.03800 22.15100
C  -4.16200 25.18600 22.33300
C  -4.20700 25.30800 23.85400
C  -4.44800 22.70100 21.64900
C  -4.53500 26.61400 21.70100
C  -3.44400 27.27700 20.80300
N  -4.27600 26.02500 26.82000
C  -3.38000 26.55200 25.87400
C  -2.46400 27.47400 26.61900
C  -2.76100 27.22100 28.00200
C  -3.84500 26.29400 28.05500
C  -1.35700 28.31000 25.98200
C  -2.40200 27.45800 29.39600
O  -1.46900 28.08800 29.92600
C  -3.44000 26.77500 30.29800
C  -2.79100 26.03000 31.49900
O  -2.33900 24.86900 31.46700
O  -2.88500 26.81500 32.62200
C  -2.16500 26.24800 33.78900
H  -8.43300 22.17400 29.12200
H  -6.97600 22.61500 22.71300
H  -2.65700 26.76600 23.95700
H  -4.99200 24.26300 31.72200
H  -7.67100 23.51900 31.28600
H  -5.89300 21.33700 30.45100
H  -6.96400 21.50800 31.71400
H  -5.34900 22.14000 31.95100
H  -7.67500 25.66500 31.59500
H  -6.33800 26.67300 31.10100
H  -7.01600 26.90700 33.66000
H  -5.42400 26.70600 33.15800
H  -10.96200 21.52500 26.61400
H  -10.11200 21.44800 28.13300
H  -10.23000 20.05200 26.93900
H  -10.32600 19.37900 24.56100
H  -10.93900 19.92700 23.02600
H  -11.42200 20.73200 24.59900
H  -5.98500 24.41700 21.57400
H  -3.16100 24.90500 22.00500
H  -4.83800 21.89300 22.26800
H  -3.37300 22.62600 21.81100
H  -4.82100 22.41300 20.66600
H  -4.93200 27.28000 22.46700
H  -5.43900 26.40900 21.12800
H  -3.73300 27.61200 19.80600
H  -2.62200 26.61600 20.52600
H  -3.00500 28.03700 21.44900
H  -1.31800 29.27300 26.49000
H  -1.60600 28.42600 24.92700
H  -0.34700 27.90200 25.94500
H  -3.99700 27.61500 30.71300
H  -1.11200 26.15800 33.52300
H  -2.50200 25.23600 34.01300
H  -2.17100 27.02300 34.55600

