158

Mg -2.19800 17.40200 27.10000
C  -2.75700 15.24400 29.78600
C  -3.18500 20.04400 28.94500
C  -2.02500 19.38700 24.31100
C  -2.24600 14.54700 25.03600
N  -2.78900 17.52600 29.07200
C  -2.89700 16.58800 30.12600
C  -3.11100 17.23200 31.55200
C  -3.41700 18.71800 31.10500
C  -3.10700 18.79000 29.65100
C  -4.89500 19.14800 31.51500
C  -1.83700 17.14200 32.46000
C  -2.00100 17.78500 33.84700
H  -1.38100 17.07400 35.05700
N  -2.32700 19.45400 26.75100
C  -2.79500 20.37600 27.63400
C  -2.69700 21.70100 27.10300
C  -2.25700 21.54900 25.71100
C  -2.21400 20.09500 25.55100
C  -3.04600 22.95900 27.87100
C  -1.90600 22.62400 24.69700
O  -1.65800 22.37900 23.50500
C  -1.81300 23.98600 25.14500
N  -2.08100 17.02000 24.89800
C  -1.96200 17.97900 24.00800
C  -1.87100 17.39000 22.59800
C  -1.71200 15.83700 22.94400
C  -2.08700 15.75600 24.37000
C  -3.08200 17.67800 21.77300
C  -0.25500 15.32000 22.52900
C  0.93600 15.85300 23.35500
N  -2.28600 15.36400 27.32700
C  -2.27600 14.37000 26.39500
C  -2.50500 13.14000 27.04000
C  -2.70100 13.41100 28.41300
C  -2.55200 14.74300 28.49300
C  -2.70300 11.72400 26.35800
C  -2.93900 12.84300 29.71000
O  -3.11900 11.69000 30.01500
C  -3.02400 14.06200 30.71100
C  -2.05100 13.72000 31.75300
O  -0.82600 13.59900 31.60400
O  -2.81200 13.52200 32.91900
C  -2.08400 12.81700 33.92900
H  -3.42000 20.80100 29.69600
H  -1.86900 20.02700 23.44000
H  -2.36500 13.71000 24.34400
H  -3.98700 16.74900 31.98600
H  -2.75800 19.42900 31.60400
H  -5.34700 18.23000 31.89100
H  -5.44700 19.56300 30.67200
H  -4.85600 19.92500 32.27800
H  -1.08900 17.65900 31.86000
H  -1.57000 16.09400 32.59700
H  -3.07100 17.69800 34.03500
H  -1.69500 18.83100 33.84300
H  -3.52600 22.82500 28.84100
H  -3.73000 23.48300 27.20400
H  -2.16900 23.57000 28.08400
H  -0.95200 24.00000 25.81300
H  -2.71500 24.33500 25.64800
H  -1.62500 24.58900 24.25700
H  -0.94400 17.72800 22.13400
H  -2.43300 15.17700 22.46200
H  -3.98800 17.86700 22.34900
H  -3.38300 17.00700 20.96800
H  -2.70400 18.55700 21.25100
H  -0.18200 15.63900 21.48900
H  -0.21200 14.23200 22.59200
H  0.57600 16.31200 24.27600
H  1.47700 16.61900 22.79900
H  1.61800 15.01900 23.52200
H  -2.45500 10.89500 27.02200
H  -1.88200 11.81400 25.64600
H  -3.72800 11.58500 26.01600
H  -4.07000 14.01100 31.01200
H  -1.55600 11.96000 33.51100
H  -2.82200 12.46000 34.64800
H  -1.36900 13.49500 34.39500
Mg 53.78200 23.78900 44.05900
C  50.97500 25.79300 43.54400
C  51.89500 20.99900 43.37100
C  56.58400 22.02100 44.11600
C  55.68600 26.80300 44.47600
N  51.64500 23.51900 43.28400
C  50.71200 24.45600 43.29500
C  49.36600 23.81100 43.23300
C  49.59200 22.26500 43.28600
C  51.14100 22.21800 43.29700
C  48.95700 21.49500 44.50100
C  48.46400 24.25400 42.02200
C  49.18100 24.65500 40.74300
H  48.92200 23.87800 39.41100
N  54.19300 21.81300 43.64500
C  53.29300 20.81900 43.50500
C  53.94600 19.60100 43.51000
C  55.35600 19.84100 43.48100
C  55.45400 21.31700 43.74400
C  53.22000 18.25800 43.54800
C  56.46300 18.86900 43.30700
O  56.18900 17.68800 43.11700
C  57.90100 19.16400 43.34500
N  55.86500 24.43600 43.92500
C  56.74100 23.42900 44.18800
C  58.15400 24.02100 44.49600
C  57.95800 25.57600 44.39600
C  56.41600 25.65900 44.22400
C  58.80000 23.50100 45.83100
C  58.55500 26.33900 43.15800
C  60.11300 26.26500 43.12900
N  53.47300 25.92000 43.96000
C  54.28600 26.95700 44.33400
C  53.47700 28.07800 44.68200
C  52.18500 27.69900 44.32500
C  52.20900 26.35000 43.91500
C  53.85900 29.37400 45.17100
C  50.90000 28.20400 44.25200
O  50.44800 29.30800 44.61900
C  50.00900 27.05800 43.59000
C  49.53600 27.51300 42.25900
O  50.23900 27.63300 41.28800
O  48.23100 27.81200 42.35200
C  47.73100 28.65500 41.22700
H  51.32400 20.06800 43.34600
H  57.44800 21.44800 44.45600
H  56.23400 27.62900 44.93300
H  48.89000 24.19000 44.13800
H  49.17600 21.71600 42.44100
H  48.29500 20.77800 44.01400
H  48.41700 22.13000 45.20300
H  49.68900 20.95400 45.10000
H  47.70100 24.96100 42.34700
H  47.86500 23.34800 41.92900
H  50.25300 24.52800 40.89400
H  48.88600 25.68500 40.54100
H  52.83700 17.99000 42.56300
H  52.32700 18.37700 44.16100
H  53.92400 17.52100 43.93500
H  58.42700 18.45700 42.70400
H  58.17200 19.16500 44.40100
H  58.02600 20.14200 42.88000
H  58.87400 23.67200 43.75600
H  58.19900 25.97600 45.38100
H  58.08100 23.11000 46.55100
H  59.44700 24.19500 46.36700
H  59.43000 22.63600 45.62100
H  58.21200 27.33000 43.45600
H  57.96000 26.14100 42.26600
H  60.35200 27.26000 43.50500
H  60.60400 26.04600 42.18100
H  60.42600 25.57400 43.91100
H  53.66500 30.18300 44.46700
H  54.93100 29.40700 45.36600
H  53.21500 29.50300 46.04100
H  49.16000 26.74600 44.19800
H  47.48500 27.98300 40.40500
H  48.49400 29.38900 40.96800
H  46.84900 29.18600 41.58800

