158

Mg 24.35100 -6.20100 45.42300
C  26.61600 -3.64200 44.31700
C  21.85700 -4.46500 43.85800
C  22.72500 -8.97900 45.69100
C  27.10600 -7.61500 47.01800
N  24.33200 -4.42000 43.99200
C  25.28300 -3.50100 43.80000
C  24.70200 -2.36800 42.88600
C  23.15000 -2.47500 43.02400
C  23.09400 -3.88700 43.72500
C  22.39700 -1.43800 43.87700
C  25.22400 -2.51200 41.40600
C  25.77100 -1.16100 40.73300
H  25.35100 -0.82100 39.27300
N  22.42800 -6.55500 45.05900
C  21.53800 -5.72700 44.44400
C  20.26700 -6.36700 44.41300
C  20.46200 -7.72500 44.79700
C  21.90800 -7.84700 45.28400
C  19.05700 -5.80600 43.79700
C  19.42900 -8.78000 44.72100
O  18.33600 -8.57100 44.24600
C  19.65300 -10.17900 45.25300
N  24.87300 -8.05400 46.21500
C  24.02500 -9.06000 46.20600
C  24.62500 -10.38200 46.78300
C  26.00400 -9.89700 47.36600
C  26.00400 -8.44600 46.86800
C  23.65100 -11.24100 47.63600
C  27.31800 -10.62500 46.80600
C  28.37600 -10.99300 47.83000
N  26.41900 -5.74300 45.67200
C  27.36600 -6.35600 46.40900
C  28.63500 -5.64700 46.28500
C  28.33900 -4.56800 45.48300
C  27.01900 -4.62300 45.11000
C  29.95500 -6.22800 46.79900
C  28.97700 -3.39000 44.91100
O  30.06300 -2.96900 45.05500
C  27.81600 -2.72900 44.08700
C  27.53400 -1.31100 44.45400
O  27.05300 -0.88300 45.45600
O  27.82900 -0.49600 43.42000
C  27.63400 0.94500 43.62900
H  20.93400 -3.95000 43.58200
H  22.16600 -9.90500 45.54100
H  27.96200 -8.13700 47.45000
H  24.97900 -1.34000 43.12400
H  22.67900 -2.58200 42.04700
H  23.09800 -0.67900 44.22400
H  22.01300 -1.91000 44.78100
H  21.55500 -0.92100 43.41600
H  24.38600 -2.76000 40.75300
H  25.94400 -3.32200 41.29000
H  26.82300 -1.43600 40.65300
H  25.59000 -0.34100 41.42900
H  18.17400 -6.37200 44.09300
H  19.25400 -5.84200 42.72600
H  18.92000 -4.76200 44.08000
H  18.76000 -10.77800 45.07700
H  19.92100 -10.12300 46.30800
H  20.42300 -10.63900 44.63400
H  24.76100 -11.02900 45.91700
H  25.93700 -9.96900 48.45100
H  24.12100 -11.57800 48.56000
H  23.22800 -12.08600 47.09300
H  22.83500 -10.56200 47.88200
H  27.67900 -10.22600 45.85800
H  26.84300 -11.56600 46.52900
H  28.54500 -12.06900 47.79800
H  28.10100 -10.69000 48.84000
H  29.33100 -10.57600 47.50900
H  30.71500 -5.45800 46.93100
H  30.23400 -7.10400 46.21400
H  29.83500 -6.51700 47.84300
H  28.03100 -2.69600 43.01900
H  27.78400 1.46600 42.68400
H  28.33200 1.42200 44.31700
H  26.68200 1.36200 43.95700
Mg 46.94500 25.25700 29.04800
C  47.79900 27.49700 31.74600
C  45.77400 23.04700 31.39400
C  46.96300 22.87300 26.73200
C  49.20300 27.13600 27.02600
N  46.72400 25.35200 31.25300
C  47.16700 26.27700 32.10500
C  46.77100 25.91900 33.57800
C  46.30600 24.42000 33.42400
C  46.16100 24.27100 31.93100
C  47.26000 23.35600 34.04600
C  45.60500 26.93500 34.15400
C  45.92300 27.48300 35.57700
H  46.27700 26.52900 36.74100
N  46.25600 23.35900 29.00500
C  45.79300 22.57400 30.05000
C  45.43900 21.29500 29.53700
C  45.58900 21.31200 28.11200
C  46.33500 22.50600 27.94200
C  44.93900 20.16500 30.40200
C  45.25500 20.28900 27.01300
O  45.40500 20.42500 25.76000
C  44.46700 19.07200 27.50700
N  47.92200 25.04100 27.15300
C  47.66200 24.05300 26.32200
C  48.40600 24.24400 24.97000
C  48.93900 25.68800 24.97200
C  48.65700 25.99700 26.44700
C  49.39000 23.14100 24.72100
C  48.46600 26.66900 23.90400
C  49.52600 27.49700 23.22400
N  48.17800 27.00800 29.19600
C  48.90200 27.64800 28.31100
C  49.38000 28.93900 28.89000
C  48.89600 28.89800 30.20100
C  48.21600 27.69000 30.39800
C  50.12100 29.95600 28.18100
C  49.00300 29.60400 31.48600
O  49.47400 30.68900 31.84600
C  48.28200 28.67200 32.54700
C  49.18500 28.41900 33.64800
O  49.95300 27.44800 33.64300
O  49.17700 29.35700 34.62900
C  50.14000 29.14200 35.73000
H  45.38000 22.27400 32.05800
H  46.99700 22.18600 25.88400
H  49.86900 27.75900 26.42400
H  47.64400 25.95500 34.22900
H  45.31200 24.31300 33.85700
H  47.47600 22.58700 33.30400
H  46.82400 22.88800 34.92800
H  48.22400 23.75600 34.36200
H  44.66200 26.38900 34.17200
H  45.47800 27.78000 33.47700
H  44.96900 27.93000 35.85500
H  46.67900 28.26000 35.46000
H  45.47300 19.22500 30.26600
H  43.92600 19.96900 30.05000
H  44.88700 20.36600 31.47200
H  43.45400 19.42800 27.69500
H  44.85000 18.66600 28.44300
H  44.49600 18.26500 26.77500
H  47.64100 24.15900 24.19800
H  50.02300 25.80400 24.97000
H  49.79000 22.66500 25.61700
H  50.24600 23.48700 24.14100
H  48.89500 22.36300 24.14000
H  47.72000 27.29100 24.39900
H  47.93100 26.13100 23.12200
H  49.24500 27.90800 22.25400
H  50.48200 26.99400 23.08000
H  49.69300 28.46100 23.70500
H  49.54600 30.10900 27.26800
H  51.10300 29.55000 27.93900
H  50.10100 30.88800 28.74700
H  47.39200 29.14700 32.96000
H  49.74000 28.39800 36.41900
H  50.36800 30.08200 36.23200
H  51.11800 28.72900 35.48400

