158

Mg 26.05600 -0.25400 29.56600
C  28.19500 -0.52700 32.37400
C  23.53100 0.32300 31.70400
C  24.15100 -0.11200 26.89300
C  28.72000 -1.52100 27.62300
N  25.90900 -0.16600 31.77500
C  26.91200 -0.11600 32.68800
C  26.43900 0.33800 34.08100
C  24.90200 0.41200 33.91500
C  24.76200 0.21900 32.37000
C  24.05800 -0.65200 34.71800
C  27.14300 1.67800 34.45300
C  28.07300 1.56300 35.71600
H  27.88900 2.57900 36.87400
N  24.08900 0.11100 29.33300
C  23.16100 0.32900 30.31400
C  21.88500 0.57300 29.74700
C  21.97600 0.40000 28.36300
C  23.43600 0.10000 28.09200
C  20.69800 1.02800 30.62100
C  20.89300 0.44100 27.25600
O  21.17800 0.12500 26.08900
C  19.59900 1.09400 27.54000
N  26.41300 -0.66000 27.51500
C  25.46800 -0.45800 26.63100
C  26.00500 -0.69500 25.12300
C  27.44200 -1.12100 25.41400
C  27.59500 -1.11600 26.90500
C  25.13400 -1.69400 24.19600
C  28.52400 -0.26000 24.66200
C  28.56500 1.26800 24.86900
N  28.04100 -0.84500 29.89000
C  28.98100 -1.33500 29.01200
C  30.28600 -1.49500 29.69700
C  30.00400 -1.12700 31.03300
C  28.63900 -0.82900 31.07300
C  31.52300 -1.94700 29.10700
C  30.58200 -0.96400 32.35600
O  31.65400 -1.25400 32.82100
C  29.47000 -0.57600 33.24900
C  29.41200 -1.58100 34.31900
O  28.88000 -2.67300 34.25700
O  30.09800 -1.17100 35.43200
C  30.23600 -2.01800 36.64500
H  22.74200 0.58100 32.41400
H  23.47800 -0.00600 26.04000
H  29.63800 -1.71700 27.06600
H  26.76800 -0.40400 34.80800
H  24.55100 1.34800 34.35000
H  24.64700 -1.05700 35.54100
H  23.70900 -1.48800 34.11200
H  23.13000 -0.22300 35.09600
H  26.42700 2.48200 34.62500
H  27.75900 2.03200 33.62700
H  29.10200 1.70900 35.39000
H  28.07400 0.50900 35.99100
H  20.45200 2.07000 30.42000
H  20.88300 1.07700 31.69400
H  19.86700 0.35800 30.39500
H  19.55200 2.10200 27.95200
H  19.01300 0.45000 28.19600
H  19.05000 1.17500 26.60200
H  25.98900 0.25200 24.58200
H  27.60900 -2.15100 25.09800
H  24.21100 -1.84900 24.75500
H  25.58000 -2.67300 24.02500
H  24.80200 -1.22500 23.26900
H  28.22300 -0.26000 23.61400
H  29.48700 -0.72200 24.88000
H  27.87000 1.63400 25.62500
H  28.15000 1.75400 23.98600
H  29.61200 1.56100 24.94400
H  32.33200 -1.64400 29.77100
H  31.55400 -1.60200 28.07300
H  31.56500 -3.03600 29.14900
H  29.85100 0.40700 33.52500
H  29.64900 -1.53800 37.42700
H  31.25400 -2.08700 37.02900
H  29.95000 -3.05000 36.44400
Mg -10.28600 39.81200 42.12100
C  -9.36400 36.47700 41.56600
C  -7.30500 40.86800 41.05300
C  -11.70000 42.76500 41.89700
C  -13.66100 38.54200 42.97300
N  -8.52600 38.74700 41.52300
C  -8.39100 37.44700 41.29700
C  -7.03000 37.21400 40.46600
C  -6.25800 38.50600 40.74000
C  -7.40300 39.47200 41.13700
C  -5.14500 38.44600 41.90700
C  -7.23400 37.04200 38.93200
C  -6.65500 35.78900 38.25700
H  -5.62800 36.12800 37.16700
N  -9.52400 41.59500 41.74600
C  -8.28000 41.87200 41.20300
C  -8.13100 43.28900 40.95300
C  -9.46700 43.83600 41.13500
C  -10.31800 42.76000 41.62600
C  -6.81000 43.89300 40.46600
C  -9.82000 45.29600 40.80700
O  -8.88000 46.06300 40.67700
C  -11.19500 45.82900 40.76200
N  -12.43900 40.48900 42.35100
C  -12.63600 41.81200 42.24800
C  -14.12800 42.18700 42.60700
C  -14.76000 40.76200 42.96800
C  -13.50700 39.87100 42.90800
C  -14.44900 43.32700 43.68800
C  -15.92200 40.30600 42.05000
C  -17.18500 39.82200 42.78900
N  -11.31900 37.87800 42.34400
C  -12.63100 37.56200 42.74400
C  -12.72800 36.08400 42.70300
C  -11.46600 35.60000 42.29400
C  -10.63700 36.74000 42.14400
C  -14.01800 35.27400 42.94900
C  -10.70400 34.41900 41.90700
O  -10.98300 33.24700 42.05800
C  -9.30800 34.96100 41.41700
C  -8.27300 34.34900 42.33800
O  -8.23500 34.34200 43.52900
O  -7.22400 33.91900 41.53300
C  -5.90600 33.59700 42.19500
H  -6.29700 41.21300 40.81300
H  -12.23300 43.71700 41.92400
H  -14.65300 38.12500 43.16000
H  -6.45400 36.34900 40.79400
H  -5.75100 38.98500 39.90300
H  -5.29900 39.27200 42.60200
H  -4.14400 38.49000 41.47800
H  -5.16600 37.52200 42.48400
H  -7.00900 37.88500 38.28000
H  -8.32100 36.98000 38.89200
H  -7.50000 35.31400 37.75900
H  -6.19300 35.04600 38.90600
H  -6.02700 43.86400 41.22200
H  -6.87600 44.92300 40.11400
H  -6.41100 43.26400 39.67000
H  -11.89400 45.05600 40.44600
H  -11.16700 46.61400 40.00600
H  -11.46900 46.16800 41.76200
H  -14.44400 42.50800 41.61500
H  -15.06900 40.92000 44.00100
H  -14.99100 44.15000 43.22100
H  -13.49300 43.68100 44.07300
H  -15.10500 43.05400 44.51500
H  -15.45100 39.57600 41.39300
H  -16.24600 41.06000 41.33200
H  -18.09600 40.22200 42.34400
H  -17.14700 39.85600 43.87800
H  -17.24000 38.74700 42.61800
H  -14.60000 35.23500 42.02800
H  -14.59500 35.49700 43.84700
H  -13.69400 34.24200 43.08100
H  -9.12600 34.61400 40.39900
H  -5.93900 32.77300 42.90800
H  -5.46500 34.47200 42.67200
H  -5.25800 33.13400 41.45000

