158

Mg -11.21900 38.36700 42.42200
C  -9.22700 35.67500 41.27100
C  -8.97300 40.44700 40.76700
C  -13.51500 40.78700 42.59000
C  -13.68300 35.98000 43.15300
N  -9.43800 38.09900 41.01700
C  -8.76800 36.92000 40.80400
C  -7.49800 37.07800 39.91700
C  -7.30400 38.64100 39.88400
C  -8.61200 39.11900 40.62900
C  -5.99800 39.22500 40.53500
C  -7.58600 36.42300 38.45100
C  -6.55600 35.26400 38.06000
H  -5.36400 35.46500 37.07300
N  -11.19200 40.36300 42.00400
C  -10.15500 41.03500 41.36000
C  -10.43200 42.42700 41.41200
C  -11.76800 42.55700 41.91300
C  -12.23600 41.21900 42.15900
C  -9.50600 43.56500 40.96400
C  -12.51500 43.86600 42.09100
O  -12.02700 44.93300 41.77000
C  -13.82900 43.93000 42.80700
N  -13.31500 38.39600 42.89300
C  -14.04200 39.53200 42.89400
C  -15.47200 39.36900 43.04500
C  -15.49900 37.80800 43.35900
C  -14.12000 37.36200 43.14400
C  -16.15100 40.27100 44.20900
C  -16.58700 37.05000 42.61600
C  -16.32400 36.48900 41.20000
N  -11.35800 36.29500 42.49600
C  -12.36100 35.47900 42.86500
C  -11.90900 34.12400 43.00300
C  -10.69700 34.15100 42.34900
C  -10.41800 35.48400 42.00600
C  -12.77100 33.08600 43.68700
C  -9.60400 33.28700 41.90900
O  -9.42600 32.11900 42.01500
C  -8.59300 34.23300 41.09400
C  -7.15600 34.12700 41.61800
O  -6.37400 33.35600 41.03000
O  -6.93000 34.89700 42.69500
C  -5.58500 34.77800 43.25900
H  -8.29600 41.11300 40.22700
H  -14.35600 41.48300 42.58600
H  -14.49900 35.28700 43.36900
H  -6.63800 36.70600 40.47300
H  -7.39900 38.99600 38.85700
H  -5.29900 38.40700 40.71000
H  -6.24400 39.62400 41.51900
H  -5.54100 40.02500 39.95300
H  -7.44700 37.15400 37.65400
H  -8.56700 35.95500 38.36700
H  -7.17200 34.44000 37.70100
H  -5.97300 35.01400 38.94700
H  -9.60200 43.69800 39.88700
H  -8.46400 43.26500 41.08000
H  -9.59700 44.53900 41.44600
H  -13.90800 43.40000 43.75600
H  -14.62000 43.56400 42.15200
H  -14.07400 44.98500 42.92900
H  -15.98700 39.52900 42.09800
H  -15.57800 37.58100 44.42200
H  -15.34400 40.60600 44.86000
H  -16.86900 39.62000 44.70900
H  -16.62300 41.10700 43.69200
H  -17.53500 37.54300 42.83100
H  -16.74900 36.07600 43.07700
H  -15.73800 35.57100 41.23000
H  -15.70600 37.22900 40.69300
H  -17.30900 36.26700 40.79000
H  -13.77400 33.28700 43.30900
H  -12.76900 33.02200 44.77500
H  -12.48100 32.13700 43.23700
H  -8.51300 33.97100 40.03900
H  -4.75900 34.77500 42.54800
H  -5.59000 33.92300 43.93500
H  -5.30600 35.56800 43.95700
Mg -11.62000 16.49900 42.61600
C  -8.45100 15.08300 41.79800
C  -10.38600 19.51400 41.20400
C  -14.71600 17.54700 42.35500
C  -12.79800 13.23000 43.10100
N  -9.60200 17.20300 41.62300
C  -8.48000 16.45500 41.48400
C  -7.26300 17.36300 41.07000
C  -7.93700 18.75000 40.88700
C  -9.43600 18.47700 41.24200
C  -7.33900 19.96900 41.69000
C  -6.61800 16.78800 39.78600
C  -5.16800 16.51100 39.82800
H  -4.59100 15.39100 38.86300
N  -12.40000 18.34200 42.08600
C  -11.75800 19.48400 41.56300
C  -12.72800 20.53700 41.47400
C  -13.97400 20.00400 41.84900
C  -13.71500 18.59200 42.15600
C  -12.28800 21.90800 41.02900
C  -15.25500 20.71600 41.80600
O  -15.27200 21.96600 41.66000
C  -16.62200 20.09100 42.07300
N  -13.42900 15.44400 42.50100
C  -14.61300 16.14200 42.52400
C  -15.88500 15.23800 42.51500
C  -15.22600 13.88100 42.99400
C  -13.71100 14.20100 42.83200
C  -17.09500 15.78000 43.39300
C  -15.61300 12.60000 42.14900
C  -16.08300 11.42700 43.08500
N  -10.82100 14.58700 42.57800
C  -11.43100 13.36900 42.84800
C  -10.44100 12.39600 42.92400
C  -9.21600 13.04700 42.54900
C  -9.55400 14.37900 42.21700
C  -10.67600 11.04700 43.36600
C  -7.81600 12.81400 42.35800
O  -7.22300 11.78200 42.46600
C  -7.23800 14.15600 41.88600
C  -6.36100 14.59100 42.96700
O  -6.71800 14.92900 44.04600
O  -5.05000 14.53200 42.57100
C  -4.08800 15.01300 43.63100
H  -10.05400 20.51500 40.92200
H  -15.75400 17.88400 42.32000
H  -13.11400 12.24000 43.43600
H  -6.57900 17.47900 41.91000
H  -7.87900 19.06700 39.84600
H  -7.28700 20.86600 41.07300
H  -6.34900 19.71200 42.06500
H  -7.96100 20.30100 42.52200
H  -6.81300 17.57200 39.05500
H  -7.18700 15.99800 39.29700
H  -4.88100 16.13500 40.81100
H  -4.63200 17.43900 39.63100
H  -12.33800 22.02500 39.94600
H  -11.26300 22.21700 41.23200
H  -12.93700 22.67200 41.45800
H  -16.64500 19.76900 43.11400
H  -16.70600 19.36300 41.26600
H  -17.36800 20.88500 42.06400
H  -16.13000 15.06000 41.46800
H  -15.46000 13.66400 44.03600
H  -16.87500 16.78000 43.76800
H  -17.28000 15.24700 44.32600
H  -18.03000 15.85600 42.83700
H  -14.81500 12.32500 41.45900
H  -16.48000 12.83700 41.53300
H  -16.49200 11.71700 44.05300
H  -15.31200 10.69700 43.33400
H  -16.93100 10.93300 42.61200
H  -9.83800 10.42000 43.67100
H  -11.24800 10.54200 42.58700
H  -11.32100 11.02900 44.24400
H  -6.69800 13.94700 40.96200
H  -4.46000 14.86000 44.64400
H  -4.01600 16.09200 43.49600
H  -3.12500 14.51900 43.50700

