158

Mg 25.00500 1.06000 29.67200
C  27.05600 1.08100 32.63200
C  22.22700 0.90500 31.65500
C  23.15900 0.69600 26.82000
C  27.96300 0.87600 27.76800
N  24.74200 0.91900 31.91600
C  25.68600 1.15400 32.87500
C  24.95300 1.25400 34.28900
C  23.41000 1.04500 33.87600
C  23.46200 0.98200 32.39200
C  22.56500 -0.13000 34.52000
C  25.27000 2.55200 35.07900
C  25.49600 2.38300 36.57200
H  24.86300 3.49800 37.48900
N  22.96300 0.99300 29.31300
C  21.97500 0.91100 30.25300
C  20.71500 0.76900 29.53500
C  21.02800 0.79200 28.15000
C  22.44400 0.83800 28.03200
C  19.34500 0.73200 30.21300
C  19.95600 0.68000 27.06400
O  20.15700 0.87000 25.92500
C  18.48500 0.26400 27.41700
N  25.51500 0.80900 27.65000
C  24.56200 0.69300 26.60600
C  25.22900 0.67000 25.23400
C  26.67900 1.00600 25.54900
C  26.71200 0.80900 27.09000
C  24.91400 -0.40200 24.23900
C  27.02000 2.42900 25.05500
C  26.59100 3.65200 25.95300
N  27.01500 0.80700 30.09400
C  28.09700 0.64900 29.20200
C  29.33000 0.45100 29.92200
C  28.98000 0.62900 31.20300
C  27.55000 0.84500 31.31700
C  30.72000 0.23400 29.43700
C  29.51600 0.70100 32.56600
O  30.70200 0.65600 32.92100
C  28.24800 1.09600 33.54900
C  28.10300 0.09000 34.55000
O  27.42700 -0.93000 34.46800
O  28.69300 0.46800 35.74500
C  28.84500 -0.54200 36.82700
H  21.33600 0.94200 32.28500
H  22.59900 0.48500 25.90700
H  28.83800 0.90100 27.11500
H  25.21500 0.39100 34.90200
H  22.84400 1.94900 34.10200
H  23.21100 -0.46900 35.33000
H  22.37000 -0.94100 33.81900
H  21.63500 0.25200 34.94300
H  24.39600 3.16800 34.86500
H  26.04700 3.23400 34.73400
H  26.58000 2.43700 36.67400
H  25.28600 1.36600 36.90200
H  18.69800 1.44700 29.70500
H  19.51200 1.10300 31.22400
H  18.88700 -0.25700 30.22100
H  18.50300 -0.59700 28.08600
H  18.04200 -0.01100 26.46000
H  17.90800 1.10900 27.79200
H  24.68200 1.52300 24.83400
H  27.40800 0.25500 25.24700
H  24.23100 -1.12700 24.68100
H  25.87100 -0.89100 24.05800
H  24.61400 -0.04100 23.25500
H  26.69900 2.54500 24.02000
H  28.10700 2.35900 25.09600
H  27.11200 3.50100 26.89800
H  25.51600 3.49100 26.04300
H  26.79900 4.58100 25.42300
H  31.38200 0.84300 30.05300
H  30.88700 0.50100 28.39300
H  31.08900 -0.78400 29.55600
H  28.38900 2.07500 34.00700
H  29.15700 -1.51200 36.44200
H  27.89300 -0.77400 37.30400
H  29.47300 -0.24900 37.66800
Mg 6.09300 54.84800 42.03400
C  3.07500 52.89400 41.60700
C  7.81800 52.28800 40.55600
C  8.44800 56.87900 41.47000
C  3.87700 57.40100 42.97800
N  5.47900 52.92600 41.04300
C  4.25200 52.31400 41.06400
C  4.36800 50.88800 40.48400
C  5.89800 50.62800 40.48700
C  6.46500 52.00500 40.76700
C  6.41700 49.57100 41.53400
C  3.78600 50.91200 38.99000
C  3.23800 49.58100 38.41200
H  3.98000 48.84400 37.31100
N  7.91100 54.64900 41.11700
C  8.48400 53.50000 40.70100
C  9.89500 53.71700 40.37500
C  10.08000 55.15000 40.47400
C  8.84100 55.64200 40.99600
C  10.69200 52.65100 39.79700
C  11.41500 55.94700 40.12700
O  12.40200 55.32400 39.70900
C  11.40500 57.45900 40.14400
N  6.06200 56.85300 42.03900
C  7.25500 57.40800 42.00800
C  7.30100 58.74100 42.82200
C  5.79800 59.07700 43.00000
C  5.17400 57.70300 42.69900
C  8.06500 58.68200 44.15600
C  5.13100 60.19100 42.08700
C  4.40000 61.32500 42.86300
N  3.90800 55.09400 42.40500
C  3.22300 56.15600 42.89100
C  1.77400 55.81000 43.09500
C  1.70500 54.51900 42.57500
C  3.00500 54.13100 42.20400
C  0.71400 56.68600 43.67400
C  0.74900 53.42700 42.35600
O  -0.44000 53.32200 42.66300
C  1.70200 52.23000 41.83600
C  1.01700 51.48800 40.77100
O  0.57800 51.92600 39.69000
O  0.77500 50.24700 41.28000
C  -0.01800 49.37900 40.45600
H  8.36100 51.40000 40.22700
H  9.33800 57.42400 41.79100
H  3.23700 58.21700 43.32100
H  3.94100 50.16400 41.17800
H  6.27500 50.33900 39.50600
H  7.06900 48.86200 41.02400
H  5.58700 49.06800 42.02900
H  7.09400 49.95300 42.29900
H  4.53700 51.32400 38.31600
H  2.94400 51.60400 39.00700
H  2.20300 49.69800 38.09100
H  3.35500 48.84500 39.20800
H  11.71400 53.01700 39.69900
H  10.32900 52.44700 38.79000
H  10.56400 51.76400 40.41700
H  10.50100 57.83600 39.66500
H  12.22000 57.90800 39.57600
H  11.33400 57.71000 41.20200
H  7.70300 59.51100 42.16400
H  5.61500 59.45900 44.00500
H  9.00900 59.20000 43.99000
H  8.42500 57.73000 44.54500
H  7.40700 59.11200 44.91100
H  4.39900 59.77400 41.39500
H  5.97700 60.57900 41.52200
H  4.38400 61.14800 43.93800
H  3.33000 61.39200 42.66400
H  4.80600 62.31900 42.67400
H  1.17300 57.15600 44.54400
H  -0.12900 56.02000 43.85800
H  0.32700 57.43600 42.98400
H  1.80100 51.61800 42.73200
H  -0.36300 49.70900 39.47600
H  -0.94900 49.12600 40.96400
H  0.51800 48.43700 40.34000

