158

Mg 35.46700 48.84100 24.85700
C  35.57800 47.04200 27.80400
C  34.36000 51.45400 26.64700
C  35.16000 50.40900 21.99300
C  36.23600 45.89100 23.10000
N  35.14800 49.21900 26.94700
C  35.24200 48.41100 27.96200
C  34.91200 49.06000 29.31200
C  34.24400 50.39600 28.91600
C  34.62300 50.37800 27.40800
C  32.74900 50.67800 29.08800
C  36.28100 49.16900 30.09500
C  36.14200 48.96600 31.62600
H  34.71000 48.86100 32.19800
N  34.85000 50.67800 24.36400
C  34.36700 51.58700 25.29600
C  33.93100 52.76100 24.50900
C  34.19300 52.50400 23.15900
C  34.73000 51.15800 23.12100
C  33.32600 53.98600 25.11900
C  33.85300 53.34800 21.95000
O  34.13800 52.97200 20.83600
C  33.08600 54.72900 22.08500
N  35.64400 48.16100 22.80400
C  35.42600 49.07400 21.81200
C  35.43500 48.39500 20.43200
C  36.03800 46.99600 20.78500
C  35.95500 47.00500 22.36000
C  33.93000 48.38200 19.96900
C  37.42800 46.83900 20.16900
C  38.59100 47.58800 20.81800
N  35.85400 46.83200 25.32700
C  36.13000 45.76200 24.53400
C  36.33800 44.58600 25.36100
C  36.16500 45.04600 26.65100
C  35.89200 46.42800 26.56600
C  36.79200 43.29800 25.01400
C  36.26300 44.75000 28.06800
O  36.57800 43.69100 28.62900
C  35.77700 45.96100 28.90300
C  34.56500 45.55400 29.65200
O  33.40700 45.64000 29.25600
O  34.87800 45.12500 30.91600
C  33.69000 44.51200 31.56000
H  34.08500 52.38000 27.15700
H  34.99900 50.89500 21.02800
H  36.64800 45.07900 22.49700
H  34.13200 48.42800 29.73600
H  34.72000 51.16400 29.52700
H  32.24900 49.81100 29.52000
H  32.14300 50.82500 28.19400
H  32.57500 51.48400 29.80100
H  36.65600 50.17300 29.89600
H  37.02200 48.48100 29.68800
H  36.76700 49.77400 32.00600
H  36.68300 48.04200 31.83000
H  33.33900 53.86500 26.20200
H  32.30300 54.16600 24.79000
H  34.02500 54.79600 24.90700
H  32.06200 54.51400 22.39000
H  32.96100 55.16100 21.09300
H  33.70400 55.35700 22.72700
H  36.06900 48.94900 19.74000
H  35.44000 46.20700 20.33000
H  33.35300 47.49200 20.21900
H  33.88100 48.52700 18.89000
H  33.34000 49.09300 20.54700
H  37.35200 46.94100 19.08600
H  37.61600 45.76800 20.22900
H  38.26600 48.34200 21.53600
H  39.20200 48.13800 20.10200
H  39.26900 46.98500 21.42100
H  36.02200 42.65700 24.58500
H  37.19800 42.83900 25.91500
H  37.62600 43.56300 24.36400
H  36.60700 46.11600 29.59200
H  32.97400 43.93100 30.97800
H  33.06800 45.34000 31.89900
H  33.96100 44.13200 32.54500
Mg 7.31500 53.39400 41.04800
C  6.99700 49.78500 40.72700
C  10.55500 53.03800 40.44200
C  7.41300 56.62400 40.95600
C  3.72100 53.52500 41.20900
N  8.54100 51.47900 40.65500
C  8.28000 50.16400 40.55000
C  9.58400 49.34700 40.49100
C  10.76200 50.42000 40.67700
C  9.93500 51.77500 40.59100
C  11.68800 50.15500 41.96200
C  9.68800 48.39300 39.22800
C  9.64100 49.13200 37.84600
H  8.39800 48.80600 36.99200
N  8.81300 54.68300 40.69200
C  10.10400 54.36400 40.35200
C  10.84200 55.54900 40.08500
C  9.99400 56.63100 40.38800
C  8.67700 56.06100 40.70300
C  12.29700 55.63600 39.71900
C  10.34400 58.16900 40.32500
O  11.47800 58.52300 39.92200
C  9.47400 59.21100 41.05200
N  5.79400 54.87200 41.00000
C  6.08300 56.13100 41.04500
C  4.79500 57.04300 41.20100
C  3.63100 56.03500 41.24900
C  4.41600 54.73300 41.10000
C  4.86700 57.99600 42.41100
C  2.54400 56.26500 40.25100
C  1.46500 57.28500 40.60200
N  5.68100 52.00200 41.03300
C  4.29500 52.20700 41.21200
C  3.64400 50.92500 41.41000
C  4.67800 50.01200 41.25400
C  5.88600 50.67000 40.91500
C  2.22300 50.74300 41.62100
C  4.93900 48.63000 41.34100
O  4.19600 47.74000 41.76500
C  6.41100 48.41700 40.87500
C  6.29600 47.62600 39.68200
O  5.97100 48.02900 38.57100
O  6.52700 46.32400 40.08900
C  6.37100 45.34000 38.99600
H  11.62300 52.85000 40.31700
H  7.31300 57.71200 40.94500
H  2.64400 53.51000 41.38700
H  9.51800 48.61900 41.29900
H  11.44800 50.36400 39.83200
H  11.27000 49.36800 42.58900
H  11.40000 51.00800 42.57600
H  12.74400 50.01400 41.73100
H  8.76600 47.81100 39.19700
H  10.54400 47.75900 39.45600
H  10.52400 48.74400 37.33800
H  9.84000 50.20300 37.81700
H  12.71200 54.63500 39.83600
H  12.83300 56.39700 40.28500
H  12.35900 55.86700 38.65500
H  8.62800 59.43700 40.40300
H  10.08500 60.10600 41.17500
H  9.31300 58.84300 42.06600
H  4.90600 57.54400 40.23900
H  3.24500 56.06600 42.26800
H  5.46600 57.56000 43.21000
H  3.85500 58.19200 42.76700
H  5.26500 58.93100 42.01700
H  2.13100 55.31200 39.91900
H  2.88300 56.72100 39.32100
H  2.03400 57.98500 41.21400
H  0.69900 56.81100 41.21700
H  1.04700 57.81500 39.74600
H  1.71200 51.67300 41.87400
H  1.92400 49.88600 42.22400
H  1.89500 50.50200 40.61000
H  6.86500 47.87800 41.70700
H  6.65900 44.38500 39.43700
H  7.12100 45.63600 38.26200
H  5.38900 45.22700 38.53800

