158

Mg 48.19300 16.28700 28.88000
C  45.85200 16.29300 31.50600
C  50.29100 18.07600 30.86000
C  50.30600 16.57700 26.20300
C  45.64100 15.17500 26.80400
N  48.07600 16.97200 30.95400
C  47.10200 16.71400 31.87100
C  47.58500 17.10000 33.25500
C  48.87300 18.02100 32.95400
C  49.10000 17.64300 31.48800
C  48.60000 19.53000 33.22500
C  47.93400 15.80200 34.06500
C  47.78600 15.83400 35.57500
H  47.75200 17.26100 36.14900
N  50.09000 17.11100 28.60900
C  50.71500 17.85300 29.60600
C  52.00800 18.25300 29.04500
C  52.06400 17.80100 27.71200
C  50.71200 17.16500 27.42500
C  52.99100 19.09900 29.78300
C  53.21900 17.82300 26.68900
O  53.15600 17.43000 25.52900
C  54.47600 18.57000 27.03200
N  47.90800 16.17400 26.76100
C  48.96600 16.04400 25.95100
C  48.55400 15.43400 24.64800
C  47.03500 15.06100 24.76400
C  46.80100 15.58600 26.24800
C  48.89500 16.23400 23.40100
C  46.71000 13.57900 24.49900
C  46.87000 13.16800 23.08100
N  46.14600 15.87500 29.04900
C  45.24000 15.35700 28.12100
C  44.02700 14.94900 28.72700
C  44.24100 15.26200 30.11400
C  45.48200 15.91400 30.17900
C  42.94800 14.14600 28.26300
C  43.58000 15.24700 31.41700
O  42.40200 14.89400 31.70700
C  44.66000 15.88700 32.43400
C  44.08800 17.03300 33.11000
O  43.98900 18.16200 32.66600
O  43.64400 16.60100 34.37000
C  43.15900 17.59700 35.28300
H  50.88700 18.67800 31.54900
H  50.99800 16.59800 25.35800
H  44.87800 14.82000 26.10700
H  46.83200 17.62000 33.84800
H  49.62000 17.69600 33.67800
H  47.57000 19.62700 33.56600
H  48.65400 19.90800 32.20500
H  49.42900 19.90600 33.82500
H  49.01500 15.66200 34.05200
H  47.47000 14.88100 33.71200
H  48.70300 15.39100 35.96400
H  46.93400 15.28400 35.97300
H  53.30300 19.94500 29.17100
H  53.92200 18.53200 29.79100
H  52.85800 19.42100 30.81600
H  54.29100 19.61800 27.26500
H  55.09100 18.68000 26.13900
H  54.92000 17.99200 27.84300
H  49.07700 14.49100 24.48200
H  46.33500 15.62600 24.14900
H  48.65100 15.62100 22.53400
H  49.96900 16.39000 23.29700
H  48.42200 17.21300 23.32600
H  45.66200 13.38200 24.72500
H  47.26700 12.91200 25.15700
H  46.96200 14.02800 22.41800
H  46.03900 12.57900 22.69300
H  47.72300 12.49200 23.03600
H  43.24500 13.15400 27.92300
H  42.35300 14.54900 27.44300
H  42.25200 13.79400 29.02500
H  44.87100 15.01700 33.05700
H  42.44400 18.24500 34.77600
H  43.95000 18.28900 35.57400
H  42.68100 17.10800 36.13100
Mg -11.61600 37.89000 42.41800
C  -8.98300 35.59400 41.56700
C  -10.09100 40.20600 40.46100
C  -14.34700 39.88100 42.74700
C  -13.17400 35.37800 43.95700
N  -9.77900 37.80100 41.03800
C  -8.85500 36.86000 40.92500
C  -7.76000 37.30400 39.96900
C  -7.96300 38.86500 39.87700
C  -9.36800 39.03700 40.51100
C  -6.84800 39.77500 40.55300
C  -7.63300 36.45100 38.64700
C  -6.29900 35.72300 38.31900
H  -5.52200 36.22900 37.03800
N  -12.17100 39.77200 41.63600
C  -11.34200 40.64700 40.95200
C  -12.00300 41.87900 40.68900
C  -13.21300 41.84600 41.44500
C  -13.30900 40.47100 41.97800
C  -11.51600 42.96900 39.65100
C  -14.24000 42.96800 41.54700
O  -13.94700 44.08800 41.16200
C  -15.68800 42.84800 42.05900
N  -13.60300 37.67300 43.26800
C  -14.52900 38.62200 43.31400
C  -15.83100 38.00400 43.83900
C  -15.35600 36.64700 44.47700
C  -13.97800 36.49000 43.79900
C  -16.64400 38.98600 44.77500
C  -16.33200 35.41700 44.11600
C  -16.62800 34.33300 45.26300
N  -11.20600 35.86600 42.74000
C  -11.89000 34.97000 43.50100
C  -11.19100 33.71500 43.52900
C  -10.01800 33.97500 42.81700
C  -10.11000 35.22900 42.31400
C  -11.66800 32.39100 44.20400
C  -8.82500 33.37100 42.48000
O  -8.32000 32.31300 42.81800
C  -8.00400 34.37200 41.63700
C  -6.66200 34.68400 42.30600
O  -5.67800 33.93500 42.24500
O  -6.67200 35.67000 43.23900
C  -5.44700 35.95000 44.02600
H  -9.52100 40.98300 39.94800
H  -15.15200 40.56500 43.02600
H  -13.61900 34.56000 44.52700
H  -6.78800 37.26900 40.46000
H  -8.08100 39.19500 38.84400
H  -7.34000 40.28100 41.38300
H  -6.51900 40.54100 39.85000
H  -5.96700 39.17200 40.77400
H  -7.69700 37.17700 37.83700
H  -8.47400 35.76000 38.58700
H  -6.47300 34.65300 38.20600
H  -5.60900 35.80700 39.15800
H  -11.66400 43.93400 40.13600
H  -11.99200 42.91200 38.67200
H  -10.43600 42.86200 39.55300
H  -16.30900 43.72800 41.88800
H  -15.73400 42.57200 43.11200
H  -16.15200 42.07400 41.44700
H  -16.25300 37.67800 42.88900
H  -15.32800 36.71500 45.56400
H  -17.27100 38.39400 45.44100
H  -17.26600 39.49400 44.03700
H  -16.06900 39.76300 45.27900
H  -15.96700 34.90100 43.22800
H  -17.26500 35.90600 43.83300
H  -17.69100 34.10200 45.18700
H  -16.56600 34.84900 46.22100
H  -15.98500 33.46300 45.13200
H  -10.90500 31.66500 43.92200
H  -12.65200 32.12400 43.82100
H  -11.61400 32.57200 45.27700
H  -7.79700 33.97500 40.64400
H  -5.10000 36.93500 43.71400
H  -4.54900 35.36000 43.83800
H  -5.63000 36.08000 45.09200

