158

Mg 48.60300 45.10300 42.51600
C  45.24300 44.44200 42.29400
C  49.23900 41.72800 42.19000
C  51.88400 45.79500 42.50600
C  47.86500 48.52700 42.06800
N  47.35100 43.35200 42.46300
C  45.96600 43.28800 42.22100
C  45.50700 41.82700 42.00900
C  46.85100 40.98500 42.35600
C  47.85600 42.12200 42.40300
C  46.82200 40.08000 43.60200
C  44.97300 41.56900 40.53200
C  45.88700 42.21700 39.48000
H  45.69400 41.48800 38.04500
N  50.31900 43.95400 42.20600
C  50.34200 42.57800 42.20600
C  51.70600 42.15100 42.10600
C  52.52700 43.31300 42.23900
C  51.59800 44.42300 42.31900
C  52.15200 40.70900 41.94600
C  53.99300 43.32600 42.27900
O  54.60400 42.26800 42.27600
C  54.86700 44.56400 42.32500
N  49.72700 46.84000 42.04600
C  51.00100 46.89700 42.46000
C  51.52900 48.35900 42.56100
C  50.31000 49.13100 42.04100
C  49.22600 48.13600 42.10000
C  52.10800 48.73600 43.97700
C  50.45100 49.86300 40.69600
C  49.45600 50.96900 40.28900
N  46.96500 46.31800 42.38100
C  46.75400 47.68200 42.25300
C  45.32700 48.00600 42.33700
C  44.68200 46.70900 42.32700
C  45.70400 45.76300 42.36800
C  44.62000 49.34000 42.55500
C  43.43700 46.03500 42.27100
O  42.30800 46.52300 42.27000
C  43.68500 44.50000 42.28100
C  43.08800 43.98500 43.58600
O  42.24300 43.09000 43.55400
O  43.67800 44.61400 44.71400
C  42.99600 44.08200 45.93600
H  49.36300 40.64500 42.12100
H  52.90700 46.10600 42.72700
H  47.57800 49.57300 41.94200
H  44.71100 41.68500 42.74000
H  47.10200 40.33100 41.52100
H  45.80400 39.72300 43.76200
H  47.25100 40.61200 44.45000
H  47.44200 39.19600 43.45300
H  44.05400 42.15100 40.45300
H  44.88200 40.50200 40.32700
H  46.95600 42.14400 39.68000
H  45.64500 43.27200 39.35300
H  52.98900 40.46200 42.60000
H  52.50100 40.54800 40.92700
H  51.27400 40.09400 42.14400
H  54.66700 45.27600 41.52400
H  55.91300 44.31600 42.14700
H  54.69600 45.02700 43.29700
H  52.25000 48.48800 41.75400
H  50.23600 49.92900 42.77900
H  53.15300 49.01500 43.83400
H  52.00300 47.90500 44.67400
H  51.63200 49.55000 44.52200
H  50.50200 48.97800 40.06200
H  51.44200 50.31400 40.65400
H  49.06100 51.37700 41.21900
H  48.60700 50.64800 39.68500
H  49.97000 51.81000 39.82500
H  44.94200 49.67100 43.54200
H  43.53600 49.23900 42.51400
H  44.86400 50.20200 41.93400
H  43.10300 44.01500 41.49700
H  42.84600 43.00400 45.87700
H  42.11100 44.70900 46.04300
H  43.54200 44.20600 46.87200
Mg 17.14000 51.15000 25.80700
C  18.83200 49.68300 28.59100
C  14.67900 52.06700 27.98800
C  15.41500 52.21400 23.09900
C  19.52100 49.58300 23.68800
N  16.77200 50.79500 28.00100
C  17.62900 50.28400 28.94800
C  17.07400 50.58100 30.34900
C  15.61800 51.00600 30.10800
C  15.70400 51.33500 28.56600
C  14.60000 49.81700 30.38900
C  17.91600 51.57600 31.16100
C  18.42000 51.13000 32.51600
H  17.83300 51.88600 33.72600
N  15.26900 52.02500 25.54200
C  14.41800 52.37500 26.56800
C  13.28500 53.13000 25.97200
C  13.55200 53.21000 24.58800
C  14.77000 52.45500 24.34000
C  12.05900 53.40900 26.65000
C  12.70000 53.94500 23.50300
O  12.92200 53.98100 22.29100
C  11.51200 54.77200 23.93300
N  17.41800 50.79900 23.67500
C  16.58000 51.50200 22.76200
C  17.16400 51.17000 21.37700
C  18.46900 50.31200 21.58600
C  18.49300 50.25600 23.03200
C  16.22400 50.55900 20.42600
C  19.83300 50.80500 20.98400
C  20.12700 50.18300 19.60800
N  18.90200 49.98300 26.06900
C  19.77800 49.42100 25.09600
C  20.87000 48.65400 25.73500
C  20.53000 48.81500 27.10800
C  19.29000 49.50200 27.24100
C  22.04600 47.99300 25.04800
C  20.90600 48.44200 28.51100
O  21.77600 47.63800 28.89100
C  19.81300 49.09500 29.50400
C  19.20500 48.05700 30.37700
O  18.24400 47.30100 30.10700
O  19.83300 48.02500 31.56700
C  19.39200 47.03100 32.53500
H  13.90500 52.49600 28.62800
H  14.86300 52.56200 22.22400
H  20.25300 49.05900 23.06900
H  16.98200 49.59900 30.81200
H  15.31800 51.89200 30.66600
H  14.82100 49.27200 31.30700
H  14.67500 49.18700 29.50400
H  13.54400 50.08300 30.44000
H  17.37100 52.47800 31.43700
H  18.70000 51.98500 30.52300
H  19.47500 51.40200 32.49900
H  18.38500 50.04500 32.60900
H  11.17700 52.92000 26.23600
H  11.91900 54.48800 26.58700
H  12.15700 53.05200 27.67500
H  11.13900 55.33200 23.07600
H  11.88000 55.54200 24.61300
H  10.72100 54.10700 24.27900
H  17.42400 52.14800 20.97200
H  18.34500 49.25500 21.35200
H  16.57600 50.89700 19.45100
H  15.23300 50.91100 20.71300
H  16.27900 49.47900 20.56000
H  20.73800 50.58500 21.55100
H  19.87500 51.88700 20.86200
H  19.35800 49.48000 19.28800
H  21.11700 49.75700 19.45000
H  20.10700 51.03200 18.92500
H  22.57600 48.71200 24.42300
H  21.76600 47.19400 24.36300
H  22.71500 47.67400 25.84700
H  20.06900 49.87500 30.22100
H  19.73800 46.05200 32.20400
H  18.33000 47.08500 32.77500
H  19.89800 47.24200 33.47700

