158

Mg 47.75700 25.02500 28.21100
C  48.05600 27.25300 30.93300
C  45.93400 22.98500 30.26100
C  47.73000 22.88900 25.74200
C  49.32300 27.35900 26.24700
N  47.40700 24.95700 30.40000
C  47.41800 26.08300 31.24300
C  46.80500 25.68700 32.59200
C  46.37600 24.26200 32.38800
C  46.53400 24.06200 30.89400
C  47.25700 23.28900 33.04900
C  45.63200 26.54900 33.14700
C  45.69400 26.56400 34.65600
H  44.34500 26.46600 35.52100
N  46.97200 23.21600 28.02400
C  46.15200 22.56100 28.95200
C  45.61900 21.32000 28.36300
C  46.02500 21.32800 27.03100
C  46.95700 22.54900 26.87500
C  44.78400 20.30800 29.08300
C  45.58800 20.37800 25.86000
O  45.89900 20.51000 24.70500
C  44.59500 19.25500 26.18800
N  48.54800 25.05700 26.31500
C  48.43200 24.04800 25.40400
C  48.97500 24.36600 24.00100
C  49.47900 25.81100 24.14100
C  49.11700 26.08800 25.68900
C  49.95000 23.21800 23.54200
C  48.72700 26.81900 23.11200
C  47.24900 27.04200 23.38100
N  48.54600 26.96800 28.44600
C  49.10200 27.78600 27.52700
C  49.48600 29.07000 28.12000
C  49.06300 28.92000 29.46300
C  48.48700 27.60200 29.64100
C  50.08600 30.21800 27.31400
C  48.95100 29.55700 30.70700
O  49.20600 30.70700 31.06700
C  48.24900 28.47500 31.73800
C  49.03600 28.35800 33.00400
O  50.08600 27.84300 33.13900
O  48.36700 28.90300 34.02900
C  48.91300 28.44700 35.33200
H  45.17500 22.49900 30.87800
H  47.67600 22.15100 24.93900
H  49.79900 28.10800 25.61100
H  47.63000 25.85500 33.28400
H  45.31600 24.10100 32.58700
H  47.82400 23.79100 33.83400
H  47.87400 22.64700 32.42100
H  46.52800 22.64800 33.54300
H  44.64700 26.23400 32.80300
H  45.72200 27.59100 32.84300
H  46.07700 27.54600 34.93500
H  46.45400 25.91000 35.08200
H  43.70200 20.30100 28.95700
H  44.93900 20.45800 30.15100
H  45.26000 19.34500 28.89800
H  45.12600 18.60300 26.88200
H  44.44500 18.64800 25.29500
H  43.65100 19.58900 26.62000
H  48.21700 24.26600 23.22400
H  50.55700 25.77900 23.98700
H  50.89300 23.61600 23.16800
H  49.56300 22.68200 22.67500
H  50.29400 22.59700 24.36900
H  48.88000 26.27100 22.18200
H  49.27100 27.76000 23.19300
H  47.30100 28.05800 23.77200
H  46.64800 26.38800 24.01300
H  46.68900 27.10100 22.44800
H  49.29300 30.64400 26.69900
H  50.78500 29.87500 26.55100
H  50.44700 30.97400 28.01200
H  47.24500 28.87600 31.87400
H  48.46400 27.48600 35.58000
H  48.80800 29.18200 36.13100
H  49.99600 28.32600 35.35800
Mg -0.44900 42.43700 25.91500
C  2.09500 41.97900 28.17400
C  -2.73600 41.52500 28.48500
C  -2.92000 42.48800 23.60300
C  1.87200 42.76300 23.29300
N  -0.31500 41.90600 28.10300
C  0.82500 41.89300 28.80000
C  0.61100 41.71000 30.28600
C  -0.86600 41.29700 30.32900
C  -1.35200 41.61000 28.88200
C  -1.12500 39.80500 30.59200
C  0.79200 43.03900 31.06400
C  0.89700 42.96000 32.54800
H  0.36000 41.76100 33.21100
N  -2.53400 42.02900 26.06000
C  -3.31000 41.83200 27.24100
C  -4.70000 41.81400 26.79400
C  -4.75800 42.20300 25.42100
C  -3.34000 42.23300 24.93500
C  -5.81800 41.49000 27.78000
C  -6.03500 42.36800 24.51600
O  -5.91900 42.65500 23.27900
C  -7.45200 42.29400 25.11700
N  -0.51000 42.58000 23.73800
C  -1.65000 42.52300 23.01200
C  -1.45200 42.80300 21.47600
C  0.10900 43.06300 21.47400
C  0.53500 42.73000 22.91500
C  -1.98900 41.60400 20.71600
C  0.57700 44.53700 21.06900
C  -0.10400 45.73900 21.88700
N  1.54800 42.39200 25.75700
C  2.37000 42.52100 24.60500
C  3.72200 42.42100 25.02800
C  3.70900 42.17600 26.44500
C  2.35700 42.30100 26.78500
C  4.97700 42.59500 24.12300
C  4.48000 41.84400 27.62100
O  5.63900 41.56300 27.74100
C  3.51000 41.94000 28.82100
C  3.73600 40.75800 29.75100
O  3.23300 39.71600 29.65300
O  4.58700 41.12800 30.77700
C  4.84700 40.28800 31.94100
H  -3.33300 41.44500 29.39500
H  -3.61000 42.63500 22.77000
H  2.67900 42.82500 22.55900
H  1.19300 40.84400 30.59900
H  -1.46300 41.88000 31.03000
H  -1.74700 39.78500 31.48700
H  -0.19100 39.33200 30.89700
H  -1.75800 39.23900 29.90900
H  -0.12000 43.61500 30.90600
H  1.64400 43.45800 30.52800
H  0.49800 43.85300 33.03000
H  1.96900 42.96200 32.75000
H  -5.61800 40.92300 28.68900
H  -6.58800 40.90600 27.27600
H  -6.23200 42.44800 28.09300
H  -8.13900 42.79300 24.43400
H  -7.36000 42.92600 26.00000
H  -7.74800 41.25900 25.29000
H  -1.91500 43.67400 21.01200
H  0.63600 42.41700 20.77100
H  -2.88100 41.87700 20.15200
H  -2.14500 40.70500 21.31200
H  -1.26600 41.41300 19.92300
H  0.42400 44.66300 19.99800
H  1.63300 44.71200 21.27400
H  -0.71700 46.42400 21.30000
H  0.76300 46.27600 22.27200
H  -0.71500 45.28800 22.66900
H  4.92400 43.58800 23.67700
H  4.92600 41.90100 23.28400
H  5.92000 42.47100 24.65600
H  3.73000 42.89500 29.29900
H  4.43300 40.75800 32.83400
H  5.91900 40.09300 31.96500
H  4.43500 39.29000 31.79000

