158

Mg 24.40100 -5.30100 46.30200
C  26.51700 -2.98200 44.36800
C  21.81800 -4.49200 44.28700
C  23.03700 -8.15400 47.28700
C  27.47700 -6.28000 47.88600
N  24.27400 -4.09000 44.43100
C  25.16800 -3.07800 44.00800
C  24.53100 -2.34900 42.85800
C  23.02200 -2.47000 43.21000
C  22.99800 -3.73100 44.00800
C  22.37800 -1.28400 44.06300
C  24.93100 -2.82600 41.39500
C  25.57800 -1.72200 40.49100
H  25.43000 -1.83800 38.96500
N  22.59400 -6.07400 45.99300
C  21.62700 -5.62200 45.09900
C  20.52500 -6.58900 45.08100
C  20.82800 -7.61700 46.03700
C  22.17800 -7.30500 46.51000
C  19.41000 -6.59200 44.04500
C  19.98800 -8.84800 46.33300
O  18.87800 -8.97100 45.79100
C  20.35700 -9.91600 47.25900
N  25.17400 -6.96300 47.45900
C  24.36800 -7.99300 47.72600
C  24.98700 -8.94600 48.75600
C  26.33600 -8.22000 49.17000
C  26.33500 -7.07900 48.12300
C  24.05200 -9.53500 49.88000
C  27.58500 -9.20900 49.11200
C  28.58000 -9.08000 50.25700
N  26.53600 -4.67500 46.37200
C  27.57600 -5.17600 47.06800
C  28.77800 -4.36600 46.79700
C  28.38400 -3.53400 45.77400
C  27.05000 -3.77400 45.50900
C  30.13200 -4.56800 47.49900
C  28.74600 -2.41600 44.91100
O  29.76600 -1.78200 44.90500
C  27.64300 -2.11900 43.83900
C  27.39200 -0.67100 43.99800
O  27.17800 -0.03400 45.04000
O  27.49200 -0.07100 42.73600
C  27.27500 1.40900 42.74200
H  20.96700 -4.09400 43.72900
H  22.70000 -9.16200 47.53900
H  28.29700 -6.39200 48.59900
H  24.67000 -1.26800 42.84700
H  22.41700 -2.51200 42.30400
H  23.10400 -0.53200 44.36900
H  21.78700 -1.62800 44.91200
H  21.62900 -0.79400 43.44100
H  24.20700 -3.42300 40.84200
H  25.69100 -3.55100 41.68700
H  26.65100 -1.65800 40.67400
H  25.10900 -0.85200 40.95000
H  19.60100 -7.24900 43.19700
H  19.25100 -5.57300 43.69000
H  18.50100 -7.00300 44.48400
H  19.58800 -10.68700 47.29900
H  20.49800 -9.48900 48.25200
H  21.22700 -10.42300 46.84100
H  25.25300 -9.83800 48.18900
H  26.26500 -7.69200 50.12100
H  24.56600 -9.55100 50.84100
H  23.92300 -10.60600 49.72100
H  23.12600 -8.96100 49.92800
H  28.10100 -9.18000 48.15200
H  27.05000 -10.15500 49.20300
H  28.33300 -9.85800 50.97900
H  28.53200 -8.09600 50.72200
H  29.60000 -9.30600 49.94500
H  30.21000 -4.11200 48.48600
H  30.93200 -4.13700 46.89700
H  30.24800 -5.64500 47.61400
H  28.05300 -2.38800 42.86600
H  26.46100 1.58900 43.44400
H  27.04500 1.77800 41.74200
H  28.21500 1.88900 43.01200
Mg -4.03500 25.21900 25.52100
C  -2.98500 26.69100 28.63400
C  -6.06700 23.12200 27.41900
C  -4.88400 23.71600 22.78000
C  -1.55300 27.13600 23.88000
N  -4.44600 24.89100 27.89000
C  -3.95900 25.64800 28.92100
C  -4.37400 25.14300 30.26400
C  -5.40400 24.04300 29.88300
C  -5.25400 23.96000 28.33000
C  -5.18800 22.56900 30.43200
C  -5.11800 26.26400 31.07300
C  -5.38600 26.10100 32.58100
H  -4.90300 24.82300 33.33000
N  -5.39400 23.77600 25.11600
C  -6.15700 23.04400 26.01800
C  -7.15900 22.32500 25.24300
C  -6.71900 22.37800 23.86200
C  -5.65500 23.35000 23.88100
C  -8.38600 21.65100 25.82200
C  -7.33400 21.73400 22.62900
O  -7.10000 22.11000 21.50300
C  -8.26000 20.58500 22.82400
N  -3.26700 25.37300 23.67700
C  -3.78800 24.59700 22.67900
C  -3.00100 24.62000 21.40300
C  -2.00600 25.81600 21.68400
C  -2.24500 26.14900 23.16000
C  -2.26900 23.26800 21.15100
C  -2.27500 27.07100 20.86000
C  -1.17500 27.47700 19.83800
N  -2.57600 26.59600 26.05700
C  -1.67500 27.33100 25.29600
C  -0.93000 28.26100 26.13800
C  -1.33900 28.05200 27.41900
C  -2.34000 26.99300 27.39800
C  0.05500 29.29500 25.62300
C  -1.23200 28.56300 28.81000
O  -0.53100 29.43300 29.29800
C  -2.28500 27.67800 29.57000
C  -1.45100 27.10700 30.66500
O  -0.52100 26.29400 30.61100
O  -1.87400 27.60900 31.86300
C  -1.24500 27.04100 33.09100
H  -6.69100 22.34100 27.85900
H  -5.19400 23.33100 21.80700
H  -0.82700 27.74400 23.33600
H  -3.55900 24.80000 30.90000
H  -6.45100 24.33900 29.82000
H  -4.88900 21.80100 29.71900
H  -6.09500 22.23300 30.93500
H  -4.46000 22.67500 31.23600
H  -6.03100 26.57800 30.56500
H  -4.47600 27.14400 31.02500
H  -6.45600 26.13100 32.78500
H  -4.87800 26.98100 32.97800
H  -9.23200 21.82900 25.15700
H  -8.80000 22.19700 26.66900
H  -8.26500 20.59800 26.07700
H  -9.23400 21.04300 22.99400
H  -8.10200 19.90700 23.66300
H  -8.16600 19.98700 21.91700
H  -3.73900 24.90000 20.65200
H  -0.98500 25.47200 21.52000
H  -2.78800 22.46400 21.67300
H  -1.19100 23.28700 21.30700
H  -2.34000 22.89500 20.12900
H  -2.38600 27.93800 21.51100
H  -3.26400 27.05000 20.40200
H  -0.63800 28.32300 20.26800
H  -1.46700 27.74900 18.82400
H  -0.46900 26.65400 19.72000
H  0.51800 28.90000 24.71900
H  0.87900 29.43200 26.32400
H  -0.55300 30.09200 25.19400
H  -3.10000 28.24000 30.02700
H  -1.75700 27.45800 33.95800
H  -0.19500 27.32400 33.16500
H  -1.34100 25.95700 33.02000

