158

Mg 47.33900 15.83000 27.57800
C  45.59100 15.74100 30.49400
C  49.98400 17.34400 29.19000
C  48.77400 16.55800 24.64200
C  44.39800 14.76900 25.75100
N  47.64900 16.57600 29.56600
C  46.79600 16.37800 30.65000
C  47.49300 16.69200 32.02800
C  48.82000 17.36700 31.55500
C  48.88700 17.01200 29.99500
C  48.97800 18.87800 31.81200
C  47.68100 15.46200 32.86600
C  47.27800 15.64000 34.36600
H  47.20800 17.08400 35.01000
N  49.10800 16.76300 27.03700
C  50.15000 17.18100 27.81000
C  51.37700 17.43100 27.07500
C  50.91200 17.25100 25.74700
C  49.53600 16.70900 25.73200
C  52.68900 17.67500 27.70900
C  51.81100 17.44600 24.38400
O  51.31900 17.10000 23.26900
C  53.09800 17.99700 24.35400
N  46.59400 15.73700 25.55200
C  47.42400 16.19800 24.55800
C  46.62700 16.17400 23.27500
C  45.42400 15.31800 23.55700
C  45.48500 15.23300 25.05400
C  46.30300 17.70900 22.94700
C  45.40300 13.87500 23.01800
C  44.08600 13.44900 22.33100
N  45.36400 15.28600 27.97700
C  44.29800 14.82000 27.15800
C  43.21200 14.43500 28.01500
C  43.64500 14.74900 29.36800
C  44.98300 15.26900 29.22600
C  41.93700 13.62900 27.62700
C  43.30500 14.70100 30.76900
O  42.32900 14.28700 31.35200
C  44.54100 15.28700 31.52100
C  44.02100 16.42000 32.34900
O  43.76300 17.50000 31.94700
O  43.67800 15.95000 33.63100
C  42.68300 16.77000 34.31600
H  50.80300 17.79100 29.75800
H  49.14200 16.72300 23.62700
H  43.49600 14.45200 25.22300
H  46.87800 17.46600 32.48700
H  49.64100 16.77500 31.96000
H  49.10800 19.46100 30.90000
H  49.88500 19.04800 32.39200
H  48.16000 19.19500 32.45800
H  48.74400 15.22000 32.86600
H  47.12300 14.65600 32.38800
H  47.92200 14.98700 34.95600
H  46.27200 15.22200 34.39300
H  53.37500 16.90600 27.35400
H  52.51800 17.45200 28.76300
H  52.92600 18.72100 27.51900
H  53.04100 18.77300 23.59100
H  53.76500 17.19200 24.04700
H  53.40500 18.44300 25.30100
H  47.25400 15.70100 22.51900
H  44.53400 15.90700 23.33300
H  47.21000 18.20100 22.59700
H  45.97800 18.26800 23.82500
H  45.50900 17.69100 22.20100
H  45.71700 13.09200 23.70900
H  46.12800 13.61500 22.24700
H  43.35100 14.25300 22.36600
H  43.75000 12.47900 22.69700
H  44.27600 13.24000 21.27800
H  41.04700 14.24900 27.52200
H  41.64600 12.76000 28.21700
H  42.29400 13.20900 26.68700
H  44.96500 14.43600 32.05400
H  41.78800 16.99100 33.73400
H  43.15300 17.63700 34.78100
H  42.26100 16.16400 35.11800
Mg -11.81100 38.57900 40.76900
C  -9.55500 35.91200 40.27100
C  -9.37100 40.66900 39.18100
C  -13.99300 41.03900 40.43900
C  -14.15800 36.26200 41.85700
N  -9.63400 38.32400 39.87200
C  -8.97200 37.14100 39.75800
C  -7.73300 37.28100 38.88000
C  -7.46000 38.83000 39.03800
C  -8.91500 39.32800 39.37300
C  -6.28700 39.07100 39.99400
C  -7.96800 36.81000 37.45200
C  -6.95100 35.81600 36.90000
H  -6.02900 36.31200 35.74000
N  -11.68700 40.64500 39.95400
C  -10.65100 41.25000 39.38200
C  -10.98000 42.68600 39.19300
C  -12.29400 42.84400 39.56500
C  -12.74600 41.48700 40.02400
C  -10.15600 43.71200 38.49900
C  -13.19800 44.11200 39.40200
O  -12.76500 45.15200 38.87200
C  -14.60900 44.20700 39.86900
N  -13.78400 38.59800 40.88800
C  -14.49800 39.76700 40.83900
C  -15.89400 39.67500 41.50200
C  -15.90400 38.14000 41.93300
C  -14.54700 37.58900 41.57300
C  -15.99700 40.58700 42.65600
C  -17.06800 37.26800 41.29700
C  -18.21600 37.02200 42.24900
N  -11.87700 36.53400 41.15800
C  -12.90200 35.74500 41.61600
C  -12.35300 34.36700 41.89000
C  -11.07600 34.39000 41.29100
C  -10.81600 35.74100 40.90800
C  -12.97800 33.11000 42.62100
C  -9.84200 33.59200 40.91500
O  -9.61300 32.41200 41.11100
C  -8.88000 34.52900 40.18900
C  -7.62500 34.47100 40.85700
O  -6.63600 33.92800 40.34700
O  -7.70600 35.19100 42.02400
C  -6.64500 35.19800 43.03800
H  -8.58700 41.37700 38.90200
H  -14.83800 41.73100 40.41800
H  -14.96900 35.64400 42.24900
H  -6.93800 36.68000 39.32400
H  -7.23500 39.30300 38.08200
H  -5.52300 38.29700 39.92600
H  -6.71500 38.90400 40.98300
H  -5.84500 40.06700 39.99200
H  -8.04300 37.69800 36.82400
H  -8.97500 36.39300 37.42000
H  -7.36900 34.83000 36.69700
H  -6.24200 35.58900 37.69700
H  -10.43100 43.98700 37.48000
H  -9.12400 43.36200 38.52900
H  -10.07100 44.58200 39.15000
H  -14.64600 43.88500 40.91000
H  -15.24700 43.58300 39.24300
H  -15.08500 45.17800 39.72900
H  -16.60600 39.88300 40.70300
H  -15.93100 38.05400 43.02000
H  -16.53100 41.53100 42.55200
H  -14.99800 40.93600 42.91700
H  -16.45600 40.16400 43.54900
H  -16.69800 36.33500 40.87300
H  -17.52100 37.73700 40.42300
H  -18.19900 37.48800 43.23400
H  -18.26800 35.94500 42.40900
H  -19.14900 37.25400 41.73600
H  -12.58400 32.14100 42.31500
H  -14.06500 33.14100 42.55900
H  -12.74000 33.46100 43.62600
H  -8.84500 34.22600 39.14200
H  -5.93900 34.39800 42.81100
H  -7.17500 35.04000 43.97700
H  -6.11300 36.14600 43.10400

