158

Mg 1.48500 -1.84400 43.42800
C  4.82400 -0.79700 43.18800
C  0.66700 0.83000 41.50200
C  -1.62500 -3.04600 43.24100
C  2.57500 -4.80800 44.93800
N  2.65800 -0.10100 42.59400
C  3.98500 0.14100 42.59100
C  4.29000 1.37500 41.67000
C  2.87200 2.05300 41.59200
C  1.99400 0.80900 41.92000
C  2.63100 3.15600 42.65600
C  5.03300 1.13800 40.33900
C  6.18500 2.11600 40.15700
H  6.19000 2.86400 38.87300
N  -0.27400 -1.09900 42.48900
C  -0.43100 0.01800 41.73200
C  -1.84400 0.29000 41.45100
C  -2.51800 -0.88300 42.00100
C  -1.49400 -1.74600 42.64300
C  -2.41800 1.49100 40.74200
C  -3.92400 -1.02200 41.93900
O  -4.70900 -0.19200 41.48400
C  -4.58200 -2.16000 42.48900
N  0.60600 -3.67400 43.96500
C  -0.72100 -3.90300 43.88600
C  -1.14100 -5.27900 44.54200
C  0.14300 -5.80000 45.14400
C  1.18900 -4.70400 44.68700
C  -2.28400 -5.01400 45.56600
C  0.65300 -7.26500 44.70300
C  0.49100 -8.41300 45.79300
N  3.28100 -2.72900 43.84800
C  3.60600 -3.92500 44.48000
C  5.06400 -4.01700 44.76000
C  5.57400 -2.86500 44.13900
C  4.42600 -2.08700 43.76800
C  5.85900 -5.17500 45.35000
C  6.78200 -2.20900 43.81600
O  7.96500 -2.56200 43.94500
C  6.35800 -0.80400 43.16600
C  7.02700 0.35700 43.83700
O  6.99200 0.50700 45.04300
O  7.79400 1.05900 42.92600
C  8.55300 2.17200 43.54400
H  0.28900 1.67100 40.91600
H  -2.64200 -3.44600 43.23100
H  2.85000 -5.65400 45.57200
H  4.87700 2.06200 42.28000
H  2.70900 2.46600 40.59700
H  3.55200 3.58800 43.04600
H  2.15900 2.80700 43.57500
H  2.01200 3.86900 42.11100
H  4.36600 1.23600 39.48300
H  5.38900 0.11100 40.41700
H  7.17700 1.66300 40.15800
H  6.28200 2.83900 40.96600
H  -2.80700 2.16700 41.50300
H  -3.28300 1.20800 40.14100
H  -1.68900 2.04000 40.14700
H  -5.63800 -2.05200 42.24400
H  -4.38500 -2.25500 43.55700
H  -4.25100 -3.01000 41.89000
H  -1.46900 -5.94900 43.74800
H  0.16700 -5.74300 46.23200
H  -2.19400 -3.98600 45.91800
H  -2.09000 -5.70100 46.38900
H  -3.24800 -5.27200 45.12700
H  1.71400 -7.23800 44.45600
H  0.19700 -7.61200 43.77600
H  -0.35700 -8.97200 45.39700
H  0.16100 -7.97800 46.73700
H  1.40600 -8.99800 45.87700
H  6.78300 -5.38700 44.81400
H  5.26400 -6.08000 45.23000
H  6.06100 -5.06800 46.41600
H  6.68200 -0.82100 42.12500
H  7.95900 3.08500 43.51300
H  9.37100 2.23300 42.82600
H  8.95400 2.13100 44.55700
Mg 0.93300 43.54200 25.76700
C  3.08900 43.36500 28.43200
C  -1.68300 43.52700 28.02800
C  -1.04600 42.73900 23.32200
C  3.57600 43.96300 23.65700
N  0.73200 43.41900 27.97200
C  1.75700 43.31000 28.85000
C  1.29300 43.39200 30.29700
C  -0.30400 43.23700 30.16600
C  -0.38100 43.45300 28.64200
C  -0.94600 41.79900 30.50700
C  1.67900 44.66700 31.08300
C  1.76000 44.68200 32.65900
H  1.27100 43.46700 33.39200
N  -1.07000 43.31500 25.64300
C  -1.99600 43.38600 26.64100
C  -3.29700 43.16000 26.11400
C  -3.23700 42.77600 24.71400
C  -1.76600 42.92400 24.48300
C  -4.50100 43.12200 27.05800
C  -4.32800 42.22900 23.82400
O  -4.06700 41.79700 22.71700
C  -5.75000 42.06300 24.29500
N  1.22900 43.16300 23.67500
C  0.22400 42.89800 22.85900
C  0.81000 42.76800 21.40000
C  2.13000 43.66800 21.59900
C  2.35000 43.60700 23.07300
C  1.12100 41.24100 20.96800
C  2.02900 45.12000 21.23100
C  3.31000 45.72800 20.48100
N  2.92200 43.59000 25.95700
C  3.94300 43.85300 25.05100
C  5.26700 43.78900 25.65000
C  4.91400 43.49900 26.97500
C  3.57000 43.45500 27.11800
C  6.59800 43.89600 24.92900
C  5.49700 43.29800 28.26800
O  6.65000 43.10600 28.64900
C  4.25300 43.39200 29.31500
C  4.39000 42.17600 30.19500
O  4.06700 41.04700 29.82200
O  5.01000 42.43900 31.38400
C  5.07300 41.26900 32.24400
H  -2.43900 43.70200 28.79600
H  -1.67800 42.44000 22.48300
H  4.42800 44.19800 23.01600
H  1.83500 42.57400 30.77300
H  -0.86400 44.02000 30.67800
H  -1.56400 41.42900 29.68900
H  -1.63500 41.89200 31.34700
H  -0.08800 41.15600 30.70300
H  0.95100 45.45700 30.90000
H  2.68600 44.95600 30.78100
H  1.36300 45.60600 33.07800
H  2.79600 44.76100 32.98800
H  -5.24400 43.74000 26.55400
H  -4.36100 43.60100 28.02700
H  -4.89100 42.11100 27.17400
H  -5.79200 41.31000 25.08200
H  -6.27500 41.67800 23.42100
H  -6.10600 43.00900 24.70500
H  0.15400 43.23200 20.66400
H  2.91000 43.18400 21.01100
H  2.18700 41.11000 20.78300
H  0.48500 41.02600 20.10900
H  0.88700 40.52500 21.75600
H  1.65800 45.69900 22.07700
H  1.29100 45.21900 20.43600
H  3.24500 46.78900 20.72100
H  3.41500 45.49600 19.42100
H  4.19000 45.30200 20.96300
H  7.42100 43.56900 25.56500
H  6.69100 44.90700 24.53400
H  6.53900 43.27800 24.03300
H  4.50300 44.24000 29.95200
H  5.65600 40.54000 31.68200
H  4.04500 40.96100 32.43200
H  5.62500 41.61800 33.11700

