158

Mg 53.66700 24.55500 44.51500
C  51.17700 26.93400 43.73300
C  51.85800 22.18500 42.85000
C  56.42200 22.62800 44.60100
C  55.68500 27.33600 45.66400
N  51.70800 24.64800 43.23800
C  50.95300 25.68300 43.05200
C  49.65900 25.28400 42.31800
C  49.65600 23.63600 42.44000
C  51.16900 23.45100 42.84600
C  48.81600 23.00700 43.52700
C  49.51400 25.56900 40.79200
C  50.80400 26.00500 40.03000
H  50.52900 26.65200 38.68600
N  54.02100 22.67500 43.96500
C  53.17600 21.81400 43.32500
C  53.83000 20.52200 43.22500
C  55.06100 20.61800 43.81400
C  55.23600 22.03200 44.17600
C  53.09100 19.33700 42.56300
C  56.02200 19.44800 44.04300
O  55.75000 18.30100 43.77100
C  57.34000 19.71800 44.68100
N  55.73800 25.00300 44.96600
C  56.70200 23.96300 45.02500
C  58.09000 24.57400 45.35700
C  57.77400 26.05900 45.56900
C  56.28500 26.08600 45.39300
C  58.80600 23.78000 46.49300
C  58.49400 26.99800 44.48700
C  59.35800 27.99000 45.28300
N  53.44500 26.63600 44.79700
C  54.31300 27.60000 45.33500
C  53.57400 28.85500 45.51800
C  52.35300 28.69600 44.84700
C  52.32500 27.31000 44.46700
C  54.12700 29.98900 46.30300
C  51.07900 29.27400 44.45000
O  50.67400 30.35100 44.54900
C  50.21400 28.21600 43.77100
C  49.84000 28.70700 42.45300
O  50.57800 29.04400 41.51800
O  48.45200 28.75900 42.52400
C  47.90300 29.22200 41.22000
H  51.23000 21.38600 42.45100
H  57.36500 22.07700 44.59000
H  56.18600 28.15100 46.19100
H  48.83200 25.81800 42.78700
H  49.32000 23.12500 41.53800
H  48.24700 23.80000 44.01200
H  49.51000 22.58900 44.25600
H  48.16500 22.26100 43.06900
H  48.82900 26.41600 40.75400
H  49.00700 24.82800 40.17400
H  51.27100 25.02000 39.99700
H  51.31400 26.72800 40.66700
H  53.85500 18.98000 41.87300
H  52.17900 19.67300 42.06900
H  52.92600 18.59400 43.34300
H  57.95600 18.82300 44.76100
H  57.24900 20.05300 45.71500
H  57.86100 20.44800 44.06200
H  58.81800 24.51800 44.54800
H  58.08100 26.30500 46.58600
H  59.70200 23.38100 46.01600
H  58.11900 22.98500 46.78400
H  59.12800 24.30200 47.39400
H  57.83700 27.60200 43.86200
H  59.22100 26.55200 43.80800
H  59.80100 27.65800 46.22200
H  58.77500 28.84800 45.61700
H  60.20400 28.26400 44.65300
H  54.57400 30.78800 45.71100
H  54.82400 29.60500 47.04800
H  53.39100 30.56900 46.86000
H  49.27700 27.96400 44.26600
H  48.12500 30.28600 41.13700
H  46.82600 29.31300 41.36300
H  48.18800 28.48700 40.46700
Mg 49.04600 45.92900 43.04100
C  45.61600 46.23000 42.00100
C  49.00300 42.76600 41.72600
C  52.35300 46.05400 43.08500
C  48.90800 49.40200 43.62500
N  47.49000 44.68900 41.93400
C  46.17600 44.99100 41.66600
C  45.51900 43.73300 41.13500
C  46.51700 42.62000 41.35500
C  47.74800 43.37400 41.78300
C  46.14500 41.45400 42.32600
C  44.88300 43.80400 39.66000
C  45.94100 44.00700 38.48100
H  45.93300 42.98600 37.41800
N  50.52400 44.53500 42.67600
C  50.26500 43.30100 42.09600
C  51.56200 42.61300 42.10100
C  52.51800 43.44600 42.64900
C  51.81900 44.74000 42.85600
C  51.73400 41.21300 41.85600
C  54.04600 43.19700 42.73200
O  54.41800 42.14200 42.24400
C  54.97800 44.24100 43.28500
N  50.42600 47.60600 43.07700
C  51.73600 47.31500 43.18000
C  52.56500 48.66000 43.28000
C  51.42200 49.73100 43.67400
C  50.16200 48.89800 43.51600
C  53.86700 48.66800 44.14100
C  51.46200 51.06600 42.92700
C  52.40400 51.99600 43.54700
N  47.53500 47.49600 43.11700
C  47.63400 48.83500 43.39100
C  46.29500 49.50300 43.27400
C  45.48000 48.44500 42.69100
C  46.30200 47.27600 42.68200
C  45.91500 50.99000 43.34100
C  44.21100 48.19500 42.16900
O  43.32400 48.96100 41.88100
C  44.19800 46.74300 41.66300
C  43.09500 45.90900 42.18200
O  42.11200 45.49800 41.50800
O  43.22300 45.59400 43.50400
C  42.00300 44.92800 44.04400
H  49.04600 41.70600 41.46800
H  53.43500 46.12900 43.21900
H  48.90500 50.46500 43.87700
H  44.60500 43.58200 41.71000
H  46.85500 42.06300 40.48200
H  45.26900 41.64300 42.94600
H  46.83400 41.29100 43.15600
H  45.90800 40.54700 41.77100
H  44.05200 44.50800 39.71500
H  44.32200 42.88500 39.49100
H  46.90200 43.81800 38.95900
H  46.02900 45.02500 38.10100
H  52.44200 41.12400 41.03300
H  50.82500 40.67400 41.58800
H  52.17700 40.72600 42.72500
H  55.16300 45.01900 42.54400
H  55.90800 43.70200 43.46600
H  54.54500 44.67300 44.18600
H  52.84500 48.83900 42.24200
H  51.44300 49.96800 44.73800
H  53.82300 47.84900 44.85900
H  54.07200 49.56400 44.72700
H  54.70400 48.44500 43.48000
H  50.49600 51.57000 42.89800
H  51.75900 50.93200 41.88700
H  52.90800 51.50700 44.38000
H  51.90200 52.88600 43.92500
H  53.11300 52.35900 42.80200
H  44.94400 51.19200 42.88900
H  46.65100 51.61000 42.82900
H  45.85900 51.27200 44.39300
H  44.00100 46.78400 40.59200
H  42.18100 44.84900 45.11700
H  41.83100 43.93700 43.62300
H  41.05900 45.47200 44.07600

