158

Mg 47.32000 24.81700 27.66300
C  48.50400 26.86700 30.33800
C  46.64400 22.39700 29.99700
C  46.42700 22.81000 25.11100
C  48.37900 27.29600 25.35200
N  47.54700 24.68300 29.86100
C  47.90100 25.64900 30.75900
C  47.87900 25.19500 32.25200
C  47.44700 23.69600 32.03800
C  47.11000 23.59700 30.55000
C  48.46800 22.66300 32.48100
C  46.88500 26.11600 33.13400
C  47.15100 25.99100 34.63200
H  46.42000 26.86200 35.68600
N  46.61200 22.86000 27.58800
C  46.41200 22.02600 28.69800
C  45.90000 20.75100 28.18200
C  45.94200 20.82800 26.74700
C  46.32900 22.18000 26.39100
C  45.69300 19.56700 29.05300
C  45.78400 19.68600 25.80800
O  45.99200 19.68100 24.59700
C  45.17400 18.40300 26.35600
N  47.60000 24.92900 25.53000
C  46.95900 24.07900 24.65900
C  46.78800 24.61100 23.23700
C  47.38500 26.06900 23.34500
C  47.71800 26.15900 24.85200
C  47.46500 23.79000 22.05800
C  46.56300 27.27100 22.81400
C  47.14300 27.92900 21.55400
N  48.28900 26.63800 27.77100
C  48.76600 27.49300 26.73800
C  49.45700 28.61900 27.33900
C  49.26500 28.46400 28.70000
C  48.64100 27.19000 28.95900
C  50.08900 29.76200 26.65600
C  49.58800 29.08500 29.95800
O  50.17200 30.16100 30.19000
C  49.10400 28.05400 31.06400
C  50.09500 27.71700 32.06700
O  51.06200 26.99300 31.84800
O  49.85200 28.35600 33.24300
C  50.75600 28.22000 34.41200
H  46.32100 21.72500 30.79500
H  46.02700 22.17600 24.31700
H  48.56500 28.11500 24.65400
H  48.88000 25.34300 32.65800
H  46.58400 23.53900 32.68400
H  47.94900 21.90700 33.07000
H  49.21900 23.05500 33.16700
H  49.05500 22.20600 31.68500
H  45.83500 25.88400 32.95300
H  47.01700 27.17800 32.92800
H  48.22500 25.93000 34.81200
H  46.82300 24.99200 34.91800
H  44.65800 19.23000 28.99600
H  45.82900 19.76300 30.11600
H  46.43700 18.82900 28.75200
H  45.81300 18.01200 27.14800
H  45.21000 17.71800 25.50900
H  44.16300 18.56400 26.72900
H  45.78800 24.76100 22.83000
H  48.36100 26.02500 22.86000
H  48.30300 24.31700 21.60100
H  46.81500 23.67700 21.19100
H  47.79800 22.83700 22.47000
H  46.48000 28.10100 23.51600
H  45.56400 26.96700 22.50100
H  47.51700 28.95300 21.57700
H  46.26400 28.12300 20.93900
H  47.78500 27.32000 20.91800
H  49.56500 30.70500 26.80900
H  50.22500 29.59200 25.58800
H  51.13000 29.93400 26.93000
H  48.27800 28.62500 31.49000
H  51.25700 29.11300 34.78800
H  51.47200 27.40800 34.28700
H  50.09600 28.13500 35.27500
Mg 4.65700 54.86200 39.82700
C  4.57400 51.31400 40.26200
C  7.59100 54.41100 38.24800
C  4.28200 57.87800 38.74700
C  1.51700 54.81300 41.52400
N  5.87000 53.05400 39.31600
C  5.66900 51.71700 39.56100
C  6.81100 50.86700 39.12600
C  7.95200 52.01500 38.90700
C  7.08000 53.27200 38.79100
C  9.11200 52.21700 39.98900
C  6.58700 50.00500 37.83200
C  5.89400 50.70900 36.65100
H  6.75300 51.04100 35.44500
N  5.88700 56.07900 38.79300
C  7.06200 55.78800 38.17000
C  7.56700 56.93900 37.45200
C  6.62000 57.96400 37.61600
C  5.52900 57.39400 38.40800
C  8.86400 56.94300 36.69700
C  6.70000 59.38800 36.97000
O  7.55900 59.64100 36.12200
C  5.85100 60.50100 37.40100
N  3.10300 56.11100 40.08800
C  3.32200 57.40700 39.67200
C  2.15400 58.30100 40.22100
C  1.18400 57.30600 40.90600
C  1.97500 56.02000 40.86500
C  2.65400 59.53600 41.07100
C  -0.26700 57.23000 40.48000
C  -1.38200 57.45700 41.52400
N  3.33700 53.41000 40.79600
C  2.15200 53.55900 41.45900
C  1.73200 52.29500 42.03200
C  2.60100 51.34200 41.59000
C  3.59300 52.11700 40.87800
C  0.53500 52.13200 42.88500
C  2.89000 49.93300 41.51700
O  2.28200 49.01700 41.98500
C  4.19900 49.85700 40.76500
C  4.04200 48.89000 39.71900
O  3.42000 49.01900 38.67900
O  4.61900 47.68600 40.09400
C  4.42400 46.54600 39.20400
H  8.46400 54.21700 37.62200
H  4.10300 58.88100 38.35200
H  0.70500 54.79400 42.25500
H  7.09600 50.19600 39.93500
H  8.51600 51.77900 38.00400
H  9.19300 51.33500 40.62400
H  8.82900 53.05200 40.62900
H  10.02700 52.42800 39.43600
H  5.97700 49.12800 38.04800
H  7.54800 49.58800 37.53200
H  5.59900 51.71300 36.95500
H  5.07000 50.07200 36.32700
H  8.76300 57.02300 35.61500
H  9.36100 56.02600 37.01300
H  9.35200 57.76000 37.22800
H  4.94100 60.53200 36.80300
H  6.32200 61.43100 37.08100
H  5.71000 60.59200 38.47800
H  1.70700 58.76300 39.34000
H  1.18500 57.56900 41.96400
H  2.50400 60.47600 40.54000
H  3.71600 59.33400 41.20600
H  2.27200 59.59300 42.09000
H  -0.30900 56.23400 40.04000
H  -0.51900 57.93600 39.68800
H  -1.89100 58.38000 41.24700
H  -1.03500 57.60000 42.54700
H  -2.06300 56.60800 41.59300
H  0.85000 52.44500 43.88000
H  0.16700 51.11700 43.03100
H  -0.32800 52.71500 42.56200
H  4.99200 49.47800 41.40900
H  5.05900 46.41100 38.32900
H  3.45500 46.47300 38.71100
H  4.65300 45.62900 39.74800

