158

Mg 46.44100 17.65300 28.31300
C  44.96300 16.92500 31.49300
C  48.90400 19.36800 29.89100
C  47.69400 18.20700 25.38900
C  43.81900 15.78000 26.83600
N  46.79200 18.09500 30.36300
C  46.08500 17.69600 31.45600
C  46.82800 18.04400 32.76400
C  47.83300 19.12100 32.25800
C  47.86900 18.85400 30.68100
C  47.36000 20.53600 32.47300
C  47.42100 16.82400 33.46700
C  47.56100 16.86400 35.01800
H  47.26200 18.14700 35.79400
N  48.11200 18.64300 27.71700
C  49.08400 19.26500 28.51700
C  50.17100 19.73500 27.65700
C  49.79000 19.48100 26.33300
C  48.49300 18.71700 26.44400
C  51.40600 20.30700 28.19300
C  50.50200 19.88700 24.99200
O  49.99100 19.73700 23.92200
C  51.86600 20.63000 25.04200
N  45.89800 16.92500 26.44700
C  46.52000 17.50600 25.37300
C  45.80200 17.24300 24.03500
C  44.44300 16.49800 24.46200
C  44.72200 16.35800 25.99500
C  45.70900 18.54200 23.24100
C  44.14500 15.09700 23.83500
C  44.20700 15.10900 22.26600
N  44.71300 16.59600 29.00000
C  43.75000 15.90200 28.21700
C  42.73200 15.34300 29.11800
C  43.21100 15.77100 30.44300
C  44.39500 16.49500 30.28800
C  41.65100 14.33900 28.72000
C  42.92600 15.64800 31.87000
O  42.02700 15.05000 32.48800
C  44.06600 16.40800 32.60400
C  43.48300 17.47000 33.38900
O  43.13200 18.52900 32.86000
O  43.45300 17.15700 34.66000
C  42.95700 18.14900 35.60100
H  49.52400 20.08500 30.43200
H  48.06500 18.44100 24.38900
H  43.01600 15.33300 26.24600
H  46.14500 18.59700 33.40900
H  48.82000 19.02200 32.71100
H  48.19500 21.19700 32.24300
H  47.04600 20.52700 33.51700
H  46.51500 20.73000 31.81200
H  48.41400 16.58800 33.08500
H  46.75800 15.99400 33.22300
H  48.59000 16.55200 35.19900
H  46.97500 16.02300 35.39000
H  51.27500 20.71800 29.19400
H  51.80000 21.09400 27.55000
H  52.19800 19.57300 28.34100
H  51.78900 21.62900 25.47100
H  52.16400 20.66700 23.99400
H  52.63700 20.06800 25.56900
H  46.48200 16.56100 23.52500
H  43.62600 17.21900 24.42900
H  45.88400 19.33600 23.96700
H  44.71600 18.72200 22.83000
H  46.37300 18.53200 22.37600
H  43.11400 14.87000 24.10900
H  44.86500 14.35700 24.18400
H  44.54800 16.12100 22.05000
H  43.29600 14.78500 21.76300
H  45.06100 14.55800 21.87300
H  40.72300 14.87900 28.53200
H  41.59900 13.71400 29.61200
H  41.94300 13.71300 27.87700
H  44.67300 15.70900 33.17900
H  42.07200 17.68900 36.04100
H  42.75700 19.16200 35.25100
H  43.67900 18.39400 36.38000
Mg -2.26600 34.11900 25.96700
C  -4.18100 32.91600 28.77100
C  -1.18000 36.62900 28.12500
C  -1.02300 35.55600 23.29600
C  -4.03700 31.79900 23.98100
N  -2.75600 34.70900 28.24900
C  -3.32000 33.92700 29.16400
C  -2.88500 34.35700 30.56900
C  -2.14400 35.72000 30.33700
C  -1.89100 35.63700 28.81900
C  -2.73900 37.02900 30.77500
C  -1.98000 33.27300 31.25300
C  -2.50700 32.75100 32.60800
H  -2.80200 33.77900 33.65200
N  -1.15400 35.87000 25.73000
C  -0.87400 36.75000 26.68800
C  -0.13600 37.83100 26.06200
C  -0.11600 37.55300 24.68000
C  -0.73200 36.28500 24.48100
C  0.45800 38.94300 26.90700
C  0.53300 38.30500 23.56500
O  0.69600 37.86900 22.44800
C  1.10900 39.67000 23.79400
N  -2.52100 33.73200 23.96800
C  -1.78600 34.42500 23.04400
C  -2.02900 33.87300 21.60500
C  -2.76000 32.52900 21.88100
C  -3.14100 32.68600 23.34700
C  -2.82700 34.80000 20.69500
C  -1.96200 31.22800 21.57500
C  -0.43400 31.05600 21.84900
N  -3.77300 32.66100 26.24900
C  -4.34600 31.79500 25.35500
C  -5.33900 31.01500 25.99900
C  -5.18100 31.35400 27.32700
C  -4.31700 32.41000 27.45600
C  -6.35700 30.11400 25.40400
C  -5.69900 31.04700 28.67600
O  -6.56000 30.18100 29.06200
C  -4.94900 31.95800 29.62900
C  -5.93000 32.63200 30.56000
O  -6.38100 33.72600 30.45400
O  -6.11800 31.87700 31.70800
C  -7.00300 32.47800 32.67100
H  -0.79700 37.27400 28.91900
H  -0.61700 36.03000 22.40000
H  -4.62000 31.08500 23.39500
H  -3.70400 34.62600 31.23600
H  -1.14800 35.70900 30.77800
H  -2.99200 37.84300 30.09500
H  -2.10700 37.22700 31.64100
H  -3.75600 36.86600 31.13200
H  -0.94500 33.61500 31.29200
H  -2.00900 32.34000 30.69000
H  -1.62900 32.22100 32.97700
H  -3.37000 32.09500 32.49300
H  0.09700 39.92000 26.58600
H  1.54300 38.99600 26.81700
H  0.24400 38.84200 27.97100
H  1.67300 39.51700 24.71300
H  0.25800 40.35100 23.78100
H  1.77400 39.85200 22.95000
H  -1.10100 33.54400 21.13700
H  -3.73900 32.44500 21.41000
H  -3.25100 35.66600 21.20400
H  -3.71700 34.41100 20.20000
H  -2.21100 35.28400 19.93700
H  -1.89200 31.18000 20.48800
H  -2.66000 30.45000 21.88300
H  -0.16900 30.20600 22.47700
H  -0.10500 31.94700 22.38300
H  0.14700 31.00600 20.92800
H  -7.04100 30.61200 24.71700
H  -6.97600 29.85000 26.26200
H  -5.94500 29.16900 25.04900
H  -4.30700 31.41700 30.32300
H  -8.00600 32.41200 32.24900
H  -6.70800 33.50800 32.87000
H  -6.94500 31.86100 33.56800

