158

Mg 16.89500 52.30700 26.10300
C  18.89500 51.03000 28.62700
C  14.55200 53.12300 28.32700
C  14.91600 53.33300 23.50400
C  19.05800 50.94500 23.74900
N  16.80300 52.06000 28.25600
C  17.74500 51.62000 29.13300
C  17.37000 51.92000 30.59700
C  15.88200 52.37200 30.50300
C  15.67900 52.44100 28.93200
C  14.87300 51.25800 30.99100
C  18.31700 52.96500 31.21300
C  18.39800 53.05400 32.77300
H  17.48700 52.11700 33.65400
N  15.06000 53.13300 25.97800
C  14.30100 53.45000 27.03200
C  13.17900 54.27200 26.58100
C  13.22600 54.30600 25.16700
C  14.47800 53.61200 24.84100
C  12.21300 54.94200 27.55300
C  12.33500 54.98400 24.14800
O  12.57500 55.03500 22.94300
C  11.11000 55.67300 24.59600
N  16.90200 52.17300 23.81600
C  16.02200 52.69600 23.03000
C  16.35300 52.57300 21.53800
C  17.68800 51.78300 21.59100
C  17.97900 51.58000 23.13900
C  15.15300 51.88000 20.75600
C  18.88900 52.32300 20.78800
C  19.52800 53.61900 21.23700
N  18.59900 51.31700 26.16200
C  19.35100 50.73900 25.12900
C  20.44400 49.90200 25.64800
C  20.19900 49.98200 27.03500
C  19.17600 50.86900 27.28200
C  21.34800 49.00500 24.87600
C  20.79700 49.50600 28.32500
O  21.79400 48.84200 28.63600
C  19.91400 50.20300 29.46400
C  19.25600 49.20100 30.32900
O  18.36800 48.35100 30.08000
O  19.80000 49.31300 31.51300
C  19.11200 48.54400 32.56700
H  13.96500 53.55200 29.14200
H  14.33700 53.70100 22.65500
H  19.74600 50.45000 23.06000
H  17.51700 51.04600 31.23100
H  15.78100 53.27300 31.10800
H  14.04000 51.80300 31.43400
H  15.32000 50.68700 31.80600
H  14.61200 50.62800 30.14200
H  18.18500 53.94300 30.75000
H  19.28700 52.58500 30.89200
H  18.26200 54.11800 32.96600
H  19.44200 52.87400 33.03000
H  12.24800 56.02600 27.44000
H  12.45500 54.77600 28.60300
H  11.17400 54.70200 27.32600
H  10.42300 55.76600 23.75500
H  11.32800 56.71100 24.84700
H  10.48600 55.09600 25.27800
H  16.54400 53.54200 21.07600
H  17.50700 50.85900 21.04300
H  14.36700 51.87800 21.51100
H  15.37400 50.87300 20.40000
H  14.69900 52.54900 20.02500
H  18.58600 52.36100 19.74200
H  19.60900 51.50500 20.79900
H  19.88300 54.17000 20.36600
H  20.37600 53.39200 21.88300
H  18.72200 54.20200 21.68400
H  22.37200 49.15400 25.21800
H  21.38000 49.20400 23.80500
H  21.04000 47.97200 25.04300
H  20.49100 50.97900 29.96800
H  18.03100 48.47100 32.44700
H  19.44700 49.07100 33.46100
H  19.40100 47.49300 32.54200
Mg -5.50700 25.64000 26.00500
C  -3.89400 27.14600 28.75900
C  -7.16800 23.69700 28.18500
C  -6.96700 24.13500 23.31400
C  -3.80800 27.76100 23.86000
N  -5.52800 25.48300 28.27400
C  -4.86600 26.15600 29.18100
C  -5.27000 25.81500 30.60700
C  -6.15800 24.56300 30.36900
C  -6.31500 24.59000 28.86000
C  -5.48400 23.21900 30.77600
C  -5.98300 27.04300 31.17400
C  -5.64800 27.43100 32.59400
H  -4.95900 26.31900 33.51400
N  -6.74400 24.07800 25.79600
C  -7.40000 23.41300 26.83900
C  -8.29300 22.46300 26.30800
C  -8.28000 22.50900 24.91600
C  -7.24300 23.55600 24.59600
C  -9.13900 21.58500 27.28800
C  -9.10000 21.79100 23.89900
O  -9.00200 22.04200 22.70000
C  -10.08500 20.78400 24.29500
N  -5.38800 25.94200 23.79900
C  -6.09200 25.16700 22.94700
C  -5.90800 25.67900 21.48800
C  -4.87800 26.79900 21.69000
C  -4.64700 26.84800 23.16600
C  -5.30500 24.67700 20.52800
C  -5.20200 28.18800 21.17000
C  -4.12900 28.86000 20.23300
N  -4.11000 27.09200 26.17900
C  -3.48600 27.90900 25.22700
C  -2.60500 28.87600 25.88500
C  -2.65600 28.49300 27.21700
C  -3.57500 27.44900 27.39200
C  -1.72400 29.91000 25.28700
C  -2.18000 28.85400 28.53300
O  -1.35100 29.62500 28.90000
C  -3.00500 28.01500 29.51300
C  -2.01800 27.15100 30.21100
O  -1.20100 26.48200 29.67100
O  -2.09300 27.28000 31.52300
C  -1.06800 26.58100 32.32700
H  -7.71200 23.10200 28.92200
H  -7.53300 23.75900 22.45900
H  -3.30500 28.50400 23.23700
H  -4.29700 25.63500 31.06200
H  -7.13000 24.68300 30.84600
H  -4.66400 23.42200 31.46600
H  -5.11600 22.63800 29.93000
H  -6.12400 22.56600 31.37000
H  -7.06500 26.94200 31.08000
H  -5.71800 27.95300 30.63600
H  -6.57600 27.75300 33.06500
H  -4.90900 28.23100 32.64500
H  -9.84300 22.16900 27.88000
H  -8.45200 21.07500 27.96400
H  -9.65800 20.79300 26.74700
H  -10.40600 20.43300 23.31500
H  -10.94200 21.03500 24.92100
H  -9.61700 19.86500 24.64600
H  -6.82500 26.21600 21.24500
H  -3.90800 26.58700 21.24100
H  -4.86800 23.72700 20.83500
H  -4.69700 25.16700 19.76900
H  -6.12400 24.34600 19.88900
H  -5.32600 28.95300 21.93700
H  -6.03800 28.04200 20.48500
H  -4.64900 29.05900 19.29500
H  -3.37800 28.13600 19.91500
H  -3.61100 29.72900 20.63800
H  -1.73400 29.71000 24.21500
H  -0.70400 30.03600 25.65100
H  -2.21000 30.87300 25.44700
H  -3.54400 28.72600 30.13800
H  -0.76500 25.55800 32.10100
H  -1.52500 26.47600 33.31100
H  -0.18200 27.19100 32.50100

