158

Mg 48.33000 34.74500 27.58400
C  46.42300 33.39000 30.34500
C  49.07200 37.52900 29.77100
C  49.29800 36.52600 24.98100
C  47.22800 32.16100 25.74900
N  47.72000 35.35600 29.78000
C  47.10600 34.55900 30.69600
C  47.24000 35.07500 32.11400
C  47.82700 36.48900 31.85600
C  48.27400 36.48400 30.37400
C  46.88900 37.66100 32.16400
C  48.18800 34.04200 32.84400
C  47.99900 33.91300 34.31600
H  47.60900 35.12300 35.20900
N  49.23600 36.71100 27.49300
C  49.46900 37.68000 28.40200
C  50.23300 38.79300 27.78700
C  50.22800 38.49800 26.41700
C  49.62900 37.23200 26.24200
C  50.77100 39.97700 28.52500
C  50.75800 39.39000 25.24800
O  50.65000 39.04700 24.07400
C  51.45400 40.74700 25.49500
N  48.42400 34.33900 25.61700
C  48.83100 35.21200 24.66100
C  48.56500 34.66000 23.29600
C  48.20200 33.20600 23.61500
C  47.94900 33.20900 25.11700
C  47.57500 35.48300 22.44300
C  49.23300 32.20800 23.07800
C  50.53200 31.99400 23.88300
N  47.14900 33.06500 27.90100
C  46.76600 32.05900 27.08800
C  45.97400 31.05400 27.70000
C  45.73500 31.62100 28.97500
C  46.55300 32.73900 29.07100
C  45.51900 29.81300 27.01900
C  44.93400 31.39200 30.20200
O  44.20200 30.50000 30.53700
C  45.21800 32.65200 31.05300
C  45.59100 32.26000 32.47900
O  46.34400 31.36100 32.88900
O  44.75600 32.95100 33.28000
C  44.51100 32.45100 34.69700
H  49.42300 38.34700 30.40400
H  49.36900 37.08200 24.04400
H  46.92400 31.35800 25.07400
H  46.29900 35.07900 32.66500
H  48.73200 36.63300 32.44700
H  45.94400 37.31800 32.58500
H  46.62800 38.06900 31.18800
H  47.34200 38.47400 32.73100
H  49.21200 34.40500 32.76100
H  48.09600 33.07800 32.34300
H  48.91300 33.49600 34.73900
H  47.25400 33.12200 34.40000
H  51.82700 39.81300 28.74200
H  50.29100 39.93500 29.50200
H  50.58700 41.00300 28.20500
H  50.71200 41.42700 25.91300
H  51.83600 41.15500 24.55900
H  52.29600 40.68800 26.18500
H  49.45600 34.69800 22.66800
H  47.20600 32.99900 23.22400
H  47.01400 36.11700 23.12900
H  46.92700 34.84900 21.83700
H  48.17000 36.07700 21.74800
H  49.52000 32.42800 22.05000
H  48.67400 31.27300 23.04600
H  51.40100 32.06700 23.22900
H  50.49300 31.03200 24.39500
H  50.71700 32.78000 24.61500
H  46.34000 29.44100 26.40700
H  44.63300 30.02600 26.42100
H  45.25100 29.05400 27.75500
H  44.38300 33.34800 30.97100
H  43.43700 32.27000 34.73600
H  44.79100 33.22000 35.41700
H  44.91600 31.46800 34.93700
Mg 35.75600 49.24600 25.96100
C  36.05700 47.65300 29.03800
C  34.57600 52.15700 27.67200
C  35.54200 50.95100 23.02700
C  37.17400 46.52500 24.41100
N  35.29300 49.85800 28.07600
C  35.71400 49.02000 29.15300
C  35.70000 49.80000 30.42400
C  35.06600 51.21900 30.02800
C  35.04000 51.14900 28.57100
C  33.67300 51.42300 30.65400
C  37.08500 49.92100 31.00700
C  37.25000 49.62200 32.48800
H  36.02700 49.60200 33.45600
N  35.10100 51.21700 25.42800
C  34.70100 52.24200 26.30500
C  34.51100 53.42900 25.60200
C  34.94500 53.14300 24.30600
C  35.19000 51.71800 24.20700
C  33.88800 54.70000 26.19300
C  34.97900 54.04200 23.04700
O  35.21600 53.78000 21.86400
C  34.99300 55.60400 23.32100
N  35.98200 48.64500 23.94100
C  35.92600 49.58500 22.95900
C  36.38500 48.89600 21.61100
C  37.02200 47.60200 22.12500
C  36.65100 47.52900 23.57400
C  35.02000 48.69500 20.75200
C  38.63100 47.59800 21.94600
C  39.15800 46.68200 20.85200
N  36.32500 47.37700 26.46500
C  36.97300 46.39700 25.79700
C  37.21500 45.27900 26.69800
C  36.82700 45.74700 27.98700
C  36.35100 47.01500 27.80700
C  37.76500 43.94200 26.26600
C  36.82100 45.35100 29.35700
O  37.12000 44.30700 29.89900
C  36.30300 46.50300 30.07600
C  35.12100 46.15100 30.94700
O  33.97600 45.89600 30.60000
O  35.54800 46.05000 32.24400
C  34.61300 45.51600 33.20800
H  34.26600 53.07000 28.18500
H  35.55000 51.50900 22.08800
H  37.75700 45.77400 23.87400
H  35.11100 49.25700 31.16300
H  35.67300 52.06600 30.34800
H  33.04300 51.70900 29.81100
H  33.78700 52.31800 31.26600
H  33.22600 50.57400 31.17000
H  37.27400 50.93900 30.66600
H  37.85800 49.29900 30.55600
H  37.91600 50.40300 32.85600
H  37.69800 48.64800 32.68700
H  34.66300 55.23100 26.74500
H  33.16800 54.38700 26.95000
H  33.31700 55.33700 25.51800
H  35.71900 55.67300 24.13200
H  34.00700 55.99000 23.58100
H  35.30800 56.16000 22.43800
H  36.98900 49.59500 21.03300
H  36.66100 46.70300 21.62500
H  34.05600 48.75100 21.25800
H  35.09400 47.81700 20.11000
H  34.97500 49.51200 20.03200
H  39.14500 47.44300 22.89500
H  38.91400 48.61500 21.67500
H  38.37400 46.36700 20.16300
H  39.45600 45.79700 21.41400
H  39.86100 47.19200 20.19300
H  36.92500 43.26900 26.09300
H  38.44000 43.60600 27.05400
H  38.38300 44.20500 25.40800
H  37.09700 46.86800 30.72800
H  34.94100 45.94000 34.15700
H  34.64300 44.44800 33.42400
H  33.59000 45.84700 33.03000

