158

Mg 47.46700 24.37500 28.12800
C  48.33500 26.66700 30.70500
C  46.93800 22.06400 30.63600
C  46.80500 22.16200 25.74500
C  48.47300 26.77300 25.69400
N  47.58600 24.48400 30.45600
C  47.98600 25.45700 31.29200
C  47.85400 25.03100 32.73800
C  47.60900 23.50700 32.61700
C  47.39600 23.29000 31.12400
C  48.64100 22.51600 33.20900
C  46.78600 25.90400 33.46100
C  46.45400 25.42700 34.89800
H  46.55700 26.54100 35.95400
N  46.97300 22.43400 28.14000
C  46.70800 21.62200 29.25500
C  46.22700 20.30600 28.87100
C  46.31300 20.29400 27.44400
C  46.67700 21.66200 27.05800
C  45.86300 19.22800 29.92900
C  46.02700 19.07700 26.54600
O  46.06500 19.17100 25.31200
C  45.57400 17.69400 27.17800
N  47.87900 24.38600 25.95400
C  47.35800 23.39200 25.23300
C  47.24100 23.77700 23.71600
C  47.70400 25.26800 23.70600
C  47.99900 25.50600 25.18600
C  47.93400 22.81600 22.76000
C  46.70700 26.28100 23.11000
C  47.31900 27.36500 22.20200
N  48.21300 26.30400 28.13600
C  48.61400 27.10700 27.05300
C  49.03300 28.43400 27.59300
C  48.92400 28.30900 29.02700
C  48.38300 26.97300 29.32000
C  49.71200 29.49600 26.80300
C  49.22300 28.95300 30.29700
O  49.72900 30.04200 30.52700
C  48.71200 27.93100 31.41100
C  49.68900 27.78200 32.52900
O  50.64300 27.06800 32.50000
O  49.35600 28.52000 33.63600
C  50.21900 28.12200 34.81500
H  46.70900 21.35100 31.43100
H  46.51000 21.46500 24.95700
H  48.70700 27.62800 25.05600
H  48.85500 25.22900 33.12100
H  46.68600 23.27200 33.14800
H  49.41800 23.03800 33.76800
H  49.03400 21.74400 32.54700
H  48.08800 21.88500 33.90400
H  45.94400 25.68200 32.80500
H  47.23500 26.89400 33.54100
H  47.11900 24.61400 35.18800
H  45.40000 25.15800 34.83100
H  44.83800 18.96700 29.66700
H  45.74700 19.59100 30.95000
H  46.47900 18.33400 29.83400
H  46.50600 17.37800 27.64700
H  45.24900 16.94300 26.45800
H  44.76400 17.78100 27.90200
H  46.17200 23.66600 23.53300
H  48.60800 25.21600 23.09900
H  48.55000 22.07200 23.26600
H  48.55100 23.31500 22.01300
H  47.16000 22.25800 22.23400
H  46.17900 26.73200 23.95000
H  45.89400 25.72800 22.64000
H  48.40200 27.26300 22.13100
H  47.18300 28.40300 22.50600
H  46.84100 27.24200 21.23100
H  50.60600 28.98000 26.45400
H  50.04600 30.26300 27.50200
H  49.16500 29.74400 25.89400
H  47.91900 28.55600 31.82200
H  49.92700 28.87500 35.54700
H  51.25700 28.23900 34.50400
H  49.98900 27.08000 35.03600
Mg 48.19100 34.18600 26.33100
C  46.30500 32.80500 28.99500
C  48.74000 36.95900 28.11000
C  49.38300 35.57300 23.52000
C  47.13400 31.39300 24.48700
N  47.45800 34.79600 28.30500
C  46.87400 34.07600 29.30500
C  47.11500 34.66700 30.64200
C  47.66400 36.10000 30.24900
C  48.06500 35.97600 28.83100
C  46.62300 37.26700 30.44200
C  48.19700 33.83100 31.39600
C  48.10400 33.78700 32.95400
H  47.02500 34.64700 33.72000
N  48.99000 36.05100 25.88800
C  49.08300 37.08000 26.75800
C  49.82500 38.14700 26.16700
C  50.06400 37.74000 24.82000
C  49.46200 36.37100 24.68100
C  50.21000 39.37300 26.95400
C  50.83700 38.40400 23.76200
O  51.14400 37.88100 22.67400
C  51.19800 39.86600 24.05300
N  48.11600 33.69600 24.33900
C  48.71200 34.35900 23.35600
C  48.88300 33.59600 22.04700
C  48.31200 32.18600 22.45900
C  47.79200 32.40100 23.86800
C  48.30000 34.36700 20.75200
C  49.46200 31.10900 22.42800
C  49.56600 30.29400 21.16700
N  46.97000 32.40100 26.60400
C  46.66600 31.36300 25.80100
C  45.88100 30.31400 26.47700
C  45.66400 30.87700 27.69100
C  46.33100 32.11700 27.73900
C  45.47300 29.00400 25.95000
C  45.05500 30.78000 29.00800
O  44.30200 29.88300 29.41900
C  45.31500 32.03400 29.87500
C  45.75700 31.52100 31.23900
O  46.81900 30.85800 31.48200
O  44.75800 31.74700 32.20100
C  44.84600 31.10100 33.47100
H  49.07400 37.76200 28.77000
H  49.80500 35.83500 22.54700
H  46.98700 30.48800 23.89400
H  46.18100 34.77800 31.19300
H  48.58300 36.28800 30.80400
H  45.95600 37.28300 29.58000
H  47.20400 38.18000 30.57000
H  45.94600 37.12600 31.28400
H  49.19200 34.27200 31.32700
H  48.33000 32.84000 30.96200
H  49.01400 34.12100 33.45300
H  47.95700 32.75900 33.28600
H  49.97800 40.32700 26.48200
H  51.27600 39.25100 27.14700
H  49.75900 39.43500 27.94400
H  51.69900 40.26800 23.17200
H  51.95900 39.92200 24.83200
H  50.38200 40.55200 24.27700
H  49.95600 33.51000 21.87600
H  47.45100 31.98200 21.82200
H  47.57000 35.05900 21.17400
H  47.81800 33.73600 20.00500
H  49.15200 34.83200 20.25700
H  49.41700 30.48200 23.31800
H  50.47600 31.42200 22.67800
H  48.81000 30.59900 20.44300
H  49.18700 29.29700 21.38900
H  50.57400 30.29700 20.75400
H  44.76200 29.08000 25.12800
H  45.12600 28.43000 26.81000
H  46.29800 28.48700 25.46000
H  44.46000 32.70000 29.99000
H  44.17500 30.24300 33.49800
H  44.50500 31.85600 34.17900
H  45.79500 30.60800 33.68600

