158

Mg 41.42300 8.96400 29.20800
C  43.31900 9.91600 31.84800
C  39.05700 7.55200 31.33700
C  39.77600 7.77800 26.56200
C  44.20700 9.66100 26.98100
N  41.18600 8.77700 31.35800
C  42.01500 9.42800 32.25600
C  41.35500 9.32700 33.64700
C  40.06700 8.46600 33.50100
C  40.09600 8.28900 31.95900
C  40.11900 7.14600 34.24700
C  41.07400 10.65100 34.25600
C  41.79400 10.90900 35.55100
H  41.34800 12.09000 36.43900
N  39.63400 7.93000 29.00300
C  38.82300 7.36200 29.96600
C  37.77900 6.62700 29.36400
C  37.86600 6.82100 27.96700
C  39.16600 7.56000 27.82600
C  36.66000 5.91300 30.23700
C  36.88900 6.38500 26.83500
O  37.16700 6.51100 25.63900
C  35.61700 5.69700 27.22300
N  41.97800 8.64100 27.05100
C  41.06500 8.18000 26.16700
C  41.50900 8.15400 24.75200
C  42.83100 9.02200 24.89700
C  43.04600 9.12600 26.39600
C  41.46400 6.79700 24.01000
C  42.77200 10.38500 24.12200
C  41.79700 11.47200 24.55300
N  43.39200 9.52100 29.31700
C  44.35200 9.90500 28.35300
C  45.50200 10.44200 29.03400
C  45.20900 10.53000 30.38500
C  43.90000 9.86500 30.49600
C  46.79200 10.91500 28.34600
C  45.61600 10.86300 31.74500
O  46.63400 11.45800 32.16200
C  44.44800 10.43900 32.75600
C  45.00600 9.36900 33.62500
O  45.38600 8.31600 33.23700
O  44.98000 9.72600 34.95700
C  45.61300 8.81700 35.90300
H  38.30200 7.21600 32.05100
H  39.16400 7.54100 25.68900
H  44.93100 10.04200 26.25700
H  42.03200 8.79200 34.31200
H  39.12800 8.87700 33.87100
H  39.12800 6.94900 34.65700
H  40.85200 7.23500 35.04900
H  40.43000 6.38100 33.53600
H  40.02100 10.59900 34.53000
H  41.13800 11.44600 33.51300
H  42.77100 11.28300 35.24700
H  41.97900 10.05400 36.20100
H  35.77800 6.55200 30.26200
H  36.98000 5.74100 31.26500
H  36.35100 4.98200 29.76200
H  35.05200 5.58300 26.29700
H  35.05400 6.27500 27.95500
H  35.95400 4.77900 27.70500
H  40.83000 8.81600 24.21500
H  43.68900 8.48000 24.49900
H  42.47500 6.48300 23.74700
H  40.82900 6.84500 23.12500
H  40.95200 6.06000 24.62900
H  42.69300 10.11200 23.07000
H  43.72400 10.89200 24.27600
H  40.95600 11.51000 23.86100
H  42.36300 12.40300 24.53700
H  41.56900 11.37000 25.61400
H  46.55200 11.90500 27.95800
H  47.05200 10.23600 27.53300
H  47.61000 10.87700 29.06500
H  44.12500 11.28900 33.35700
H  44.76500 8.37300 36.42400
H  46.09900 9.51400 36.58600
H  46.29800 8.06100 35.51900
Mg 30.10200 57.88000 40.85600
C  27.44000 56.08300 39.54800
C  32.30900 55.51200 39.36000
C  32.70700 59.95800 41.37700
C  27.79000 60.24700 41.84900
N  29.84000 56.00400 39.63800
C  28.68900 55.46900 39.22900
C  28.86800 54.21400 38.37700
C  30.33200 53.80100 38.78400
C  30.89400 55.18900 39.27600
C  30.48600 52.80700 40.01900
C  28.69000 54.50200 36.96400
C  27.71100 53.53800 36.25900
H  26.92400 54.20200 35.11600
N  32.20800 57.67700 40.45900
C  32.86100 56.61900 39.89400
C  34.32600 56.90000 39.84100
C  34.42700 58.21600 40.44500
C  33.12200 58.70800 40.80500
C  35.32400 55.91600 39.24000
C  35.70600 58.97100 40.64600
O  36.75800 58.51900 40.20400
C  35.89000 60.22600 41.48200
N  30.24600 59.75500 41.68000
C  31.45700 60.46200 41.71100
C  31.20200 61.80200 42.48300
C  29.68200 61.88300 42.51600
C  29.14800 60.50000 42.00800
C  31.82200 61.85200 43.87900
C  29.09600 63.22900 41.99500
C  29.09900 64.31700 43.06100
N  28.01800 58.15500 40.85500
C  27.17000 59.13600 41.22200
C  25.78600 58.90500 40.98800
C  25.86400 57.64400 40.28300
C  27.26400 57.29900 40.27500
C  24.64200 59.65400 41.42200
C  25.07300 56.58700 39.59100
O  23.90400 56.58200 39.23600
C  26.03800 55.51800 39.10400
C  25.60900 54.31000 39.82200
O  25.68800 54.10600 41.04900
O  24.88600 53.48300 38.93700
C  24.48000 52.11100 39.49000
H  32.93300 54.70500 38.97000
H  33.43300 60.77200 41.44200
H  27.12300 61.05400 42.15700
H  28.23400 53.41000 38.75000
H  30.96600 53.47700 37.95900
H  30.60000 53.41100 40.92000
H  31.35600 52.22700 39.71300
H  29.61700 52.15700 40.11800
H  29.67900 54.52000 36.50700
H  28.33700 55.51200 36.75500
H  26.90100 53.27000 36.93700
H  28.34700 52.72800 35.90300
H  35.74300 56.34600 38.33100
H  34.92000 54.97500 38.86700
H  36.11500 55.76900 39.97600
H  35.50000 60.95800 40.77500
H  36.95400 60.39300 41.65200
H  35.26500 60.23000 42.37500
H  31.63300 62.66300 41.97100
H  29.37200 61.87700 43.56000
H  32.74400 61.27300 43.91900
H  31.13600 61.56600 44.67700
H  32.22900 62.85500 44.00700
H  28.11000 63.13600 41.54100
H  29.84500 63.58600 41.28800
H  29.48000 65.30000 42.78400
H  29.45400 64.07400 44.06300
H  28.04200 64.49500 43.26000
H  23.75600 59.06800 41.17700
H  24.63200 60.58600 40.85800
H  24.53700 59.82800 42.49200
H  25.74600 55.31700 38.07400
H  24.59300 51.37700 38.69300
H  23.40100 52.15800 39.63500
H  25.08900 51.65600 40.27200

