158

Mg -2.16900 17.15000 26.27900
C  -2.43200 15.05800 28.90300
C  -2.36800 19.87700 28.37900
C  -2.17300 19.07400 23.61900
C  -2.58700 14.37200 24.11300
N  -2.18500 17.46400 28.49600
C  -2.40000 16.42400 29.34500
C  -2.66700 16.91700 30.81300
C  -3.01600 18.48700 30.49000
C  -2.51900 18.64600 29.04600
C  -4.49600 18.93900 30.46200
C  -1.41600 16.76600 31.73000
C  -1.64500 17.14500 33.21800
H  -1.67400 16.04100 34.30800
N  -2.12900 19.14400 26.03400
C  -2.08500 20.17500 27.01600
C  -1.90600 21.44700 26.40400
C  -1.85900 21.20500 25.03800
C  -2.05600 19.75600 24.86300
C  -1.89100 22.73400 27.17900
C  -1.69200 22.23400 23.92300
O  -1.69200 21.93900 22.72300
C  -1.48200 23.74400 24.26600
N  -2.55100 16.80000 24.17600
C  -2.44400 17.78900 23.28100
C  -2.58300 17.36000 21.82800
C  -2.61500 15.80400 21.99100
C  -2.64800 15.62700 23.50700
C  -3.92300 17.96800 21.18000
C  -1.43900 14.93200 21.43300
C  -0.00600 15.09900 21.94100
N  -2.50700 15.23500 26.40700
C  -2.52000 14.16500 25.48300
C  -2.54300 12.91600 26.16500
C  -2.61500 13.25400 27.48400
C  -2.44900 14.63200 27.61200
C  -2.41800 11.60700 25.59800
C  -2.81300 12.69200 28.75100
O  -3.06500 11.53700 29.04400
C  -2.69300 13.85200 29.70700
C  -1.58200 13.45600 30.59400
O  -0.39400 13.63000 30.44100
O  -2.15900 12.86800 31.73400
C  -1.31100 12.35400 32.77000
H  -2.52400 20.73800 29.03200
H  -1.98800 19.72700 22.76300
H  -2.51800 13.49400 23.46600
H  -3.51900 16.34700 31.18400
H  -2.47600 19.07200 31.23400
H  -5.32700 18.23700 30.51700
H  -4.71000 19.45000 29.52300
H  -4.57800 19.72900 31.20900
H  -0.59800 17.42700 31.44400
H  -1.14500 15.71200 31.65900
H  -2.56600 17.72100 33.30900
H  -0.80100 17.73800 33.56800
H  -1.83900 22.61400 28.26100
H  -2.66400 23.44700 26.89400
H  -0.92600 23.13800 26.87500
H  -1.40400 24.36200 23.37100
H  -0.58800 23.87200 24.87500
H  -2.38600 24.06000 24.78800
H  -1.74000 17.74000 21.25100
H  -3.46900 15.29600 21.54100
H  -4.47600 18.65600 21.82000
H  -4.64800 17.17600 20.99000
H  -3.57900 18.51200 20.30000
H  -1.32700 15.33600 20.42700
H  -1.77300 13.92300 21.18800
H  0.45100 15.79700 21.24000
H  0.62700 14.21400 21.88000
H  0.01800 15.63900 22.88700
H  -3.33400 11.14400 25.23200
H  -1.94900 10.92300 26.30500
H  -1.74400 11.73500 24.75100
H  -3.63100 13.82200 30.26100
H  -0.83600 13.18900 33.28400
H  -0.51300 11.68200 32.45200
H  -1.79100 11.66900 33.46700
Mg 16.80400 -2.02200 27.86200
C  15.81100 0.10700 30.37300
C  18.49500 -3.94700 30.04700
C  18.24200 -3.69700 25.24000
C  15.52600 0.30000 25.48600
N  17.23500 -1.80800 29.87000
C  16.58600 -0.93800 30.77900
C  16.94200 -1.36000 32.24200
C  17.93200 -2.50700 32.14500
C  17.93900 -2.77600 30.55700
C  19.42200 -2.16200 32.55900
C  15.72600 -1.49400 33.21500
C  15.83800 -0.60900 34.49800
H  17.29400 -0.25400 35.07600
N  18.13100 -3.71100 27.68300
C  18.57800 -4.43800 28.73400
C  19.24000 -5.62700 28.23600
C  19.07200 -5.56800 26.83100
C  18.53500 -4.23300 26.54600
C  19.75000 -6.72000 29.21500
C  19.42700 -6.57500 25.85200
O  19.32100 -6.43700 24.62800
C  19.97100 -7.83700 26.33600
N  16.81200 -1.81200 25.65600
C  17.61000 -2.52800 24.88200
C  17.47300 -2.05300 23.42400
C  16.35300 -0.94900 23.48900
C  16.22500 -0.76200 24.93300
C  18.72900 -1.57200 22.69500
C  15.00900 -1.30400 22.89300
C  14.37100 -0.42300 21.88500
N  15.78900 -0.24100 27.88800
C  15.28800 0.50400 26.85900
C  14.49600 1.66100 27.41700
C  14.79300 1.57700 28.81400
C  15.46900 0.34300 29.06100
C  13.70300 2.64800 26.71100
C  14.55000 2.21400 30.03200
O  14.09100 3.32500 30.28800
C  15.08600 1.30600 31.17400
C  15.97300 2.11100 31.96600
O  17.16900 2.37600 31.67900
O  15.34600 2.52600 33.12500
C  16.08900 3.35300 34.09500
H  18.79700 -4.70000 30.77900
H  18.51900 -4.18900 24.30500
H  15.08700 1.05700 24.83200
H  17.53100 -0.56600 32.70200
H  17.56500 -3.35900 32.71700
H  19.85700 -3.09900 32.90700
H  19.37800 -1.55800 33.46600
H  19.92100 -1.68600 31.71500
H  15.73100 -2.55200 33.47500
H  14.83700 -1.16500 32.67700
H  15.24900 -1.13900 35.24600
H  15.23900 0.29600 34.39100
H  20.57800 -7.30000 28.80800
H  18.90300 -7.28900 29.59700
H  20.18300 -6.21900 30.08000
H  20.09500 -8.35600 25.38500
H  19.25500 -8.36100 26.97000
H  20.98700 -7.65400 26.68700
H  17.00000 -2.86500 22.87200
H  16.76200 -0.06500 23.00100
H  18.69600 -0.51200 22.44500
H  18.76900 -2.14900 21.77100
H  19.63500 -1.91100 23.19800
H  14.29800 -1.29800 23.71900
H  15.03800 -2.36900 22.66500
H  13.61800 0.21300 22.35100
H  13.84100 -1.06700 21.18400
H  14.93400 0.28600 21.27700
H  14.39500 2.85500 25.89400
H  13.50400 3.54300 27.30100
H  12.78900 2.30100 26.23100
H  14.22400 1.02300 31.77800
H  15.65200 4.35100 34.11800
H  17.14400 3.40300 33.82500
H  16.06900 2.87600 35.07500

