158

Mg 44.17300 4.85600 48.25800
C  42.38300 7.88100 48.14400
C  41.19600 3.15000 48.07400
C  45.94500 2.06300 47.93200
C  47.13300 6.73900 47.69400
N  42.09300 5.45200 47.86700
C  41.55500 6.72400 47.91600
C  40.04500 6.77800 47.72900
C  39.71400 5.29900 48.02400
C  41.10300 4.54100 47.96900
C  38.94700 5.11800 49.27100
C  39.60200 7.44900 46.44300
C  40.46000 7.35000 45.12300
H  39.74400 6.73600 43.90900
N  43.64600 2.86700 47.95200
C  42.40800 2.40600 47.99000
C  42.46000 0.95200 47.92800
C  43.80300 0.60800 47.89000
C  44.55000 1.88000 47.93900
C  41.27200 0.09600 47.61100
C  44.31900 -0.82900 47.69500
O  43.50600 -1.76800 47.57700
C  45.67000 -1.14700 47.46300
N  46.25300 4.47500 47.62700
C  46.72300 3.22500 47.85900
C  48.29200 3.19600 47.82000
C  48.62400 4.75500 47.72200
C  47.27800 5.33400 47.61100
C  48.96700 2.38200 48.93100
C  49.70700 5.24300 46.75000
C  50.87800 5.91100 47.47900
N  44.69300 6.90500 48.15700
C  45.94100 7.46600 47.93200
C  45.84600 8.88800 47.89000
C  44.41200 9.15100 48.01600
C  43.80600 7.90300 48.10000
C  46.98400 10.00300 47.65100
C  43.34400 10.16900 48.06200
O  43.38900 11.42100 48.12900
C  41.98900 9.35000 48.12900
C  41.25700 9.74800 49.39200
O  41.07700 9.05200 50.39400
O  40.58100 10.93600 49.14900
C  39.72800 11.45000 50.21400
H  40.25600 2.65800 48.33100
H  46.58000 1.17500 47.94400
H  48.04800 7.33400 47.72900
H  39.67400 7.35800 48.57400
H  39.08700 4.89200 47.23100
H  38.40800 6.04600 49.46200
H  39.56500 4.76700 50.09700
H  38.16900 4.38300 49.06500
H  39.33900 8.50300 46.53200
H  38.61900 6.98400 46.36100
H  41.36700 6.74600 45.11300
H  40.84400 8.33600 44.86400
H  41.27700 -0.36100 46.62200
H  40.33300 0.62200 47.78200
H  41.32100 -0.70200 48.35200
H  46.32800 -1.21700 48.32900
H  46.11000 -0.37300 46.83500
H  45.62600 -2.09300 46.92300
H  48.47100 2.72100 46.85500
H  48.98200 4.84900 48.74700
H  49.48500 1.52200 48.50700
H  48.28800 2.21000 49.76600
H  49.88100 2.82600 49.32600
H  49.39700 6.01800 46.04800
H  50.00100 4.28400 46.32600
H  50.44900 6.41800 48.34400
H  51.29200 6.60300 46.74700
H  51.63400 5.15200 47.68000
H  47.96800 9.63800 47.94400
H  46.70400 10.76700 48.37700
H  47.02500 10.42700 46.64800
H  41.33400 9.54400 47.28000
H  38.93000 11.92900 49.64800
H  40.27300 12.28300 50.65700
H  39.26300 10.69300 50.84600
Mg -2.38400 34.21400 27.22200
C  -3.88300 32.44400 29.80000
C  -0.84400 36.23400 29.43300
C  -1.19600 36.01800 24.62900
C  -4.50000 32.42100 24.90900
N  -2.51700 34.41200 29.34000
C  -2.96500 33.42100 30.19400
C  -2.70700 33.78900 31.68200
C  -1.84600 35.12700 31.56100
C  -1.74400 35.29600 30.03000
C  -2.41000 36.42400 32.37400
C  -2.08200 32.58200 32.47200
C  -2.78900 32.15400 33.73300
H  -1.98000 32.23900 35.02200
N  -1.16900 35.82200 27.06900
C  -0.47800 36.50400 28.10600
C  0.33300 37.49900 27.64000
C  0.22600 37.50800 26.24200
C  -0.77100 36.40100 25.88300
C  1.23000 38.38200 28.48500
C  0.90200 38.35500 25.15800
O  0.61800 38.25600 23.98300
C  1.97100 39.23000 25.53600
N  -2.78500 34.17100 25.08600
C  -2.05300 34.99700 24.22700
C  -2.47300 34.77700 22.73900
C  -3.45900 33.52800 22.80900
C  -3.63300 33.36600 24.36800
C  -3.06300 36.09300 22.01000
C  -2.84100 32.33000 22.01600
C  -1.83200 31.51600 22.81300
N  -3.82500 32.72300 27.28700
C  -4.61300 32.13100 26.27000
C  -5.47400 31.15700 26.91300
C  -5.18500 31.27500 28.26900
C  -4.24300 32.23100 28.44400
C  -6.45400 30.26900 26.24700
C  -5.49300 30.65000 29.53200
O  -6.23600 29.70600 29.79100
C  -4.74400 31.50200 30.57000
C  -5.80600 32.17300 31.30000
O  -6.65900 32.97800 30.91200
O  -5.83300 31.58400 32.57100
C  -6.99200 31.90000 33.42600
H  -0.14400 36.48700 30.23200
H  -0.74500 36.42600 23.72200
H  -5.01100 31.81000 24.16100
H  -3.68100 34.07300 32.08200
H  -0.80100 34.90400 31.77800
H  -2.90000 36.18100 33.31600
H  -2.81000 37.21600 31.74100
H  -1.46000 36.84300 32.70500
H  -1.06100 32.84400 32.74700
H  -1.97100 31.63100 31.95000
H  -3.28500 31.18900 33.63100
H  -3.60100 32.82700 34.00800
H  2.25700 38.27100 28.13800
H  1.33700 38.09000 29.53000
H  0.89600 39.40500 28.31200
H  1.62400 40.05700 26.15700
H  2.34700 39.72100 24.63800
H  2.78300 38.56900 25.83900
H  -1.53400 34.47800 22.27400
H  -4.42600 33.81800 22.39800
H  -3.73700 36.61500 22.69000
H  -3.70700 35.73000 21.21000
H  -2.35400 36.86900 21.72100
H  -2.33900 32.79300 21.16600
H  -3.60700 31.64700 21.64800
H  -0.91900 31.51000 22.21800
H  -2.18200 30.48400 22.84100
H  -1.60700 31.88700 23.81200
H  -6.65800 30.69000 25.26300
H  -7.34200 30.05300 26.84200
H  -6.07700 29.24800 26.19100
H  -4.13300 30.76700 31.09500
H  -7.88500 31.46500 32.97700
H  -7.04600 32.98300 33.53700
H  -6.83400 31.34600 34.35200

