158

Mg 17.07800 -1.24600 27.04500
C  16.33300 0.84400 29.80600
C  18.75300 -3.31600 29.31200
C  18.71100 -2.73400 24.41200
C  15.91000 1.09200 24.99100
N  17.45100 -1.22200 29.36700
C  16.94300 -0.34300 30.28100
C  17.34900 -0.72300 31.74900
C  18.27200 -1.97000 31.47500
C  18.17000 -2.21700 29.95000
C  19.70100 -1.79100 31.92800
C  16.11400 -0.92600 32.72400
C  16.09400 -0.09600 34.02800
H  17.35800 0.33000 34.79200
N  18.35600 -2.98900 26.87500
C  18.93200 -3.65300 27.92100
C  19.79200 -4.71000 27.39700
C  19.73900 -4.62000 25.99100
C  18.98400 -3.40100 25.70200
C  20.61700 -5.62400 28.23600
C  20.41800 -5.47100 24.86500
O  20.31900 -5.34500 23.65500
C  21.20700 -6.65100 25.28200
N  17.40600 -0.72100 25.05900
C  17.92400 -1.61200 24.16900
C  17.83900 -1.05300 22.72200
C  16.89000 0.09600 22.94900
C  16.65000 0.18800 24.39000
C  19.21600 -0.70600 22.15800
C  15.56900 0.11200 22.04500
C  15.26000 1.29600 21.14200
N  16.21700 0.52700 27.27500
C  15.71700 1.34100 26.36500
C  15.01800 2.43200 27.03200
C  15.22200 2.34500 28.35300
C  15.95500 1.19200 28.46000
C  14.13700 3.36200 26.36900
C  15.00400 2.99600 29.67900
O  14.57200 4.10000 29.98700
C  15.68200 1.92500 30.62300
C  16.54400 2.63300 31.55200
O  17.79700 2.77300 31.52900
O  15.65600 3.13700 32.51000
C  16.17900 3.95800 33.52100
H  19.33700 -3.98900 29.94200
H  19.07800 -3.26300 23.52900
H  15.43300 1.85800 24.37700
H  17.88100 0.17300 32.06800
H  17.90200 -2.92100 31.85900
H  20.20200 -1.40000 31.04200
H  20.17200 -2.74600 32.16200
H  19.70700 -1.02500 32.70500
H  15.96700 -1.98300 32.94900
H  15.25200 -0.55600 32.16900
H  15.76500 -0.89800 34.68900
H  15.36100 0.70600 34.11000
H  20.41400 -5.74200 29.30000
H  21.65100 -5.29800 28.12000
H  20.54800 -6.65400 27.88500
H  22.14700 -6.44500 25.79500
H  21.52800 -7.15700 24.37200
H  20.57900 -7.31000 25.88100
H  17.36100 -1.76700 22.05100
H  17.49800 0.96100 22.68400
H  19.71900 -0.10600 22.91700
H  19.27400 -0.11900 21.24200
H  19.80600 -1.61500 22.04600
H  14.65400 0.08000 22.63600
H  15.55900 -0.80500 21.45500
H  14.30300 1.72100 21.44300
H  15.40500 0.95400 20.11700
H  15.99300 2.06700 21.37800
H  14.61400 4.26100 25.98000
H  13.36600 3.70100 27.06200
H  13.58500 2.90600 25.54700
H  14.98400 1.35700 31.23700
H  17.14700 3.62700 33.89400
H  15.39300 4.08700 34.26600
H  16.24200 4.96800 33.11400
Mg 49.28600 44.79400 42.01000
C  45.84900 45.36600 41.19900
C  48.76600 41.68600 40.69800
C  52.54600 44.45300 41.94400
C  49.59900 48.31500 42.27400
N  47.43100 43.66500 41.16800
C  46.16000 44.05800 40.91400
C  45.31700 43.05000 40.15100
C  46.20200 41.81100 40.27100
C  47.59200 42.42200 40.69300
C  45.78800 40.79500 41.35000
C  45.12900 43.69700 38.75300
C  43.75200 43.68200 38.07600
H  43.52100 42.63100 37.00300
N  50.50300 43.18900 41.63700
C  50.11600 42.00800 41.04900
C  51.26000 41.16900 40.94000
C  52.42700 41.93500 41.35900
C  51.86500 43.23800 41.73200
C  51.13000 39.73900 40.34700
C  53.83300 41.39300 41.58100
O  54.08600 40.24600 41.26200
C  54.98000 42.16300 42.14400
N  50.85900 46.18100 42.04300
C  52.10700 45.75900 42.06800
C  53.15000 46.94500 41.91900
C  52.22600 48.15500 42.21800
C  50.79100 47.52200 42.19600
C  54.33400 46.78700 42.87800
C  52.56100 49.42900 41.40800
C  52.29300 50.75000 42.16900
N  48.04800 46.55200 41.99900
C  48.26600 47.89200 42.21500
C  47.08100 48.61100 42.34200
C  46.12000 47.69800 41.91600
C  46.74600 46.41600 41.70700
C  46.87900 50.04700 42.76400
C  44.62800 47.53100 41.59200
O  43.71800 48.36800 41.50000
C  44.47700 45.99300 41.18300
C  43.63400 45.42500 42.19400
O  44.00500 44.70700 43.13400
O  42.32900 45.69900 41.90400
C  41.36200 45.13900 42.76900
H  48.68600 40.64100 40.39200
H  53.60000 44.35700 41.67500
H  49.70200 49.40300 42.26400
H  44.36500 42.97900 40.67500
H  46.19400 41.35700 39.28000
H  44.79300 41.14000 41.63200
H  46.44600 40.84100 42.21700
H  45.70500 39.80300 40.90600
H  45.84400 43.15500 38.13500
H  45.40500 44.74800 38.67200
H  43.52500 44.70500 37.77500
H  43.09000 43.45300 38.91100
H  50.71800 39.05500 41.08800
H  51.99600 39.17100 40.00700
H  50.35200 39.76300 39.58400
H  54.53100 42.76800 42.93200
H  55.32600 42.77600 41.31200
H  55.75100 41.52400 42.57500
H  53.52800 46.90300 40.89800
H  52.37400 48.51800 43.23500
H  55.29300 46.45800 42.47800
H  54.01700 46.14000 43.69600
H  54.57700 47.73200 43.36400
H  51.98500 49.39800 40.48300
H  53.64500 49.53300 41.35100
H  51.92100 50.52000 43.16800
H  51.51800 51.25200 41.58900
H  53.18000 51.38100 42.22200
H  47.72400 50.33200 43.39200
H  45.94000 50.12000 43.31400
H  46.88400 50.53400 41.78900
H  44.10400 45.84200 40.17100
H  41.72900 44.20700 43.19700
H  40.49900 44.89400 42.15000
H  41.02700 45.81400 43.55600

