158

Mg 24.73900 -4.48800 45.71700
C  26.73000 -2.09200 43.90000
C  22.02500 -3.28800 43.81000
C  23.10800 -7.21800 46.62500
C  27.71600 -5.73100 46.95100
N  24.52900 -2.91500 44.05000
C  25.45100 -2.11100 43.43100
C  24.79600 -1.24500 42.32800
C  23.24800 -1.48500 42.54000
C  23.22200 -2.61500 43.58200
C  22.29600 -0.28000 43.10500
C  25.38100 -1.59600 40.89700
C  25.92300 -0.41600 40.07500
H  25.66600 -0.56400 38.55000
N  22.78900 -5.12900 45.32500
C  21.82100 -4.47800 44.62700
C  20.68100 -5.31200 44.66300
C  20.89600 -6.46100 45.47700
C  22.31200 -6.31900 45.86200
C  19.45800 -4.91600 43.86300
C  19.87300 -7.53800 45.88500
O  18.75200 -7.67400 45.36700
C  20.10200 -8.52600 46.95800
N  25.32000 -6.16500 46.79400
C  24.47300 -7.23300 47.06500
C  25.18000 -8.45000 47.62600
C  26.62500 -7.89900 47.96100
C  26.60100 -6.55100 47.19100
C  24.41700 -9.02000 48.88700
C  27.73700 -8.92000 47.52400
C  28.61300 -9.48300 48.70100
N  26.74600 -3.90400 45.75900
C  27.79500 -4.49700 46.32300
C  28.93900 -3.63300 46.23900
C  28.63300 -2.72000 45.19300
C  27.26100 -2.89600 44.95200
C  30.24400 -3.76700 47.02500
C  29.08900 -1.65200 44.39100
O  30.12400 -1.06700 44.37500
C  27.85000 -1.30400 43.44600
C  27.56500 0.15300 43.65400
O  27.06700 0.71400 44.61800
O  28.10400 0.88000 42.61500
C  28.18600 2.38500 42.66400
H  21.11200 -2.92400 43.33500
H  22.52000 -8.10200 46.88200
H  28.70900 -6.01200 47.30700
H  25.02500 -0.21800 42.61100
H  22.98500 -1.84700 41.54600
H  21.56800 -0.61600 43.84400
H  21.65100 0.13900 42.33300
H  22.89500 0.57200 43.42500
H  24.67700 -2.08200 40.22100
H  26.13800 -2.37500 40.99500
H  26.97600 -0.26000 40.31200
H  25.33000 0.41900 40.44900
H  19.50900 -5.15200 42.80000
H  19.15800 -3.86800 43.87700
H  18.53000 -5.39300 44.17700
H  19.16900 -9.02300 47.22300
H  20.45900 -7.89300 47.77100
H  20.77700 -9.33600 46.68200
H  25.18100 -9.27900 46.91900
H  26.77600 -7.76800 49.03200
H  25.01500 -8.92100 49.79300
H  24.12400 -10.05800 48.73300
H  23.44000 -8.55100 49.00900
H  28.42000 -8.41000 46.84400
H  27.30900 -9.74000 46.94700
H  28.85000 -10.54200 48.60300
H  28.00400 -9.36600 49.59800
H  29.50500 -8.86600 48.80500
H  30.82100 -4.53300 46.50700
H  30.04200 -4.21100 47.99900
H  30.79200 -2.82500 46.97500
H  28.19600 -1.53200 42.43800
H  28.31400 2.64800 41.61400
H  29.06300 2.59100 43.27700
H  27.31600 2.91300 43.05700
Mg 25.33600 0.94500 29.61700
C  27.46100 0.98400 32.18600
C  22.69100 1.34000 31.69000
C  23.24700 0.57900 26.95100
C  28.10800 0.40400 27.40600
N  25.09800 1.01800 31.73200
C  26.12800 1.13100 32.59900
C  25.55600 1.44900 34.05100
C  24.04400 1.27600 33.86700
C  23.93300 1.21200 32.37400
C  23.47200 0.02800 34.57500
C  26.06400 2.80000 34.70800
C  26.81800 2.77000 36.11800
H  26.66700 3.74700 37.25300
N  23.25500 0.89100 29.37000
C  22.32300 1.16900 30.34500
C  20.96500 1.20200 29.83400
C  21.09100 0.98800 28.44400
C  22.61200 0.84900 28.14600
C  19.68700 1.14000 30.71300
C  20.01000 0.84200 27.37000
O  20.37900 0.60600 26.20700
C  18.54500 1.01300 27.72400
N  25.68800 0.43300 27.43600
C  24.63200 0.46400 26.56900
C  25.08900 0.63000 25.16700
C  26.63000 0.84200 25.24900
C  26.87400 0.56200 26.76800
C  24.72900 -0.56500 24.19900
C  27.11400 2.26800 24.74400
C  27.27100 3.40900 25.73600
N  27.39000 0.63100 29.70100
C  28.33000 0.34700 28.77100
C  29.60400 0.18600 29.41200
C  29.33200 0.46700 30.78000
C  27.94900 0.73600 30.90300
C  30.93200 -0.06400 28.77700
C  29.84000 0.57600 32.16100
O  30.98200 0.51900 32.57700
C  28.65300 1.01600 33.10200
C  28.58600 0.10000 34.32400
O  28.09200 -1.00500 34.32900
O  29.19400 0.62700 35.52500
C  29.31200 -0.24800 36.71800
H  21.81700 1.50900 32.32200
H  22.60600 0.70800 26.07700
H  28.99500 0.45100 26.77100
H  26.00100 0.69200 34.69700
H  23.44400 2.13800 34.15700
H  24.15000 -0.28800 35.36800
H  23.34900 -0.84900 33.94000
H  22.48700 0.24800 34.98600
H  25.16000 3.29300 35.06700
H  26.66500 3.31100 33.95700
H  27.88400 2.77200 35.89400
H  26.77900 1.80000 36.61200
H  19.82000 1.16800 31.79400
H  19.34200 0.12700 30.50300
H  18.94400 1.86100 30.37200
H  18.28900 0.12900 28.30700
H  17.94200 1.07400 26.81800
H  18.25000 1.88700 28.30600
H  24.68300 1.54500 24.73500
H  27.28000 0.13000 24.74100
H  24.27900 -0.02900 23.36300
H  24.08700 -1.36000 24.58000
H  25.61900 -1.04000 23.78500
H  26.38300 2.60200 24.00800
H  28.05000 2.09200 24.21300
H  28.28500 3.71100 25.47500
H  26.96700 3.10400 26.73800
H  26.61000 4.20800 25.40000
H  31.11700 0.15200 27.72500
H  31.24500 -1.09800 28.91900
H  31.64800 0.61700 29.23800
H  28.60700 2.05500 33.42800
H  29.29900 -1.30000 36.43300
H  28.57800 -0.13100 37.51500
H  30.29800 -0.02900 37.12900

