158

Mg 36.79400 50.35800 25.32900
C  36.74700 48.54500 28.30500
C  35.23200 52.88700 26.95700
C  36.37300 51.92100 22.35700
C  37.61300 47.39800 23.64900
N  35.91300 50.49900 27.35300
C  36.22000 49.76300 28.49400
C  35.73200 50.40200 29.76300
C  34.95800 51.67600 29.24700
C  35.32900 51.71700 27.79300
C  33.44500 51.77600 29.53900
C  36.86400 50.58100 30.82600
C  36.64800 50.07500 32.23200
H  36.16400 51.16800 33.18900
N  36.07400 52.23400 24.72500
C  35.51900 53.11500 25.59900
C  35.28500 54.38500 24.92600
C  35.55800 54.13100 23.51100
C  35.99400 52.75000 23.45300
C  34.84000 55.65500 25.62100
C  35.40200 54.95700 22.28200
O  35.71300 54.53600 21.18800
C  34.94900 56.44100 22.31500
N  36.82100 49.69100 23.31200
C  36.82300 50.64600 22.28600
C  37.31100 49.98700 20.99300
C  38.05000 48.62800 21.45400
C  37.51200 48.56400 22.85100
C  36.28000 49.84000 19.88700
C  39.57100 48.74300 21.46900
C  40.31000 47.79400 20.47900
N  37.10800 48.33700 25.76200
C  37.35400 47.23200 24.99800
C  37.62600 46.01000 25.83000
C  37.39700 46.51000 27.12900
C  36.97400 47.87500 27.05400
C  38.11800 44.68600 25.35200
C  37.41100 46.19800 28.49200
O  37.90500 45.15100 29.00500
C  36.89600 47.42000 29.27700
C  35.57600 46.98000 29.74200
O  34.64300 46.61900 29.06500
O  35.65500 46.99800 31.15500
C  34.40900 46.67200 31.84900
H  34.83000 53.72700 27.52700
H  36.45200 52.39900 21.37900
H  38.09500 46.60500 23.07400
H  35.00200 49.67200 30.11100
H  35.42200 52.54700 29.71100
H  32.91400 51.95000 28.60300
H  33.34900 52.62700 30.21300
H  32.97400 50.94000 30.05600
H  37.09400 51.64000 30.94400
H  37.80800 50.16200 30.47700
H  37.68000 49.91000 32.54200
H  36.02900 49.18300 32.32900
H  35.20300 56.54200 25.10300
H  35.25000 55.77700 26.62400
H  33.75700 55.54000 25.59900
H  33.99200 56.42100 22.83700
H  34.65100 56.72000 21.30500
H  35.55400 57.21000 22.79600
H  38.10600 50.64200 20.63800
H  37.84600 47.72000 20.88600
H  36.40800 50.64900 19.16700
H  35.29100 49.98600 20.31900
H  36.34400 48.88700 19.36300
H  40.05500 48.53100 22.42300
H  39.90100 49.74900 21.21200
H  40.62300 46.90100 21.01900
H  41.22600 48.27600 20.13800
H  39.67800 47.48100 19.64700
H  38.47800 44.08800 26.19000
H  38.98000 44.71400 24.68600
H  37.34900 44.27000 24.70100
H  37.49100 47.82500 30.09600
H  33.74400 47.50300 31.61500
H  34.57000 46.49300 32.91200
H  33.97500 45.86100 31.26500
Mg 10.27600 47.06000 25.82500
C  8.21100 47.15200 28.65200
C  12.68800 48.62100 27.76100
C  11.97300 47.60500 22.97200
C  7.46200 46.03400 23.89800
N  10.34200 47.90800 27.95300
C  9.45000 47.76200 28.95800
C  9.98700 48.32600 30.27500
C  11.34100 48.98800 29.84000
C  11.46300 48.46600 28.43300
C  11.25200 50.57100 29.83400
C  10.02100 47.32900 31.43400
C  10.67600 47.87500 32.76000
H  9.85800 47.87100 34.03500
N  12.19200 47.80900 25.47200
C  13.05200 48.29900 26.39500
C  14.35000 48.55300 25.70200
C  14.17100 48.20100 24.31000
C  12.73000 47.83100 24.18100
C  15.63100 49.16900 26.48600
C  15.11200 48.36000 23.16600
O  14.91900 47.89200 22.03600
C  16.47900 48.92200 23.42200
N  9.71000 46.92300 23.67300
C  10.69500 47.06400 22.75400
C  10.04200 46.79700 21.34200
C  8.78000 46.01300 21.69400
C  8.63700 46.22000 23.21800
C  9.90500 48.25000 20.67400
C  8.63700 44.42900 21.22800
C  8.35500 43.46000 22.35900
N  8.24200 46.71100 26.15500
C  7.13700 46.31500 25.32800
C  5.95200 46.26800 26.07000
C  6.39200 46.56300 27.38700
C  7.75500 46.75200 27.39200
C  4.53200 45.96100 25.62800
C  5.88300 46.74300 28.73600
O  4.72400 46.52500 29.13500
C  7.12900 47.02300 29.59900
C  7.38100 45.85600 30.50100
O  7.94400 44.81300 30.16100
O  6.70900 46.13800 31.69900
C  6.85900 45.14500 32.73500
H  13.48900 49.17300 28.25700
H  12.57100 47.52100 22.06200
H  6.63900 45.45300 23.47600
H  9.25700 48.98800 30.74200
H  12.21200 48.61000 30.37500
H  10.42200 50.86900 30.47400
H  11.04500 50.99300 28.85100
H  12.12900 51.04100 30.28000
H  10.55400 46.44100 31.09400
H  9.10700 46.96500 31.90400
H  10.98400 48.91200 32.63200
H  11.65500 47.46900 33.01100
H  16.15400 49.97800 25.97500
H  16.35100 48.43800 26.85300
H  15.30700 49.56800 27.44700
H  17.02700 48.51900 24.27400
H  16.42500 50.00700 23.34100
H  16.99400 48.68000 22.49300
H  10.77400 46.24100 20.75700
H  7.96300 46.50000 21.16100
H  10.39800 48.15000 19.70700
H  10.39100 49.05800 21.22100
H  8.85900 48.53300 20.56100
H  9.58500 44.11700 20.79100
H  7.84800 44.32600 20.48300
H  9.07900 42.64500 22.37000
H  7.35700 43.08300 22.13600
H  8.39400 43.81500 23.38900
H  4.26000 45.03700 26.13900
H  4.51100 45.75800 24.55700
H  3.77100 46.72800 25.76900
H  7.00800 47.84700 30.30200
H  6.59400 44.10300 32.56000
H  6.17000 45.52400 33.49000
H  7.89300 45.21800 33.07300

