158

Mg -1.88900 17.54100 25.60800
C  -2.31300 15.30600 28.36500
C  -2.70100 20.10100 27.72200
C  -2.16000 19.52400 22.89300
C  -1.83300 14.78100 23.53200
N  -2.52400 17.61700 27.74200
C  -2.38600 16.63400 28.75100
C  -2.47400 17.25200 30.19700
C  -2.73500 18.77100 29.90200
C  -2.68800 18.82300 28.37000
C  -4.12800 19.24400 30.51300
C  -1.13100 16.94100 31.07400
C  -0.94900 17.70000 32.39800
H  -1.19000 16.89700 33.63900
N  -2.12500 19.50600 25.36300
C  -2.38100 20.42800 26.36300
C  -2.49500 21.74200 25.79200
C  -2.14200 21.57100 24.40800
C  -2.16100 20.15100 24.13400
C  -2.78600 23.03700 26.56500
C  -1.82900 22.67300 23.35000
O  -1.55400 22.37400 22.17100
C  -1.80300 24.05200 23.75100
N  -2.16200 17.18700 23.53000
C  -2.09100 18.17000 22.57500
C  -2.12600 17.60000 21.16100
C  -1.56500 16.13400 21.42900
C  -1.84200 15.99000 22.90600
C  -3.54100 17.61200 20.44100
C  -0.03200 15.93700 21.12400
C  0.93600 16.76500 21.94200
N  -1.93300 15.48500 25.86600
C  -1.93900 14.48800 24.88600
C  -2.03900 13.18100 25.50800
C  -2.11800 13.47000 26.84400
C  -2.08600 14.85900 27.00300
C  -1.92300 11.90700 24.78300
C  -2.28200 12.84300 28.09300
O  -2.22500 11.67900 28.45000
C  -2.34600 14.00000 29.16600
C  -1.28600 13.79800 30.18500
O  -0.08900 13.91400 29.91000
O  -1.75600 13.35400 31.45400
C  -0.79700 13.22800 32.48200
H  -2.75600 20.80100 28.55900
H  -2.30600 20.13200 21.99800
H  -1.60200 13.89600 22.93500
H  -3.24600 16.78000 30.80600
H  -1.94500 19.29000 30.44400
H  -4.76400 19.67800 29.74200
H  -3.94100 19.95600 31.31600
H  -4.70000 18.43700 30.97100
H  -0.22200 16.88600 30.47500
H  -1.29200 15.89700 31.34100
H  -1.63400 18.54800 32.38100
H  0.05300 18.12500 32.46100
H  -1.91500 23.69000 26.59700
H  -2.99100 22.80800 27.61100
H  -3.71100 23.42600 26.13800
H  -2.80200 24.25700 24.13600
H  -1.67500 24.72600 22.90400
H  -1.00700 24.19800 24.48100
H  -1.37000 18.06300 20.52700
H  -2.12500 15.41800 20.82700
H  -3.45600 17.87300 19.38600
H  -4.15100 18.38400 20.91000
H  -4.07400 16.67400 20.59600
H  0.18500 16.08800 20.06600
H  0.29300 14.90800 21.27400
H  0.49600 17.74700 22.11300
H  1.81500 17.06400 21.37000
H  1.18000 16.19100 22.83600
H  -1.14100 12.15700 24.06600
H  -2.82300 11.67200 24.21400
H  -1.62600 11.08200 25.43000
H  -3.34100 13.77900 29.55100
H  -1.05800 14.06600 33.12800
H  0.26500 13.32600 32.25700
H  -0.90000 12.25200 32.95600
Mg 47.52100 45.09800 42.40000
C  44.17400 44.33300 42.63600
C  48.13800 41.68600 41.76100
C  50.75800 45.84500 41.83000
C  46.69100 48.45500 42.29800
N  46.26100 43.29200 41.99900
C  44.97400 43.18900 42.29000
C  44.45900 41.78400 42.31000
C  45.74900 40.92000 42.16100
C  46.77300 42.00700 41.98100
C  46.01900 39.89600 43.25500
C  43.32000 41.49100 41.32500
C  43.17100 42.14200 39.98700
H  43.74100 41.56400 38.66800
N  49.26900 43.94000 42.00000
C  49.27800 42.57500 41.77600
C  50.67800 42.19500 41.53000
C  51.48800 43.36000 41.59100
C  50.50800 44.49200 41.77300
C  51.03700 40.77200 41.33400
C  52.96500 43.37900 41.47900
O  53.53400 42.36500 41.07900
C  53.79000 44.57300 41.93900
N  48.53700 46.87800 41.89100
C  49.91600 46.93200 41.91800
C  50.54800 48.38000 41.84200
C  49.14800 49.23300 41.89600
C  48.06400 48.12000 42.02400
C  51.56100 48.71900 42.86500
C  49.03900 50.13700 40.64100
C  48.31900 51.47800 40.77800
N  45.81600 46.22200 42.46500
C  45.60800 47.59100 42.45000
C  44.17800 47.85500 42.55400
C  43.58400 46.61900 42.78100
C  44.58300 45.63300 42.60500
C  43.61300 49.18300 42.52300
C  42.32000 45.91400 42.90200
O  41.14500 46.40700 42.89700
C  42.67700 44.41900 42.94600
C  42.26400 43.75800 44.19500
O  41.61700 42.72400 44.20800
O  42.66100 44.46900 45.30100
C  42.16600 43.93300 46.56500
H  48.32300 40.61200 41.83400
H  51.82500 46.07300 41.78400
H  46.54500 49.53400 42.37000
H  43.98200 41.69500 43.28600
H  45.77800 40.38500 41.21200
H  45.99700 38.92000 42.77100
H  45.35100 39.88400 44.11700
H  47.01800 39.94100 43.68700
H  42.34100 41.62000 41.78700
H  43.41300 40.42300 41.12800
H  43.83300 43.00000 40.09800
H  42.18900 42.59000 39.83300
H  51.84300 40.63800 40.61100
H  50.17000 40.29700 40.87500
H  51.30300 40.20400 42.22500
H  53.57700 45.38800 41.24700
H  54.82900 44.24600 41.90100
H  53.36900 44.92400 42.88100
H  51.00600 48.39500 40.85200
H  49.10000 49.76400 42.84600
H  52.35800 49.20600 42.30100
H  52.06500 47.86400 43.31500
H  51.15600 49.37800 43.63300
H  48.47100 49.59100 39.88700
H  50.05800 50.31000 40.29700
H  47.39700 51.37200 40.20600
H  48.86400 52.35900 40.43900
H  47.94000 51.70300 41.77500
H  44.04100 49.76400 41.70600
H  43.88100 49.81600 43.37000
H  42.53200 49.15900 42.38300
H  42.11600 44.03400 42.09400
H  43.01100 43.95000 47.25400
H  41.79100 42.92000 46.41400
H  41.45000 44.59400 47.05200

