158

Mg 46.44100 17.65300 28.31300
C  44.96300 16.92500 31.49300
C  48.90400 19.36800 29.89100
C  47.69400 18.20700 25.38900
C  43.81900 15.78000 26.83600
N  46.79200 18.09500 30.36300
C  46.08500 17.69600 31.45600
C  46.82800 18.04400 32.76400
C  47.83300 19.12100 32.25800
C  47.86900 18.85400 30.68100
C  47.36000 20.53600 32.47300
C  47.42100 16.82400 33.46700
C  47.56100 16.86400 35.01800
H  47.26200 18.14700 35.79400
N  48.11200 18.64300 27.71700
C  49.08400 19.26500 28.51700
C  50.17100 19.73500 27.65700
C  49.79000 19.48100 26.33300
C  48.49300 18.71700 26.44400
C  51.40600 20.30700 28.19300
C  50.50200 19.88700 24.99200
O  49.99100 19.73700 23.92200
C  51.86600 20.63000 25.04200
N  45.89800 16.92500 26.44700
C  46.52000 17.50600 25.37300
C  45.80200 17.24300 24.03500
C  44.44300 16.49800 24.46200
C  44.72200 16.35800 25.99500
C  45.70900 18.54200 23.24100
C  44.14500 15.09700 23.83500
C  44.20700 15.10900 22.26600
N  44.71300 16.59600 29.00000
C  43.75000 15.90200 28.21700
C  42.73200 15.34300 29.11800
C  43.21100 15.77100 30.44300
C  44.39500 16.49500 30.28800
C  41.65100 14.33900 28.72000
C  42.92600 15.64800 31.87000
O  42.02700 15.05000 32.48800
C  44.06600 16.40800 32.60400
C  43.48300 17.47000 33.38900
O  43.13200 18.52900 32.86000
O  43.45300 17.15700 34.66000
C  42.95700 18.14900 35.60100
H  49.52400 20.08500 30.43200
H  48.06500 18.44100 24.38900
H  43.01600 15.33300 26.24600
H  46.14500 18.59700 33.40900
H  48.82000 19.02200 32.71100
H  48.19500 21.19700 32.24300
H  47.04600 20.52700 33.51700
H  46.51500 20.73000 31.81200
H  48.41400 16.58800 33.08500
H  46.75800 15.99400 33.22300
H  48.59000 16.55200 35.19900
H  46.97500 16.02300 35.39000
H  51.27500 20.71800 29.19400
H  51.80000 21.09400 27.55000
H  52.19800 19.57300 28.34100
H  51.78900 21.62900 25.47100
H  52.16400 20.66700 23.99400
H  52.63700 20.06800 25.56900
H  46.48200 16.56100 23.52500
H  43.62600 17.21900 24.42900
H  45.88400 19.33600 23.96700
H  44.71600 18.72200 22.83000
H  46.37300 18.53200 22.37600
H  43.11400 14.87000 24.10900
H  44.86500 14.35700 24.18400
H  44.54800 16.12100 22.05000
H  43.29600 14.78500 21.76300
H  45.06100 14.55800 21.87300
H  40.72300 14.87900 28.53200
H  41.59900 13.71400 29.61200
H  41.94300 13.71300 27.87700
H  44.67300 15.70900 33.17900
H  42.07200 17.68900 36.04100
H  42.75700 19.16200 35.25100
H  43.67900 18.39400 36.38000
Mg 17.29500 52.22300 26.18500
C  19.02400 50.90100 28.93300
C  14.80500 53.22900 28.42200
C  15.50500 53.32500 23.57900
C  19.60600 50.84300 23.97800
N  16.91600 52.00400 28.33900
C  17.81500 51.50000 29.26800
C  17.33900 51.69600 30.69200
C  15.85000 52.19900 30.54800
C  15.85000 52.52300 29.03000
C  14.89100 51.02600 30.70600
C  18.16200 52.75600 31.57700
C  18.24700 52.37500 33.07500
H  16.97900 51.78400 33.75300
N  15.51900 53.27900 26.08700
C  14.65700 53.55800 27.09100
C  13.59500 54.37800 26.54500
C  13.71400 54.34800 25.13200
C  14.96400 53.62400 24.88600
C  12.63400 55.09000 27.45400
C  12.77900 54.93900 24.03600
O  12.87000 54.75100 22.83300
C  11.59000 55.69900 24.43300
N  17.41100 51.92400 24.11200
C  16.61500 52.59800 23.23600
C  17.06400 52.48500 21.77500
C  18.49800 52.07500 22.05800
C  18.52900 51.56800 23.46500
C  16.18900 51.43200 21.02400
C  19.60200 53.26400 21.86400
C  20.82300 52.99100 21.03900
N  19.00800 50.95000 26.37200
C  19.80400 50.47200 25.38500
C  20.95200 49.86500 25.98600
C  20.65300 49.94000 27.37900
C  19.42200 50.62100 27.59000
C  22.08000 49.25200 25.20600
C  21.14600 49.59600 28.68200
O  22.23500 49.05800 28.89000
C  20.17600 50.30700 29.83800
C  19.68300 49.27600 30.76300
O  19.06700 48.26900 30.54700
O  20.01600 49.68800 32.04800
C  19.48600 48.90100 33.20500
H  14.06000 53.53400 29.16000
H  14.94900 53.75700 22.74400
H  20.50900 50.61500 23.40800
H  17.36300 50.78100 31.28400
H  15.59800 53.02500 31.21300
H  15.43500 50.24700 31.23900
H  14.34900 50.62600 29.84900
H  14.06500 51.36600 31.33000
H  17.78300 53.77600 31.64500
H  19.14300 52.66000 31.11100
H  18.55900 53.30600 33.54800
H  19.13000 51.74900 33.20600
H  11.75000 55.35200 26.87200
H  13.21500 55.88500 27.92100
H  12.35300 54.33100 28.18300
H  11.01300 54.94500 24.96800
H  11.05800 55.86600 23.49600
H  11.86600 56.62000 24.94500
H  16.98900 53.43200 21.24100
H  18.66000 51.25400 21.35800
H  15.10800 51.57200 21.05800
H  16.40300 50.50100 21.54900
H  16.57900 51.43600 20.00700
H  19.87800 53.71000 22.82000
H  19.01100 54.00500 21.32500
H  20.98300 53.58000 20.13600
H  20.91500 51.92000 20.85800
H  21.67500 53.17600 21.69400
H  21.89700 48.19100 25.03600
H  22.95900 49.42600 25.82700
H  22.31100 49.75200 24.26600
H  20.90200 50.96900 30.30900
H  18.56100 48.43100 32.87300
H  19.24600 49.53600 34.05800
H  20.29100 48.22100 33.48500

