158

Mg 24.08400 -3.83600 45.91400
C  26.03700 -1.54400 44.20200
C  21.49100 -3.03400 43.72900
C  22.46100 -6.63400 46.87500
C  26.99800 -4.89200 47.64300
N  23.89300 -2.44000 44.05200
C  24.81600 -1.55600 43.60500
C  24.32400 -0.68700 42.50600
C  22.79100 -1.02500 42.60700
C  22.65300 -2.22700 43.55200
C  21.93100 0.24300 43.11800
C  24.91800 -0.98400 41.05600
C  24.39000 0.01700 39.95900
H  24.05100 -0.58500 38.57900
N  22.16100 -4.74100 45.36100
C  21.23200 -4.23500 44.52800
C  20.13000 -5.11800 44.59400
C  20.36600 -6.15700 45.56900
C  21.71200 -5.88600 45.99100
C  18.90400 -4.73900 43.81600
C  19.39600 -7.26400 45.87300
O  18.28200 -7.35400 45.34900
C  19.71200 -8.33900 46.86600
N  24.65300 -5.44100 47.12800
C  23.80000 -6.50000 47.30900
C  24.54000 -7.70000 47.90900
C  25.92900 -7.13300 48.32900
C  25.85400 -5.75200 47.67400
C  23.83200 -8.53800 49.06400
C  27.13300 -8.09100 47.97500
C  27.95900 -8.62700 49.11000
N  26.03400 -3.25500 46.12800
C  27.12000 -3.71000 46.88100
C  28.28900 -2.79900 46.69300
C  27.82900 -1.94100 45.70100
C  26.48800 -2.34900 45.30400
C  29.54400 -2.83300 47.41800
C  28.34000 -0.89300 44.85200
O  29.40100 -0.26100 44.84600
C  27.27200 -0.66300 43.84000
C  26.86500 0.81400 43.91500
O  26.14800 1.33800 44.71900
O  27.30400 1.49600 42.77100
C  27.30300 2.98000 43.00200
H  20.58000 -2.73500 43.20600
H  21.94600 -7.56400 47.12200
H  27.86600 -5.27200 48.18600
H  24.59000 0.35200 42.70100
H  22.48400 -1.43600 41.64500
H  21.53800 0.22100 44.13500
H  21.01800 0.22600 42.52300
H  22.37400 1.23400 43.01900
H  24.97100 -2.03400 40.76600
H  25.93100 -0.60000 41.17900
H  25.17900 0.75800 39.82500
H  23.57800 0.57900 40.41900
H  19.12000 -4.18200 42.90500
H  18.11900 -4.27500 44.41300
H  18.47200 -5.65000 43.40100
H  18.89500 -9.04600 47.01400
H  20.06100 -7.79400 47.74300
H  20.43300 -9.02900 46.42700
H  24.56800 -8.45100 47.11900
H  25.89900 -7.01600 49.41200
H  24.48800 -8.81200 49.89000
H  23.38100 -9.49300 48.79300
H  22.95600 -8.08100 49.52500
H  27.78300 -7.52800 47.30500
H  26.70900 -8.87900 47.35200
H  27.65200 -8.05500 49.98600
H  29.00300 -8.44300 48.85900
H  27.76700 -9.69800 49.16200
H  29.93200 -3.84900 47.48800
H  29.54600 -2.25300 48.34100
H  30.18800 -2.27800 46.73600
H  27.79900 -0.84700 42.90300
H  27.65500 3.50500 42.11400
H  27.89600 3.20500 43.88800
H  26.31400 3.29000 43.33900
Mg -11.72500 38.89500 42.17300
C  -10.26600 35.96600 40.98000
C  -9.33200 40.73600 40.49900
C  -13.52200 41.64700 42.66300
C  -14.67100 36.91200 42.94500
N  -10.11000 38.40500 40.89900
C  -9.54400 37.18200 40.73400
C  -8.17700 37.23700 40.04200
C  -7.76900 38.72900 40.06400
C  -9.13600 39.34000 40.57100
C  -6.57200 39.17900 41.03700
C  -8.46600 36.73800 38.58400
C  -7.45800 35.68800 38.00400
H  -6.39000 36.24700 37.01600
N  -11.45400 40.89700 41.68100
C  -10.38100 41.48300 40.99000
C  -10.45300 42.91100 41.09900
C  -11.65100 43.17200 41.82800
C  -12.32100 41.87100 42.03300
C  -9.43800 43.92000 40.51700
C  -12.20000 44.51900 42.35800
O  -11.55600 45.43900 42.00700
C  -13.37300 44.74400 43.25500
N  -13.83500 39.19700 42.64700
C  -14.19800 40.47200 42.97700
C  -15.65700 40.51900 43.40400
C  -16.11800 38.98000 43.35400
C  -14.81100 38.27200 42.94700
C  -15.80300 41.16200 44.79700
C  -17.32200 38.59300 42.48300
C  -17.15500 38.07400 41.03400
N  -12.32000 36.84400 42.15600
C  -13.51700 36.22800 42.47600
C  -13.34300 34.80000 42.32400
C  -12.03500 34.64100 41.81000
C  -11.53800 35.88000 41.61300
C  -14.40400 33.76800 42.70100
C  -11.00700 33.66600 41.36600
O  -11.03800 32.45300 41.37900
C  -9.74400 34.49400 40.91700
C  -8.76500 34.19600 42.03700
O  -7.71000 33.53700 41.97800
O  -9.16400 34.89100 43.10300
C  -8.13200 34.79800 44.16100
H  -8.42600 41.31000 40.29100
H  -14.11200 42.51300 42.97200
H  -15.54600 36.28200 43.11700
H  -7.48800 36.48000 40.41700
H  -7.61200 39.07600 39.04300
H  -5.69700 39.43900 40.44100
H  -6.22200 38.28000 41.54500
H  -6.75100 40.06100 41.65100
H  -8.50100 37.60500 37.92400
H  -9.47300 36.32700 38.50500
H  -8.04600 34.90400 37.52700
H  -6.92500 35.09600 38.74600
H  -8.41800 43.54000 40.57800
H  -9.40500 44.86300 41.06200
H  -9.65800 44.14100 39.47300
H  -13.15400 45.77100 43.54700
H  -13.33700 44.06300 44.10600
H  -14.34800 44.81000 42.77300
H  -16.15100 41.11700 42.63800
H  -16.36300 38.73700 44.38700
H  -14.95500 40.99000 45.46000
H  -16.67300 40.70200 45.26300
H  -15.93700 42.24100 44.72400
H  -17.92600 39.48900 42.33900
H  -17.79400 37.86200 43.13900
H  -17.68800 37.13000 41.14900
H  -16.16600 37.85100 40.63600
H  -17.75400 38.68000 40.35400
H  -13.94100 32.84100 42.36200
H  -15.36500 33.98000 42.23400
H  -14.63100 33.66900 43.76300
H  -9.39600 34.17600 39.93500
H  -8.28300 35.69600 44.75900
H  -7.12400 34.86100 43.75100
H  -8.14800 33.87700 44.74400

