158

Mg 43.82100 3.72200 47.06200
C  41.92900 6.76100 47.13800
C  40.97400 2.01700 46.94400
C  45.76000 1.07800 46.66700
C  46.76100 5.82900 46.82700
N  41.69900 4.35300 47.00700
C  41.13200 5.61300 47.08400
C  39.64100 5.46000 47.26700
C  39.38300 3.87500 47.49800
C  40.74700 3.36500 47.09300
C  39.07600 3.57400 48.97400
C  38.76100 6.00000 46.05200
C  39.20500 5.53600 44.58100
H  39.35200 6.72300 43.62100
N  43.42700 1.84100 46.76000
C  42.16000 1.33900 46.72000
C  42.31700 -0.16200 46.60300
C  43.68500 -0.55200 46.60800
C  44.36800 0.85600 46.68700
C  41.04300 -1.07800 46.49800
C  44.23100 -1.99200 46.58400
O  43.56900 -2.99700 46.32400
C  45.67400 -2.18000 46.76700
N  45.95800 3.44200 46.76800
C  46.53800 2.24100 46.61000
C  48.09400 2.26200 46.53300
C  48.35900 3.81500 46.36400
C  46.93800 4.41300 46.64000
C  48.75000 1.75500 47.79800
C  48.87500 4.28500 45.00000
C  49.77700 3.47800 44.06000
N  44.34000 5.91400 46.99000
C  45.55100 6.55700 46.92100
C  45.24600 7.97700 46.99200
C  43.86300 8.12700 47.09700
C  43.35800 6.89200 47.03800
C  46.30600 9.07000 46.94000
C  42.77600 9.11800 47.14000
O  42.74400 10.32500 47.04000
C  41.53400 8.26600 47.23600
C  40.78500 8.58000 48.46800
O  40.87800 7.98300 49.52500
O  39.94200 9.64500 48.30600
C  38.97300 9.91500 49.37500
H  40.12400 1.33200 46.94700
H  46.28400 0.16400 46.37800
H  47.64900 6.44900 46.68500
H  39.30800 6.05800 48.11500
H  38.59400 3.42300 46.89600
H  39.90800 3.07100 49.46500
H  38.24000 2.87800 48.90400
H  38.82700 4.48500 49.52000
H  38.70200 7.08400 46.14500
H  37.74200 5.61700 46.08900
H  38.44400 4.85600 44.19700
H  40.17000 5.03300 44.62800
H  40.34500 -0.86700 47.30800
H  41.13300 -2.14000 46.26800
H  40.53600 -0.65800 45.63000
H  45.93900 -1.54500 47.61300
H  46.17600 -2.03000 45.81100
H  45.82000 -3.16400 47.21200
H  48.48800 1.65800 45.71600
H  49.08800 4.25900 47.04200
H  49.42100 0.96700 47.45700
H  47.98600 1.37400 48.47600
H  49.30300 2.46500 48.41200
H  49.42400 5.21800 45.12900
H  48.04700 4.66100 44.40000
H  49.43900 3.75200 43.06100
H  49.61300 2.41700 44.25000
H  50.81400 3.73800 44.27600
H  46.51000 9.55600 47.89400
H  46.00900 9.89800 46.29600
H  47.22000 8.62100 46.55000
H  40.94300 8.52400 46.35800
H  38.93800 10.96200 49.67400
H  39.09900 9.34500 50.29600
H  37.99900 9.75300 48.91400
Mg 35.47000 1.20300 30.02000
C  33.17500 2.16700 32.42000
C  37.91700 1.06800 32.58600
C  37.92900 0.95300 27.78700
C  33.15200 1.94400 27.55600
N  35.50200 1.60900 32.27000
C  34.39400 1.89100 33.03200
C  34.75500 2.01600 34.48200
C  36.32400 1.91900 34.51200
C  36.60900 1.50700 33.07600
C  37.11700 3.21400 34.73700
C  34.02800 0.87100 35.29900
C  33.66300 1.25100 36.77500
H  34.81000 1.72600 37.71300
N  37.63600 0.88800 30.13500
C  38.40300 0.83700 31.25900
C  39.80400 0.43300 30.89300
C  39.81400 0.39900 29.46600
C  38.42700 0.85700 29.10200
C  40.96600 0.32500 31.88700
C  40.94600 0.04900 28.48600
O  40.73800 -0.07800 27.28600
C  42.36000 -0.32600 28.95000
N  35.55100 1.52300 27.98600
C  36.68700 1.19900 27.23100
C  36.31300 1.12700 25.68400
C  34.86400 1.66600 25.61500
C  34.44700 1.65800 27.13600
C  37.35000 1.84700 24.81100
C  33.88100 0.88300 24.60000
C  33.62400 1.41700 23.15800
N  33.46800 1.78500 29.97000
C  32.68500 2.07800 28.88100
C  31.37900 2.37800 29.36900
C  31.56300 2.51200 30.74400
C  32.84300 2.13200 31.06300
C  30.13000 2.70900 28.54000
C  30.85800 2.89900 31.99100
O  29.68000 3.30300 32.16700
C  31.98900 2.70600 33.16900
C  32.23400 4.00200 33.76000
O  32.70100 4.97600 33.15700
O  31.89300 4.12600 35.08100
C  32.43200 5.25100 35.82800
H  38.71300 0.93200 33.32100
H  38.60400 0.61500 26.99800
H  32.52800 2.13800 26.68000
H  34.51000 3.02900 34.80000
H  36.77000 1.11100 35.09100
H  37.56100 3.68000 33.85800
H  37.95400 3.08200 35.42200
H  36.60200 4.01100 35.27300
H  34.60200 -0.05500 35.34000
H  33.11900 0.54800 34.79000
H  33.10000 0.49700 37.32500
H  32.97200 2.08300 36.64300
H  40.65600 -0.13700 32.82400
H  41.40300 1.32200 31.94000
H  41.82700 -0.26700 31.57500
H  42.56300 0.34700 29.78300
H  43.17600 -0.26800 28.22900
H  42.24100 -1.34100 29.33000
H  36.27100 0.07900 25.38800
H  34.96500 2.64500 25.14600
H  38.02100 2.47600 25.39600
H  36.92500 2.57400 24.11900
H  37.93400 1.18200 24.17500
H  32.86800 0.87200 25.00200
H  34.25400 -0.14000 24.53900
H  33.68900 2.50300 23.09300
H  32.61100 1.11400 22.89600
H  34.42300 0.99500 22.54800
H  30.32000 2.49100 27.48900
H  29.94300 3.78000 28.61900
H  29.26600 2.23400 29.00500
H  31.60600 2.02600 33.92900
H  32.36800 6.18900 35.27600
H  33.44600 5.00200 36.14100
H  31.62900 5.33300 36.56200

