158

Mg 25.20900 0.97400 28.85800
C  27.16000 0.70700 31.70600
C  22.41400 0.80500 31.15700
C  23.12200 1.15100 26.32200
C  27.92200 0.40200 26.86400
N  24.84500 0.61300 31.16200
C  25.85700 0.75100 32.11600
C  25.37300 0.76300 33.58100
C  23.78700 0.82800 33.35100
C  23.64700 0.68700 31.79400
C  22.89000 -0.17600 34.15700
C  25.83900 1.96600 34.42200
C  24.99300 2.44500 35.58400
H  25.61100 3.00900 36.86500
N  23.12000 0.94200 28.68300
C  22.19500 0.90100 29.71000
C  20.78300 1.04100 29.14000
C  20.94800 1.14300 27.72200
C  22.42400 1.09600 27.51400
C  19.53100 0.74700 29.88200
C  19.89500 1.14500 26.55400
O  20.20300 1.23100 25.37800
C  18.33600 0.99200 26.87600
N  25.43300 0.81300 26.88900
C  24.49700 1.01700 25.97500
C  25.05200 1.22200 24.60800
C  26.61900 1.19200 24.83700
C  26.68200 0.69100 26.25100
C  24.52200 0.21400 23.57300
C  27.37500 2.58100 24.67500
C  26.91900 3.70900 25.57000
N  27.19900 0.61000 29.13300
C  28.26000 0.40500 28.24000
C  29.50500 0.19600 28.97000
C  29.14300 0.35800 30.32200
C  27.70500 0.57100 30.36300
C  30.84400 0.06800 28.27500
C  29.64100 0.41000 31.68900
O  30.72000 0.25700 32.14200
C  28.36300 0.53200 32.56900
C  28.28600 -0.69400 33.39100
O  27.89500 -1.79100 33.09300
O  28.59500 -0.34800 34.68100
C  28.26400 -1.23000 35.84400
H  21.55300 0.81600 31.82900
H  22.57300 1.23400 25.38100
H  28.72000 0.16600 26.15700
H  25.73300 -0.14100 34.07400
H  23.41100 1.81300 33.62600
H  22.29100 -0.88200 33.58200
H  22.28100 0.40100 34.85200
H  23.56300 -0.86800 34.66300
H  25.90200 2.78900 33.71000
H  26.85800 1.91200 34.80500
H  24.28100 1.65400 35.82200
H  24.46400 3.36400 35.33400
H  18.73200 1.43900 29.61500
H  19.59200 0.77900 30.97000
H  19.16300 -0.20200 29.49300
H  17.74500 1.07300 25.96400
H  17.98600 1.65200 27.67000
H  18.29000 -0.00700 27.31000
H  24.73600 2.25700 24.47700
H  27.05900 0.37500 24.26400
H  23.99900 -0.69200 23.87900
H  25.35400 -0.00300 22.90400
H  23.75000 0.75500 23.02400
H  27.06700 3.04100 23.73600
H  28.43600 2.33600 24.63900
H  27.46500 3.52500 26.49500
H  25.83800 3.64900 25.69600
H  27.16800 4.68700 25.15800
H  30.88000 0.45700 27.25700
H  31.02400 -1.00700 28.30300
H  31.68200 0.39500 28.89100
H  28.42600 1.43800 33.17200
H  27.55700 -0.63100 36.41800
H  29.19600 -1.40400 36.38300
H  27.65400 -2.09500 35.58500
Mg 27.33300 50.32000 26.78800
C  25.15900 51.48000 29.37700
C  29.41500 49.26700 29.08700
C  29.43500 49.53800 24.17900
C  25.14600 51.93700 24.47800
N  27.21300 50.30600 28.96600
C  26.25000 50.69000 29.86900
C  26.57900 50.20700 31.19900
C  28.07500 49.92500 31.16400
C  28.25800 49.79500 29.65100
C  28.97500 50.95000 31.90700
C  25.82600 48.91900 31.58700
C  25.36200 48.81100 33.04000
H  25.72100 49.95200 34.00400
N  29.21400 49.44100 26.63600
C  29.91700 49.12100 27.75800
C  31.22400 48.60700 27.32000
C  31.20300 48.69100 25.88100
C  29.88000 49.25500 25.51600
C  32.23800 48.14500 28.21400
C  32.35400 48.43700 25.01100
O  32.35200 48.98500 23.86500
C  33.58000 47.63700 25.42000
N  27.27000 50.78000 24.57200
C  28.23700 50.19700 23.79800
C  27.81500 50.35800 22.29600
C  26.37700 50.89700 22.40900
C  26.25300 51.22100 23.87300
C  28.88800 51.23600 21.39900
C  25.28100 49.93200 21.90700
C  24.35000 49.11100 22.87400
N  25.49500 51.31600 26.86700
C  24.81400 51.93500 25.86500
C  23.64700 52.54400 26.50000
C  23.69300 52.43800 27.85300
C  24.92400 51.71700 28.02000
C  22.57100 53.23100 25.75100
C  23.17500 52.79900 29.08400
O  22.19400 53.46900 29.44500
C  24.01400 52.09600 30.16400
C  24.48700 53.06300 31.23300
O  25.57200 53.51100 31.33000
O  23.36800 53.41600 31.93500
C  23.58100 54.17700 33.19300
H  30.14800 49.04700 29.86500
H  30.02900 49.13500 23.35600
H  24.30100 52.39300 23.95800
H  26.52800 51.03700 31.90400
H  28.36000 48.98500 31.63700
H  29.37700 50.40900 32.76300
H  28.55900 51.92400 32.16400
H  29.89400 51.14200 31.35200
H  26.51900 48.09800 31.40400
H  24.96400 48.74400 30.94200
H  25.61700 47.84700 33.48100
H  24.27700 48.89500 32.99000
H  31.97000 48.55100 29.18900
H  33.22800 48.54500 27.99600
H  32.34300 47.06100 28.16200
H  34.23800 48.13000 26.13500
H  34.18100 47.58800 24.51200
H  33.35800 46.62600 25.76300
H  27.81100 49.39500 21.78500
H  26.27400 51.88200 21.95400
H  29.75500 51.49700 22.00500
H  28.39100 52.12800 21.01900
H  29.23800 50.64400 20.55300
H  25.69600 49.28500 21.13300
H  24.68200 50.56200 21.24900
H  24.63400 49.08900 23.92700
H  24.27900 48.09000 22.49900
H  23.33800 49.51700 22.85000
H  22.19800 52.69000 24.88200
H  22.92300 54.16900 25.32200
H  21.75800 53.52200 26.41700
H  23.40600 51.30000 30.59300
H  24.61800 54.10900 33.52200
H  22.90600 53.79400 33.95900
H  23.32500 55.22200 33.01900

