158

Mg 42.16500 41.13300 26.09600
C  41.18100 43.59300 28.56100
C  43.05300 39.01300 28.77000
C  43.34600 38.86900 23.93500
C  41.83000 43.45000 23.78600
N  42.20400 41.30200 28.37600
C  41.61800 42.34600 29.14500
C  41.54400 41.97600 30.62700
C  42.43300 40.62500 30.67200
C  42.62500 40.28200 29.21100
C  43.77300 40.64200 31.37500
C  40.06700 41.83800 31.33600
C  40.00800 41.23300 32.75400
H  39.50100 42.07700 33.93600
N  43.03600 39.17600 26.36900
C  43.31200 38.46600 27.50600
C  43.85900 37.16800 27.19400
C  43.95400 37.11000 25.77600
C  43.45700 38.39100 25.30900
C  44.07200 36.06800 28.25200
C  44.44100 36.03800 24.87600
O  44.59800 36.17300 23.64400
C  44.75500 34.60200 25.48000
N  42.65400 41.15600 24.19000
C  42.94300 40.09500 23.46500
C  42.98900 40.50000 21.97100
C  42.45000 41.95900 21.90100
C  42.31600 42.22600 23.41700
C  44.33400 40.34600 21.21900
C  41.08600 42.07200 21.22100
C  39.88700 41.22700 21.76000
N  41.67800 43.06400 26.06100
C  41.61300 43.93900 25.02200
C  41.15400 45.26700 25.42600
C  40.91400 45.11100 26.78700
C  41.24900 43.78700 27.16300
C  40.98000 46.46400 24.51700
C  40.46300 45.79900 27.98600
O  40.02400 46.89100 28.12800
C  40.63500 44.78200 29.19700
C  41.49000 45.33200 30.30400
O  42.55700 45.78400 30.13600
O  40.85400 45.16400 31.49600
C  41.63500 45.51600 32.69800
H  43.25600 38.33800 29.60400
H  43.69900 38.27600 23.08900
H  41.64100 44.22300 23.03800
H  42.03200 42.81600 31.12200
H  41.83000 39.87700 31.18800
H  43.79100 39.92700 32.19700
H  43.97300 41.58300 31.88700
H  44.61800 40.49900 30.70100
H  39.40400 41.36600 30.61100
H  39.50700 42.74500 31.56000
H  41.04800 40.93400 32.88600
H  39.36700 40.35500 32.67900
H  43.95500 36.35400 29.29700
H  45.09700 35.75300 28.05700
H  43.36500 35.27900 27.99800
H  45.45400 34.76900 26.29900
H  45.19400 33.98600 24.69500
H  43.86900 34.13500 25.91000
H  42.30600 39.76200 21.54800
H  43.17900 42.67800 21.52900
H  45.04100 40.09000 22.00800
H  44.64800 41.27100 20.73500
H  44.18200 39.44700 20.62100
H  41.25500 41.76900 20.18700
H  40.84900 43.13600 21.20000
H  39.72000 40.43600 21.02900
H  39.01600 41.87600 21.85800
H  40.06500 40.91000 22.78800
H  40.95500 46.16900 23.46800
H  41.82000 47.11100 24.76800
H  40.02800 46.96200 24.70200
H  39.65500 44.50900 29.59000
H  41.26700 44.95800 33.56000
H  41.61300 46.58100 32.92800
H  42.65600 45.13800 32.65400
Mg 31.22800 58.09200 40.43400
C  28.51200 56.12100 39.40300
C  33.28200 55.57600 39.34000
C  33.87300 60.10400 40.85400
C  28.99100 60.80400 40.60000
N  30.86700 56.08300 39.49100
C  29.70200 55.48300 39.12300
C  29.89800 54.25800 38.30500
C  31.40300 53.90200 38.59000
C  31.88800 55.26600 39.19900
C  31.57000 52.72300 39.55500
C  29.57700 54.58400 36.75900
C  28.45600 53.78900 35.99700
H  27.47000 54.58000 35.14500
N  33.31700 57.83400 40.32200
C  33.89300 56.77500 39.79800
C  35.35600 56.94100 39.86000
C  35.60000 58.23200 40.32000
C  34.26600 58.78300 40.62000
C  36.34600 55.88500 39.52200
C  36.97400 58.84800 40.58600
O  37.95300 58.24500 40.26500
C  37.11800 60.22600 41.06100
N  31.32200 60.12600 40.69400
C  32.57000 60.74500 40.93000
C  32.46500 62.26900 40.95800
C  30.89400 62.41400 41.07000
C  30.34900 61.05200 40.75900
C  33.18700 63.12900 42.00400
C  30.23400 63.45800 40.08300
C  29.22300 64.44300 40.82500
N  29.13500 58.42500 40.14300
C  28.35900 59.55900 40.28000
C  26.96800 59.28100 40.06500
C  26.96900 57.89800 39.76400
C  28.32200 57.43300 39.83500
C  25.77300 60.22800 40.14000
C  26.07900 56.76500 39.40100
O  24.91400 56.73000 39.22500
C  27.10300 55.55900 39.08300
C  26.65600 54.33100 39.78900
O  26.66100 54.20500 41.03800
O  26.27900 53.40200 38.91600
C  25.64200 52.24100 39.42500
H  33.79700 54.62100 39.21800
H  34.74700 60.73400 41.03300
H  28.23300 61.58500 40.69300
H  29.16600 53.52300 38.63800
H  31.95900 53.56400 37.71600
H  31.95400 52.95200 40.54900
H  32.21800 51.98200 39.08800
H  30.63800 52.15900 39.60100
H  30.55100 54.49800 36.27900
H  29.26100 55.62400 36.67400
H  27.99600 53.24300 36.82100
H  28.89100 53.00900 35.37200
H  37.02300 55.71800 40.35900
H  36.98900 56.11400 38.67200
H  35.85000 54.93100 39.34600
H  36.56900 60.30100 41.99900
H  36.77200 60.83700 40.22700
H  38.16600 60.50100 41.17800
H  32.75600 62.52300 39.93800
H  30.54900 62.70000 42.06400
H  33.51600 63.95400 41.37300
H  34.05200 62.54400 42.31600
H  32.64900 63.40000 42.91300
H  29.70500 63.14200 39.18400
H  30.96900 64.13000 39.64000
H  28.89200 64.05900 41.79000
H  28.29600 64.47300 40.25200
H  29.71900 65.38300 41.06800
H  25.00500 59.85700 39.46100
H  26.01500 61.24300 39.82400
H  25.39600 60.09700 41.15500
H  27.10900 55.42800 38.00100
H  24.69700 52.39000 39.94800
H  26.25300 51.70600 40.15200
H  25.44700 51.56000 38.59700

