158

Mg -2.51300 17.57900 27.16300
C  -2.70100 15.53800 30.13300
C  -3.13800 20.28500 29.23400
C  -2.88500 19.47000 24.40500
C  -3.18300 14.77600 25.30800
N  -2.82100 17.85900 29.51600
C  -2.62300 16.95800 30.47400
C  -2.58300 17.61100 31.90300
C  -2.96800 19.10900 31.58000
C  -3.04100 19.10200 30.05400
C  -4.21800 19.67400 32.18800
C  -1.18300 17.42100 32.60900
C  -1.03200 18.19600 33.98200
H  -0.70700 17.43800 35.20100
N  -2.82800 19.54300 26.83700
C  -2.95500 20.48300 27.82500
C  -2.75200 21.79000 27.23300
C  -2.56400 21.52900 25.84700
C  -2.82900 20.14600 25.65200
C  -2.81500 23.10600 28.05700
C  -2.19200 22.51600 24.67200
O  -2.23200 22.28100 23.47200
C  -1.91500 23.97500 25.02600
N  -2.95200 17.15300 25.14700
C  -3.00400 18.11200 24.17100
C  -3.13900 17.49500 22.71100
C  -3.27500 15.96900 23.02300
C  -3.12500 15.97700 24.58000
C  -4.13900 18.13300 21.76400
C  -2.31800 15.00500 22.22700
C  -1.00000 14.72300 23.00400
N  -2.80200 15.60400 27.55600
C  -2.96700 14.55500 26.70400
C  -3.01100 13.28000 27.38100
C  -2.92100 13.64400 28.72800
C  -2.77000 15.03800 28.82000
C  -3.20500 11.86200 26.85000
C  -2.99800 13.09200 30.05300
O  -3.09000 11.94200 30.45800
C  -2.93100 14.30800 31.07700
C  -1.83600 14.14700 31.97900
O  -0.65100 14.10000 31.77800
O  -2.34200 14.13700 33.24300
C  -1.45400 13.87200 34.35400
H  -3.23000 21.18800 29.84200
H  -2.77500 19.96500 23.43800
H  -3.22700 13.82800 24.76700
H  -3.42500 17.25100 32.49300
H  -2.06400 19.67100 31.81300
H  -4.20400 20.75400 32.33400
H  -4.30800 19.15700 33.14300
H  -5.12200 19.57300 31.58700
H  -0.41200 17.84300 31.96500
H  -0.92600 16.37300 32.76000
H  -1.91200 18.83400 34.06700
H  -0.14500 18.80300 33.80200
H  -1.86700 23.64200 28.02000
H  -3.07200 22.99200 29.11000
H  -3.72900 23.63500 27.78500
H  -2.86100 24.44500 25.29500
H  -1.59900 24.49300 24.12000
H  -1.07900 23.98200 25.72500
H  -2.20100 17.70500 22.19600
H  -4.27800 15.67700 22.71300
H  -4.66700 18.95400 22.25000
H  -4.86500 17.39300 21.43000
H  -3.69200 18.60300 20.88800
H  -2.10700 15.48500 21.27100
H  -2.73800 14.05600 21.89300
H  -0.65300 15.52000 23.66200
H  -0.29600 14.45300 22.21600
H  -1.10100 13.73000 23.44200
H  -2.25500 11.37600 26.62700
H  -3.66100 11.80800 25.86200
H  -3.71700 11.25700 27.59900
H  -3.80600 14.46900 31.70600
H  -1.27200 12.80000 34.42000
H  -2.00600 14.09000 35.26800
H  -0.55200 14.47400 34.24700
Mg 42.64800 41.23400 27.87200
C  41.50700 43.63400 30.30200
C  43.37900 39.11200 30.40400
C  43.96600 39.24000 25.59300
C  42.65900 44.00900 25.50800
N  42.53700 41.48600 30.02800
C  41.94700 42.40800 30.79900
C  41.91700 42.00900 32.23200
C  42.71200 40.68200 32.26400
C  42.90700 40.37700 30.76400
C  44.05500 40.78900 33.02000
C  40.49600 42.02500 32.90500
C  40.30900 43.07000 34.04000
H  39.49900 42.51600 35.31900
N  43.45100 39.35700 27.95100
C  43.54300 38.55600 29.06300
C  43.94200 37.15900 28.71700
C  44.08800 37.21800 27.33200
C  43.92100 38.66700 26.88600
C  43.97400 36.04200 29.69800
C  44.30200 36.04200 26.41200
O  44.64300 36.14900 25.23900
C  44.13400 34.65600 27.03500
N  43.15000 41.59200 25.85600
C  43.70500 40.53900 25.11400
C  43.84500 40.93000 23.64200
C  43.30900 42.42600 23.58000
C  43.06800 42.75000 25.08200
C  45.25100 40.77900 23.04200
C  42.04400 42.57400 22.70800
C  40.67700 42.31400 23.43800
N  42.14700 43.35500 27.90500
C  42.20300 44.29100 26.78500
C  41.67900 45.53400 27.26000
C  41.32200 45.29400 28.66900
C  41.68200 43.97200 28.97700
C  41.37000 46.74900 26.42600
C  40.68400 45.88800 29.91900
O  40.18300 46.96000 30.13100
C  40.91900 44.87000 31.02100
C  41.93100 45.48200 31.94000
O  43.12800 45.27900 31.80200
O  41.27000 46.20300 32.92400
C  41.94900 46.74200 34.16000
H  43.54400 38.36600 31.18500
H  44.30000 38.53300 24.83200
H  42.56400 44.80400 24.76700
H  42.41900 42.80900 32.77700
H  42.07700 39.91500 32.70600
H  44.26400 40.00900 33.75200
H  44.06500 41.75100 33.53200
H  44.92600 40.96000 32.38700
H  40.25500 41.08500 33.40200
H  39.65400 42.11700 32.21800
H  39.75600 43.89000 33.58100
H  41.26000 43.41100 34.44900
H  43.15500 35.35500 29.48200
H  43.79000 36.29200 30.74300
H  44.84600 35.40100 29.57100
H  43.20900 34.48500 27.58500
H  44.96800 34.16200 27.53300
H  44.07700 33.96300 26.19500
H  43.11200 40.29600 23.14400
H  44.09400 43.11700 23.27500
H  45.22400 39.86000 22.45700
H  45.99200 40.53400 23.80200
H  45.53300 41.50100 22.27600
H  41.99200 41.86900 21.87900
H  41.98400 43.49900 22.13400
H  40.76000 42.01800 24.48300
H  39.93600 41.71200 22.91200
H  40.17200 43.28000 23.45100
H  40.52600 46.59600 25.75400
H  42.23100 47.08500 25.84700
H  41.07700 47.53400 27.12300
H  39.95300 44.60900 31.45400
H  42.89000 47.23500 33.91600
H  42.12900 45.96800 34.90600
H  41.25000 47.44800 34.60900

