158

Mg 16.92400 -1.68000 28.61900
C  15.69200 0.63800 30.95200
C  18.92100 -3.03600 31.08900
C  18.53100 -3.42800 26.17700
C  15.44700 0.30500 26.10800
N  17.38800 -1.00800 30.75200
C  16.59200 -0.20000 31.53200
C  16.97200 -0.26600 33.01700
C  18.07600 -1.43100 32.96000
C  18.16500 -1.87600 31.49700
C  19.51700 -1.11600 33.39400
C  15.74700 -0.55400 33.95600
C  15.98700 -0.99500 35.45200
H  17.17000 -0.60200 36.26400
N  18.43300 -3.19800 28.62000
C  19.11700 -3.58900 29.76900
C  20.08600 -4.59300 29.37900
C  19.98600 -4.70700 27.90600
C  18.92000 -3.77000 27.51700
C  20.96400 -5.34300 30.35900
C  20.68100 -5.60700 26.99400
O  20.61500 -5.56800 25.77800
C  21.67600 -6.62600 27.54800
N  16.96000 -1.52100 26.45900
C  17.75700 -2.33000 25.73200
C  17.58600 -2.04000 24.16300
C  16.41000 -1.10500 24.16600
C  16.21700 -0.74800 25.67900
C  18.85800 -1.49600 23.44600
C  15.11900 -1.73000 23.49900
C  14.12800 -0.73100 22.88400
N  15.61700 0.01700 28.49600
C  15.11200 0.65200 27.44500
C  14.24800 1.72300 27.89600
C  14.34800 1.63100 29.27400
C  15.33400 0.69400 29.57100
C  13.38500 2.74600 27.10600
C  13.97800 2.29400 30.52100
O  13.26600 3.27600 30.73400
C  14.69700 1.51200 31.67800
C  15.39100 2.49800 32.46300
O  16.49000 2.98600 32.15400
O  14.70600 2.81800 33.64300
C  15.46600 3.70100 34.56500
H  19.24800 -3.68400 31.90500
H  18.83800 -3.99700 25.29700
H  14.90200 0.96200 25.42700
H  17.47300 0.66600 33.27800
H  17.78300 -2.35200 33.46200
H  19.59500 -0.91500 34.46300
H  20.04500 -0.29300 32.91200
H  20.10200 -2.01500 33.20100
H  15.20700 -1.39300 33.51600
H  15.10400 0.30700 34.13800
H  16.11100 -2.07200 35.33800
H  15.11100 -0.97900 36.10000
H  21.98200 -4.99200 30.18900
H  21.03000 -6.41200 30.15800
H  20.76900 -5.19100 31.42100
H  22.29900 -7.16100 26.83100
H  21.02700 -7.38500 27.98400
H  22.32500 -6.08000 28.23300
H  17.29700 -3.03100 23.81200
H  16.55100 -0.20900 23.56100
H  18.90300 -0.40900 23.50800
H  18.73300 -1.77400 22.40000
H  19.73500 -2.02400 23.82000
H  14.72500 -2.17100 24.41500
H  15.25700 -2.49000 22.73000
H  14.08000 -0.94100 21.81600
H  14.36700 0.32900 22.97200
H  13.12200 -0.88800 23.27100
H  14.04600 3.05900 26.29800
H  13.18800 3.57900 27.78100
H  12.45900 2.28000 26.76900
H  13.96600 0.88700 32.19200
H  16.53600 3.82900 34.39900
H  15.36900 3.30200 35.57400
H  14.95300 4.66200 34.59900
Mg 41.75800 41.19800 27.17100
C  40.88700 43.66400 29.45800
C  42.83700 39.24200 29.81600
C  42.46900 38.68300 24.96900
C  41.15200 43.31600 24.54400
N  41.73100 41.36900 29.34400
C  41.32000 42.47600 30.05700
C  41.25500 42.19000 31.57900
C  41.65700 40.67300 31.68000
C  42.14000 40.40000 30.21200
C  42.80400 40.31300 32.77200
C  39.94200 42.58900 32.27800
C  39.33900 41.68400 33.39200
H  39.02700 42.35200 34.75900
N  42.68100 39.34900 27.35000
C  43.04900 38.74300 28.51500
C  43.58400 37.38500 28.25600
C  43.40700 37.14300 26.86400
C  42.83400 38.48200 26.33400
C  44.22400 36.47400 29.25900
C  43.72600 35.90700 26.00900
O  43.49900 35.85800 24.80100
C  44.32100 34.66000 26.58100
N  42.02200 41.07900 25.09500
C  42.26600 39.88600 24.39200
C  41.96900 40.01100 22.85300
C  41.49300 41.47900 22.82600
C  41.51800 42.02300 24.25400
C  43.35800 39.74600 22.01100
C  40.14500 41.66900 22.09200
C  38.93200 41.12700 22.86300
N  41.09200 43.06900 26.97000
C  40.92500 43.84100 25.83900
C  40.52200 45.14600 26.28300
C  40.52600 45.08500 27.69300
C  40.88600 43.82400 28.06400
C  40.37300 46.38100 25.37300
C  40.28900 45.93600 28.86500
O  39.98000 47.10300 28.95900
C  40.48500 44.95100 30.06300
C  41.51100 45.58500 30.89800
O  42.67900 45.63000 30.68300
O  40.92400 45.97800 32.09400
C  41.80000 46.55900 33.04700
H  43.02700 38.60900 30.68600
H  42.61100 37.96200 24.16100
H  41.10800 43.98800 23.68500
H  42.05300 42.64400 32.16600
H  40.86200 39.94000 31.81900
H  43.76300 40.23500 32.26000
H  42.66300 39.32400 33.20700
H  42.83500 41.10300 33.52200
H  39.25000 42.48100 31.44200
H  39.90700 43.61100 32.65500
H  40.06900 40.90200 33.60400
H  38.45800 41.17200 33.00400
H  45.26400 36.50900 28.93300
H  43.86100 35.44800 29.30100
H  44.09100 36.78800 30.29400
H  43.76000 34.46100 27.49500
H  45.37900 34.88600 26.71300
H  44.15600 33.84100 25.88100
H  41.18500 39.37300 22.44500
H  42.27800 42.18400 22.55300
H  44.01800 39.01800 22.48400
H  43.89700 40.69300 21.99800
H  43.20600 39.39800 20.99000
H  40.25200 41.26100 21.08700
H  40.01000 42.74200 21.95200
H  39.22100 40.33600 23.55400
H  38.19300 40.65800 22.21400
H  38.41400 41.86000 23.48200
H  39.38800 46.51200 24.92500
H  40.96600 46.27700 24.46400
H  40.73800 47.26700 25.89200
H  39.56100 44.80900 30.62300
H  42.48400 47.38000 32.83200
H  42.39300 45.76600 33.50300
H  41.16200 46.89600 33.86300

