158

Mg 1.66700 -1.49500 43.80400
C  5.06200 -0.79100 43.17000
C  0.70400 1.04600 41.83600
C  -1.36200 -2.95500 43.63500
C  2.84500 -4.59800 45.48600
N  2.80200 -0.05500 42.69700
C  4.15600 0.06300 42.57200
C  4.49500 1.28400 41.73600
C  3.09100 1.94400 41.36900
C  2.11200 0.92800 41.98700
C  3.02700 3.33000 42.05400
C  5.36700 1.11500 40.46500
C  6.38100 2.25900 40.01400
H  6.09200 3.09800 38.68400
N  -0.11500 -0.91400 43.06200
C  -0.36700 0.21400 42.30700
C  -1.73000 0.41900 42.17400
C  -2.33300 -0.71500 42.75300
C  -1.25000 -1.62000 43.18100
C  -2.23100 1.79000 41.68500
C  -3.80900 -0.86600 42.83200
O  -4.64500 -0.08700 42.28700
C  -4.48900 -1.95800 43.61200
N  0.84500 -3.54000 44.52800
C  -0.42500 -3.80500 44.24000
C  -0.81100 -5.13600 44.84300
C  0.52700 -5.75000 45.52000
C  1.51900 -4.63900 45.08500
C  -2.05600 -5.15900 45.72700
C  1.05400 -7.17200 45.18400
C  1.26400 -8.03800 46.47400
N  3.49800 -2.51000 44.28400
C  3.72800 -3.66000 44.93900
C  5.20500 -3.77300 45.05700
C  5.77000 -2.69700 44.44100
C  4.64300 -1.98600 43.96100
C  5.92600 -4.88600 45.72900
C  6.97300 -1.89500 44.16700
O  8.13100 -2.09800 44.46500
C  6.60300 -0.70400 43.24400
C  6.92700 0.53400 43.99600
O  6.47700 0.91500 45.10200
O  7.75500 1.31900 43.12000
C  8.24600 2.63500 43.66300
H  0.31400 1.86600 41.23000
H  -2.38700 -3.33200 43.63400
H  3.16000 -5.50600 46.00600
H  5.17400 1.84400 42.37900
H  2.89000 2.09800 40.30900
H  3.99300 3.58700 42.49000
H  2.22100 3.39500 42.78500
H  2.71500 4.00000 41.25300
H  4.75100 0.90000 39.59200
H  5.93200 0.19100 40.58600
H  7.34700 1.78500 39.84100
H  6.35300 2.93100 40.87200
H  -3.24800 1.71200 41.30200
H  -1.64800 2.06700 40.80700
H  -2.15200 2.51700 42.49400
H  -3.88800 -2.17100 44.49600
H  -4.44200 -2.81500 42.94000
H  -5.50700 -1.77100 43.95300
H  -0.90200 -5.73300 43.93500
H  0.54100 -5.62400 46.60300
H  -2.63600 -4.23800 45.66800
H  -1.80700 -5.43500 46.75100
H  -2.74900 -5.83800 45.22900
H  1.91300 -7.28400 44.52200
H  0.25600 -7.56200 44.55300
H  2.18400 -8.59100 46.28300
H  0.38300 -8.67400 46.56800
H  1.42000 -7.46700 47.38900
H  5.55300 -5.03800 46.74200
H  7.00600 -4.73900 45.72100
H  5.71900 -5.82400 45.21500
H  7.11700 -0.64400 42.28500
H  9.33200 2.66400 43.75900
H  7.91800 2.89300 44.67000
H  7.91900 3.51800 43.11500
Mg 46.86400 16.46200 28.73900
C  44.81500 16.04900 31.54900
C  49.32600 17.72500 30.69900
C  48.51800 17.34300 25.90600
C  44.24600 15.17500 26.79300
N  47.01000 16.97600 30.92300
C  46.07800 16.69000 31.92300
C  46.55900 17.09600 33.29000
C  47.90700 17.86000 32.96700
C  48.07600 17.55400 31.44700
C  47.87600 19.36600 33.40200
C  46.66800 15.85300 34.20900
C  46.15700 15.95700 35.66500
H  45.90600 17.34000 36.27100
N  48.63800 17.46900 28.34500
C  49.56000 17.77100 29.29500
C  50.78000 18.11000 28.64600
C  50.47700 18.12800 27.22300
C  49.18400 17.59200 27.08200
C  52.07600 18.40800 29.45600
C  51.34600 18.60400 26.05200
O  50.96100 18.82300 24.86300
C  52.79200 18.97600 26.31100
N  46.48100 16.18700 26.74400
C  47.33300 16.56900 25.74300
C  46.85100 16.21100 24.33900
C  45.65800 15.29000 24.68100
C  45.43300 15.55600 26.16000
C  46.40600 17.52300 23.68600
C  45.93200 13.78800 24.26600
C  45.61400 13.33600 22.84600
N  44.98500 15.57200 29.08400
C  43.98600 15.20600 28.20100
C  42.81500 14.75200 28.90600
C  43.08000 15.11200 30.23200
C  44.39900 15.62900 30.31200
C  41.57600 14.04000 28.35100
C  42.57200 15.14200 31.54700
O  41.45900 14.79500 31.97300
C  43.69000 15.71600 32.52500
C  43.01000 16.80500 33.36300
O  42.82900 18.00400 32.99900
O  42.53200 16.38300 34.48600
C  41.85700 17.29600 35.48000
H  50.20200 17.79700 31.34700
H  48.93800 17.77200 24.99400
H  43.39400 14.61100 26.40800
H  45.72000 17.72400 33.59200
H  48.68700 17.47500 33.62300
H  48.89500 19.60200 33.70600
H  47.14200 19.57800 34.18000
H  47.66300 19.92500 32.49100
H  47.72300 15.63000 34.37200
H  46.18400 14.94300 33.85500
H  46.83400 15.46300 36.36100
H  45.23400 15.38100 35.73800
H  52.91900 17.97200 28.92000
H  52.04800 18.02000 30.47400
H  52.28900 19.46900 29.32500
H  53.33200 18.21100 26.86900
H  52.67300 19.92600 26.83300
H  53.37600 19.13800 25.40500
H  47.61400 15.68500 23.76500
H  44.76900 15.57200 24.11700
H  45.38400 17.64600 23.32800
H  47.05300 17.59200 22.81200
H  46.62500 18.41600 24.27200
H  45.21700 13.28700 24.92000
H  46.92000 13.65800 24.70600
H  45.42500 14.20900 22.22100
H  44.75100 12.67500 22.77200
H  46.41000 12.76300 22.37100
H  41.77600 13.52000 27.41400
H  40.65700 14.62400 28.33700
H  41.39700 13.22700 29.05600
H  43.89000 15.07900 33.38600
H  40.78100 17.20100 35.62700
H  42.05300 18.36200 35.36400
H  42.35400 17.08200 36.42600

