158

Mg 48.26400 35.32300 28.45300
C  46.18900 33.94100 30.77400
C  48.47300 38.08300 30.42400
C  49.46600 37.07700 25.82300
C  47.69200 32.64700 26.34600
N  47.52100 35.81600 30.31400
C  46.84000 35.07000 31.13500
C  47.20600 35.46000 32.53300
C  47.45300 36.97700 32.37600
C  47.88500 36.96000 30.90100
C  46.22500 37.85600 32.67800
C  48.45100 34.68100 33.12000
C  48.67000 34.71900 34.64500
H  47.64200 35.54400 35.42000
N  48.87700 37.27500 28.17600
C  48.88000 38.30200 29.14300
C  49.39200 39.49800 28.64300
C  49.77900 39.21100 27.26300
C  49.42400 37.80400 27.01100
C  49.58800 40.80800 29.53700
C  50.40800 40.24700 26.25600
O  50.70700 39.95900 25.06500
C  50.75500 41.67900 26.67400
N  48.40900 34.87800 26.35100
C  49.11900 35.72300 25.55600
C  49.41000 35.14300 24.18500
C  49.09600 33.62800 24.46100
C  48.46100 33.68800 25.86000
C  48.53600 35.84900 23.17100
C  50.33000 32.72100 24.33300
C  50.82900 32.43300 22.90400
N  47.18700 33.53700 28.53900
C  47.05300 32.50500 27.61300
C  46.30700 31.45900 28.15600
C  45.86500 31.94800 29.40200
C  46.48000 33.26200 29.60100
C  45.96500 30.13100 27.61700
C  45.07300 31.69500 30.60600
O  44.36600 30.72700 30.93200
C  45.13700 33.04800 31.41900
C  45.43800 32.62300 32.84000
O  46.43600 32.00700 33.23700
O  44.42700 32.99900 33.63300
C  44.30800 32.43300 35.04900
H  48.42000 38.89900 31.14900
H  49.91400 37.70100 25.04600
H  47.51000 31.85000 25.62200
H  46.30800 35.31200 33.13300
H  48.20100 37.34400 33.07800
H  46.10800 38.09800 33.73500
H  45.40400 37.34500 32.17600
H  46.42200 38.85000 32.27500
H  49.31400 35.10700 32.60700
H  48.35600 33.65500 32.76500
H  49.70900 34.95000 34.88200
H  48.46000 33.70400 34.98100
H  50.41800 41.42800 29.20000
H  49.82200 40.63300 30.58700
H  48.67000 41.39400 29.47900
H  49.80300 42.03700 27.06700
H  51.14100 42.15600 25.77300
H  51.66200 41.63800 27.27600
H  50.43800 35.38600 23.91600
H  48.35100 33.29100 23.74000
H  49.15800 36.51800 22.57700
H  47.65900 36.29900 23.63600
H  48.21500 35.05400 22.49900
H  49.94900 31.75100 24.65200
H  51.06200 33.07200 25.06000
H  50.44000 33.14000 22.17100
H  50.49600 31.48400 22.48500
H  51.91000 32.29400 22.93900
H  44.89700 30.01800 27.42900
H  46.36000 29.31500 28.22300
H  46.51800 29.97700 26.69100
H  44.13000 33.46400 31.43400
H  43.28800 32.09200 35.22700
H  44.63900 33.14400 35.80600
H  44.93300 31.58300 35.32600
Mg 10.36600 47.29800 25.92000
C  8.36700 47.64300 28.80400
C  12.95900 48.48900 27.66400
C  12.17400 47.07900 23.10300
C  7.38200 46.61900 24.02900
N  10.47600 48.20900 27.87700
C  9.60400 48.18200 28.93300
C  10.23700 48.73400 30.15300
C  11.56200 49.30700 29.68800
C  11.72100 48.65100 28.30500
C  11.60700 50.85600 29.64300
C  10.58400 47.68500 31.31000
C  10.19700 48.00700 32.76400
H  10.01200 46.92000 33.81800
N  12.34700 47.55800 25.46900
C  13.26600 47.97500 26.43900
C  14.56500 47.84900 25.94300
C  14.39400 47.41600 24.56500
C  12.95900 47.26200 24.31100
C  15.84900 48.14800 26.67300
C  15.50600 47.18200 23.48200
O  15.23400 46.70000 22.38800
C  16.91800 47.53000 23.90800
N  9.81600 47.14700 23.79800
C  10.82900 47.08500 22.85500
C  10.20200 46.77300 21.52300
C  8.67600 46.52100 21.84400
C  8.57900 46.76400 23.34000
C  10.50100 47.88400 20.41000
C  8.19600 45.08500 21.57400
C  8.76000 43.99600 22.52000
N  8.22900 47.17300 26.30100
C  7.22400 46.77100 25.44200
C  6.05500 46.52400 26.30200
C  6.43700 46.86800 27.65900
C  7.81200 47.19700 27.56800
C  4.68200 46.19100 25.88100
C  6.01700 46.99200 28.98900
O  4.94800 46.71300 29.44900
C  7.32900 47.35300 29.81200
C  7.62600 46.27100 30.83100
O  8.09500 45.20000 30.58100
O  7.15200 46.59800 32.08200
C  7.08900 45.43200 32.97400
H  13.77000 48.80800 28.32200
H  12.74800 46.92800 22.18600
H  6.53400 46.25500 23.44400
H  9.63600 49.52200 30.60500
H  12.38700 49.07200 30.36000
H  10.58900 51.24500 29.66200
H  12.13200 51.29300 28.79300
H  12.09700 51.19700 30.55400
H  11.63400 47.41600 31.42400
H  10.19200 46.70100 31.05600
H  9.23800 48.52000 32.70200
H  11.03000 48.64900 33.05100
H  16.64900 47.41000 26.61800
H  15.69600 48.18100 27.75200
H  16.22100 49.10500 26.30800
H  17.19200 48.53200 24.24000
H  17.51500 47.39900 23.00600
H  17.33700 46.83100 24.63200
H  10.65400 45.83700 21.19300
H  8.00300 47.19800 21.31800
H  11.14800 48.71200 20.70000
H  9.57400 48.38300 20.13000
H  10.87600 47.40400 19.50600
H  8.51600 44.77700 20.57800
H  7.10700 45.05900 21.61700
H  7.94100 43.56400 23.09600
H  9.60600 44.43100 23.05100
H  9.13900 43.19200 21.88800
H  4.18000 47.12300 25.62300
H  4.16300 45.54300 26.58800
H  4.68000 45.67500 24.92000
H  7.11200 48.31500 30.27700
H  6.18500 44.83400 32.86000
H  7.14100 45.78300 34.00500
H  7.91400 44.75400 32.75600

