158

Mg 8.48100 47.46600 28.01000
C  6.95500 46.72900 30.99700
C  11.42300 47.72100 29.83100
C  9.86800 48.82000 25.28100
C  5.29400 47.71200 26.41200
N  9.05600 47.43500 30.22300
C  8.31300 46.93400 31.19900
C  8.99800 47.00800 32.57300
C  10.44900 47.52100 32.15700
C  10.30000 47.57300 30.64400
C  11.07000 48.78300 32.75200
C  8.85200 45.70200 33.41900
C  9.92800 45.51800 34.50000
H  9.80200 44.44100 35.59100
N  10.47100 48.06100 27.55600
C  11.49800 48.11800 28.46000
C  12.71500 48.29200 27.66600
C  12.31300 48.61400 26.34000
C  10.82100 48.54200 26.29600
C  14.15900 48.33400 28.26900
C  13.09900 48.94900 25.13300
O  12.50200 49.20700 24.05100
C  14.51900 48.94300 25.17800
N  7.74300 47.93700 26.05900
C  8.50900 48.66200 25.21900
C  7.65400 49.32200 24.10700
C  6.32500 48.49300 24.27400
C  6.43500 47.97400 25.61400
C  7.44600 50.86100 24.26900
C  5.99000 47.49300 23.20700
C  7.02000 46.38500 22.93400
N  6.58100 47.20900 28.51600
C  5.31300 47.33500 27.82400
C  4.21000 47.00300 28.70300
C  4.83700 46.79900 29.88700
C  6.23500 46.87900 29.73300
C  2.78700 47.13200 28.39600
C  4.54100 46.60100 31.30300
O  3.46200 46.52000 31.88200
C  5.85100 46.47900 32.07300
C  5.85900 45.11400 32.71800
O  6.25300 44.06700 32.27200
O  5.52000 45.37200 34.00300
C  5.54800 44.20500 34.84800
H  12.41200 47.63000 30.28500
H  10.14700 49.43400 24.42200
H  4.29600 47.68700 25.96800
H  8.38100 47.77400 33.04300
H  11.13800 46.73900 32.47500
H  12.01900 48.33900 33.05500
H  10.46900 49.07200 33.61400
H  11.29800 49.62900 32.10400
H  8.73400 44.83000 32.77700
H  7.92900 45.83600 33.98300
H  10.15100 46.49600 34.92700
H  10.81800 45.14000 33.99700
H  14.89600 49.07100 27.95000
H  14.62700 47.38800 27.99600
H  14.18100 48.38700 29.35700
H  14.98200 49.59200 25.92100
H  14.91700 49.18200 24.19200
H  14.82700 47.95100 25.50600
H  8.04600 49.16800 23.10100
H  5.46000 49.15200 24.35100
H  6.46500 51.17200 24.62900
H  7.68500 51.33300 23.31600
H  8.06800 51.33600 25.02700
H  5.89800 48.01300 22.25400
H  5.11000 46.91300 23.48500
H  7.39700 46.43900 21.91300
H  6.63000 45.37200 23.03500
H  7.83600 46.55100 23.63700
H  2.33600 47.84700 29.08400
H  2.26600 46.17500 28.42400
H  2.64400 47.42700 27.35600
H  5.90400 47.34000 32.74000
H  4.90900 44.39000 35.71100
H  6.55200 43.98400 35.20900
H  5.04900 43.31600 34.46200
Mg -0.05000 43.76700 26.26000
C  2.07200 43.19200 29.08600
C  -2.66300 42.22200 28.12700
C  -2.01900 43.65500 23.42700
C  2.72500 44.41800 24.53600
N  -0.37200 42.88900 28.42900
C  0.68400 42.85900 29.38900
C  0.09500 42.48900 30.87700
C  -1.36500 41.92600 30.38500
C  -1.49300 42.45200 28.90400
C  -1.68100 40.43100 30.55400
C  0.16600 43.80900 31.72400
C  0.21400 43.59600 33.20100
H  -0.21500 42.23900 33.78200
N  -2.13300 43.19500 25.89800
C  -2.97400 42.49600 26.75800
C  -4.29700 42.41100 26.13300
C  -4.19300 42.88200 24.79100
C  -2.72200 43.25300 24.59500
C  -5.55800 41.87400 26.89200
C  -5.20100 42.97600 23.67400
O  -5.01000 43.49000 22.60600
C  -6.61500 42.52500 23.97600
N  0.28900 43.90500 24.29300
C  -0.65600 43.98100 23.29700
C  -0.15400 44.73000 22.03700
C  1.38700 44.87900 22.42400
C  1.49800 44.41100 23.83900
C  -0.40500 43.89400 20.70800
C  2.06800 46.27300 22.32400
C  1.62900 47.23100 21.18300
N  1.94900 43.88600 26.69400
C  3.01700 44.13400 25.85400
C  4.31900 43.87400 26.46800
C  3.98000 43.61900 27.76800
C  2.54300 43.61100 27.88400
C  5.68800 44.03500 25.78200
C  4.56200 43.28300 29.05600
O  5.71100 43.10600 29.45000
C  3.32700 43.20900 29.98100
C  3.48000 41.86700 30.63100
O  3.20500 40.78900 30.20400
O  3.87600 42.12000 31.96700
C  4.15400 40.89600 32.77000
H  -3.46300 41.71900 28.67400
H  -2.70200 43.73000 22.57800
H  3.56700 44.63100 23.87500
H  0.68500 41.67600 31.29800
H  -2.02000 42.41300 31.10700
H  -0.90300 39.84200 31.03900
H  -1.75400 39.97800 29.56500
H  -2.54300 40.25800 31.19800
H  -0.67500 44.39800 31.35800
H  1.08100 44.27200 31.35600
H  -0.45700 44.32500 33.65600
H  1.22600 43.89300 33.47700
H  -5.49500 40.78700 26.84700
H  -6.56900 42.16900 26.61300
H  -5.42400 42.14300 27.94000
H  -7.01900 42.37200 22.97600
H  -7.12200 43.36500 24.45100
H  -6.61800 41.57300 24.50700
H  -0.59500 45.71000 21.85600
H  1.88100 44.18600 21.74300
H  -0.97700 44.57600 20.07900
H  -0.97300 42.96800 20.79500
H  0.47500 43.58200 20.14600
H  3.13000 46.13700 22.12100
H  2.13600 46.78500 23.28400
H  1.22800 48.17800 21.54400
H  1.03600 46.81000 20.37200
H  2.51000 47.48000 20.59100
H  6.36600 44.59300 26.42800
H  5.70200 44.57500 24.83500
H  6.09800 43.03900 25.61500
H  3.43500 44.04600 30.67100
H  5.11000 40.93600 33.29400
H  4.21400 39.96800 32.20200
H  3.38600 40.81400 33.53900

