158

Mg 53.66400 23.83400 44.41900
C  50.87600 25.86000 43.86400
C  51.54000 21.11300 44.52200
C  56.28500 21.78300 44.00400
C  55.72000 26.59000 43.71600
N  51.52100 23.55900 44.07900
C  50.53800 24.45900 43.94400
C  49.16500 23.85600 43.92200
C  49.36900 22.43600 44.29900
C  50.90600 22.37100 44.35200
C  48.71000 22.01400 45.68700
C  48.47800 23.98500 42.57500
C  49.32200 23.71200 41.35100
H  49.13400 24.61200 40.12900
N  53.85000 21.71500 44.24800
C  52.87800 20.80100 44.43100
C  53.43400 19.46400 44.44600
C  54.81400 19.67900 44.35800
C  55.04700 21.12500 44.18800
C  52.71300 18.19000 44.81700
C  55.86000 18.52400 44.54700
O  55.44800 17.37100 44.65100
C  57.34300 18.77900 44.59100
N  55.71100 24.22900 43.72100
C  56.61200 23.17100 43.82600
C  57.98900 23.71400 43.55400
C  57.83800 25.25300 43.43700
C  56.32800 25.35500 43.58800
C  59.12500 23.29200 44.55800
C  58.45500 25.96100 42.14100
C  59.40700 27.18600 42.24000
N  53.40900 25.88400 44.05200
C  54.31900 26.85800 43.79300
C  53.62700 28.15500 43.89100
C  52.30100 27.79000 43.95700
C  52.20500 26.39000 43.95000
C  54.28700 29.54100 43.84800
C  50.98700 28.31100 43.92900
O  50.57200 29.49500 44.00600
C  49.99500 27.13600 43.87100
C  49.25000 27.41800 42.67400
O  49.79500 27.51900 41.58600
O  47.90500 27.64500 42.91900
C  47.13200 28.24700 41.83400
H  50.85200 20.30200 44.77000
H  57.24000 21.26800 43.87300
H  56.37000 27.44700 43.52500
H  48.53200 24.39000 44.63000
H  49.02800 21.72700 43.54400
H  48.52700 22.88300 46.31800
H  49.39600 21.43500 46.30500
H  47.70700 21.61500 45.53800
H  48.14100 25.02100 42.53500
H  47.57900 23.36900 42.54600
H  49.07800 22.69100 41.06000
H  50.38700 23.65700 41.57600
H  53.05400 17.51100 44.03600
H  51.65200 18.42200 44.73200
H  52.95200 17.83100 45.81800
H  57.78600 17.91300 45.08200
H  57.56700 19.66700 45.18300
H  57.76700 18.81500 43.58700
H  58.15200 23.26600 42.57400
H  58.38400 25.63500 44.30000
H  59.42900 24.04300 45.28700
H  60.03600 22.89200 44.11200
H  58.67800 22.45800 45.09800
H  57.65500 26.39900 41.54500
H  58.96400 25.37100 41.37800
H  60.38600 26.82600 41.92400
H  59.59500 27.44100 43.28300
H  59.09400 28.05000 41.65300
H  53.94200 30.12800 42.99700
H  55.37200 29.57400 43.74300
H  53.96300 30.01000 44.77700
H  49.31700 27.10300 44.72400
H  46.98800 27.49800 41.05600
H  47.76600 28.97700 41.33000
H  46.15100 28.63900 42.10000
Mg 16.25000 50.89700 25.27400
C  18.03200 49.62900 27.90600
C  13.62700 51.75400 27.48400
C  14.63300 52.16900 22.66800
C  18.90100 49.80100 23.11400
N  15.94100 50.80500 27.38800
C  16.90300 50.39800 28.30200
C  16.42100 50.60300 29.75800
C  14.89500 50.87500 29.55600
C  14.77400 51.15900 28.06800
C  13.92000 49.77700 30.05100
C  17.32500 51.63900 30.33800
C  17.32900 51.84800 31.86600
H  16.38800 51.03300 32.79100
N  14.37100 51.95100 25.11700
C  13.47600 52.16800 26.09800
C  12.37700 52.92400 25.53000
C  12.63000 52.96300 24.13500
C  13.90200 52.38000 23.89500
C  11.22800 53.45600 26.38100
C  11.82700 53.62000 23.10100
O  12.17100 53.74600 21.96000
C  10.44900 54.15600 23.46700
N  16.74000 50.97700 23.22000
C  15.82800 51.53600 22.38400
C  16.25900 51.27700 20.92200
C  17.72900 50.78400 21.13000
C  17.85900 50.54400 22.60900
C  15.30900 50.31300 20.17800
C  18.81600 51.78700 20.72800
C  19.64300 51.46900 19.37500
N  18.02700 49.84200 25.42400
C  19.00900 49.49600 24.51200
C  20.00900 48.66700 25.10800
C  19.66200 48.78300 26.45700
C  18.46100 49.49500 26.56100
C  21.15000 47.94000 24.52700
C  20.07600 48.32300 27.84300
O  20.92700 47.54800 28.20900
C  19.05500 48.86400 28.83100
C  18.45400 47.63800 29.40900
O  17.89300 46.75800 28.75900
O  18.52400 47.67100 30.79000
C  17.60900 46.81300 31.57100
H  12.84500 51.90100 28.23100
H  14.14200 52.38200 21.71600
H  19.62900 49.34600 22.44000
H  16.53000 49.66600 30.30400
H  14.73900 51.84800 30.02300
H  13.23400 50.38400 30.64300
H  14.40500 49.05300 30.70500
H  13.45100 49.20800 29.24800
H  17.13700 52.61900 29.90000
H  18.38900 51.49500 30.15100
H  17.30300 52.92700 32.02100
H  18.32700 51.57800 32.21200
H  10.97800 54.50800 26.24500
H  11.27000 53.17500 27.43400
H  10.36800 52.87900 26.04100
H  10.45100 54.99700 24.16000
H  9.88900 53.27400 23.77700
H  10.17000 54.72300 22.57900
H  16.28900 52.24900 20.43000
H  17.71600 49.83400 20.59500
H  15.83400 49.69300 19.45100
H  14.56200 50.82400 19.57100
H  14.78200 49.62000 20.83300
H  19.54400 51.83300 21.53900
H  18.36600 52.77800 20.78500
H  19.14300 51.28800 18.42300
H  20.46200 50.77600 19.57000
H  20.10400 52.43500 19.16800
H  22.09600 48.45100 24.70500
H  20.97900 47.64000 23.49300
H  21.13300 46.98900 25.05900
H  19.58800 49.50200 29.53700
H  16.95700 47.52100 32.08300
H  18.07600 46.21200 32.35100
H  16.91100 46.23900 30.96100

