158

Mg 35.54800 1.08000 30.00100
C  33.28600 1.68000 32.58700
C  38.02200 1.21000 32.35900
C  37.64500 0.91500 27.42500
C  32.83200 1.60000 27.74500
N  35.61000 1.41200 32.23600
C  34.53600 1.53300 33.09100
C  34.99500 1.69500 34.54100
C  36.57800 1.54700 34.41000
C  36.80000 1.45700 32.89900
C  37.28300 2.67100 35.08200
C  34.14300 0.73900 35.51300
C  33.45700 1.41600 36.69700
H  34.13600 2.56200 37.31900
N  37.51200 0.99200 29.87800
C  38.37800 0.90100 31.01400
C  39.64300 0.61300 30.46700
C  39.56800 0.58700 29.02900
C  38.19600 0.88500 28.69500
C  40.83600 0.39300 31.39000
C  40.66500 0.17500 28.05000
O  40.51800 0.04300 26.84300
C  42.00800 -0.24600 28.63500
N  35.28900 1.08200 27.91900
C  36.31800 1.07100 27.04100
C  35.82600 1.13300 25.57200
C  34.28500 1.28000 25.73400
C  34.06400 1.27000 27.23600
C  36.51600 2.11000 24.63600
C  33.41500 0.16500 25.06700
C  32.90400 -1.05200 25.87900
N  33.52600 1.48500 30.12900
C  32.52200 1.67700 29.08000
C  31.29300 1.97200 29.65400
C  31.51700 2.04600 31.03200
C  32.91700 1.66200 31.23700
C  30.05000 2.32300 28.93000
C  30.91000 2.32300 32.38700
O  29.76900 2.57400 32.74900
C  32.03000 2.16900 33.38400
C  32.26000 3.61000 33.78300
O  33.14600 4.33100 33.26400
O  31.60700 3.95100 34.99200
C  31.74700 5.30100 35.37500
H  38.83200 1.32800 33.08300
H  38.34800 0.89900 26.59000
H  32.14100 1.75200 26.91400
H  34.74500 2.73400 34.75500
H  36.85000 0.64900 34.96400
H  37.96200 3.19000 34.40400
H  37.97200 2.32800 35.85300
H  36.57800 3.39700 35.48800
H  34.87300 -0.00100 35.84000
H  33.46300 0.12200 34.92500
H  33.35500 0.72900 37.53700
H  32.49700 1.80800 36.36300
H  41.49000 1.25500 31.25800
H  41.48100 -0.47300 31.24500
H  40.52600 0.43600 32.43500
H  42.45600 0.50500 29.28500
H  42.67700 -0.30500 27.77600
H  41.80200 -1.17700 29.16300
H  36.01000 0.13900 25.16600
H  34.03300 2.25000 25.30600
H  35.82200 2.79300 24.14800
H  37.04600 1.55100 23.86500
H  37.26400 2.69200 25.17500
H  34.04900 -0.24400 24.28000
H  32.52400 0.65500 24.67400
H  33.58200 -1.22400 26.71500
H  32.82600 -2.00100 25.34800
H  31.86100 -0.91000 26.16200
H  30.29900 3.10500 28.21300
H  29.35000 2.64000 29.70400
H  29.75600 1.37800 28.47300
H  31.66600 1.56600 34.21700
H  31.55700 5.99000 34.55200
H  32.73500 5.45000 35.81000
H  31.00300 5.29300 36.17100
Mg 41.17600 40.34400 26.86700
C  40.53100 42.96000 29.18200
C  42.01900 38.29600 29.66300
C  42.06900 38.16300 24.61200
C  40.92600 42.87200 24.24900
N  41.17400 40.55100 29.13300
C  40.83400 41.70400 29.84300
C  40.76500 41.35800 31.39000
C  41.34000 39.87800 31.53700
C  41.54800 39.51900 30.05400
C  42.51600 39.65900 32.46500
C  39.28400 41.51900 32.08400
C  39.01000 40.89400 33.48200
H  38.72000 42.00300 34.59300
N  41.95900 38.43300 27.12900
C  42.16600 37.74800 28.32900
C  42.53700 36.40500 27.94300
C  42.51300 36.34500 26.47300
C  42.19300 37.70600 26.00600
C  42.95600 35.35700 29.00800
C  42.94900 35.28700 25.53900
O  43.02200 35.31100 24.31500
C  43.09700 33.89200 26.11400
N  41.52700 40.55100 24.74200
C  41.73800 39.36900 24.03400
C  41.56700 39.56700 22.49000
C  41.01500 41.03300 22.47500
C  41.18800 41.52100 23.89000
C  42.84700 39.38900 21.61900
C  39.56600 41.21500 21.87600
C  38.28800 41.24600 22.76700
N  40.85100 42.50000 26.74500
C  40.70700 43.31900 25.60200
C  40.40100 44.67600 26.04000
C  40.34700 44.58900 27.44500
C  40.68600 43.25900 27.81700
C  40.23000 45.86100 25.14300
C  40.00400 45.31700 28.64500
O  39.63200 46.42200 28.80600
C  40.14900 44.28100 29.87400
C  41.19500 44.74400 30.83400
O  42.30700 44.99300 30.44900
O  40.73300 44.65900 32.15200
C  41.84300 44.50300 33.07600
H  42.22100 37.62600 30.50200
H  42.31100 37.53100 23.75500
H  40.83000 43.52100 23.37600
H  41.42100 42.05500 31.91000
H  40.52600 39.21800 31.83500
H  43.38300 39.26300 31.93600
H  42.19800 38.99200 33.26700
H  42.87700 40.64900 32.74300
H  38.58500 41.05700 31.38600
H  39.01800 42.57100 31.98400
H  39.89700 40.33000 33.77000
H  38.15700 40.22100 33.39500
H  43.88100 34.83000 28.77300
H  42.16300 34.63800 29.21300
H  43.30100 35.93000 29.86900
H  43.91100 33.93900 26.83700
H  43.24100 33.12400 25.35400
H  42.13500 33.80900 26.62100
H  40.79600 38.87000 22.16100
H  41.69100 41.69000 21.92600
H  43.11600 40.30400 21.09100
H  42.74100 38.66200 20.81300
H  43.70400 39.02000 22.18200
H  39.37200 40.38400 21.19700
H  39.55200 42.02900 21.15200
H  37.60800 40.43200 22.51400
H  37.92200 42.25900 22.60000
H  38.57500 41.12000 23.81100
H  39.81000 46.69800 25.70000
H  39.51100 45.69300 24.34100
H  41.18100 46.21700 24.74600
H  39.15700 44.26600 30.32600
H  42.76700 44.19900 32.58400
H  41.66300 43.78700 33.87800
H  42.02200 45.45000 33.58400

