158

Mg 49.53300 46.16800 42.88400
C  45.97200 46.46900 41.89700
C  49.23300 42.87400 42.01000
C  52.80500 45.96100 43.08000
C  49.63400 49.64100 43.03000
N  47.81500 44.87800 42.00700
C  46.47200 45.21500 41.54800
C  45.70300 43.95500 41.08000
C  46.64000 42.77600 41.48300
C  47.96400 43.59800 41.87000
C  46.15600 42.00000 42.75600
C  45.23700 43.84000 39.57500
C  46.31400 44.38800 38.52800
H  46.69800 43.54100 37.30000
N  50.87900 44.63300 42.55100
C  50.53600 43.30400 42.28000
C  51.77800 42.50500 42.34500
C  52.87900 43.38600 42.53700
C  52.23000 44.76800 42.76700
C  51.76600 41.02700 42.10300
C  54.28400 42.97000 42.36900
O  54.54100 41.84100 41.93100
C  55.40900 43.93200 42.52500
N  50.97100 47.59900 42.87500
C  52.28200 47.28300 43.15100
C  53.09900 48.51100 43.56800
C  52.03800 49.65200 43.35900
C  50.79300 48.92500 42.95300
C  53.53700 48.32200 45.09300
C  52.31900 50.76700 42.28200
C  52.11400 52.21100 42.82400
N  48.06700 47.80500 42.73900
C  48.34100 49.13500 42.76900
C  46.99400 49.82400 42.67600
C  46.12900 48.86300 42.23500
C  46.79000 47.55100 42.34200
C  46.73900 51.28500 42.79500
C  44.75600 48.60900 41.81100
O  43.84600 49.34600 41.69000
C  44.64800 47.06700 41.44000
C  43.41300 46.44200 42.01900
O  42.42200 46.05100 41.40400
O  43.50600 46.52500 43.40000
C  42.25100 46.08800 44.11500
H  49.10000 41.83000 41.72000
H  53.86700 45.88900 43.32600
H  49.72800 50.71800 43.18700
H  44.82100 43.98200 41.72000
H  46.75100 42.20300 40.56200
H  46.88200 42.04900 43.56700
H  46.22800 40.92700 42.57500
H  45.22400 42.40700 43.14900
H  44.39900 44.49600 39.33700
H  44.88200 42.82600 39.39300
H  47.29300 44.59900 38.95900
H  45.91900 45.32000 38.12300
H  52.48300 40.48100 42.71700
H  52.15400 40.86500 41.09700
H  50.81900 40.49000 42.15400
H  55.34500 44.71100 41.76500
H  56.35000 43.39200 42.42000
H  55.40900 44.40000 43.50900
H  53.95200 48.59000 42.89400
H  51.97300 50.24900 44.26800
H  54.05500 47.40000 45.35800
H  52.62100 48.26500 45.68100
H  54.13700 49.17500 45.41000
H  51.64100 50.72500 41.42900
H  53.34300 50.73200 41.91100
H  52.07100 52.23800 43.91300
H  51.19900 52.69600 42.48400
H  53.01100 52.76600 42.54700
H  46.81200 51.57800 41.74800
H  47.46700 51.68300 43.50200
H  45.75000 51.52700 43.18200
H  44.60100 46.96900 40.35500
H  41.83500 45.25600 43.54900
H  41.66000 47.00300 44.08400
H  42.35200 45.84700 45.17300
Mg 17.06700 51.24900 25.92500
C  18.94700 50.16400 28.52800
C  14.39600 51.81300 28.00500
C  15.15300 52.26800 23.32800
C  19.54200 50.23600 23.60000
N  16.72700 51.06200 28.05900
C  17.70000 50.64000 28.97000
C  17.15400 50.88000 30.37600
C  15.55500 50.93200 30.17000
C  15.54200 51.31600 28.70000
C  14.86700 49.53700 30.38900
C  17.76500 52.11700 31.25100
C  18.14800 51.85400 32.73500
H  17.23700 52.48900 33.82500
N  15.13400 52.20100 25.75000
C  14.15000 52.30600 26.73300
C  12.98800 52.88100 26.21200
C  13.15200 52.99600 24.80900
C  14.59400 52.54500 24.57100
C  11.78600 53.21800 27.10600
C  12.34400 53.63300 23.76700
O  12.86100 53.91500 22.66900
C  10.89600 54.04200 23.96400
N  17.29300 51.14000 23.76100
C  16.38700 51.67400 22.90200
C  16.78700 51.57500 21.47600
C  18.27800 51.14900 21.57100
C  18.41900 50.83200 23.05000
C  15.90100 50.68800 20.62500
C  19.45700 52.04300 21.10800
C  20.27700 51.50200 19.96300
N  18.91000 50.34500 25.98900
C  19.80300 49.96200 24.99700
C  20.89500 49.35100 25.62100
C  20.68600 49.56700 26.97100
C  19.39900 50.05800 27.18800
C  22.08200 48.99500 24.86100
C  21.24300 49.31700 28.30100
O  22.25300 48.69900 28.69900
C  20.18000 49.78100 29.32300
C  19.83600 48.62400 30.21300
O  19.19400 47.68800 29.85000
O  20.24300 48.73600 31.50900
C  19.80400 47.67300 32.46200
H  13.58600 51.72100 28.73200
H  14.58600 52.48800 22.42100
H  20.28300 50.00200 22.83300
H  17.31500 49.98500 30.97800
H  15.17600 51.66300 30.88400
H  14.55300 49.47700 31.43100
H  15.49200 48.72300 30.02300
H  13.96000 49.46600 29.78700
H  16.97200 52.86000 31.33200
H  18.66200 52.55000 30.80800
H  19.14800 52.21900 32.96800
H  18.09200 50.78000 32.91300
H  11.20500 54.07300 26.75800
H  12.18600 53.38800 28.10500
H  11.18100 52.32000 27.23000
H  10.43700 53.27300 24.58500
H  10.50900 54.04600 22.94500
H  10.79300 55.04900 24.36800
H  16.74900 52.55400 20.99900
H  18.52000 50.21800 21.05900
H  15.51400 51.36600 19.86300
H  14.97600 50.49200 21.16600
H  16.34200 49.80100 20.17000
H  20.15100 52.20000 21.93400
H  19.00000 52.97100 20.76400
H  19.73300 50.72800 19.42200
H  21.26400 51.10900 20.20800
H  20.39100 52.36000 19.30100
H  22.90500 48.74700 25.53100
H  22.30500 49.76200 24.11900
H  21.91900 48.11000 24.24600
H  20.52100 50.65800 29.87300
H  20.35400 46.79100 32.13300
H  18.75200 47.44100 32.29700
H  20.03300 47.93500 33.49500

