158

Mg 47.56600 15.42100 27.68500
C  45.35000 15.27100 30.52300
C  49.73200 17.07300 29.58500
C  49.46700 15.50500 24.99500
C  44.94200 13.79700 25.87900
N  47.47400 16.16100 29.79200
C  46.53900 15.96700 30.79700
C  47.10900 16.36600 32.17000
C  48.36800 17.18100 31.80700
C  48.54300 16.73600 30.30300
C  48.24600 18.74300 31.78500
C  47.35900 15.20300 33.11300
C  47.36700 15.49300 34.64800
H  47.11100 16.97800 35.04700
N  49.47600 16.07100 27.38500
C  50.15300 16.79300 28.29000
C  51.40700 17.12100 27.67300
C  51.38300 16.62700 26.32600
C  50.05800 16.04500 26.15300
C  52.57600 17.84200 28.35400
C  52.43700 16.70900 25.24900
O  52.34800 16.13600 24.13200
C  53.68500 17.43700 25.42600
N  47.11700 14.91300 25.67800
C  48.16300 14.94600 24.76200
C  47.65000 14.44300 23.36200
C  46.30000 13.63300 23.79700
C  46.10400 14.10900 25.22700
C  47.52000 15.55300 22.38800
C  46.35600 12.08900 23.51900
C  46.54200 11.16100 24.74100
N  45.48900 14.71300 28.02600
C  44.64500 14.01800 27.27600
C  43.50600 13.56700 28.02600
C  43.72300 14.07900 29.26300
C  44.94900 14.70900 29.24500
C  42.33900 12.87700 27.44300
C  43.20300 14.17100 30.67200
O  42.13400 13.84900 31.09400
C  44.21000 14.90900 31.53600
C  43.51900 16.09700 32.09000
O  42.98400 17.04900 31.45800
O  43.54000 15.95000 33.47600
C  42.58800 16.70800 34.19300
H  50.52000 17.62300 30.10400
H  50.03900 15.57600 24.06800
H  44.25900 13.09800 25.39100
H  46.34000 17.00400 32.60500
H  49.10000 16.83200 32.53600
H  48.01200 19.14700 30.80000
H  49.21800 19.11200 32.11100
H  47.36500 19.02400 32.36200
H  48.27800 14.70100 32.80900
H  46.59700 14.47600 32.83200
H  48.33100 15.20600 35.07000
H  46.56500 14.94000 35.13700
H  52.37300 17.82000 29.42500
H  52.68600 18.79100 27.83000
H  53.56600 17.40000 28.24000
H  53.38500 18.41500 25.80100
H  54.20600 17.63800 24.48900
H  54.35900 17.01800 26.17300
H  48.42100 13.83700 22.88600
H  45.45200 14.00000 23.21800
H  46.50300 15.93900 22.45000
H  47.80800 15.11900 21.43000
H  48.21400 16.31600 22.74200
H  47.14500 11.78700 22.83100
H  45.43500 11.81300 23.00700
H  46.64000 10.10700 24.47900
H  45.73000 11.35800 25.44000
H  47.55200 11.33700 25.11100
H  42.40400 11.80700 27.64100
H  42.29000 13.03600 26.36600
H  41.39600 13.29000 27.80100
H  44.53300 14.16300 32.26200
H  42.72100 16.44600 35.24200
H  41.59100 16.41600 33.86400
H  42.74100 17.78100 34.07800
Mg 8.86600 48.45100 27.14100
C  7.18900 48.16200 30.26800
C  11.82100 49.01700 29.04300
C  10.44900 49.28400 24.30700
C  5.76500 48.55300 25.49200
N  9.38400 48.63000 29.49700
C  8.54200 48.37700 30.55200
C  9.24000 48.50000 31.90700
C  10.73200 49.01700 31.44300
C  10.63400 48.94900 29.93900
C  11.19100 50.38000 31.99600
C  9.35700 47.15800 32.65900
C  10.16100 47.18800 33.97700
H  9.83700 46.26900 35.14400
N  10.83900 48.84900 26.69000
C  11.90000 49.07700 27.57500
C  13.14500 49.38900 26.81100
C  12.78100 49.32100 25.45600
C  11.29600 49.14200 25.40600
C  14.48600 49.63400 27.52600
C  13.68500 49.43000 24.26000
O  13.21800 49.22800 23.11000
C  15.16300 49.56600 24.38400
N  8.23100 48.76300 25.16700
C  9.05800 49.16900 24.19000
C  8.42100 49.47100 22.85200
C  6.89700 49.03600 23.24400
C  6.91900 48.70500 24.74400
C  8.59700 50.89700 22.38200
C  6.31800 47.89600 22.26600
C  5.80400 48.45600 20.89500
N  6.86800 48.29300 27.69300
C  5.71100 48.27900 26.87900
C  4.57400 47.94800 27.74500
C  5.13800 47.90200 29.02900
C  6.50200 48.18000 28.98100
C  3.14200 47.67800 27.25900
C  4.81200 47.64700 30.46400
O  3.71400 47.55100 30.99000
C  6.08400 47.73800 31.30000
C  6.29400 46.40200 31.85500
O  6.85000 45.39500 31.30200
O  5.74000 46.39200 33.13700
C  5.86500 45.16500 33.84300
H  12.79700 49.05900 29.53000
H  10.95600 49.60600 23.39500
H  4.82200 48.26000 25.02500
H  8.65600 49.22700 32.47100
H  11.48900 48.28600 31.72400
H  11.11500 50.25000 33.07500
H  10.51100 51.19100 31.73400
H  12.11600 50.74000 31.54600
H  9.71500 46.44000 31.92200
H  8.37100 46.87900 33.03000
H  10.26500 48.23300 34.26800
H  11.12600 46.77400 33.68500
H  15.18200 48.85400 27.21500
H  14.55500 49.78200 28.60300
H  14.88700 50.58700 27.18000
H  15.66900 48.87000 25.05400
H  15.50400 50.59200 24.52200
H  15.54600 49.25400 23.41300
H  8.87900 48.89300 22.04900
H  6.19600 49.86900 23.18700
H  9.19000 50.86100 21.46800
H  9.15500 51.42400 23.15600
H  7.67800 51.44500 22.17900
H  5.57400 47.31500 22.81000
H  7.10800 47.21100 21.95700
H  5.54100 49.51100 20.81200
H  4.86300 47.91900 20.78000
H  6.35900 48.10400 20.02600
H  2.46100 47.44400 28.07700
H  3.08900 46.93700 26.46000
H  2.65600 48.50600 26.74200
H  6.19600 48.36700 32.18400
H  5.13200 44.40900 33.56000
H  5.69700 45.19200 34.91900
H  6.87500 44.78300 33.69000

