158

Mg 47.74300 45.22700 43.17200
C  44.27500 44.93900 43.18400
C  47.90700 41.78200 43.02600
C  51.00400 45.49200 42.48000
C  47.33900 48.73100 42.73300
N  46.25100 43.58100 42.90800
C  44.86600 43.69700 43.10800
C  44.23200 42.26700 43.19000
C  45.45900 41.34400 43.47900
C  46.59600 42.28000 43.11800
C  45.57900 40.90000 44.94700
C  43.46500 41.85000 41.91500
C  43.47200 42.79500 40.71700
H  42.84800 42.36800 39.35800
N  49.20200 43.85900 42.70400
C  49.08800 42.51000 42.76800
C  50.40500 41.90500 42.47900
C  51.35000 42.92000 42.30100
C  50.53500 44.17600 42.48900
C  50.55000 40.41000 42.26500
C  52.87000 42.74800 41.90300
O  53.36500 41.64000 41.96300
C  53.70200 43.94200 41.58200
N  48.94300 46.84100 42.49800
C  50.26600 46.65000 42.47500
C  50.95200 47.98600 42.71000
C  49.83500 49.06900 42.55100
C  48.58700 48.18200 42.61400
C  51.70200 48.08100 44.10200
C  49.97400 49.80700 41.17300
C  49.74000 51.31000 41.29400
N  46.24600 46.60800 43.02100
C  46.20300 47.99600 42.92700
C  44.81000 48.44500 43.01900
C  44.05800 47.27000 43.05100
C  44.92200 46.20900 43.12600
C  44.41500 49.86400 43.05400
C  42.67900 46.79700 43.22400
O  41.63200 47.44000 43.20300
C  42.77900 45.28600 43.25200
C  42.21800 44.88400 44.53900
O  42.59100 45.26500 45.62100
O  41.20200 43.90500 44.37800
C  40.59600 43.47200 45.59800
H  48.02700 40.73100 43.29700
H  52.07700 45.69000 42.43900
H  47.21900 49.79600 42.52600
H  43.63900 42.22400 44.10400
H  45.45500 40.53400 42.75000
H  44.69900 40.29100 45.15700
H  45.54000 41.74900 45.62900
H  46.59000 40.49600 45.00300
H  42.42800 41.73600 42.22900
H  43.90300 40.90900 41.58100
H  44.47100 43.10700 40.41100
H  42.90200 43.67500 41.01300
H  50.65200 40.34200 41.18200
H  49.77400 39.73300 42.62300
H  51.53200 40.04900 42.57000
H  53.23900 44.43100 40.72500
H  54.73200 43.61200 41.44400
H  53.66100 44.56100 42.47900
H  51.69600 48.05500 41.91600
H  49.83000 49.77200 43.38400
H  51.51300 48.90300 44.79300
H  52.72100 48.09800 43.71700
H  51.59700 47.12500 44.61500
H  49.22300 49.36900 40.51500
H  50.96200 49.72200 40.71900
H  48.79000 51.48100 40.78700
H  50.51700 51.77000 40.68400
H  49.68600 51.53700 42.35900
H  45.06700 50.41800 43.72900
H  43.40100 50.03300 43.41600
H  44.54200 50.23900 42.03800
H  42.19700 44.96500 42.38900
H  40.04200 44.32500 45.98900
H  41.26100 43.13500 46.39400
H  40.01600 42.60800 45.27200
Mg 8.78600 47.79600 26.65900
C  6.83300 47.44000 29.55200
C  11.51300 48.00700 28.82000
C  10.74600 47.98400 24.00600
C  5.91700 47.56000 24.74400
N  9.08000 47.81400 28.95600
C  8.14100 47.57600 29.95200
C  8.72100 47.64600 31.34000
C  10.22700 47.97100 31.07400
C  10.27600 47.92000 29.52900
C  10.78900 49.33700 31.74000
C  8.33900 46.48600 32.37400
C  9.40300 45.98800 33.40200
H  8.89200 45.49200 34.69500
N  10.84100 47.98100 26.46400
C  11.77300 48.02200 27.44700
C  13.11900 48.11100 26.86600
C  12.99200 48.17800 25.47000
C  11.49000 48.08400 25.25000
C  14.34500 48.12800 27.86100
C  13.99500 48.25200 24.33400
O  13.66700 48.56700 23.17100
C  15.46700 48.33700 24.77800
N  8.40900 47.86200 24.69900
C  9.36200 47.96400 23.76400
C  8.77600 48.15900 22.38500
C  7.27900 47.85500 22.59500
C  7.18300 47.73900 24.08400
C  9.16900 49.52300 21.55200
C  6.57200 46.72300 21.78400
C  5.70500 47.21000 20.59200
N  6.77700 47.68700 26.98900
C  5.73000 47.54500 26.10600
C  4.53900 47.43000 26.83700
C  4.90100 47.38600 28.19900
C  6.31400 47.54500 28.25100
C  3.09900 47.35600 26.28800
C  4.35500 47.20500 29.58800
O  3.19100 47.04700 29.96000
C  5.62400 47.24600 30.47600
C  5.55300 46.02000 31.30300
O  5.83800 44.89800 30.93600
O  5.14700 46.33500 32.53600
C  4.89000 45.23500 33.47900
H  12.33200 48.09800 29.53700
H  11.31400 48.14900 23.08800
H  4.95400 47.48600 24.23400
H  8.31800 48.54800 31.80200
H  10.96000 47.21200 31.34900
H  11.82700 49.14300 32.01100
H  10.22800 49.65200 32.62000
H  10.55300 50.04800 30.94800
H  8.13000 45.61300 31.75600
H  7.44300 46.81900 32.89800
H  10.16200 46.75100 33.56900
H  9.92300 45.15800 32.92300
H  15.14200 47.43000 27.60400
H  14.13800 47.78700 28.87500
H  14.76600 49.13000 27.77200
H  15.72000 47.38000 25.23500
H  15.49900 49.08400 25.57100
H  16.13000 48.48600 23.92600
H  9.22400 47.32700 21.84100
H  6.72400 48.78400 22.46400
H  9.13500 50.48600 22.06200
H  8.58600 49.56600 20.63200
H  10.21400 49.38700 21.27300
H  6.10200 46.05900 22.50900
H  7.35400 46.15300 21.28200
H  5.93300 48.24600 20.34400
H  4.63700 47.20900 20.81100
H  5.84900 46.53900 19.74500
H  2.54500 46.54700 26.76400
H  3.11700 47.18900 25.21100
H  2.51300 48.22200 26.59500
H  5.52000 47.99000 31.26600
H  3.82100 45.07700 33.62800
H  5.31100 45.29900 34.48200
H  5.49100 44.36400 33.21600

