158

Mg 42.00600 7.89500 29.93300
C  43.79600 9.45100 32.39300
C  39.88300 6.57000 32.25500
C  40.30100 6.49600 27.45500
C  44.84600 8.34100 27.68900
N  42.05500 7.90900 32.08900
C  42.66200 8.83000 32.83900
C  42.08800 8.82000 34.31200
C  40.81200 7.82400 34.21900
C  40.98900 7.33800 32.81400
C  40.80900 6.62800 35.28000
C  41.73400 10.23300 34.88400
C  42.44900 10.68700 36.21200
H  41.55600 11.36700 37.30300
N  40.31000 6.80800 29.87700
C  39.55100 6.33100 30.92500
C  38.39900 5.60300 30.43000
C  38.38200 5.74500 29.02200
C  39.72600 6.32500 28.74800
C  37.43900 4.89800 31.38100
C  37.24400 5.33200 28.02200
O  37.49800 5.31200 26.82300
C  35.90700 5.19500 28.56500
N  42.64400 7.22300 27.89200
C  41.64200 6.88200 27.12500
C  42.15800 6.79200 25.63900
C  43.67600 7.29100 25.74100
C  43.80200 7.58500 27.21700
C  42.03800 5.32800 25.03500
C  43.96100 8.36000 24.76500
C  43.28900 9.73200 25.14100
N  43.95700 8.73300 29.98300
C  44.96800 8.81600 29.04900
C  45.97700 9.69300 29.58800
C  45.65300 9.93700 30.95500
C  44.40200 9.35500 31.15000
C  47.09200 10.31100 28.77200
C  46.04800 10.64600 32.16300
O  46.97200 11.40900 32.40100
C  44.83900 10.26200 33.22500
C  45.38300 9.45000 34.37300
O  45.45500 8.21300 34.59600
O  45.91400 10.40300 35.21900
C  46.32400 9.97700 36.57700
H  39.06000 6.35900 32.94000
H  39.75500 6.16400 26.57000
H  45.58900 8.58600 26.92800
H  42.89400 8.32000 34.84900
H  39.86100 8.33000 34.05000
H  39.75500 6.55000 35.54600
H  41.49600 6.97600 36.05100
H  41.29600 5.79700 34.77000
H  40.65200 10.35800 34.92700
H  42.01300 10.99500 34.15700
H  43.27100 11.36400 35.98200
H  42.93500 9.82400 36.66700
H  36.92400 4.09700 30.85000
H  36.72400 5.54700 31.88600
H  38.03200 4.31600 32.08600
H  35.76100 6.10700 29.14400
H  35.89300 4.31300 29.20600
H  35.10300 4.97700 27.86300
H  41.47400 7.38700 25.03300
H  44.39400 6.53000 25.43800
H  41.74900 4.75800 25.91800
H  42.98200 4.95300 24.63900
H  41.27900 5.15700 24.27200
H  43.53500 7.98900 23.83300
H  45.03500 8.53200 24.69100
H  42.71300 9.71000 26.06600
H  42.67300 10.04700 24.29900
H  44.08700 10.47400 25.18200
H  46.83300 11.16800 28.15000
H  47.59900 9.61100 28.10900
H  47.77700 10.69900 29.52600
H  44.34200 11.15200 33.61000
H  46.89500 9.04900 36.60600
H  45.49400 9.75100 37.24500
H  46.99900 10.77400 36.89000
Mg 6.28800 54.28200 39.50000
C  5.83800 50.99300 39.47000
C  9.50600 53.91200 38.40400
C  6.31400 57.60200 38.67100
C  2.74700 54.86100 40.18500
N  7.51800 52.58400 38.73300
C  7.16500 51.29000 38.98900
C  8.31200 50.31700 38.63100
C  9.51100 51.35300 38.81000
C  8.84700 52.73200 38.68800
C  10.34400 51.37500 40.08700
C  8.17400 49.71400 37.22200
C  7.78200 50.59600 35.99000
H  6.30300 50.65900 35.38000
N  7.69400 55.57600 38.61000
C  8.95700 55.24800 38.26000
C  9.61000 56.37200 37.64000
C  8.63100 57.40400 37.65800
C  7.51600 56.90900 38.35900
C  11.05000 56.52100 37.29900
C  8.85500 58.76000 37.15000
O  9.94900 59.07400 36.70600
C  7.85000 59.95700 37.24600
N  4.60300 56.04500 39.41500
C  5.01600 57.28600 39.10100
C  3.98600 58.34700 39.41000
C  2.79100 57.40500 39.83500
C  3.35800 56.01100 39.80500
C  4.42200 59.33000 40.50200
C  1.44000 57.55300 39.06000
C  0.75700 58.91200 39.16000
N  4.66600 53.23600 39.94900
C  3.32100 53.55700 40.19300
C  2.62600 52.29800 40.48500
C  3.54800 51.27700 40.22400
C  4.76000 51.91800 39.82600
C  1.22900 52.05700 40.90400
C  3.69000 49.77700 40.24700
O  2.92100 48.85200 40.50500
C  5.20900 49.61700 39.74400
C  4.95400 48.75800 38.54300
O  4.52600 49.04400 37.43600
O  5.24000 47.53600 38.94300
C  4.60900 46.37100 38.21800
H  10.54700 53.66500 38.18100
H  6.39300 58.68800 38.59200
H  1.66900 54.86400 40.35900
H  8.36700 49.44900 39.28900
H  10.07500 51.08800 37.91600
H  11.38600 51.49900 39.79400
H  10.15600 50.47600 40.67400
H  10.08400 52.22900 40.71300
H  7.34800 49.00200 37.18500
H  9.12900 49.23800 37.00300
H  8.47700 50.34700 35.18800
H  7.95200 51.65400 36.18800
H  11.20100 56.77400 36.25000
H  11.63100 55.64000 37.57100
H  11.48500 57.39700 37.77900
H  6.92700 59.53000 36.85300
H  8.22400 60.60900 36.45700
H  7.74700 60.48300 38.19600
H  3.69600 58.93200 38.53800
H  2.49200 57.60200 40.86400
H  3.71500 60.09000 40.83400
H  5.31600 59.88800 40.22200
H  4.76600 58.81700 41.40100
H  0.81300 56.82700 39.57800
H  1.59200 57.30900 38.00900
H  1.35600 59.74300 39.53200
H  -0.07600 58.72200 39.83800
H  0.41500 59.24500 38.18000
H  0.70900 53.01400 40.88000
H  1.28200 51.51300 41.84700
H  0.82400 51.27300 40.26500
H  5.77700 49.13400 40.53900
H  5.20900 45.46200 38.27400
H  4.43800 46.42000 37.14300
H  3.63000 46.11000 38.62000

