158

Mg 26.36600 1.00100 29.09900
C  28.17800 0.44000 32.02700
C  23.39700 0.89300 30.92100
C  24.53400 1.36000 26.25200
C  29.17700 0.53700 27.22900
N  25.92700 0.59300 31.20500
C  26.78500 0.59700 32.22300
C  26.05700 0.73200 33.57500
C  24.55000 0.52400 33.21100
C  24.63800 0.78100 31.66100
C  24.02400 -0.90800 33.44500
C  26.39500 2.03600 34.29200
C  26.77800 1.98700 35.79000
H  26.17300 3.02600 36.77900
N  24.15600 1.04300 28.64700
C  23.18300 0.99100 29.54900
C  21.95300 0.98600 28.83800
C  22.20600 1.29000 27.47700
C  23.70900 1.29100 27.40500
C  20.70000 0.63800 29.58600
C  21.20700 1.62600 26.35400
O  21.58800 1.85300 25.19700
C  19.67900 1.63100 26.53300
N  26.80600 1.04200 27.05800
C  25.88800 1.28900 26.05900
C  26.57300 1.19600 24.65800
C  28.05400 1.11000 25.00600
C  28.04900 0.89400 26.54300
C  25.94000 -0.00600 23.90300
C  29.01500 2.37200 24.69700
C  30.47000 2.04900 24.29600
N  28.38800 0.63700 29.48300
C  29.44400 0.41500 28.59200
C  30.64100 0.01600 29.45500
C  30.15600 0.13500 30.80800
C  28.78300 0.38400 30.74300
C  32.04800 -0.36800 29.04700
C  30.57800 0.11100 32.17900
O  31.70800 -0.08500 32.58300
C  29.23700 0.29300 33.09200
C  29.09700 -0.99500 33.84300
O  28.84100 -2.07900 33.43200
O  29.26200 -0.75000 35.21200
C  29.13300 -1.88300 36.17000
H  22.47300 0.83700 31.49900
H  24.04900 1.54000 25.29000
H  30.05700 0.35700 26.60800
H  26.41000 -0.08300 34.20700
H  23.93500 1.15600 33.85200
H  23.80900 -1.09700 34.49700
H  24.88400 -1.56800 33.33500
H  23.32300 -1.22800 32.67400
H  25.57500 2.75400 34.32500
H  27.16900 2.60800 33.78000
H  27.84200 2.17700 35.65200
H  26.69300 0.97300 36.18300
H  20.67800 1.33500 30.42400
H  20.54900 -0.38800 29.92000
H  19.82000 0.91200 29.00300
H  19.37500 0.62400 26.81900
H  19.13300 2.05900 25.69200
H  19.38700 2.34100 27.30700
H  26.26100 2.11500 24.16200
H  28.45100 0.16300 24.63800
H  26.62100 -0.77400 23.53800
H  25.46600 0.31900 22.97700
H  25.12200 -0.48500 24.44000
H  28.94600 3.07400 25.52800
H  28.67800 2.86600 23.78600
H  30.61300 2.31500 23.24800
H  30.55700 0.96300 24.33900
H  31.16000 2.56700 24.96200
H  32.68900 0.21500 29.70800
H  32.25200 -0.16900 27.99500
H  32.30600 -1.41600 29.20500
H  29.24100 1.15500 33.75800
H  29.95000 -1.93000 36.89000
H  29.07000 -2.84000 35.65100
H  28.26600 -1.72100 36.81000
Mg -2.12000 34.80400 26.37500
C  -4.09600 32.92400 28.74600
C  -1.20500 36.80600 29.01400
C  -0.43600 36.69600 24.10700
C  -3.22200 32.87400 23.82000
N  -2.58100 34.76800 28.63500
C  -3.40400 34.01900 29.34600
C  -3.25100 34.27600 30.82200
C  -2.59600 35.58700 30.82400
C  -2.08700 35.76000 29.38400
C  -3.63000 36.72900 31.13700
C  -2.57900 33.19300 31.63200
C  -2.99700 32.97100 33.06600
H  -3.23300 34.21000 33.90300
N  -0.95800 36.49100 26.54300
C  -0.70900 37.14200 27.69700
C  0.21600 38.27100 27.40800
C  0.32500 38.29300 26.00700
C  -0.32900 37.10600 25.45000
C  0.71900 39.19200 28.49500
C  0.97500 39.29800 25.18100
O  1.15700 39.11700 24.00800
C  1.53200 40.53800 25.80000
N  -1.86000 34.82600 24.25600
C  -1.07700 35.62600 23.55800
C  -0.90500 35.16700 22.07700
C  -1.70300 33.87000 22.11000
C  -2.33100 33.84200 23.46900
C  -1.40200 36.22100 20.95000
C  -0.71800 32.72500 21.82100
C  0.47500 32.63000 22.75000
N  -3.51700 33.35700 26.19900
C  -3.87600 32.66600 25.09400
C  -4.79700 31.65100 25.45900
C  -4.92600 31.72300 26.87800
C  -4.12300 32.73100 27.31400
C  -5.53900 30.71200 24.59600
C  -5.52200 31.14400 28.05700
O  -6.28000 30.21600 28.16000
C  -5.02400 31.86500 29.30300
C  -6.17900 32.45000 30.00400
O  -7.04600 33.12400 29.50800
O  -6.12000 32.09700 31.32900
C  -7.25000 32.34400 32.14100
H  -0.93900 37.39600 29.89400
H  0.05700 37.32200 23.36100
H  -3.55900 32.14400 23.08100
H  -4.26000 34.23600 31.23100
H  -1.77900 35.57400 31.54600
H  -3.12900 37.41600 31.81900
H  -4.53700 36.32600 31.58900
H  -3.96800 37.30200 30.27400
H  -1.49600 33.27900 31.71800
H  -2.70900 32.27600 31.05700
H  -2.22600 32.35800 33.53200
H  -3.96300 32.46800 33.02600
H  1.76000 39.33000 28.20300
H  0.67200 38.88400 29.53900
H  0.08900 40.07800 28.41900
H  0.60000 40.97200 26.16300
H  1.84500 41.13600 24.94400
H  2.39500 40.44700 26.46000
H  0.18100 35.16700 21.98300
H  -2.45900 33.89800 21.32400
H  -2.17900 35.83700 20.28800
H  -0.55600 36.44100 20.29900
H  -1.71600 37.07000 21.55700
H  -0.44800 32.64600 20.76800
H  -1.31500 31.82500 21.96800
H  0.49300 31.65400 23.23600
H  0.65300 33.47300 23.41800
H  1.33700 32.67200 22.08400
H  -4.95200 29.79400 24.59600
H  -5.55300 30.94200 23.53100
H  -6.53300 30.52000 25.00000
H  -4.47000 31.16100 29.92400
H  -7.96900 33.04900 31.72300
H  -6.94800 32.51200 33.17500
H  -7.80900 31.41400 32.24900

