158

Mg 41.02600 41.23800 27.56200
C  40.14800 43.71200 29.79300
C  41.72400 39.26200 30.12700
C  41.83900 38.73000 25.21100
C  40.60100 43.35000 24.89900
N  40.84500 41.49500 29.78100
C  40.34400 42.53100 30.50100
C  40.07300 42.21200 31.97400
C  40.63600 40.72300 31.98100
C  41.08700 40.42300 30.53400
C  41.68100 40.37000 33.06100
C  38.59300 42.37500 32.41800
C  38.41500 41.93500 33.82300
H  38.75400 42.83500 35.06900
N  41.67300 39.27100 27.70400
C  41.92900 38.62300 28.91600
C  42.34400 37.28900 28.63400
C  42.41600 37.19000 27.20900
C  41.95200 38.46000 26.59500
C  42.58800 36.26400 29.78200
C  42.96300 36.03500 26.39500
O  43.22100 36.05500 25.22800
C  43.20700 34.66500 27.08600
N  41.17900 41.05000 25.39700
C  41.41800 39.91400 24.66100
C  41.36000 40.12300 23.13200
C  40.71200 41.54200 23.07200
C  40.79900 42.03400 24.55300
C  42.73100 40.04900 22.46800
C  39.24700 41.63500 22.52800
C  38.12500 41.13700 23.48300
N  40.52500 43.17600 27.35100
C  40.47200 43.92200 26.19300
C  40.14600 45.31000 26.57500
C  40.02800 45.25100 27.99400
C  40.24900 43.94800 28.40200
C  39.92500 46.51400 25.59500
C  39.79200 46.02000 29.19800
O  39.71400 47.23000 29.29500
C  39.78100 45.07100 30.37000
C  40.87800 45.46600 31.29200
O  42.04900 45.26800 31.15800
O  40.35700 46.08900 32.40100
C  41.30700 46.24800 33.54300
H  41.86100 38.69700 31.05100
H  42.24500 38.02600 24.48100
H  40.61600 44.01900 24.03600
H  40.68100 42.84100 32.62300
H  39.74100 40.10400 32.03800
H  41.24500 39.65200 33.75600
H  41.99200 41.27600 33.58200
H  42.58200 39.88200 32.69000
H  37.86800 41.82600 31.81600
H  38.41500 43.44800 32.47900
H  39.00000 41.03400 34.00400
H  37.35500 41.71500 33.95100
H  43.62400 35.94900 29.90600
H  41.91500 35.41900 29.63300
H  42.39400 36.71900 30.75300
H  42.35100 34.46400 27.73100
H  44.14700 34.92400 27.57200
H  43.36000 33.87200 26.35300
H  40.67900 39.41900 22.65300
H  41.37500 42.21700 22.53000
H  42.95500 40.71800 21.63700
H  42.88700 39.06200 22.03300
H  43.43800 40.08200 23.29700
H  39.22900 41.13400 21.56000
H  39.02100 42.67500 22.29000
H  38.61500 40.83400 24.40900
H  37.55500 40.30000 23.08000
H  37.46600 41.95300 23.77800
H  39.81900 46.17800 24.56300
H  40.70900 47.22500 25.85300
H  38.99700 46.93200 25.98400
H  38.83100 45.07300 30.90400
H  42.16900 46.76600 33.12300
H  41.59200 45.26800 33.92600
H  40.81300 46.74500 34.37800
Mg 6.32500 57.34100 41.54900
C  5.04700 54.02700 41.57100
C  9.45900 55.96400 40.91200
C  7.34800 60.47200 40.94500
C  3.01600 58.53200 41.85400
N  7.07400 55.30000 41.11900
C  6.43100 54.09400 41.29400
C  7.37600 52.88800 40.93800
C  8.80000 53.51400 41.29100
C  8.42000 55.03400 41.08100
C  9.32100 53.19200 42.70400
C  7.28700 52.50200 39.50500
C  7.90800 51.22700 38.97700
H  7.16200 50.32200 38.04500
N  8.14200 58.11900 41.02800
C  9.31800 57.41800 40.80600
C  10.36800 58.39200 40.62400
C  9.77700 59.70000 40.69000
C  8.36600 59.48200 40.88800
C  11.85700 58.06000 40.44500
C  10.50200 60.99700 40.43500
O  11.64700 60.87700 40.06500
C  9.90900 62.36200 40.66000
N  5.29700 59.17200 41.28500
C  5.94900 60.31500 41.19600
C  5.00400 61.57500 41.37400
C  3.62200 60.96900 41.77100
C  3.98000 59.49600 41.64000
C  5.63900 62.68900 42.28600
C  2.40300 61.56200 41.01800
C  2.51400 62.96300 40.39800
N  4.38300 56.51400 41.79100
C  3.16300 57.10400 41.87900
C  2.17200 56.09900 42.10500
C  2.88500 54.92100 42.06400
C  4.20100 55.13000 41.78500
C  0.69800 56.37000 42.39200
C  2.73700 53.50200 42.21600
O  1.69800 52.92500 42.48200
C  4.07200 52.85300 41.93200
C  3.84300 51.83700 40.81700
O  3.40200 52.09100 39.66200
O  4.15100 50.61800 41.16800
C  4.07200 49.58100 40.18800
H  10.42700 55.48400 40.75400
H  7.61300 61.53100 40.92000
H  2.02800 58.89800 42.14200
H  7.31600 52.02400 41.60100
H  9.57000 53.12000 40.62600
H  10.38200 52.94500 42.67300
H  8.87000 52.34300 43.21600
H  9.17800 54.01700 43.40200
H  7.73800 53.23400 38.83500
H  6.24300 52.35700 39.22700
H  8.14100 50.63100 39.85900
H  8.88300 51.33600 38.50100
H  12.56100 58.49000 41.15700
H  12.10400 58.49100 39.47400
H  11.96100 56.97600 40.41600
H  9.50700 62.52300 41.66000
H  9.16100 62.57600 39.89600
H  10.67900 63.08900 40.40200
H  4.88000 61.87900 40.33400
H  3.29500 61.22700 42.77800
H  4.85800 63.34400 42.67100
H  6.34100 63.27500 41.69300
H  6.08600 62.18000 43.14000
H  1.58200 61.65700 41.72900
H  2.07100 60.79300 40.32000
H  1.49200 63.25000 40.15200
H  3.11000 62.83300 39.49400
H  2.95700 63.70800 41.05900
H  0.33700 55.47800 42.90400
H  0.14200 56.45200 41.45800
H  0.56800 57.24400 43.02900
H  4.40700 52.24300 42.77100
H  3.03400 49.26900 40.30400
H  4.78800 48.80300 40.45300
H  4.35700 49.91000 39.18900

