158

Mg 0.14300 7.03600 25.61900
C  0.90000 9.09400 28.44900
C  0.32500 4.37700 27.81600
C  -0.47000 5.23500 23.01200
C  0.69000 9.82800 23.63400
N  0.45700 6.80600 27.96800
C  0.70600 7.77700 28.88500
C  0.62400 7.24200 30.29500
C  0.75800 5.69500 30.00100
C  0.38500 5.60600 28.54400
C  2.20800 5.11100 30.39100
C  -0.78600 7.65200 30.89400
C  -0.85500 7.82200 32.43800
H  0.30600 7.58700 33.40900
N  -0.08300 5.05700 25.40400
C  0.10500 4.10400 26.35000
C  0.05700 2.81800 25.73100
C  -0.32900 3.01700 24.32400
C  -0.26300 4.49100 24.18800
C  0.27200 1.63900 26.60400
C  -0.62400 2.00300 23.27200
O  -0.79500 2.27700 22.11300
C  -0.86100 0.61200 23.68500
N  0.24900 7.47100 23.55100
C  -0.25600 6.54500 22.70100
C  -0.63700 7.23300 21.36900
C  -0.42900 8.67800 21.67000
C  0.20500 8.66900 23.04800
C  0.18500 6.59100 20.21200
C  -1.71000 9.65600 21.62700
C  -1.79200 10.70300 20.44800
N  0.59200 9.12200 25.93600
C  0.94600 10.10500 25.04700
C  1.44000 11.29700 25.71300
C  1.38100 10.97700 27.05200
C  0.92300 9.64300 27.14700
C  1.59800 12.68000 25.10100
C  1.61100 11.45100 28.39100
O  2.01600 12.52100 28.92100
C  1.20300 10.25400 29.28200
C  2.26600 10.08100 30.29600
O  3.23100 9.38000 30.13700
O  1.94000 10.80200 31.40200
C  2.79600 10.76300 32.56300
H  0.55000 3.57900 28.52700
H  -0.80400 4.55200 22.22700
H  0.76100 10.73900 23.03600
H  1.46200 7.64600 30.86300
H  0.13700 5.04200 30.61400
H  2.62300 4.80300 29.43100
H  2.02600 4.26600 31.05600
H  2.75100 5.87500 30.94600
H  -1.47600 6.89600 30.51800
H  -1.03000 8.61400 30.44400
H  -1.65800 7.20300 32.83800
H  -1.16200 8.84300 32.66500
H  0.92700 1.91600 27.43000
H  0.82900 0.96100 25.95600
H  -0.61900 1.14800 26.99700
H  -1.35900 0.49800 24.64800
H  0.06800 0.04200 23.72300
H  -1.46600 0.05800 22.96700
H  -1.70800 7.04000 21.30100
H  0.39100 9.01500 21.03700
H  -0.48300 6.02700 19.56100
H  0.94700 5.96600 20.67500
H  0.71900 7.30400 19.58300
H  -1.71800 10.14100 22.60300
H  -2.64000 9.08800 21.63800
H  -0.85200 10.58500 19.91000
H  -1.77100 11.66100 20.96900
H  -2.71300 10.67700 19.86600
H  2.48100 12.77200 24.46800
H  1.62000 13.46700 25.85500
H  0.76400 12.90800 24.43700
H  0.39200 10.59600 29.92500
H  3.50200 9.93200 32.55900
H  2.30300 10.83800 33.53200
H  3.48900 11.59800 32.45300
Mg 37.21500 50.49500 24.96400
C  37.57800 48.55000 27.94400
C  35.59000 52.88800 26.78900
C  36.26000 52.14000 22.01500
C  38.21100 47.73700 23.10900
N  36.57100 50.59000 27.09800
C  36.88700 49.79500 28.13400
C  36.64600 50.49200 29.47000
C  35.78300 51.66200 29.07200
C  35.92300 51.74400 27.53100
C  34.36100 51.60300 29.70400
C  37.98700 50.75700 30.14900
C  37.98700 50.25700 31.56100
H  36.75400 50.44400 32.42900
N  36.22300 52.33300 24.46300
C  35.65200 53.16300 25.38100
C  34.95500 54.25200 24.73100
C  35.21400 54.09100 23.33300
C  35.90100 52.82800 23.20900
C  34.16300 55.17900 25.47700
C  34.78900 54.96700 22.14800
O  35.17200 54.70600 21.00300
C  33.82900 56.20800 22.30600
N  37.17500 49.98200 22.87200
C  36.75800 50.80900 21.90500
C  37.03900 50.18200 20.53200
C  37.97800 48.93300 20.87800
C  37.73800 48.84300 22.39100
C  35.71900 49.98400 19.71900
C  39.48900 49.05000 20.54600
C  40.08200 47.87700 19.66300
N  37.96600 48.61800 25.35700
C  38.27800 47.57800 24.55400
C  38.58900 46.39600 25.24000
C  38.46000 46.77200 26.62700
C  37.95700 48.10800 26.69200
C  38.89400 45.11800 24.65200
C  38.44900 46.30100 27.96900
O  38.81300 45.19700 28.38000
C  38.10200 47.43800 28.95000
C  36.98400 46.86600 29.70200
O  35.79700 46.78100 29.35600
O  37.48400 46.48700 30.95200
C  36.54300 45.81300 31.86900
H  35.03600 53.63900 27.35600
H  36.06900 52.50500 21.00400
H  38.75800 47.01200 22.50300
H  36.07300 49.76400 30.04600
H  36.25500 52.51300 29.56300
H  33.70200 51.66100 28.83800
H  34.12700 52.51600 30.25200
H  34.09400 50.76100 30.34300
H  38.28600 51.79200 29.97700
H  38.68600 50.18800 29.53600
H  38.67300 50.90000 32.11300
H  38.21800 49.19100 31.54100
H  34.00600 56.07300 24.87400
H  34.66500 55.48900 26.39400
H  33.21100 54.75800 25.80100
H  33.51600 56.51800 21.30900
H  34.42300 57.05800 22.64200
H  33.00600 56.06600 23.00600
H  37.59700 50.91300 19.94600
H  37.48400 48.07000 20.43300
H  34.87400 49.94100 20.40600
H  35.77100 49.05900 19.14400
H  35.54300 50.79200 19.01000
H  40.10200 49.14300 21.44300
H  39.52700 49.89800 19.86200
H  41.08100 48.11800 19.30000
H  39.44700 47.87100 18.77700
H  40.21200 46.92300 20.17300
H  38.37100 44.27100 25.09400
H  39.95700 44.87700 24.67200
H  38.72800 45.06400 23.57600
H  38.88700 47.83300 29.59400
H  35.96700 45.11400 31.26200
H  36.00400 46.44500 32.57500
H  37.18300 45.12800 32.42500

