158

Mg 17.29500 52.22300 26.18500
C  19.02400 50.90100 28.93300
C  14.80500 53.22900 28.42200
C  15.50500 53.32500 23.57900
C  19.60600 50.84300 23.97800
N  16.91600 52.00400 28.33900
C  17.81500 51.50000 29.26800
C  17.33900 51.69600 30.69200
C  15.85000 52.19900 30.54800
C  15.85000 52.52300 29.03000
C  14.89100 51.02600 30.70600
C  18.16200 52.75600 31.57700
C  18.24700 52.37500 33.07500
H  16.97900 51.78400 33.75300
N  15.51900 53.27900 26.08700
C  14.65700 53.55800 27.09100
C  13.59500 54.37800 26.54500
C  13.71400 54.34800 25.13200
C  14.96400 53.62400 24.88600
C  12.63400 55.09000 27.45400
C  12.77900 54.93900 24.03600
O  12.87000 54.75100 22.83300
C  11.59000 55.69900 24.43300
N  17.41100 51.92400 24.11200
C  16.61500 52.59800 23.23600
C  17.06400 52.48500 21.77500
C  18.49800 52.07500 22.05800
C  18.52900 51.56800 23.46500
C  16.18900 51.43200 21.02400
C  19.60200 53.26400 21.86400
C  20.82300 52.99100 21.03900
N  19.00800 50.95000 26.37200
C  19.80400 50.47200 25.38500
C  20.95200 49.86500 25.98600
C  20.65300 49.94000 27.37900
C  19.42200 50.62100 27.59000
C  22.08000 49.25200 25.20600
C  21.14600 49.59600 28.68200
O  22.23500 49.05800 28.89000
C  20.17600 50.30700 29.83800
C  19.68300 49.27600 30.76300
O  19.06700 48.26900 30.54700
O  20.01600 49.68800 32.04800
C  19.48600 48.90100 33.20500
H  14.06000 53.53400 29.16000
H  14.94900 53.75700 22.74400
H  20.50900 50.61500 23.40800
H  17.36300 50.78100 31.28400
H  15.59800 53.02500 31.21300
H  15.43500 50.24700 31.23900
H  14.34900 50.62600 29.84900
H  14.06500 51.36600 31.33000
H  17.78300 53.77600 31.64500
H  19.14300 52.66000 31.11100
H  18.55900 53.30600 33.54800
H  19.13000 51.74900 33.20600
H  11.75000 55.35200 26.87200
H  13.21500 55.88500 27.92100
H  12.35300 54.33100 28.18300
H  11.01300 54.94500 24.96800
H  11.05800 55.86600 23.49600
H  11.86600 56.62000 24.94500
H  16.98900 53.43200 21.24100
H  18.66000 51.25400 21.35800
H  15.10800 51.57200 21.05800
H  16.40300 50.50100 21.54900
H  16.57900 51.43600 20.00700
H  19.87800 53.71000 22.82000
H  19.01100 54.00500 21.32500
H  20.98300 53.58000 20.13600
H  20.91500 51.92000 20.85800
H  21.67500 53.17600 21.69400
H  21.89700 48.19100 25.03600
H  22.95900 49.42600 25.82700
H  22.31100 49.75200 24.26600
H  20.90200 50.96900 30.30900
H  18.56100 48.43100 32.87300
H  19.24600 49.53600 34.05800
H  20.29100 48.22100 33.48500
Mg -2.26600 34.11900 25.96700
C  -4.18100 32.91600 28.77100
C  -1.18000 36.62900 28.12500
C  -1.02300 35.55600 23.29600
C  -4.03700 31.79900 23.98100
N  -2.75600 34.70900 28.24900
C  -3.32000 33.92700 29.16400
C  -2.88500 34.35700 30.56900
C  -2.14400 35.72000 30.33700
C  -1.89100 35.63700 28.81900
C  -2.73900 37.02900 30.77500
C  -1.98000 33.27300 31.25300
C  -2.50700 32.75100 32.60800
H  -2.80200 33.77900 33.65200
N  -1.15400 35.87000 25.73000
C  -0.87400 36.75000 26.68800
C  -0.13600 37.83100 26.06200
C  -0.11600 37.55300 24.68000
C  -0.73200 36.28500 24.48100
C  0.45800 38.94300 26.90700
C  0.53300 38.30500 23.56500
O  0.69600 37.86900 22.44800
C  1.10900 39.67000 23.79400
N  -2.52100 33.73200 23.96800
C  -1.78600 34.42500 23.04400
C  -2.02900 33.87300 21.60500
C  -2.76000 32.52900 21.88100
C  -3.14100 32.68600 23.34700
C  -2.82700 34.80000 20.69500
C  -1.96200 31.22800 21.57500
C  -0.43400 31.05600 21.84900
N  -3.77300 32.66100 26.24900
C  -4.34600 31.79500 25.35500
C  -5.33900 31.01500 25.99900
C  -5.18100 31.35400 27.32700
C  -4.31700 32.41000 27.45600
C  -6.35700 30.11400 25.40400
C  -5.69900 31.04700 28.67600
O  -6.56000 30.18100 29.06200
C  -4.94900 31.95800 29.62900
C  -5.93000 32.63200 30.56000
O  -6.38100 33.72600 30.45400
O  -6.11800 31.87700 31.70800
C  -7.00300 32.47800 32.67100
H  -0.79700 37.27400 28.91900
H  -0.61700 36.03000 22.40000
H  -4.62000 31.08500 23.39500
H  -3.70400 34.62600 31.23600
H  -1.14800 35.70900 30.77800
H  -2.99200 37.84300 30.09500
H  -2.10700 37.22700 31.64100
H  -3.75600 36.86600 31.13200
H  -0.94500 33.61500 31.29200
H  -2.00900 32.34000 30.69000
H  -1.62900 32.22100 32.97700
H  -3.37000 32.09500 32.49300
H  0.09700 39.92000 26.58600
H  1.54300 38.99600 26.81700
H  0.24400 38.84200 27.97100
H  1.67300 39.51700 24.71300
H  0.25800 40.35100 23.78100
H  1.77400 39.85200 22.95000
H  -1.10100 33.54400 21.13700
H  -3.73900 32.44500 21.41000
H  -3.25100 35.66600 21.20400
H  -3.71700 34.41100 20.20000
H  -2.21100 35.28400 19.93700
H  -1.89200 31.18000 20.48800
H  -2.66000 30.45000 21.88300
H  -0.16900 30.20600 22.47700
H  -0.10500 31.94700 22.38300
H  0.14700 31.00600 20.92800
H  -7.04100 30.61200 24.71700
H  -6.97600 29.85000 26.26200
H  -5.94500 29.16900 25.04900
H  -4.30700 31.41700 30.32300
H  -8.00600 32.41200 32.24900
H  -6.70800 33.50800 32.87000
H  -6.94500 31.86100 33.56800

