158

Mg -0.52900 7.17800 27.54200
C  0.17400 9.33500 30.20800
C  -0.76100 4.59300 29.86500
C  -1.12300 5.02000 25.03500
C  -0.45200 9.81400 25.36500
N  -0.27000 6.96300 29.74800
C  -0.06800 7.99900 30.63800
C  -0.26900 7.56000 32.11200
C  -0.43700 6.03300 32.01300
C  -0.50000 5.81000 30.46800
C  0.60400 5.23400 32.70800
C  -1.36700 8.31500 32.87000
C  -1.15100 8.57500 34.41400
H  -0.06100 7.93100 35.23500
N  -0.73600 5.07800 27.41900
C  -0.79700 4.19800 28.49600
C  -1.03400 2.84800 27.96700
C  -0.98300 2.93200 26.55500
C  -0.90300 4.39800 26.23400
C  -0.98700 1.67700 28.91600
C  -0.98700 1.91000 25.57500
O  -0.79300 2.16500 24.41400
C  -1.13400 0.43700 25.96200
N  -0.86900 7.31600 25.56700
C  -0.96800 6.33800 24.66600
C  -0.90200 6.78900 23.17900
C  -0.97600 8.33700 23.41300
C  -0.68600 8.46100 24.92400
C  0.34900 6.35600 22.42000
C  -2.39300 9.00800 23.10400
C  -2.48600 10.50500 22.69900
N  -0.23700 9.11900 27.69600
C  -0.24600 10.15500 26.78100
C  0.09500 11.39500 27.36200
C  0.27800 11.15900 28.70400
C  0.07300 9.75600 28.87100
C  0.25100 12.68600 26.58000
C  0.73000 11.77800 29.99400
O  1.18200 12.89600 30.15200
C  0.38600 10.63400 31.05800
C  1.44200 10.58800 32.04100
O  2.42100 9.88200 31.98400
O  1.13600 11.42800 33.12200
C  2.03100 11.33800 34.30700
H  -0.92700 3.77700 30.57200
H  -1.15900 4.34600 24.17600
H  -0.36500 10.63900 24.65500
H  0.64300 7.83700 32.64100
H  -1.42200 5.72700 32.36600
H  1.03300 4.47900 32.05000
H  0.02900 4.55900 33.34200
H  1.39900 5.85500 33.12100
H  -2.31300 7.77700 32.81700
H  -1.46300 9.28800 32.38800
H  -2.12400 8.31400 34.83000
H  -1.00400 9.65200 34.50400
H  -1.77600 0.94500 28.74400
H  -1.20000 1.88200 29.96500
H  -0.00500 1.20500 28.89300
H  -0.47600 0.30100 26.82100
H  -0.97900 -0.27100 25.14800
H  -2.16400 0.30700 26.29400
H  -1.82300 6.38000 22.76400
H  -0.25200 9.02200 22.97300
H  0.86900 7.20200 21.97000
H  0.10000 5.79400 21.52000
H  1.13800 6.03600 23.10200
H  -3.04900 8.78400 23.94500
H  -2.90600 8.43700 22.33000
H  -3.16200 11.00300 23.39400
H  -2.82500 10.43300 21.66500
H  -1.55800 11.06900 22.79600
H  1.07000 13.18700 27.09700
H  -0.65800 13.24600 26.79900
H  0.45700 12.72500 25.51000
H  -0.59600 10.93300 31.42300
H  2.57600 12.27400 34.42800
H  2.78300 10.55200 34.23200
H  1.53500 11.28200 35.27500
Mg 6.54600 53.77300 40.99500
C  5.62900 50.28100 40.76200
C  9.50800 52.92800 39.70900
C  7.03500 57.01700 40.87600
C  3.19800 54.33600 41.91000
N  7.33600 51.83200 40.06800
C  6.85300 50.53000 40.07400
C  7.92400 49.57300 39.56200
C  9.21800 50.40400 39.57800
C  8.68000 51.84500 39.86200
C  10.28000 50.00900 40.54600
C  7.60400 48.83300 38.22400
C  6.89600 49.49400 37.01900
H  7.81800 49.92400 35.96400
N  8.06700 54.92900 40.40200
C  9.23000 54.34500 39.88100
C  10.15800 55.35700 39.61900
C  9.54500 56.63200 40.00200
C  8.18400 56.27300 40.45500
C  11.49500 55.16600 39.03700
C  10.18400 57.92900 39.97500
O  11.32800 58.05400 39.65300
C  9.47400 59.22000 40.35700
N  5.22300 55.43900 41.17500
C  5.78000 56.68100 41.24400
C  4.67700 57.72800 41.55200
C  3.43200 56.86200 41.90800
C  3.93100 55.43300 41.65200
C  5.17800 58.69500 42.74800
C  2.01500 57.22600 41.36000
C  1.04500 57.70500 42.32900
N  4.78000 52.57600 41.32900
C  3.53900 52.95900 41.81600
C  2.70800 51.80000 42.07800
C  3.55800 50.74300 41.79600
C  4.74000 51.26000 41.22600
C  1.31300 51.73300 42.45300
C  3.69600 49.30300 41.73000
O  2.88300 48.46700 42.16500
C  5.08900 48.94600 41.13300
C  4.90100 47.98700 40.01500
O  4.47500 48.21600 38.87200
O  5.50100 46.82100 40.42400
C  5.51600 45.80900 39.35200
H  10.54400 52.62300 39.54800
H  7.22700 58.09100 40.93100
H  2.19700 54.54300 42.29700
H  7.95500 48.79900 40.32900
H  9.55900 50.29500 38.54800
H  10.00000 49.06500 41.01300
H  10.46900 50.73200 41.33900
H  11.28900 49.97200 40.13400
H  7.12800 47.88100 38.46000
H  8.57800 48.44900 37.92000
H  6.29300 50.35000 37.32300
H  6.14900 48.82600 36.59100
H  11.74300 54.10800 39.12300
H  12.32400 55.67300 39.53200
H  11.43200 55.44000 37.98400
H  10.12700 60.01800 40.00400
H  9.45800 59.24700 41.44700
H  8.54200 59.37000 39.81200
H  4.52800 58.36300 40.67900
H  3.28100 56.91400 42.98600
H  5.21300 59.71500 42.36400
H  6.17000 58.37900 43.07100
H  4.61200 58.76300 43.67800
H  1.55800 56.44700 40.74900
H  2.15000 58.15800 40.81100
H  1.54800 58.05000 43.23200
H  0.25100 57.02400 42.63600
H  0.50300 58.55100 41.90600
H  1.29000 51.74800 43.54300
H  0.76000 50.86500 42.09400
H  0.87300 52.66800 42.10600
H  5.51900 48.33700 41.92800
H  4.55400 45.76500 38.84100
H  5.60200 44.83500 39.83400
H  6.39400 46.03800 38.74800

