158

Mg 4.47900 54.70400 40.76900
C  4.70700 51.18500 40.00300
C  7.32300 55.16600 39.31200
C  3.63200 57.97900 40.61900
C  1.11200 53.97700 41.83700
N  5.67100 53.32900 39.43700
C  5.70400 51.97400 39.44000
C  7.07100 51.46900 38.97300
C  8.03900 52.71900 39.11100
C  6.90300 53.85100 39.24800
C  8.87700 52.62300 40.39900
C  7.02800 50.90000 37.48800
C  6.14000 51.57300 36.43800
H  6.50800 51.25400 34.95900
N  5.38100 56.43700 40.05700
C  6.62400 56.39100 39.51300
C  7.11200 57.75700 39.51000
C  5.96300 58.55000 39.77000
C  4.84200 57.67900 40.10100
C  8.59800 58.14400 39.08800
C  5.86400 60.02500 39.59500
O  6.86400 60.64000 39.17900
C  4.74800 60.99000 39.98400
N  2.52400 55.78400 41.04400
C  2.59800 57.13200 41.11200
C  1.30500 57.72600 41.72700
C  0.49500 56.45700 42.02400
C  1.39300 55.32500 41.56100
C  1.56100 58.68200 42.99000
C  -0.88200 56.39300 41.37100
C  -2.08500 57.08600 41.96500
N  3.14200 52.91500 40.98200
C  1.80500 52.84800 41.47400
C  1.53300 51.46200 41.66300
C  2.64300 50.75900 41.06900
C  3.56000 51.71400 40.65700
C  0.31300 51.01700 42.32100
C  3.16800 49.46000 40.84000
O  2.74600 48.36200 41.18400
C  4.56000 49.69500 40.06400
C  4.54500 49.04400 38.67900
O  3.90000 49.34300 37.68900
O  5.26500 47.89600 38.64600
C  5.31000 46.96500 37.48300
H  8.38400 55.35400 39.13500
H  3.40700 59.03000 40.81200
H  0.15500 53.86100 42.34900
H  7.37600 50.66700 39.64500
H  8.52900 52.84400 38.14500
H  8.47300 53.29500 41.15700
H  9.92600 52.81400 40.17400
H  8.88000 51.59300 40.75500
H  6.79600 49.84000 37.59000
H  8.04300 50.98900 37.10200
H  6.08100 52.65800 36.52200
H  5.12300 51.20000 36.55200
H  9.26100 57.38600 39.50500
H  8.82300 59.15700 39.42100
H  8.82900 58.19100 38.02400
H  5.16400 61.99700 40.02800
H  4.46600 60.76300 41.01200
H  3.90500 61.05100 39.29500
H  0.84200 58.35300 40.96500
H  0.38000 56.36700 43.10500
H  2.53800 58.67000 43.47500
H  0.96400 58.28300 43.81000
H  1.30700 59.71900 42.77300
H  -1.21000 55.35800 41.46800
H  -0.79800 56.69100 40.32600
H  -1.76200 57.30900 42.98100
H  -3.00700 56.50400 41.97700
H  -2.28000 58.00500 41.41300
H  0.02400 51.64300 43.16500
H  0.44300 50.06200 42.83000
H  -0.56000 51.06500 41.67100
H  5.33000 49.13200 40.59000
H  5.32300 47.55100 36.56400
H  4.45700 46.29100 37.40100
H  6.28200 46.47700 37.55900
Mg -4.46600 25.42300 25.47700
C  -3.26500 26.73700 28.58500
C  -6.53700 23.28500 27.37800
C  -5.79700 24.46000 22.71800
C  -2.29100 27.59200 23.83300
N  -4.79200 25.01900 27.66200
C  -4.23800 25.77800 28.73300
C  -4.85400 25.34500 30.04700
C  -5.70000 24.09100 29.64500
C  -5.61200 24.05100 28.12700
C  -5.40200 22.80900 30.46800
C  -5.72700 26.45400 30.67600
C  -5.52200 26.61400 32.28100
H  -5.21100 25.31200 33.12500
N  -5.88600 23.98800 25.08900
C  -6.68500 23.26500 26.00500
C  -7.63000 22.47500 25.18200
C  -7.40000 22.82100 23.87200
C  -6.36900 23.84700 23.88000
C  -8.56500 21.41900 25.72900
C  -7.94300 22.19400 22.50700
O  -7.61800 22.59000 21.38300
C  -8.83700 21.04400 22.47000
N  -4.02300 25.94200 23.54300
C  -4.69500 25.36100 22.54400
C  -4.24700 25.88400 21.12200
C  -3.13800 26.92700 21.52300
C  -3.14000 26.82700 23.05200
C  -3.61000 24.68100 20.30200
C  -3.23600 28.42800 21.05500
C  -3.31400 28.66300 19.48600
N  -3.05000 26.90400 26.05500
C  -2.18000 27.61900 25.23500
C  -1.41000 28.58300 26.06200
C  -1.80700 28.28300 27.38100
C  -2.74600 27.23300 27.35600
C  -0.41400 29.57900 25.62200
C  -1.65400 28.62600 28.78600
O  -1.01100 29.50200 29.32200
C  -2.57300 27.58500 29.62600
C  -1.69400 26.92500 30.72000
O  -1.13900 25.81800 30.67500
O  -1.62000 27.65200 31.83900
C  -0.78600 27.11100 32.93400
H  -7.22600 22.74900 28.03400
H  -6.21000 24.26600 21.72600
H  -1.71200 28.31800 23.25700
H  -4.06900 25.05500 30.74500
H  -6.75300 24.35800 29.73800
H  -6.18000 22.72300 31.22700
H  -4.42100 22.88900 30.93500
H  -5.36200 21.97500 29.76700
H  -6.76300 26.24900 30.40900
H  -5.36500 27.36200 30.19400
H  -6.41000 27.06100 32.72600
H  -4.67900 27.28500 32.44600
H  -7.97200 20.61900 26.17400
H  -9.41700 21.14200 25.10900
H  -9.02500 22.13100 26.41400
H  -8.84400 20.70500 21.43400
H  -9.84600 21.32800 22.77100
H  -8.46200 20.25900 23.12800
H  -5.06000 26.41600 20.62700
H  -2.12500 26.60300 21.28400
H  -3.70900 23.84200 20.99100
H  -2.56900 24.68700 19.98000
H  -4.29100 24.47100 19.47700
H  -2.42300 29.02500 21.46800
H  -4.09300 28.86200 21.57000
H  -2.60600 29.46400 19.27300
H  -4.31700 29.01400 19.24700
H  -3.05800 27.94300 18.70900
H  0.01100 29.42400 24.63000
H  0.36800 29.62800 26.38000
H  -0.87300 30.56800 25.64400
H  -3.26800 28.24200 30.14900
H  -0.98600 26.09300 33.26900
H  -1.08300 27.84500 33.68300
H  0.25600 27.23700 32.64100

