158

Mg 26.24800 50.37700 26.30700
C  24.00800 51.38600 28.87000
C  28.49200 49.36100 28.79700
C  28.29800 49.60500 23.80900
C  23.95100 51.60000 23.99600
N  26.26600 50.60400 28.57400
C  25.16900 50.83200 29.38000
C  25.43500 50.48600 30.84900
C  26.89400 49.89900 30.82600
C  27.29300 49.93900 29.28100
C  27.97100 50.73200 31.63400
C  24.28500 49.54000 31.37500
C  23.41900 49.78700 32.60600
H  23.75300 48.96500 33.98100
N  28.07100 49.61800 26.36500
C  28.88000 49.26900 27.45200
C  30.21700 48.66400 26.93800
C  30.13700 48.88200 25.52700
C  28.81800 49.44400 25.18200
C  31.25200 47.92600 27.83000
C  31.23100 48.45300 24.49400
O  31.11300 48.61900 23.27000
C  32.57600 47.88000 24.91900
N  26.15800 50.62800 24.18600
C  27.17500 50.23900 23.35400
C  26.80200 50.41400 21.86100
C  25.30900 50.85100 21.94700
C  25.09500 51.06300 23.47700
C  27.65700 51.48700 21.11500
C  24.36900 49.89100 21.14600
C  23.87100 48.55000 21.71000
N  24.33800 51.34400 26.31800
C  23.56700 51.73900 25.32900
C  22.33000 52.32500 25.83600
C  22.48000 52.20000 27.21000
C  23.67600 51.56600 27.46600
C  21.24600 52.83300 25.02600
C  21.86900 52.56100 28.45600
O  20.85100 53.18400 28.64200
C  22.80800 52.04700 29.62500
C  23.25200 53.23600 30.43300
O  24.02800 54.17600 30.13400
O  22.52500 53.18100 31.61400
C  22.86400 54.19500 32.67200
H  29.13500 48.97900 29.59200
H  29.00400 49.39600 23.00300
H  23.23000 51.94600 23.25200
H  25.32900 51.42300 31.39600
H  26.90300 48.94300 31.34900
H  27.79100 51.78200 31.86500
H  28.81000 50.71100 30.93900
H  28.31400 50.08100 32.43800
H  24.73700 48.56100 31.53500
H  23.58100 49.39900 30.55500
H  22.37300 49.66000 32.32800
H  23.47700 50.84300 32.87000
H  32.12100 48.58300 27.85000
H  31.43800 46.98300 27.31700
H  31.00000 47.70400 28.86700
H  33.22700 47.71000 24.06200
H  32.37400 46.86500 25.26300
H  32.94600 48.53000 25.71200
H  26.98300 49.43700 21.41200
H  25.26300 51.86100 21.53900
H  27.07900 52.39300 20.93400
H  27.92000 51.12200 20.12200
H  28.53400 51.81200 21.67500
H  24.81600 49.79000 20.15700
H  23.43100 50.39400 20.91500
H  24.04300 47.75500 20.98400
H  22.79000 48.63600 21.81800
H  24.32400 48.31500 22.67300
H  21.65900 53.25800 24.11100
H  20.77800 53.60300 25.63900
H  20.38600 52.18800 24.84900
H  22.18900 51.34500 30.18300
H  22.93800 55.19300 32.24100
H  23.84200 54.06600 33.13500
H  22.05000 54.31400 33.38700
Mg -5.45000 25.32200 25.59500
C  -3.82500 26.69200 28.44500
C  -6.77900 22.88500 27.59700
C  -6.82900 23.95800 22.77300
C  -3.36200 27.44800 23.59200
N  -5.40900 24.91300 27.75600
C  -4.80800 25.70400 28.71900
C  -5.36700 25.28300 30.10500
C  -5.89300 23.83000 29.81900
C  -5.94700 23.79800 28.29200
C  -4.84000 22.79600 30.33600
C  -6.42400 26.21700 30.78100
C  -6.17500 26.39200 32.24200
H  -5.64500 25.19200 33.08700
N  -6.64600 23.71100 25.26300
C  -7.09000 22.83900 26.24100
C  -8.18200 22.08500 25.64900
C  -8.17200 22.32400 24.24700
C  -7.16600 23.36400 24.01400
C  -9.02000 21.08700 26.44500
C  -8.94100 21.74900 23.12500
O  -8.79600 22.03100 21.92900
C  -10.13000 20.75500 23.39100
N  -5.20100 25.68800 23.45400
C  -5.87400 25.00000 22.47900
C  -5.48500 25.47000 21.03600
C  -4.43500 26.60200 21.33800
C  -4.26400 26.55700 22.90700
C  -4.94600 24.28700 20.22600
C  -4.91600 27.99500 20.77200
C  -3.76300 28.97100 20.24100
N  -3.98000 26.82800 25.88000
C  -3.23600 27.58300 25.01000
C  -2.36200 28.48600 25.75900
C  -2.61000 28.11100 27.08500
C  -3.60000 27.15300 27.10300
C  -1.40300 29.39100 25.32000
C  -2.26600 28.50700 28.45500
O  -1.53800 29.41600 28.82900
C  -3.09900 27.62800 29.40100
C  -2.07800 26.96400 30.26800
O  -1.07000 26.37900 29.85100
O  -2.39300 27.15500 31.54900
C  -1.56800 26.37100 32.50300
H  -7.27900 22.20300 28.28800
H  -7.35300 23.64600 21.86800
H  -2.75300 28.12900 22.99300
H  -4.55100 25.32200 30.82800
H  -6.83400 23.71200 30.35700
H  -4.11800 23.34200 30.94400
H  -4.52600 22.07300 29.58300
H  -5.33900 22.15000 31.05800
H  -7.39600 25.75200 30.61600
H  -6.32300 27.24000 30.41900
H  -7.17100 26.57200 32.64900
H  -5.62000 27.31900 32.38200
H  -8.93700 21.15000 27.53000
H  -8.74800 20.11200 26.04000
H  -10.07200 21.25600 26.21700
H  -10.59900 20.26400 22.53900
H  -10.80800 21.41700 23.93000
H  -9.79000 20.02900 24.13000
H  -6.38200 25.74800 20.48300
H  -3.43400 26.30200 21.02700
H  -5.84400 23.88300 19.75800
H  -4.47200 23.55900 20.88400
H  -4.18000 24.52000 19.48700
H  -5.36300 28.49700 21.63000
H  -5.65600 27.79500 19.99700
H  -3.64200 29.59600 21.12600
H  -3.95700 29.43300 19.27400
H  -2.87200 28.35000 20.14100
H  -0.74400 28.94500 24.57600
H  -0.80800 29.75700 26.15700
H  -2.00300 30.22500 24.95500
H  -3.84000 28.22200 29.93700
H  -2.18000 25.91600 33.28200
H  -0.70900 26.89700 32.92000
H  -1.11900 25.47300 32.07900

