158

Mg 16.55800 -1.90800 27.64000
C  15.38300 0.18700 30.24900
C  18.39900 -3.58700 29.97900
C  17.91200 -3.55100 25.13000
C  14.81200 0.11900 25.37000
N  17.11300 -1.48000 29.87700
C  16.34200 -0.71300 30.72800
C  16.69900 -1.11300 32.15800
C  17.77700 -2.20700 32.09400
C  17.80500 -2.46100 30.57600
C  19.17300 -1.94500 32.65100
C  15.37100 -1.31300 33.02200
C  15.25000 -0.45600 34.29100
H  16.52000 0.10400 34.98000
N  17.92800 -3.35400 27.54100
C  18.56900 -3.92900 28.61600
C  19.31500 -5.03300 28.05500
C  19.28200 -4.96000 26.61400
C  18.37700 -3.92100 26.36700
C  20.11300 -6.01400 28.96000
C  19.89400 -5.94600 25.54900
O  19.72500 -5.86500 24.32900
C  20.66000 -7.14900 26.07000
N  16.39100 -1.73600 25.49700
C  17.07300 -2.50200 24.68300
C  16.84500 -2.10300 23.18600
C  15.55000 -1.18900 23.37500
C  15.49800 -0.92300 24.82100
C  18.09800 -1.39900 22.62900
C  14.23000 -1.81800 22.83400
C  13.40800 -0.87000 21.98200
N  15.23500 -0.17900 27.75600
C  14.59800 0.53400 26.76300
C  13.82600 1.53800 27.37900
C  14.03300 1.42700 28.79000
C  14.91400 0.37800 28.95400
C  12.81900 2.39200 26.64000
C  13.62300 1.99700 30.05000
O  12.82200 2.91100 30.27000
C  14.47200 1.21800 31.08800
C  15.29100 2.29700 31.70700
O  16.38800 2.57900 31.14600
O  14.65800 2.98600 32.73100
C  15.50900 4.06800 33.18900
H  18.85500 -4.26700 30.70200
H  18.28700 -4.04300 24.23000
H  14.24000 0.77900 24.71400
H  17.20800 -0.21900 32.51900
H  17.43600 -3.16500 32.48700
H  19.50500 -2.69700 33.36700
H  19.10100 -0.96100 33.11400
H  19.88000 -1.84300 31.82800
H  15.28700 -2.38500 33.20000
H  14.39300 -1.18700 32.55600
H  14.82200 -1.17200 34.99200
H  14.54500 0.33500 34.03700
H  19.71100 -6.99100 28.69400
H  19.87200 -5.88900 30.01500
H  21.20000 -5.96700 28.88200
H  21.13200 -7.55400 25.17500
H  20.07000 -7.95700 26.50400
H  21.42800 -6.80500 26.76400
H  16.72100 -3.06300 22.68500
H  15.65100 -0.29700 22.75700
H  17.89900 -0.73000 21.79300
H  18.81000 -2.16700 22.32600
H  18.68700 -0.82500 23.34500
H  13.63600 -2.19600 23.66600
H  14.41000 -2.72900 22.26200
H  12.98000 -0.16500 22.69400
H  12.54000 -1.35300 21.53200
H  13.91200 -0.31100 21.19300
H  12.81200 2.27000 25.55600
H  12.85400 3.46100 26.85100
H  11.78200 2.16900 26.89200
H  13.91200 0.67400 31.84900
H  15.64500 4.70200 32.31300
H  16.46700 3.69000 33.54500
H  15.09400 4.58500 34.05400
Mg 47.39800 25.09300 28.76300
C  48.29300 27.18500 31.32900
C  46.14800 22.97500 31.25600
C  46.80400 22.96900 26.40000
C  48.77600 27.30700 26.42200
N  47.02800 25.18000 31.02400
C  47.46200 26.17200 31.82700
C  47.07100 25.96800 33.26800
C  46.54600 24.43700 33.27300
C  46.56800 24.17400 31.76500
C  47.24800 23.29800 34.06500
C  46.02700 26.99300 33.78100
C  46.23800 27.75800 35.13800
H  44.95600 28.08100 35.98700
N  46.51700 23.34300 28.79800
C  46.04200 22.59500 29.85100
C  45.43800 21.42600 29.43900
C  45.61800 21.35700 27.99000
C  46.38300 22.57200 27.67300
C  44.79400 20.41900 30.31400
C  45.32000 20.20100 27.04200
O  45.69100 20.25900 25.86200
C  44.74200 18.80700 27.49400
N  48.09200 24.98900 26.66800
C  47.40900 24.07700 25.91300
C  47.84600 24.24600 24.47000
C  48.14400 25.77900 24.41800
C  48.38500 26.07200 25.90200
C  49.09900 23.32200 24.16800
C  46.98700 26.59100 23.79300
C  47.03800 26.47900 22.21200
N  48.39100 26.86900 28.83900
C  48.86900 27.72000 27.79600
C  49.33000 28.93800 28.38300
C  49.22000 28.70600 29.75600
C  48.61200 27.48000 29.99200
C  49.84000 30.12800 27.64800
C  49.40100 29.31800 31.09500
O  49.82200 30.41500 31.45300
C  48.96800 28.25800 32.17300
C  50.05700 27.79200 33.11100
O  51.05400 27.15600 32.76100
O  49.82700 28.33100 34.38300
C  51.02300 28.23500 35.28500
H  45.64400 22.28900 31.94000
H  46.45300 22.28700 25.62200
H  49.10600 27.98100 25.63000
H  48.01100 26.02600 33.81700
H  45.48500 24.31700 33.49200
H  47.96600 22.70600 33.49800
H  46.56100 22.56300 34.48500
H  47.74900 23.79100 34.89900
H  45.04000 26.53300 33.79800
H  45.94200 27.79500 33.04700
H  46.77700 28.70500 35.11200
H  46.77500 27.10400 35.82500
H  45.54400 19.71000 30.66400
H  44.00200 19.84200 29.83800
H  44.36600 20.86700 31.21100
H  45.42400 18.43300 28.25800
H  44.67500 18.11000 26.65900
H  43.76100 18.97000 27.94200
H  47.06500 24.01100 23.74700
H  49.06300 25.99400 23.87300
H  49.16900 22.70200 25.06100
H  50.09100 23.76900 24.09400
H  48.98100 22.68100 23.29400
H  47.02700 27.63500 24.10500
H  46.04800 26.08300 24.00900
H  46.19900 26.07100 21.64700
H  47.93900 26.00300 21.82600
H  47.17100 27.51800 21.90900
H  50.88300 30.28100 27.92300
H  49.24400 30.97400 27.99000
H  49.71800 30.12800 26.56500
H  48.17100 28.81200 32.66800
H  50.88000 27.41200 35.98500
H  51.12700 29.21400 35.75200
H  51.93300 28.06400 34.71100

