158

Mg 35.74600 1.28300 29.70700
C  33.41500 2.51100 32.03800
C  38.18800 1.44400 32.24200
C  38.07800 0.76600 27.44300
C  33.35000 1.53300 27.25500
N  35.80900 1.84600 31.77900
C  34.70200 2.23700 32.59500
C  35.12100 2.44800 34.07900
C  36.67800 2.26400 34.07000
C  36.91000 1.82900 32.55600
C  37.41000 3.56300 34.35700
C  34.30300 1.46300 35.00400
C  33.75600 1.97700 36.32000
H  34.47100 3.16200 36.99000
N  37.75200 1.04700 29.82400
C  38.58100 1.02400 30.94900
C  39.96600 0.62000 30.59500
C  39.94300 0.42900 29.18200
C  38.54600 0.76800 28.75600
C  41.03700 0.21700 31.58900
C  41.06500 -0.03700 28.28000
O  40.94900 0.07300 27.05300
C  42.43500 -0.46700 28.82200
N  35.73100 1.28200 27.58600
C  36.77300 0.95500 26.88500
C  36.51800 0.84500 25.37400
C  34.94900 0.93700 25.37500
C  34.65900 1.24800 26.80500
C  37.32100 1.99700 24.61900
C  34.27200 -0.35600 24.85200
C  33.34500 -0.20500 23.70300
N  33.81800 1.85400 29.55900
C  32.89100 1.82100 28.55000
C  31.58100 2.27300 29.02200
C  31.73400 2.55400 30.41200
C  33.07400 2.24800 30.68000
C  30.31100 2.37300 28.22300
C  31.07700 3.07200 31.61100
O  29.91000 3.44200 31.83400
C  32.16200 3.04300 32.74200
C  32.15400 4.40500 33.32500
O  32.93500 5.28800 33.07700
O  31.18600 4.41100 34.30700
C  31.33000 5.32200 35.42200
H  38.95200 1.58100 33.01000
H  38.77800 0.64400 26.61300
H  32.62500 1.55900 26.43800
H  34.73500 3.45200 34.25800
H  37.08300 1.55900 34.79600
H  36.66700 4.26800 34.72800
H  37.98800 3.93800 33.51100
H  38.11100 3.26700 35.13800
H  34.88000 0.56900 35.24300
H  33.48400 1.09200 34.38800
H  33.58400 1.22400 37.08900
H  32.77400 2.36800 36.05300
H  41.45400 -0.75900 31.33800
H  40.64700 0.04400 32.59200
H  41.87200 0.90800 31.71000
H  42.77000 0.32900 29.48600
H  43.15900 -0.54500 28.01000
H  42.28900 -1.48400 29.18600
H  36.78800 -0.14700 25.01300
H  34.51900 1.71100 24.73900
H  36.59400 2.77200 24.37600
H  37.96600 1.61700 23.82600
H  37.97600 2.44300 25.36700
H  33.58600 -0.74200 25.60600
H  35.01300 -1.12100 24.62100
H  33.45800 -1.15300 23.17700
H  33.58400 0.59000 22.99700
H  32.30100 -0.31700 23.99600
H  29.71200 3.14400 28.70800
H  29.72300 1.46100 28.32800
H  30.50800 2.66300 27.19100
H  31.91100 2.35500 33.54900
H  30.43100 5.93600 35.37300
H  32.23800 5.90100 35.25400
H  31.43900 4.77200 36.35600
Mg 0.09900 44.09900 25.56900
C  1.89200 43.48400 28.45900
C  -2.63600 42.55100 27.06600
C  -1.59200 44.30700 22.69100
C  3.06700 44.90400 24.04900
N  -0.34100 43.21600 27.43000
C  0.50100 43.27700 28.55400
C  -0.17700 42.91900 29.95700
C  -1.49700 42.24100 29.34500
C  -1.48900 42.57200 27.81900
C  -1.69600 40.72800 29.64100
C  -0.51000 44.21600 30.71400
C  -0.94000 44.05400 32.16300
H  -1.02300 42.59400 32.74100
N  -1.87200 43.69000 24.99900
C  -2.82500 43.02100 25.73900
C  -4.11400 42.95500 24.95000
C  -3.82300 43.56100 23.72000
C  -2.39000 43.86500 23.75200
C  -5.38700 42.38500 25.42600
C  -4.73800 43.89300 22.48700
O  -4.27600 44.25900 21.39000
C  -6.16500 43.45800 22.54600
N  0.64400 44.48400 23.66400
C  -0.18800 44.54900 22.63300
C  0.43500 45.08600 21.41100
C  1.86800 45.53200 21.89700
C  1.89400 44.95000 23.35000
C  0.49800 44.02700 20.28300
C  2.32200 46.99500 21.74000
C  1.38700 48.00000 22.36500
N  2.10700 44.10600 26.09800
C  3.14000 44.62900 25.41600
C  4.29900 44.61900 26.28000
C  3.91800 44.16600 27.50700
C  2.52100 43.85600 27.30400
C  5.75600 45.08000 25.88200
C  4.26500 43.75600 28.94600
O  5.28100 43.80400 29.57800
C  2.90800 43.35800 29.47400
C  2.97000 42.11900 30.23100
O  2.81200 40.99200 29.84700
O  3.26000 42.43700 31.49300
C  3.42300 41.39600 32.51300
H  -3.49800 42.07500 27.53800
H  -1.96900 44.50900 21.68600
H  3.98100 45.29900 23.59900
H  0.35500 42.16900 30.54200
H  -2.45100 42.67800 29.64200
H  -1.55100 40.17700 28.71200
H  -2.71800 40.69400 30.01900
H  -0.96500 40.36200 30.36200
H  -1.26000 44.72700 30.11000
H  0.41300 44.77500 30.55900
H  -1.94000 44.48300 32.22600
H  -0.34400 44.71700 32.79100
H  -6.15600 43.15500 25.36400
H  -5.32600 42.24300 26.50500
H  -5.82500 41.58200 24.83400
H  -6.61400 43.81300 21.61800
H  -6.69900 43.92800 23.37200
H  -6.21100 42.37000 22.58200
H  -0.24000 45.91400 21.19400
H  2.49200 44.95900 21.21100
H  1.39000 44.12500 19.66300
H  -0.35500 44.27600 19.65100
H  0.45500 42.99900 20.64000
H  2.34500 47.16700 20.66400
H  3.27500 47.15500 22.24400
H  1.86900 48.34700 23.27900
H  0.40700 47.58700 22.60500
H  1.20700 48.82300 21.67400
H  5.71300 45.35000 24.82700
H  6.41400 44.22400 26.03400
H  6.17800 45.89800 26.46500
H  2.72200 44.18300 30.16100
H  3.31200 40.41000 32.06200
H  2.63900 41.48100 33.26500
H  4.33100 41.59200 33.08300

