158

Mg -0.90500 16.96500 26.86700
C  -1.31200 14.56200 29.46300
C  -1.71800 19.41500 28.94700
C  -0.64700 18.98600 24.23100
C  -0.62900 14.13100 24.63600
N  -1.43700 16.92700 29.06300
C  -1.52800 15.93700 29.95200
C  -1.84500 16.47300 31.39300
C  -1.98000 18.03800 31.14000
C  -1.70100 18.17000 29.64600
C  -3.27300 18.74700 31.52800
C  -0.71100 16.09900 32.41500
C  -0.39800 16.89700 33.73100
H  -0.28200 16.08500 35.10500
N  -1.10200 18.93600 26.64000
C  -1.52300 19.77200 27.61700
C  -1.72900 21.06300 27.05900
C  -1.25100 21.02500 25.72800
C  -0.99100 19.57600 25.48000
C  -2.09700 22.26300 27.87600
C  -1.01900 22.16900 24.75700
O  -0.56500 22.01000 23.64700
C  -1.44800 23.61700 25.17900
N  -0.90100 16.61100 24.70200
C  -0.55900 17.66900 23.90000
C  -0.23200 17.19700 22.43400
C  -0.07900 15.63200 22.59400
C  -0.57000 15.40500 24.03600
C  -1.31800 17.67300 21.38500
C  1.34300 15.11000 22.36700
C  2.37500 15.56400 23.43300
N  -0.99800 14.83200 26.97900
C  -0.91000 13.82800 25.99400
C  -1.00900 12.51500 26.58600
C  -1.20000 12.77100 27.94500
C  -1.13500 14.15000 28.15700
C  -0.89400 11.19400 25.99200
C  -1.45500 12.10800 29.14300
O  -1.57500 10.91000 29.41000
C  -1.53600 13.22800 30.23300
C  -0.55800 12.84300 31.35900
O  0.59700 13.09600 31.33900
O  -1.24200 12.26400 32.38200
C  -0.48400 11.73200 33.50600
H  -2.02000 20.23400 29.60200
H  -0.49000 19.66200 23.38700
H  -0.55900 13.22700 24.02700
H  -2.78500 15.98400 31.65300
H  -1.18300 18.64000 31.57800
H  -3.72900 19.27100 30.68800
H  -3.03400 19.51100 32.26800
H  -3.97100 18.08400 32.03800
H  0.21900 16.02000 31.85300
H  -0.96900 15.12800 32.83700
H  -1.25800 17.56300 33.81000
H  0.46400 17.51300 33.47600
H  -2.89700 22.83200 27.40100
H  -1.19000 22.85600 27.76000
H  -2.27500 22.07400 28.93500
H  -2.52300 23.62900 25.35600
H  -1.33500 24.27000 24.31400
H  -0.82000 23.97200 25.99600
H  0.74300 17.56700 22.11800
H  -0.67500 15.10200 21.85100
H  -0.88000 18.43200 20.73600
H  -2.19400 18.15000 21.82400
H  -1.72900 16.93800 20.69300
H  1.68900 15.45500 21.39200
H  1.32600 14.02200 22.31100
H  3.05900 14.79200 23.78300
H  1.94800 15.84600 24.39600
H  2.97300 16.41100 23.09800
H  -0.67500 10.52400 26.82300
H  -0.07800 11.29700 25.27700
H  -1.77900 10.89300 25.43200
H  -2.59000 13.23800 30.51200
H  -0.54600 10.64400 33.50300
H  -1.08900 11.94000 34.39000
H  0.52100 12.10500 33.70200
Mg 35.98000 2.51100 29.39800
C  33.59500 3.04200 31.82800
C  38.35800 2.67300 31.69700
C  38.19000 1.81200 26.92200
C  33.38800 2.63900 27.00600
N  35.86900 2.91100 31.57400
C  34.84400 3.02100 32.36800
C  35.18000 3.10200 33.87200
C  36.75800 3.31400 33.72200
C  37.07000 2.88500 32.23800
C  37.16200 4.77000 34.07000
C  34.73600 1.75200 34.51100
C  34.52600 1.76600 36.05100
H  35.06000 3.00600 36.77400
N  37.96700 2.22700 29.34800
C  38.80200 2.32500 30.41400
C  40.17200 2.06900 30.00500
C  40.12700 1.82600 28.53800
C  38.68900 1.98400 28.22100
C  41.30600 2.01300 30.96000
C  41.34300 1.45000 27.60700
O  41.19000 1.01700 26.45400
C  42.72500 1.51600 28.11800
N  35.83500 2.24200 27.28700
C  36.83700 1.85700 26.51000
C  36.37000 1.69000 25.04900
C  34.84500 1.56800 25.19300
C  34.61800 2.25300 26.53300
C  36.82800 2.82100 24.11400
C  34.13800 0.15200 25.04300
C  32.91000 -0.02700 24.10700
N  33.95700 2.95000 29.32500
C  33.03100 2.98700 28.27900
C  31.71400 3.26900 28.80000
C  31.85600 3.23200 30.19900
C  33.27200 3.05000 30.44500
C  30.54600 3.34800 28.00400
C  31.19800 3.46500 31.45600
O  30.02700 3.72400 31.79700
C  32.26200 3.16700 32.50700
C  32.16000 4.40900 33.39900
O  32.70100 5.44100 33.20300
O  31.48000 4.09900 34.58000
C  31.32900 5.13200 35.61200
H  39.12400 2.73900 32.47200
H  38.99300 1.45000 26.27600
H  32.51500 2.58400 26.35200
H  34.78100 3.99400 34.35500
H  37.17500 2.56300 34.39300
H  36.42500 5.11100 34.79700
H  37.09700 5.41100 33.19000
H  38.09100 4.77100 34.64100
H  35.37600 0.91600 34.23000
H  33.69900 1.55400 34.24000
H  34.97600 0.88700 36.51400
H  33.43700 1.76100 36.07900
H  40.85000 1.72900 31.90900
H  41.61200 3.05500 31.04500
H  42.08300 1.27100 30.77400
H  42.64100 2.43100 28.70500
H  43.32600 1.85800 27.27600
H  43.03300 0.54700 28.51100
H  36.69900 0.67900 24.81200
H  34.28900 2.17000 24.47400
H  36.28300 3.75000 24.28100
H  36.73000 2.57500 23.05700
H  37.89400 2.98600 24.27000
H  33.75400 -0.14100 26.02000
H  34.91200 -0.57900 24.80600
H  32.89900 0.88700 23.51400
H  32.03700 -0.21300 24.73200
H  33.14500 -0.81400 23.39100
H  30.66000 2.94600 26.99700
H  30.25100 4.38500 27.83900
H  29.70700 2.90800 28.54200
H  31.97600 2.27700 33.06700
H  31.32900 4.58600 36.55500
H  30.37100 5.63600 35.48200
H  32.17700 5.81100 35.69900

