158

Mg -2.08400 34.24400 26.53600
C  -3.77300 32.95100 29.29600
C  -0.60100 36.54000 28.65000
C  -0.53300 35.77300 23.84200
C  -3.84900 32.23500 24.44000
N  -2.27400 34.76700 28.68200
C  -2.89800 33.99500 29.64700
C  -2.44400 34.31100 31.05100
C  -1.60700 35.62300 30.79100
C  -1.51200 35.62700 29.25200
C  -2.09600 36.92500 31.38300
C  -1.64800 33.14600 31.76000
C  -1.01300 33.55000 33.09400
H  -1.46600 32.85700 34.34200
N  -0.79000 36.01400 26.25100
C  -0.21900 36.73600 27.25100
C  0.73000 37.70200 26.65300
C  0.74000 37.49500 25.20800
C  -0.20200 36.37200 25.00300
C  1.60000 38.64000 27.46800
C  1.43100 38.16400 24.09700
O  1.16600 37.90200 22.91000
C  2.49700 39.07200 24.40400
N  -2.28200 34.16900 24.41800
C  -1.52400 34.78900 23.53800
C  -1.52500 34.17400 22.16100
C  -2.48200 32.95900 22.33400
C  -2.92900 33.10700 23.85600
C  -2.17700 35.13200 20.97300
C  -1.77600 31.56100 22.10100
C  -2.83200 30.51800 21.69100
N  -3.59800 32.91200 26.72900
C  -4.13600 32.10700 25.79400
C  -4.93600 31.11500 26.42300
C  -4.89600 31.44300 27.83600
C  -4.07300 32.53100 27.93500
C  -5.67700 30.03900 25.73100
C  -5.39200 31.08600 29.15700
O  -6.17200 30.17400 29.52200
C  -4.59800 32.03800 30.16600
C  -5.57500 32.65700 31.00200
O  -6.70900 33.00500 30.60400
O  -5.22000 32.59200 32.31900
C  -6.36800 32.71100 33.28700
H  -0.04500 37.10400 29.40300
H  -0.06000 35.93700 22.87200
H  -4.48700 31.72000 23.71800
H  -3.40100 34.48800 31.54200
H  -0.63100 35.52900 31.26700
H  -2.57800 37.66700 30.74700
H  -1.30000 37.46900 31.89200
H  -2.85600 36.58400 32.08700
H  -0.94700 32.70900 31.04900
H  -2.40400 32.37500 31.90900
H  -1.03500 34.63200 33.22300
H  0.05700 33.34900 33.04100
H  2.62800 38.63800 27.10400
H  1.62400 38.30300 28.50500
H  1.14300 39.62900 27.46300
H  2.15000 39.94700 24.95300
H  2.86300 39.46700 23.45700
H  3.34800 38.60500 24.90000
H  -0.52500 33.90800 21.81800
H  -3.35200 33.04300 21.68200
H  -3.26400 35.09700 20.90000
H  -1.78400 34.89000 19.98600
H  -1.91500 36.18600 21.06200
H  -1.52700 31.28800 23.12600
H  -0.80600 31.52300 21.60500
H  -2.39400 29.92500 20.88800
H  -3.83800 30.92500 21.58900
H  -3.02000 29.75500 22.44700
H  -5.43600 29.09900 26.22700
H  -5.52000 29.87600 24.66400
H  -6.75700 30.12900 25.84400
H  -3.98900 31.37800 30.78400
H  -6.80000 31.73300 33.49800
H  -7.07400 33.43400 32.87800
H  -6.05800 33.26800 34.17100
Mg -6.22700 25.24100 26.09100
C  -4.70300 26.79300 28.80300
C  -8.16400 23.29500 28.36300
C  -7.34800 23.50000 23.53400
C  -3.92600 26.86800 23.94800
N  -6.37800 25.06200 28.33900
C  -5.66100 25.83800 29.22700
C  -6.05300 25.50400 30.68100
C  -7.05800 24.33300 30.43100
C  -7.27700 24.26100 28.92100
C  -6.71700 22.94000 31.11200
C  -6.64300 26.74200 31.38400
C  -7.52400 26.45900 32.68800
H  -7.00400 25.67900 33.82400
N  -7.69300 23.73100 25.94600
C  -8.36600 23.12700 26.97800
C  -9.25100 22.18200 26.38700
C  -9.11000 22.17400 24.96200
C  -8.04400 23.16700 24.76500
C  -10.05900 21.36200 27.29400
C  -9.71100 21.29200 23.78300
O  -9.34400 21.23900 22.61300
C  -10.71400 20.27700 24.15300
N  -5.63100 25.18700 24.06600
C  -6.26000 24.37700 23.23400
C  -5.75500 24.46700 21.73300
C  -4.60700 25.51800 21.90000
C  -4.78200 25.98300 23.38200
C  -5.27400 23.10700 21.03700
C  -4.53700 26.67300 20.84000
C  -3.27500 26.68000 20.04300
N  -4.68000 26.53600 26.28800
C  -3.90100 27.21100 25.35300
C  -3.01000 28.15700 25.99200
C  -3.27900 28.01600 27.39500
C  -4.31000 27.07700 27.47900
C  -1.94800 28.91600 25.20400
C  -2.92800 28.41000 28.73000
O  -1.96800 29.09700 29.09800
C  -3.83700 27.71600 29.72300
C  -3.02100 26.80200 30.59500
O  -2.27500 25.89200 30.16600
O  -3.24300 27.16700 31.90600
C  -2.29200 26.54400 32.88600
H  -8.66400 22.67600 29.11000
H  -7.78700 23.04900 22.64200
H  -3.30200 27.38400 23.21600
H  -5.13500 25.19500 31.18100
H  -8.03600 24.65200 30.79200
H  -6.62100 22.09400 30.43200
H  -7.39500 22.79700 31.95400
H  -5.74500 23.09400 31.58000
H  -7.20600 27.30400 30.63800
H  -5.82500 27.30500 31.83300
H  -8.57800 26.23200 32.52600
H  -7.56500 27.46000 33.11600
H  -10.96500 20.98000 26.82400
H  -10.43200 21.81700 28.21200
H  -9.38500 20.55100 27.57100
H  -11.13800 19.78800 23.27600
H  -11.49700 20.72900 24.76100
H  -10.25500 19.45200 24.69700
H  -6.51700 24.95500 21.12500
H  -3.63500 25.02300 21.91400
H  -5.60400 22.33100 21.72700
H  -4.20100 22.93600 20.96300
H  -5.65300 23.10100 20.01500
H  -4.55800 27.65800 21.30600
H  -5.33900 26.61400 20.10400
H  -2.60800 25.82800 20.17900
H  -2.69400 27.60000 20.11500
H  -3.58900 26.62800 19.00100
H  -1.11600 29.05700 25.89300
H  -2.15400 29.92800 24.85700
H  -1.68900 28.38100 24.29000
H  -4.30500 28.40200 30.43000
H  -1.91600 25.56600 32.58700
H  -2.95200 26.34100 33.72900
H  -1.53500 27.20500 33.30900

