158

Mg 42.77500 41.65000 26.15300
C  41.69500 43.91700 28.60800
C  43.93400 39.64200 28.69800
C  43.65500 39.43800 23.87000
C  41.81600 43.91800 23.73000
N  42.65000 41.77300 28.38000
C  42.24000 42.75300 29.19500
C  42.09600 42.26200 30.64100
C  42.83200 40.89600 30.63300
C  43.22500 40.80100 29.13400
C  44.01400 40.83600 31.58900
C  40.62800 42.12100 31.20400
C  40.45000 41.66200 32.67800
H  39.70200 42.63800 33.60400
N  43.70600 39.81700 26.28500
C  44.08700 39.13300 27.42900
C  44.74200 37.88300 27.00900
C  44.53900 37.78300 25.61500
C  43.95900 39.04900 25.20800
C  45.13700 36.86500 28.04900
C  44.85300 36.60100 24.75500
O  44.78400 36.57400 23.51700
C  45.07200 35.32300 25.45700
N  42.61500 41.62000 24.08800
C  43.07300 40.59900 23.32900
C  42.92100 40.85400 21.78700
C  42.03900 42.15800 21.87100
C  42.16700 42.63800 23.27300
C  44.20500 41.08100 21.16300
C  40.56600 41.94600 21.44500
C  40.22700 42.24900 19.97500
N  42.10100 43.63300 26.08200
C  41.81000 44.44700 25.02600
C  41.31900 45.74400 25.48400
C  41.29500 45.58500 26.92300
C  41.83800 44.28300 27.19000
C  40.82500 46.77600 24.64700
C  40.80300 46.13700 28.17400
O  40.33900 47.24500 28.49900
C  41.05200 45.01400 29.29200
C  41.98700 45.59800 30.34400
O  43.08300 46.03000 30.23200
O  41.27200 45.54400 31.53200
C  42.00000 45.96300 32.75100
H  44.34000 39.01800 29.49700
H  43.78000 38.68300 23.09100
H  41.48000 44.50800 22.87400
H  42.60700 42.96300 31.30200
H  42.14800 40.07900 30.86400
H  43.96100 39.91900 32.17500
H  43.96000 41.67600 32.28200
H  44.95500 40.82600 31.03900
H  40.05000 41.46600 30.55200
H  40.08800 43.02900 30.93300
H  41.43200 41.55500 33.13800
H  39.97800 40.68900 32.53500
H  45.13400 37.17300 29.09400
H  46.15400 36.60000 27.76000
H  44.51300 35.97800 27.93600
H  45.97900 35.41000 26.05600
H  45.05300 34.56500 24.67400
H  44.19900 35.10200 26.07000
H  42.30000 40.06400 21.36500
H  42.42200 42.82600 21.10000
H  44.97500 40.66600 21.81400
H  44.54000 42.09600 20.94900
H  44.19400 40.51200 20.23400
H  39.97500 42.60200 22.08600
H  40.20500 40.91900 21.48800
H  39.85900 41.31300 19.55600
H  41.10000 42.66200 19.46800
H  39.45600 43.01800 19.91700
H  40.25400 46.43400 23.78300
H  41.54900 47.50300 24.28100
H  40.08900 47.33500 25.22500
H  40.01600 44.88900 29.60500
H  41.58400 45.53900 33.66500
H  41.82800 47.02300 32.94200
H  43.08300 45.86500 32.66800
Mg 36.37900 49.39000 24.92200
C  36.31200 47.50700 27.86900
C  35.01500 51.98100 26.51800
C  36.14000 50.92200 21.88400
C  37.56600 46.48600 23.24200
N  35.64400 49.64500 26.92100
C  35.89700 48.84200 28.03000
C  35.64100 49.59900 29.31600
C  35.01900 50.96900 28.78700
C  35.22600 50.89700 27.32100
C  33.52400 51.17000 29.20600
C  36.88400 49.77200 30.13200
C  36.76600 49.66600 31.60800
H  35.39400 49.79100 32.40500
N  35.69400 51.27700 24.31300
C  35.18500 52.19700 25.13700
C  34.93900 53.38300 24.41500
C  35.37600 53.12000 23.05700
C  35.77700 51.73500 23.04000
C  34.13900 54.57600 24.87500
C  35.50300 54.02500 21.85300
O  36.01000 53.72400 20.75800
C  35.16800 55.48200 22.09400
N  36.62700 48.76200 22.90000
C  36.44600 49.57200 21.85300
C  36.64800 48.85400 20.51600
C  37.40400 47.57500 20.95900
C  37.17400 47.56100 22.42600
C  35.26800 48.54500 19.83200
C  38.92400 47.67900 20.62000
C  39.60600 46.51400 19.83600
N  36.90400 47.39900 25.47300
C  37.35600 46.34300 24.66000
C  37.69300 45.26400 25.50400
C  37.35500 45.67500 26.77800
C  36.77800 46.91500 26.69700
C  38.47000 44.03200 25.02000
C  37.30100 45.25600 28.14100
O  37.56200 44.17500 28.64800
C  36.68500 46.50300 28.93900
C  35.50400 46.06100 29.66600
O  34.53300 45.56600 29.18500
O  35.72100 46.17500 31.08600
C  34.83300 45.43400 32.00900
H  34.67800 52.86100 27.07000
H  36.02000 51.40000 20.91000
H  38.02800 45.58500 22.83200
H  34.94100 49.03000 29.92700
H  35.53400 51.82600 29.22000
H  33.13100 50.29100 29.71600
H  32.85500 51.37700 28.37100
H  33.42600 52.06100 29.82600
H  37.33100 50.71900 29.83000
H  37.61000 49.02600 29.80700
H  37.51300 50.28900 32.09900
H  37.05400 48.62300 31.74500
H  33.48900 54.94200 24.08100
H  34.87400 55.36400 25.04100
H  33.57000 54.48300 25.80000
H  35.59300 56.02500 22.93800
H  34.10500 55.69300 21.97900
H  35.50300 55.88500 21.13800
H  37.19500 49.52500 19.85300
H  37.04100 46.61200 20.59900
H  35.02000 49.25700 19.04500
H  34.49600 48.57700 20.60100
H  35.22400 47.57100 19.34500
H  39.46200 47.77800 21.56300
H  39.14900 48.58200 20.05200
H  38.88600 45.70900 19.68500
H  40.31100 46.04500 20.52200
H  40.14700 46.81900 18.94000
H  39.06000 44.20500 24.12000
H  37.66200 43.36200 24.72500
H  39.09700 43.57000 25.78300
H  37.41000 46.83000 29.68400
H  34.56300 44.47200 31.57500
H  33.93200 46.01600 32.20200
H  35.38200 45.34800 32.94700

