158

Mg 0.56500 8.67200 27.23400
C  1.33800 10.63700 29.93000
C  0.14400 5.97500 29.43400
C  0.04000 6.63200 24.59000
C  1.37800 11.33700 25.07100
N  0.92600 8.34500 29.43900
C  0.95900 9.38500 30.37600
C  0.85000 8.81700 31.82200
C  0.69800 7.26500 31.56400
C  0.54100 7.11100 30.02000
C  1.79300 6.34600 32.09700
C  -0.25100 9.44600 32.70200
C  0.09200 9.90500 34.12000
H  1.17800 9.20400 34.87800
N  0.04700 6.61300 27.06000
C  -0.12600 5.65500 28.03300
C  -0.57400 4.41600 27.51700
C  -0.73700 4.60400 26.10900
C  -0.26500 6.00500 25.80500
C  -0.52600 3.27300 28.50300
C  -1.23100 3.62500 25.12800
O  -1.58000 3.90900 23.98300
C  -1.30400 2.23500 25.55700
N  0.81100 8.89000 25.14700
C  0.51300 7.90300 24.29100
C  0.74800 8.43000 22.85900
C  0.74000 10.00200 23.03300
C  1.00800 10.05100 24.50100
C  2.08500 7.99600 22.15200
C  -0.68500 10.63400 22.79100
C  -1.24900 10.99200 21.37200
N  1.27300 10.66000 27.34400
C  1.48700 11.63800 26.43900
C  1.85200 12.83900 27.10300
C  1.79900 12.50700 28.45600
C  1.49800 11.11800 28.57500
C  2.23500 14.13800 26.41900
C  1.90900 13.08600 29.77600
O  2.07700 14.22100 30.12900
C  1.43400 11.90900 30.75400
C  2.59300 11.73800 31.75200
O  3.61300 11.11200 31.56500
O  2.26200 12.48900 32.85200
C  3.14900 12.55900 33.94400
H  0.16700 5.24200 30.24400
H  -0.14400 5.95800 23.75100
H  1.47200 12.09200 24.28700
H  1.78000 8.94700 32.37500
H  -0.26700 6.96400 31.97200
H  2.67300 6.86900 32.47100
H  2.04200 5.48800 31.47100
H  1.22800 5.92100 32.92700
H  -1.01800 8.71200 32.94900
H  -0.81200 10.29300 32.30800
H  -0.86100 9.75300 34.62700
H  0.25800 10.98200 34.09900
H  -0.54300 2.25800 28.10700
H  -1.42600 3.43900 29.09500
H  0.22600 3.27300 29.29100
H  -1.62200 1.56400 24.75800
H  -1.94000 2.03400 26.41900
H  -0.25200 2.06800 25.78900
H  -0.11400 8.13300 22.26100
H  1.50300 10.43400 22.38600
H  2.70000 8.74100 21.64800
H  1.75800 7.18100 21.50700
H  2.76700 7.58100 22.89400
H  -0.71100 11.58900 23.31400
H  -1.41100 10.01300 23.31500
H  -0.56300 10.59300 20.62500
H  -1.27700 12.08100 21.36900
H  -2.24100 10.55300 21.26700
H  1.32300 14.51900 25.96000
H  2.90200 13.84300 25.60800
H  2.80700 14.73100 27.13200
H  0.50600 12.25200 31.21200
H  3.06000 13.57400 34.33400
H  4.17700 12.26600 33.73000
H  2.67100 11.90300 34.67200
Mg 49.31700 45.14900 43.22800
C  46.39600 46.35900 41.84200
C  49.04800 42.18600 41.28900
C  52.62800 44.29500 43.76700
C  50.00400 48.43900 44.27800
N  47.97100 44.36200 41.77200
C  46.78000 45.09000 41.35300
C  46.12300 44.22700 40.26600
C  46.94200 42.92700 40.18500
C  48.05800 43.18700 41.17400
C  46.12500 41.55100 40.49600
C  45.97700 45.02400 38.90300
C  44.53800 45.21700 38.41000
H  44.42600 44.55500 37.00500
N  50.62000 43.39100 42.81800
C  50.31000 42.33300 41.95200
C  51.39400 41.43100 41.97500
C  52.42000 41.99500 42.77600
C  51.88100 43.25800 43.26600
C  51.35900 40.14100 41.24200
C  53.84300 41.34000 43.06500
O  54.10900 40.22700 42.62700
C  54.78100 41.98600 43.91200
N  51.04100 46.21900 44.02800
C  52.30500 45.61100 44.08800
C  53.36400 46.70200 44.40300
C  52.41000 47.93900 44.74600
C  51.05300 47.48500 44.29000
C  54.34300 46.24000 45.48800
C  52.91200 49.36000 44.20400
C  52.92800 50.49700 45.16400
N  48.31000 46.95000 43.33300
C  48.64600 48.20500 43.88000
C  47.51000 49.07500 43.80300
C  46.63500 48.39000 43.02300
C  47.12800 47.11500 42.74100
C  47.40200 50.50500 44.35500
C  45.32100 48.45600 42.36800
O  44.42600 49.24800 42.44000
C  45.21300 47.15900 41.49200
C  44.00500 46.38500 41.89800
O  42.95700 46.40700 41.32700
O  44.18600 45.58300 43.02800
C  42.95600 44.85700 43.56700
H  48.98300 41.42100 40.51200
H  53.71300 44.22300 43.86700
H  50.26900 49.46400 44.54500
H  45.17300 44.01700 40.75700
H  47.40000 42.88800 39.19700
H  45.05000 41.71100 40.57500
H  46.41500 41.03700 41.41200
H  46.26000 40.98600 39.57400
H  46.56400 44.60700 38.08500
H  46.37800 46.03000 39.02500
H  44.20400 46.25400 38.38200
H  43.92200 44.68000 39.13100
H  50.34900 39.76500 41.07800
H  51.74100 39.31900 41.84800
H  51.85100 40.27800 40.28000
H  54.33800 42.50300 44.76300
H  55.41600 42.70800 43.39900
H  55.42200 41.16400 44.23100
H  53.98600 46.86000 43.52200
H  52.24900 47.93400 45.82400
H  54.06300 45.25600 45.86400
H  54.33100 46.87400 46.37500
H  55.35500 46.35000 45.10000
H  52.20500 49.68600 43.44100
H  53.89400 49.28600 43.73600
H  52.49400 51.37900 44.69400
H  53.94000 50.69300 45.51900
H  52.36200 50.38900 46.08900
H  47.78500 51.15500 43.56800
H  48.08000 50.60600 45.20200
H  46.39800 50.81100 44.65200
H  45.13200 47.46700 40.44900
H  42.22900 45.58700 43.92200
H  43.24100 44.19300 44.38300
H  42.52200 44.29400 42.74100

