158

Mg 16.58000 53.28400 26.29600
C  18.29500 51.57300 28.80100
C  14.55600 54.50300 28.61700
C  14.75600 54.75200 23.87500
C  18.70900 51.91200 24.10900
N  16.39300 52.90400 28.46000
C  17.22900 52.28000 29.34600
C  16.88800 52.54600 30.79000
C  15.51100 53.20100 30.65200
C  15.49200 53.63000 29.14000
C  14.23300 52.40400 30.96700
C  17.90300 53.48100 31.43900
C  18.03000 53.41100 32.95400
H  16.95100 52.69500 33.74900
N  15.01000 54.60200 26.24300
C  14.26700 54.98200 27.32600
C  13.31700 56.01100 26.92500
C  13.32200 55.96900 25.47400
C  14.41700 55.07700 25.12200
C  12.57400 56.84100 27.90500
C  12.49400 56.70000 24.48400
O  12.49600 56.48700 23.30300
C  11.46500 57.69900 24.95100
N  16.55200 53.13600 24.30600
C  15.79800 53.99200 23.49800
C  16.34800 53.94500 22.06600
C  17.72700 53.11800 22.11300
C  17.72100 52.72700 23.62100
C  15.37800 53.44600 20.98800
C  19.06600 53.80500 21.61400
C  19.55900 55.08500 22.40400
N  18.11800 51.69700 26.32500
C  18.99400 51.34000 25.30400
C  20.14000 50.55100 25.80800
C  19.81000 50.49300 27.19200
C  18.59800 51.25000 27.44000
C  21.30500 50.08700 25.04700
C  20.32800 50.09800 28.50200
O  21.31900 49.48900 28.85100
C  19.32900 50.74300 29.55000
C  18.75800 49.74900 30.55800
O  18.12600 48.70800 30.29400
O  19.15400 50.08400 31.83600
C  18.96500 49.10800 32.94600
H  13.71400 54.71500 29.27900
H  14.33900 55.19700 22.96900
H  19.39500 51.70500 23.28500
H  16.81900 51.60200 31.33000
H  15.49900 54.12600 31.22900
H  13.63500 52.85500 31.75900
H  14.52700 51.43500 31.37200
H  13.55900 52.16600 30.14500
H  17.75700 54.54000 31.22700
H  18.83300 53.18900 30.95100
H  18.04200 54.38100 33.45200
H  18.97800 52.92100 33.17200
H  11.65300 57.29000 27.53200
H  13.08100 57.74500 28.24300
H  12.29600 56.25000 28.77700
H  10.92400 58.13200 24.10900
H  12.02800 58.50200 25.42700
H  10.81200 57.08700 25.57300
H  16.60300 54.98000 21.83900
H  17.61800 52.16400 21.59800
H  15.15500 54.38400 20.48100
H  14.44100 53.14800 21.45900
H  15.90100 52.78300 20.29800
H  18.86400 54.06000 20.57400
H  19.79100 52.99300 21.68000
H  18.86600 55.91500 22.26500
H  20.51200 55.36400 21.95500
H  19.70400 54.94100 23.47500
H  21.49000 49.03900 25.28300
H  22.17800 50.69500 25.28000
H  21.27400 50.03500 23.95800
H  19.94300 51.38200 30.18600
H  18.35600 48.26300 32.62600
H  18.38200 49.62600 33.70800
H  19.95000 48.83500 33.32500
Mg -5.23200 25.35500 26.00200
C  -4.21500 27.06400 28.86100
C  -7.06000 23.22500 28.00900
C  -5.83700 23.57500 23.22400
C  -3.26600 27.64700 24.01100
N  -5.49800 25.14400 28.18000
C  -5.00200 25.97800 29.16600
C  -5.52000 25.55800 30.53900
C  -6.38100 24.24800 30.29100
C  -6.32900 24.16900 28.71700
C  -5.79100 23.00100 31.00900
C  -6.44600 26.65900 31.20200
C  -6.28000 26.88600 32.64400
H  -5.83200 25.75500 33.47600
N  -6.22500 23.67100 25.68400
C  -7.01900 22.94300 26.58000
C  -7.56100 21.72900 25.92700
C  -7.35000 21.91700 24.52900
C  -6.38500 23.07600 24.46700
C  -8.45800 20.89300 26.65100
C  -7.77100 20.98400 23.41800
O  -7.40900 21.22900 22.28100
C  -8.66900 19.78500 23.63000
N  -4.37700 25.46500 23.89200
C  -5.01400 24.65100 22.96900
C  -4.61800 25.03900 21.56900
C  -3.78300 26.39500 21.82900
C  -3.88600 26.59200 23.33500
C  -3.85900 23.89800 20.91000
C  -4.16000 27.63600 20.95300
C  -3.01100 28.30700 20.21800
N  -3.92400 26.98100 26.30000
C  -3.28200 27.85000 25.39900
C  -2.62200 28.90100 26.17200
C  -2.95300 28.59500 27.49400
C  -3.70000 27.37800 27.55500
C  -1.89600 30.07800 25.55700
C  -2.81700 29.13700 28.83000
O  -2.35200 30.17900 29.26200
C  -3.58000 28.13300 29.77600
C  -2.49600 27.38200 30.59400
O  -1.36500 26.96500 30.17600
O  -2.92800 27.23400 31.87600
C  -2.00900 26.70700 32.90900
H  -7.77300 22.72000 28.66400
H  -6.13800 23.15100 22.26500
H  -2.75200 28.40200 23.41300
H  -4.61100 25.43200 31.12700
H  -7.43700 24.38800 30.52200
H  -4.82900 23.24100 31.46100
H  -5.60400 22.21600 30.27600
H  -6.47900 22.53000 31.71200
H  -7.46600 26.27500 31.18700
H  -6.33700 27.56900 30.61100
H  -7.14100 27.32300 33.14900
H  -5.61400 27.74700 32.70300
H  -8.91500 20.10700 26.05000
H  -9.31400 21.49500 26.95600
H  -7.93700 20.55300 27.54600
H  -9.69500 19.97600 23.94500
H  -8.18000 19.12900 24.35100
H  -8.78100 19.08600 22.80100
H  -5.44200 25.31700 20.91200
H  -2.72200 26.16600 21.73000
H  -3.33200 23.28800 21.64300
H  -3.18700 24.24900 20.12700
H  -4.65600 23.23700 20.57000
H  -4.78300 28.28300 21.57100
H  -4.85200 27.16900 20.25300
H  -3.13700 29.38200 20.34800
H  -3.15700 28.09300 19.15900
H  -2.05200 27.88400 20.51700
H  -2.25300 30.44600 24.59500
H  -0.86800 29.72100 25.50000
H  -2.01800 30.80600 26.35900
H  -4.18300 28.60400 30.55300
H  -0.95700 26.85600 32.66800
H  -2.10700 25.62500 33.00200
H  -2.24900 27.10200 33.89600

