158

Mg 9.60500 47.61800 26.45100
C  7.63500 47.81200 29.21900
C  12.26500 49.11000 27.95600
C  11.26000 47.51300 23.52300
C  6.69500 46.48800 24.57400
N  9.91900 48.40200 28.40600
C  9.00900 48.30500 29.37900
C  9.59200 48.81900 30.71600
C  10.87700 49.64400 30.14200
C  11.05700 49.09600 28.73400
C  10.91400 51.16900 30.31900
C  9.87400 47.72100 31.75000
C  9.35900 47.90600 33.20300
H  9.25200 46.68300 34.05800
N  11.55400 48.15400 25.90800
C  12.54700 48.63700 26.71500
C  13.79400 48.59700 26.07200
C  13.49400 48.18000 24.73600
C  12.06500 47.91000 24.65600
C  15.07600 48.86500 26.74800
C  14.48300 47.91900 23.62300
O  14.16600 47.54200 22.51900
C  15.93100 48.12000 23.81100
N  8.93000 47.07900 24.37900
C  9.88000 47.08600 23.37300
C  9.35800 46.43200 22.09100
C  7.94400 45.89400 22.49700
C  7.84500 46.54300 23.88000
C  9.49200 47.30500 20.81700
C  7.86400 44.33800 22.58500
C  8.85400 43.65400 23.50600
N  7.60000 47.30800 26.83600
C  6.50200 46.82600 25.96100
C  5.31300 46.85400 26.67300
C  5.65700 47.21200 27.99100
C  7.07500 47.39100 28.01900
C  3.93900 46.72000 26.15000
C  5.19600 47.43600 29.35600
O  4.08000 47.42700 29.73100
C  6.44700 47.80700 30.28600
C  6.52600 46.51000 31.17000
O  7.19800 45.54900 30.84700
O  5.68100 46.59600 32.19900
C  5.64100 45.32800 32.98400
H  13.16700 49.51300 28.42200
H  11.89600 47.34100 22.65200
H  5.76400 46.19000 24.08600
H  8.86600 49.50600 31.15200
H  11.61900 49.27400 30.85000
H  9.90500 51.58100 30.34300
H  11.52600 51.65300 29.55800
H  11.31800 51.35100 31.31500
H  10.94700 47.52800 31.73600
H  9.42200 46.77400 31.45700
H  8.38800 48.35800 33.00400
H  9.95400 48.63000 33.76000
H  15.64900 47.96700 26.98100
H  14.89700 49.45900 27.64400
H  15.71500 49.45600 26.09200
H  16.49900 47.47600 24.48200
H  16.19900 49.14600 24.06100
H  16.37900 47.94800 22.83200
H  10.02900 45.60300 21.86600
H  7.13500 46.28500 21.87900
H  9.54600 48.35700 21.09700
H  8.65900 47.34000 20.11500
H  10.34300 47.05500 20.18400
H  8.07700 43.94800 21.58900
H  6.83000 44.09300 22.82800
H  8.22300 43.14300 24.23300
H  9.56000 44.27500 24.05600
H  9.33600 42.84300 22.96000
H  3.95900 46.20100 25.19100
H  3.56700 47.73700 26.02100
H  3.29900 46.12400 26.80000
H  6.33200 48.74100 30.83700
H  5.71600 45.69500 34.00800
H  6.47100 44.63700 32.83500
H  4.69400 44.79000 32.94500
Mg -2.85000 34.77100 27.25400
C  -4.72000 33.08700 29.43600
C  -1.67300 36.82100 29.66100
C  -1.23100 36.62200 24.84300
C  -4.42700 32.97200 24.66800
N  -3.31700 34.99000 29.31600
C  -3.88100 34.05900 30.11600
C  -3.69500 34.36100 31.58800
C  -3.00400 35.77500 31.58700
C  -2.67400 35.97400 30.07300
C  -3.95700 36.95000 32.24300
C  -2.96000 33.23300 32.39800
C  -3.54600 32.72000 33.70600
H  -3.67400 33.73900 34.85700
N  -1.50200 36.41400 27.29400
C  -1.20800 37.12900 28.38500
C  -0.20400 38.10900 27.99300
C  0.02900 37.97500 26.59800
C  -0.96900 37.00700 26.16700
C  0.42600 38.96000 28.97900
C  0.92400 38.77800 25.67200
O  0.92600 38.54900 24.44800
C  1.86500 39.86500 26.23900
N  -3.04000 34.93700 25.02400
C  -2.12800 35.66200 24.32400
C  -1.92000 35.24000 22.87000
C  -2.97800 34.10000 22.72000
C  -3.50400 33.95300 24.20900
C  -1.97800 36.46900 21.79700
C  -2.45800 32.71300 22.25200
C  -3.17100 32.09600 21.00700
N  -4.37000 33.38900 27.02900
C  -4.80700 32.68800 25.95600
C  -5.69000 31.56700 26.36500
C  -5.64700 31.67700 27.73200
C  -4.89600 32.79300 28.05600
C  -6.38400 30.58700 25.57500
C  -6.07700 31.07800 28.91500
O  -6.70500 30.03600 29.07000
C  -5.56000 31.96800 30.08800
C  -6.75200 32.59400 30.74300
O  -7.40800 33.56100 30.33200
O  -6.96300 32.02700 31.95700
C  -7.97300 32.67600 32.86900
H  -1.27400 37.47300 30.44100
H  -0.67500 37.12700 24.05000
H  -4.81000 32.15900 24.04700
H  -4.65200 34.37900 32.11100
H  -2.11500 35.68100 32.21000
H  -3.74000 37.93200 31.82100
H  -3.66900 36.93000 33.29400
H  -5.03800 36.85700 32.14000
H  -1.99000 33.64100 32.67900
H  -2.72400 32.39200 31.74600
H  -2.97000 31.82100 33.92100
H  -4.56600 32.37100 33.54200
H  1.47700 38.83100 28.72000
H  0.27200 38.59800 29.99500
H  0.05000 39.98300 28.97800
H  1.32500 40.57500 26.86600
H  2.50900 40.19900 25.42500
H  2.62400 39.41400 26.87700
H  -0.93000 34.78300 22.88600
H  -3.79400 34.40500 22.06400
H  -2.68700 36.19000 21.01700
H  -0.97900 36.54800 21.36700
H  -2.38700 37.32300 22.33700
H  -2.65000 32.02200 23.07300
H  -1.38200 32.67700 22.08300
H  -2.35100 32.00100 20.29500
H  -3.94300 32.67200 20.49700
H  -3.48400 31.05200 21.01800
H  -6.24600 30.83300 24.52200
H  -7.38400 30.54900 26.00700
H  -5.85500 29.63800 25.48000
H  -4.97500 31.40100 30.81100
H  -8.50100 31.93800 33.47300
H  -8.73800 33.32000 32.43500
H  -7.53200 33.29900 33.64700

