158

Mg 47.46300 24.82400 28.34600
C  48.10700 27.19700 30.66900
C  46.52900 22.63400 30.84300
C  46.61600 22.56800 25.94100
C  48.57600 27.03000 25.88200
N  47.00900 25.03900 30.43400
C  47.43000 26.08300 31.23100
C  47.12200 25.83500 32.75200
C  46.78300 24.30800 32.73600
C  46.78000 23.94400 31.22900
C  47.55800 23.32800 33.64900
C  46.01800 26.80100 33.29800
C  46.38700 27.51500 34.57100
H  45.40100 27.71300 35.67300
N  46.77500 22.83300 28.31300
C  46.50100 22.14500 29.45200
C  46.09300 20.83400 29.12900
C  45.86200 20.86100 27.65000
C  46.41200 22.15000 27.24700
C  45.70100 19.81100 30.19900
C  45.28600 19.86500 26.72700
O  45.23700 19.93800 25.49700
C  44.70200 18.57100 27.26900
N  47.64600 24.79000 26.27200
C  47.04500 23.83100 25.49400
C  47.02300 24.20100 23.98300
C  47.69500 25.64500 23.91600
C  48.04900 25.81100 25.43800
C  47.77000 23.20300 23.03800
C  46.75800 26.72400 23.19500
C  47.48900 27.77300 22.24800
N  48.38900 26.63200 28.23700
C  48.77800 27.45500 27.22700
C  49.33100 28.75000 27.71700
C  49.17500 28.61700 29.13200
C  48.45200 27.40500 29.32300
C  49.90500 29.86900 26.94100
C  49.30900 29.32600 30.44000
O  49.65200 30.47900 30.66200
C  48.62400 28.36100 31.46400
C  49.63800 28.15200 32.51700
O  50.55700 27.35800 32.59300
O  49.28600 28.90000 33.66700
C  50.14500 28.66400 34.78300
H  46.48400 21.92700 31.67400
H  46.23600 21.84400 25.21700
H  48.83500 27.80300 25.15600
H  48.05700 26.02000 33.28100
H  45.77800 24.22000 33.15000
H  48.10100 23.95500 34.35600
H  48.18700 22.65600 33.06600
H  46.79500 22.74800 34.16700
H  45.18900 26.20100 33.67400
H  45.70000 27.54500 32.56800
H  46.52700 28.56800 34.32400
H  47.31400 27.19400 35.04600
H  45.92500 18.76900 29.96800
H  44.70400 19.95700 30.61400
H  46.18800 20.02800 31.15000
H  45.44900 18.29100 28.01200
H  44.67500 17.84600 26.45500
H  43.80200 18.78600 27.84500
H  46.01800 24.29000 23.57200
H  48.64600 25.62200 23.38300
H  48.14300 22.32200 23.56100
H  48.59300 23.70300 22.52900
H  47.07100 22.82700 22.29000
H  46.28500 27.32100 23.97500
H  46.01800 26.16300 22.62500
H  47.15900 27.67300 21.21400
H  48.52800 27.48700 22.41300
H  47.17500 28.77000 22.55600
H  50.05200 29.58000 25.90000
H  50.80600 30.16200 27.47900
H  49.17500 30.67000 27.05800
H  47.83800 28.96800 31.91200
H  50.13600 29.56600 35.39400
H  51.21100 28.55100 34.58600
H  49.82100 27.70700 35.19100
Mg 35.65500 48.56200 25.87400
C  36.03400 46.63300 28.80300
C  34.65000 51.10400 27.79400
C  34.95900 50.10700 23.07700
C  36.80900 45.82300 23.98600
N  35.10600 48.72200 28.09200
C  35.55100 47.88100 29.07500
C  35.39900 48.43500 30.49400
C  34.64400 49.79500 30.16700
C  34.82500 49.95400 28.59400
C  33.17900 49.91900 30.61800
C  36.66200 48.52700 31.34800
C  36.44300 48.07800 32.86800
H  36.53200 49.33500 33.78700
N  34.79500 50.34300 25.44900
C  34.58300 51.36000 26.39000
C  34.35800 52.67400 25.71300
C  34.21400 52.30200 24.33000
C  34.64000 50.88200 24.25200
C  34.04600 53.92700 26.46500
C  33.79500 53.11800 23.14200
O  33.87400 52.76600 21.95500
C  33.36100 54.52800 23.38600
N  35.85100 48.03200 23.81100
C  35.44400 48.85500 22.87300
C  35.67700 48.30000 21.45500
C  36.50800 47.03200 21.85500
C  36.42200 46.94300 23.25700
C  34.36300 48.07900 20.66800
C  37.86900 46.85200 21.10900
C  39.05200 47.58300 21.60500
N  36.15500 46.59000 26.25800
C  36.67400 45.54500 25.37300
C  36.90900 44.35500 26.20200
C  36.72100 44.72700 27.59400
C  36.22200 46.05200 27.56000
C  37.51600 43.04700 25.76000
C  36.90500 44.35800 28.91300
O  37.24800 43.30600 29.39700
C  36.39300 45.54500 29.77600
C  35.21000 44.95600 30.55200
O  34.16800 44.56300 30.01300
O  35.51100 44.99500 31.86600
C  34.60200 44.32700 32.82600
H  34.47000 51.92400 28.49300
H  34.93400 50.61900 22.11300
H  37.24700 44.99700 23.42300
H  34.68600 47.72800 30.91800
H  35.09700 50.72800 30.50300
H  32.55600 49.79200 29.73300
H  33.02200 50.90700 31.05000
H  33.04700 49.05400 31.26900
H  36.94700 49.57500 31.25600
H  37.49100 47.97500 30.90500
H  37.14200 47.31000 33.19800
H  35.42000 47.70400 32.82300
H  34.38800 54.85500 26.00800
H  34.42500 53.80100 27.47900
H  32.97000 54.01400 26.61700
H  32.98400 54.90300 22.43500
H  34.15200 55.08600 23.88700
H  32.46000 54.49500 23.99800
H  36.35400 49.04300 21.03400
H  35.78300 46.26500 21.58400
H  33.46300 48.48500 21.13100
H  34.09700 47.03100 20.53000
H  34.43400 48.49900 19.66500
H  37.76500 47.21500 20.08600
H  38.05100 45.77900 21.03700
H  39.49200 48.15100 20.78500
H  39.86900 46.89300 21.81700
H  38.83200 48.08100 22.54800
H  38.20600 43.07400 24.91600
H  36.79000 42.23500 25.73200
H  38.11000 42.77800 26.63400
H  37.17000 45.91400 30.44600
H  33.91700 43.70800 32.24700
H  33.99500 45.04000 33.38400
H  35.18700 43.69000 33.49000

