158

Mg -0.19800 7.96100 24.62200
C  0.44100 8.95900 28.01600
C  -0.38300 4.72900 25.70700
C  -0.58500 7.16900 21.48700
C  0.02900 11.35400 23.74700
N  0.05100 6.94900 26.67300
C  0.32400 7.53200 27.89400
C  0.62100 6.48100 28.96500
C  0.43500 5.08800 28.13000
C  0.01500 5.59600 26.79000
C  1.66100 3.99500 28.12500
C  -0.27900 6.41900 30.25600
C  0.56600 6.61800 31.52100
H  1.77900 5.77800 31.84700
N  -0.43300 6.19200 23.72800
C  -0.46600 4.92900 24.36400
C  -0.49400 3.89800 23.31100
C  -0.54000 4.62400 22.05100
C  -0.54200 6.03400 22.37600
C  -0.66600 2.42300 23.60300
C  -0.63000 4.07200 20.62500
O  -0.73700 4.82700 19.62200
C  -0.50500 2.56600 20.42500
N  -0.30400 9.10500 22.86400
C  -0.44500 8.50300 21.68200
C  -0.40400 9.54500 20.48100
C  -0.33600 10.83400 21.28500
C  -0.13100 10.40900 22.75300
C  0.79800 9.42800 19.49600
C  -1.63300 11.76800 21.15700
C  -2.89100 11.21700 21.86600
N  0.26500 9.81600 25.61000
C  0.18800 11.12500 25.13100
C  0.61500 12.05000 26.20600
C  0.66900 11.25800 27.29800
C  0.47300 9.88800 26.94300
C  0.86700 13.45900 26.02700
C  0.89600 11.32900 28.73600
O  1.10500 12.30600 29.51000
C  0.83700 9.81600 29.21900
C  2.18600 9.63300 29.73700
O  3.11300 9.15400 29.15100
O  2.19000 9.92300 31.09000
C  3.32400 9.44800 31.87600
H  -0.20200 3.68300 25.96300
H  -0.72900 6.87400 20.44600
H  0.01900 12.35700 23.31500
H  1.68000 6.54800 29.21400
H  -0.48100 4.61600 28.48600
H  1.53300 3.56700 27.13100
H  1.57900 3.23000 28.89700
H  2.60900 4.51000 28.28000
H  -0.75400 5.45200 30.41800
H  -1.04100 7.19500 30.19000
H  -0.14600 6.48500 32.33500
H  0.78400 7.68100 31.42000
H  -1.50900 2.07300 23.00700
H  -0.91700 2.25600 24.65100
H  0.28900 2.00100 23.29200
H  0.35200 2.16100 20.96300
H  -0.39100 2.49300 19.34300
H  -1.40600 2.07500 20.79300
H  -1.36100 9.34300 19.99900
H  0.55300 11.42300 21.05900
H  1.35800 10.34200 19.29700
H  0.38200 9.03700 18.56800
H  1.43000 8.66600 19.95200
H  -1.96900 11.87000 20.12500
H  -1.32100 12.71700 21.59400
H  -3.59800 10.97300 21.07300
H  -3.32700 12.11500 22.30400
H  -2.70800 10.30700 22.43800
H  1.65500 13.74900 26.72100
H  0.01000 14.09900 26.23800
H  1.19500 13.62500 25.00100
H  0.07600 9.78600 29.99800
H  3.47300 10.20100 32.65100
H  4.15300 9.35100 31.17500
H  3.16000 8.51500 32.41600
Mg 30.00700 57.91300 41.51900
C  27.05100 56.22500 40.81300
C  31.76300 55.47400 40.03700
C  32.59200 60.13700 41.37200
C  28.02900 60.57200 42.95100
N  29.45100 56.19900 40.37400
C  28.20200 55.59900 40.36700
C  28.27500 54.33200 39.38700
C  29.84600 53.90900 39.53500
C  30.38400 55.31800 39.85000
C  30.23500 52.80200 40.55300
C  27.77800 54.63900 37.98400
C  27.19300 53.47700 37.10300
H  26.61000 53.85100 35.76700
N  31.97500 57.79900 40.95700
C  32.55000 56.62600 40.41800
C  33.99700 56.79000 40.38600
C  34.24300 58.15900 40.76000
C  32.90200 58.77500 41.06900
C  34.95800 55.71500 39.86900
C  35.66900 58.73800 40.92500
O  36.69800 58.09600 40.88400
C  35.81800 60.27100 41.12000
N  30.23000 60.08400 41.91800
C  31.40500 60.75500 41.79800
C  31.31500 62.22600 42.30200
C  29.85900 62.27500 42.77200
C  29.32400 60.89400 42.53400
C  32.34500 62.55800 43.31300
C  29.10500 63.39600 41.98700
C  27.87000 64.02600 42.71600
N  27.99500 58.38000 41.93900
C  27.31400 59.38700 42.52700
C  25.86700 59.04700 42.68000
C  25.70600 57.84000 41.99200
C  26.97800 57.45900 41.52200
C  24.74300 59.93200 43.20200
C  24.81100 56.77800 41.53300
O  23.57800 56.76400 41.77300
C  25.54300 55.74400 40.74300
C  25.47600 54.41700 41.41600
O  26.09600 54.20000 42.41400
O  24.67100 53.51700 40.76200
C  24.62800 52.33400 41.51600
H  32.39000 54.64200 39.71100
H  33.39000 60.88300 41.39100
H  27.61800 61.42900 43.48800
H  27.67900 53.55800 39.87000
H  30.13300 53.61200 38.52600
H  31.30800 52.72600 40.72700
H  29.90600 51.85200 40.13300
H  29.71600 53.06500 41.47500
H  28.67600 54.92700 37.43800
H  27.03400 55.42900 37.88600
H  26.35100 53.10500 37.68700
H  27.96900 52.75700 36.84200
H  35.84300 56.09500 39.35800
H  34.49100 54.92600 39.28000
H  35.48400 55.27700 40.71800
H  35.30700 60.70000 41.98200
H  35.45400 60.64100 40.16200
H  36.87600 60.52400 41.04600
H  31.41900 62.85400 41.41800
H  29.71200 62.53600 43.82000
H  33.05200 61.74200 43.45600
H  31.98300 62.83700 44.30300
H  32.86900 63.45900 42.99400
H  28.67300 63.03300 41.05400
H  29.68500 64.28700 41.75000
H  27.89900 65.11400 42.66000
H  27.87000 63.66800 43.74600
H  26.94000 63.76400 42.21000
H  24.38600 60.57700 42.39900
H  25.16900 60.64400 43.90900
H  23.98300 59.30600 43.67100
H  25.22400 55.76700 39.70100
H  25.63200 51.90900 41.50800
H  23.97700 51.68700 40.92800
H  24.21400 52.46100 42.51600

