158

Mg -2.72800 17.44200 27.67800
C  -2.92100 15.38400 30.42100
C  -3.36400 20.08500 29.65000
C  -2.55400 19.33300 24.83200
C  -2.69100 14.56900 25.58500
N  -3.31200 17.62200 29.93600
C  -3.15600 16.70200 30.83300
C  -3.63900 17.28900 32.24300
C  -3.67800 18.81800 31.93600
C  -3.35900 18.87200 30.43400
C  -4.95400 19.53600 32.26600
C  -2.56900 17.06600 33.35500
C  -2.44100 18.04900 34.63100
H  -2.03700 17.33300 35.91600
N  -2.98700 19.43300 27.35500
C  -3.24300 20.34800 28.32600
C  -3.07900 21.64400 27.66100
C  -2.83900 21.50500 26.25200
C  -2.73700 20.02200 26.10200
C  -3.31500 22.82600 28.46300
C  -2.59500 22.47700 25.21400
O  -2.19200 22.19200 24.09200
C  -2.70000 23.94200 25.54700
N  -2.63500 17.05900 25.50700
C  -2.58800 17.96500 24.60400
C  -2.70200 17.41000 23.17000
C  -2.61200 15.90000 23.35000
C  -2.67600 15.80500 24.87000
C  -4.06100 17.72300 22.46900
C  -1.28200 15.30800 22.76200
C  0.09100 15.35900 23.58500
N  -2.78600 15.41500 27.95000
C  -2.72400 14.34000 26.97900
C  -2.64800 13.12900 27.71900
C  -2.82200 13.48400 29.00900
C  -2.85500 14.89100 29.14400
C  -2.63400 11.68500 27.17700
C  -3.01000 12.94500 30.35000
O  -3.15600 11.78500 30.68700
C  -2.98800 14.14400 31.32000
C  -1.76400 13.99700 32.14600
O  -0.71300 14.46300 31.86800
O  -2.09600 13.31700 33.27200
C  -1.11600 13.33800 34.30400
H  -3.42000 20.91600 30.35600
H  -2.65400 20.00400 23.97600
H  -2.77000 13.64900 25.00300
H  -4.61100 16.90300 32.55200
H  -2.84300 19.28700 32.45700
H  -4.80800 20.34500 32.98100
H  -5.47600 18.73100 32.78400
H  -5.47000 19.84400 31.35600
H  -1.62300 17.07800 32.81500
H  -2.70200 16.02100 33.63500
H  -3.40100 18.50100 34.88200
H  -1.53900 18.64300 34.48500
H  -2.70900 22.88100 29.36700
H  -4.39200 22.80900 28.62800
H  -3.00100 23.69000 27.87700
H  -1.81400 24.31900 26.05700
H  -3.72200 23.95800 25.92600
H  -2.72900 24.42000 24.56800
H  -1.92800 17.69200 22.45600
H  -3.52700 15.41000 23.01600
H  -4.54400 18.42800 23.14600
H  -4.79700 16.97200 22.18400
H  -3.84300 18.38400 21.63000
H  -1.02700 15.85300 21.85400
H  -1.40800 14.24700 22.54600
H  -0.04000 15.22800 24.65900
H  0.44200 16.37800 23.42000
H  0.79300 14.59700 23.24800
H  -1.74600 11.63800 26.54700
H  -3.57300 11.52200 26.64700
H  -2.71600 10.94400 27.97300
H  -3.88700 14.14200 31.93700
H  -0.98600 14.25200 34.88300
H  -0.17900 13.04600 33.83000
H  -1.34300 12.46800 34.92100
Mg 48.26700 24.23100 27.85600
C  49.29200 26.67100 30.15200
C  47.47200 22.18400 30.35600
C  47.15500 22.12300 25.54900
C  49.90200 26.18100 25.34600
N  48.29800 24.56400 29.98700
C  48.72100 25.59500 30.77800
C  48.54800 25.23600 32.31900
C  48.27200 23.69800 32.24800
C  47.99700 23.44800 30.78200
C  49.38100 22.84600 32.90100
C  47.52900 26.09700 33.14900
C  48.02600 26.89100 34.37700
H  47.11300 26.88500 35.59200
N  47.29300 22.41600 27.91900
C  47.18700 21.71400 29.08600
C  46.49100 20.46700 28.77100
C  46.34000 20.46500 27.29300
C  46.95000 21.69200 26.83100
C  46.07100 19.37900 29.76800
C  45.68700 19.43700 26.47800
O  45.67100 19.52900 25.25300
C  44.94000 18.30400 27.14900
N  48.68600 24.06800 25.74500
C  48.04000 23.12200 25.03100
C  48.21600 23.41700 23.53800
C  49.27600 24.55300 23.50200
C  49.30300 25.03000 24.93200
C  48.82600 22.18200 22.83600
C  48.97500 25.63700 22.39500
C  47.85500 26.70500 22.55400
N  49.36300 26.08600 27.69000
C  49.88800 26.74500 26.64600
C  50.44700 28.01400 27.04000
C  50.14400 28.08300 28.41900
C  49.59300 26.81500 28.79900
C  51.19800 28.92600 26.12600
C  50.34800 28.87900 29.62800
O  50.90900 29.95600 29.83500
C  49.75000 27.95100 30.81400
C  50.77900 27.70600 31.91500
O  51.71600 26.93800 31.80800
O  50.49000 28.51300 33.01700
C  51.37400 28.56100 34.20000
H  47.18100 21.47400 31.13300
H  46.85500 21.45300 24.74000
H  50.31800 26.82300 24.56600
H  49.45300 25.46600 32.88100
H  47.35100 23.34900 32.71700
H  49.73200 23.40400 33.76900
H  50.19100 22.62600 32.20600
H  48.96100 21.87000 33.14200
H  46.80400 25.39100 33.55200
H  47.17100 26.86900 32.46800
H  48.06700 27.93900 34.08100
H  49.03900 26.70100 34.73300
H  46.45800 19.66800 30.74600
H  46.43800 18.42200 29.39600
H  44.99000 19.51500 29.78600
H  44.21400 18.82500 27.77400
H  45.54800 17.64600 27.77000
H  44.44400 17.76000 26.34500
H  47.23300 23.73000 23.18800
H  50.31000 24.22900 23.39100
H  49.80000 22.03700 23.30300
H  49.17100 22.28700 21.80700
H  48.10400 21.36700 22.80200
H  48.89300 25.20600 21.39700
H  49.88700 26.22600 22.48600
H  47.44400 27.01400 21.59300
H  48.37600 27.55500 22.99500
H  47.20100 26.22900 23.28500
H  51.74000 28.45300 25.30700
H  51.93000 29.40700 26.77400
H  50.49900 29.67200 25.74700
H  48.99700 28.54300 31.33400
H  50.89100 28.28500 35.13700
H  51.77000 29.57400 34.27400
H  52.26100 27.92900 34.13900

