158

Mg -1.94900 34.08200 26.30400
C  -3.56300 32.75000 29.00400
C  -0.03200 36.03200 28.56400
C  -0.49100 35.51300 23.73100
C  -3.69700 32.03200 24.11900
N  -1.89500 34.36800 28.53000
C  -2.60800 33.68500 29.42800
C  -2.20800 33.99300 30.90300
C  -1.27200 35.23600 30.65300
C  -1.04700 35.19600 29.11600
C  -1.80000 36.52400 31.21300
C  -1.57700 32.73700 31.56000
C  -2.45100 32.13800 32.64600
H  -1.86000 32.02800 34.00900
N  -0.36600 35.53700 26.11700
C  0.29300 36.22700 27.19100
C  1.22100 37.19900 26.61500
C  1.11300 37.04000 25.15400
C  0.01600 36.03600 24.89900
C  1.93600 38.25400 27.47900
C  1.96700 37.67200 24.07900
O  1.86900 37.56600 22.87000
C  3.22000 38.46300 24.55300
N  -2.26100 33.96600 24.22500
C  -1.52100 34.61600 23.41000
C  -1.62300 34.19400 21.88300
C  -2.41200 32.83800 22.01600
C  -2.87300 32.94400 23.53300
C  -2.28300 35.25500 20.87900
C  -1.43500 31.55500 21.85500
C  -1.95000 30.27400 21.30100
N  -3.43000 32.67800 26.46800
C  -3.94100 31.84800 25.51900
C  -4.91800 30.96600 26.13500
C  -4.74400 31.23100 27.51000
C  -3.88100 32.34800 27.64500
C  -5.83700 30.07700 25.52900
C  -5.13500 30.80500 28.82900
O  -5.85600 29.91000 29.17400
C  -4.45000 31.84300 29.82400
C  -5.46300 32.49700 30.69500
O  -6.03400 33.57400 30.41400
O  -5.71500 31.76900 31.84500
C  -6.77700 32.25400 32.66900
H  0.60800 36.59400 29.24700
H  0.06900 35.87700 22.86700
H  -4.15400 31.22800 23.53900
H  -3.16800 34.16900 31.38700
H  -0.30800 35.01800 31.11200
H  -2.88500 36.59500 31.13200
H  -1.41700 37.29200 30.54000
H  -1.40900 36.74400 32.20600
H  -0.65500 33.05400 32.04700
H  -1.49100 31.99300 30.76900
H  -2.75000 31.13800 32.33100
H  -3.38500 32.69000 32.75300
H  1.53300 38.34000 28.48700
H  1.78800 39.20500 26.96800
H  2.98000 37.95500 27.57400
H  3.65400 38.84400 23.62900
H  3.74400 37.64800 25.05200
H  2.83200 39.29100 25.14700
H  -0.59600 34.06300 21.54200
H  -3.27900 32.77700 21.35800
H  -3.01000 34.67400 20.31200
H  -1.55000 35.65500 20.17900
H  -2.92900 35.99000 21.35900
H  -0.80500 31.27700 22.69900
H  -0.67500 31.89900 21.15400
H  -1.53000 30.19700 20.29800
H  -3.03100 30.25600 21.16500
H  -1.58100 29.46600 21.93400
H  -5.47800 29.60100 24.61600
H  -6.81900 30.54500 25.45900
H  -5.81200 29.24000 26.22600
H  -3.77500 31.36200 30.53100
H  -7.48000 31.42300 32.72900
H  -7.27600 33.13600 32.26700
H  -6.57100 32.52400 33.70500
Mg -6.07600 25.34700 25.61000
C  -4.22800 26.42500 28.25200
C  -7.31200 22.79400 27.79700
C  -7.70400 23.98200 23.01600
C  -4.06800 27.08800 23.40300
N  -5.85000 24.69500 27.74600
C  -5.12200 25.40900 28.59900
C  -5.35200 25.01900 30.00500
C  -6.06100 23.60600 29.79500
C  -6.37200 23.67200 28.33500
C  -5.36700 22.32600 30.19800
C  -6.15800 26.08700 30.81000
C  -6.69900 25.61900 32.18900
H  -5.77200 24.70100 33.06700
N  -7.46900 23.72900 25.47500
C  -7.76800 22.80000 26.44800
C  -8.77800 21.93700 25.87200
C  -9.08100 22.43000 24.52300
C  -8.08000 23.44800 24.28400
C  -9.39200 20.74700 26.62000
C  -10.19200 22.03200 23.58000
O  -10.36500 22.55700 22.51100
C  -11.23500 20.99300 24.01800
N  -5.90400 25.62300 23.44800
C  -6.70700 24.90300 22.63400
C  -6.41000 25.25500 21.11200
C  -5.37900 26.45200 21.31700
C  -5.10300 26.37800 22.78300
C  -5.98100 23.95900 20.25000
C  -5.99100 27.88600 20.92100
C  -6.08000 28.23100 19.40200
N  -4.55900 26.61200 25.73500
C  -3.77400 27.17900 24.79700
C  -2.65300 27.92800 25.46500
C  -2.82200 27.68900 26.82800
C  -3.97200 26.88500 26.95300
C  -1.55400 28.75600 24.70700
C  -2.26800 27.91600 28.15300
O  -1.30200 28.54800 28.60900
C  -3.23100 27.19100 29.10700
C  -2.37200 26.31800 30.03700
O  -1.68900 25.33700 29.67700
O  -2.39000 26.75800 31.34900
C  -1.66500 26.01600 32.36400
H  -7.71600 22.10000 28.53800
H  -8.12400 23.36200 22.22100
H  -3.43500 27.66400 22.72600
H  -4.33900 24.81200 30.35000
H  -7.04200 23.58900 30.27000
H  -5.37000 21.53600 29.44700
H  -5.87200 21.96200 31.09300
H  -4.38200 22.67100 30.51100
H  -7.00400 26.32200 30.16500
H  -5.75400 27.09900 30.79200
H  -7.55900 24.98600 31.97000
H  -7.22800 26.38500 32.75500
H  -9.48100 19.85300 26.00400
H  -10.38900 21.02700 26.96100
H  -8.92200 20.45900 27.56100
H  -10.70600 20.05100 23.87600
H  -12.09200 21.18700 23.37200
H  -11.43100 21.32400 25.03800
H  -7.33500 25.62800 20.67200
H  -4.45300 26.33200 20.75600
H  -4.89200 24.00500 20.23900
H  -6.53600 23.96200 19.31200
H  -6.35200 23.02600 20.67400
H  -5.36500 28.59800 21.45800
H  -7.03000 28.16000 21.10800
H  -6.19200 27.26900 18.90100
H  -5.21000 28.83200 19.14000
H  -7.00000 28.75000 19.13600
H  -1.17500 28.22900 23.83200
H  -0.83700 29.08300 25.46000
H  -2.05400 29.61600 24.26300
H  -3.71200 27.90700 29.77300
H  -2.40700 25.29100 32.69900
H  -1.41400 26.67500 33.19400
H  -0.83500 25.42400 31.97800

