158

Mg 49.23200 44.58200 42.47400
C  45.86200 44.78600 41.64500
C  49.02300 41.21400 41.81800
C  52.65100 44.33500 42.75600
C  49.38800 48.03000 42.99200
N  47.71100 43.28400 41.56500
C  46.47900 43.58400 41.27400
C  45.72600 42.38800 40.82700
C  46.52900 41.24800 41.45400
C  47.87800 41.92000 41.59700
C  45.98400 40.85300 42.89600
C  45.54200 42.34300 39.31400
C  44.10900 42.71700 38.76700
H  44.17600 43.79000 37.68100
N  50.64500 42.99700 42.44700
C  50.33200 41.69300 42.16300
C  51.49700 40.91300 42.10900
C  52.64500 41.72900 42.47600
C  52.04900 43.09600 42.58700
C  51.57900 39.43900 41.75900
C  54.04600 41.32600 42.70300
O  54.34700 40.14200 42.88500
C  55.11800 42.26000 42.83400
N  50.79500 46.02000 42.54400
C  52.10200 45.66100 42.75800
C  53.04600 46.91100 42.89200
C  51.93200 48.01700 42.89800
C  50.60200 47.30300 42.88500
C  53.91400 47.06700 44.15900
C  52.14500 49.11800 41.77800
C  51.67900 50.52700 42.05200
N  47.99300 46.16000 42.38500
C  48.10300 47.46700 42.69800
C  46.83700 48.08800 42.57800
C  45.92500 47.04800 42.14500
C  46.67100 45.88300 42.06400
C  46.47600 49.50400 42.75200
C  44.56000 46.77500 41.96300
O  43.62500 47.60200 42.01700
C  44.48600 45.34600 41.60500
C  43.62200 44.61500 42.51900
O  42.42000 44.57200 42.35100
O  44.26400 44.08200 43.63600
C  43.33200 43.61000 44.72600
H  48.83700 40.14500 41.70000
H  53.73800 44.43700 42.75900
H  49.39300 49.08100 43.28700
H  44.72200 42.48100 41.24100
H  46.60500 40.45700 40.70800
H  45.05600 41.37000 43.14100
H  46.70200 41.12200 43.67100
H  45.89000 39.77000 42.82400
H  45.70600 41.37400 38.84100
H  46.27900 43.03200 38.90200
H  43.43600 43.07500 39.54600
H  43.69500 41.86300 38.23000
H  52.23400 39.28200 40.90300
H  50.56400 39.06200 41.63600
H  52.03100 38.92600 42.60800
H  55.20900 42.85300 41.92400
H  56.02700 41.65900 42.85800
H  55.04700 42.80300 43.77700
H  53.54800 46.85300 41.92600
H  51.91900 48.62700 43.80100
H  53.76600 46.26600 44.88300
H  53.62400 48.01800 44.60500
H  54.96400 47.05100 43.86800
H  51.79200 48.70100 40.83500
H  53.23000 49.20800 41.73700
H  51.69700 50.93100 43.06500
H  50.63600 50.59800 41.74400
H  52.24300 51.24200 41.45400
H  47.11500 50.05900 42.06600
H  46.79700 49.86000 43.73100
H  45.42700 49.65600 42.49600
H  44.00700 45.28700 40.62800
H  43.94400 43.41200 45.60600
H  42.88400 42.70000 44.32700
H  42.56200 44.33800 44.97900
Mg 0.61000 43.50200 26.56600
C  2.98500 43.29400 29.13500
C  -1.72100 42.62100 28.81400
C  -1.52200 42.93400 23.99800
C  3.25300 43.91200 24.26900
N  0.64900 43.08200 28.83800
C  1.66400 43.07600 29.68100
C  1.20700 42.88800 31.16300
C  -0.34600 42.59600 30.97900
C  -0.45300 42.68300 29.43000
C  -0.87200 41.28100 31.52100
C  1.66200 44.07900 32.05300
C  1.94100 43.71500 33.51800
H  1.41800 42.39300 34.07300
N  -1.36100 43.12900 26.43300
C  -2.16000 42.69000 27.47800
C  -3.54000 42.51300 27.02300
C  -3.42700 42.58100 25.60500
C  -2.05000 42.86300 25.30900
C  -4.69200 42.03100 27.96700
C  -4.51600 42.31400 24.61800
O  -4.31600 42.35500 23.40300
C  -5.83700 41.98500 25.04400
N  0.77000 43.62700 24.43800
C  -0.25000 43.25000 23.57700
C  0.19000 43.52100 22.13600
C  1.65700 44.07200 22.25100
C  1.93600 43.82100 23.71000
C  0.18800 42.28100 21.24400
C  1.82600 45.54000 21.79900
C  1.55100 45.69400 20.26600
N  2.60600 43.60200 26.63800
C  3.58900 43.76900 25.64000
C  4.88800 43.64600 26.22200
C  4.66700 43.39500 27.56000
C  3.30200 43.50900 27.76300
C  6.16500 43.65400 25.42000
C  5.36200 43.04000 28.79100
O  6.54900 42.68300 28.99500
C  4.32700 43.24000 29.94400
C  4.50900 42.15100 30.96200
O  4.14200 41.03100 30.82400
O  5.15000 42.69100 32.04600
C  5.47400 41.65900 33.08900
H  -2.52600 42.38100 29.51200
H  -2.05900 42.88600 23.04900
H  4.13600 44.14000 23.66900
H  1.61700 41.93600 31.50000
H  -0.99600 43.40800 31.30500
H  -1.88300 41.43500 31.90100
H  -0.20200 41.05900 32.35200
H  -0.88100 40.46600 30.79700
H  0.91700 44.87100 31.97700
H  2.65400 44.36600 31.70500
H  1.76600 44.54100 34.20700
H  3.02100 43.63000 33.64300
H  -4.35500 42.32000 28.96300
H  -4.80600 40.94700 27.93700
H  -5.71100 42.40400 27.85900
H  -5.81500 41.04500 25.59700
H  -6.45000 41.88900 24.14800
H  -6.11900 42.79900 25.71100
H  -0.26600 44.37900 21.64300
H  2.36400 43.41000 21.75000
H  0.17700 41.39100 21.87200
H  0.93500 42.25100 20.45100
H  -0.82300 42.32000 20.83800
H  2.78500 45.94700 22.11800
H  1.01700 46.01700 22.35400
H  0.54200 45.98200 19.97100
H  1.75100 44.77000 19.72300
H  2.22200 46.46600 19.88800
H  6.11800 43.07500 24.49800
H  6.87900 43.12900 26.05500
H  6.46900 44.68800 25.25900
H  4.46100 44.25600 30.31700
H  6.27900 41.99700 33.74100
H  5.73100 40.73400 32.57300
H  4.65800 41.43900 33.77800

