158

Mg 6.87800 54.56600 41.15100
C  6.27700 51.16500 41.28400
C  10.09800 53.97800 39.92700
C  7.14300 57.87000 40.26300
C  3.48800 55.18400 42.17300
N  8.00700 52.70400 40.43400
C  7.57000 51.45200 40.77900
C  8.76300 50.49900 40.58700
C  10.01400 51.38500 40.33700
C  9.37700 52.80300 40.35500
C  11.15600 51.23600 41.43300
C  8.61600 49.39700 39.60800
C  8.55500 49.70800 38.14800
H  7.25700 49.28900 37.48600
N  8.44000 55.77500 40.33400
C  9.68900 55.33400 39.95700
C  10.47800 56.48100 39.53000
C  9.59100 57.56600 39.37700
C  8.33100 57.10900 40.03000
C  11.91100 56.47700 39.06700
C  9.85700 58.87200 38.59600
O  10.94600 58.95400 38.11700
C  8.86300 59.84000 38.33000
N  5.47700 56.25900 41.08400
C  5.92000 57.48400 40.80500
C  4.81400 58.55500 41.23300
C  3.56000 57.68800 41.47800
C  4.20900 56.26200 41.57800
C  5.25100 59.48600 42.34200
C  2.43200 57.73000 40.32100
C  1.65900 59.00400 40.37300
N  5.23600 53.44900 41.70100
C  4.03200 53.81000 42.19900
C  3.37100 52.67700 42.69800
C  4.15900 51.60300 42.38300
C  5.27300 52.11300 41.66800
C  1.98000 52.52800 43.31800
C  4.39100 50.19900 42.42700
O  3.83400 49.29900 43.05100
C  5.60000 49.82900 41.55500
C  5.18200 49.11700 40.32700
O  4.26600 49.48000 39.59800
O  5.69200 47.77200 40.20500
C  4.71500 46.91500 39.42800
H  11.02600 53.71400 39.41600
H  7.18400 58.95800 40.17400
H  2.48200 55.30100 42.58300
H  8.91500 49.88100 41.47200
H  10.41400 51.24600 39.33300
H  10.89600 50.39200 42.07300
H  11.12800 52.14400 42.03500
H  12.06700 51.02000 40.87600
H  7.72600 48.78800 39.76700
H  9.44200 48.69500 39.72100
H  9.38700 49.21300 37.64800
H  8.68900 50.78000 38.00400
H  12.22300 56.59200 38.02900
H  12.32300 55.52800 39.41000
H  12.37400 57.35300 39.52000
H  8.10700 59.54500 37.60300
H  9.46600 60.64800 37.91700
H  8.53100 60.10100 39.33500
H  4.56600 59.18300 40.37700
H  3.14600 57.92100 42.45900
H  6.26400 59.20900 42.63300
H  4.64700 59.39500 43.24500
H  5.20200 60.51900 41.99800
H  1.72000 56.91700 40.46200
H  2.82700 57.82300 39.30900
H  1.73500 59.60900 39.47000
H  1.95600 59.56100 41.26200
H  0.63300 58.71200 40.59600
H  1.20200 53.10700 42.82000
H  2.03700 52.85700 44.35600
H  1.76200 51.46100 43.27400
H  6.23700 49.18200 42.15900
H  4.93100 45.84700 39.42500
H  4.64100 47.16900 38.37100
H  3.76900 46.99000 39.96300
Mg -11.02600 16.95300 43.26800
C  -7.68700 17.53600 43.17500
C  -11.61600 20.30200 42.64500
C  -14.29800 16.27300 42.88000
C  -10.38700 13.48700 43.44300
N  -9.80600 18.62700 42.69600
C  -8.45700 18.66500 42.83200
C  -7.93100 20.05300 42.68900
C  -9.16500 20.89900 42.98800
C  -10.28500 19.91000 42.74400
C  -9.22500 21.49000 44.45300
C  -7.22500 20.19200 41.29500
C  -5.79800 20.68300 41.38400
H  -4.81500 19.83000 40.52800
N  -12.71100 18.12200 42.76500
C  -12.76100 19.50300 42.61500
C  -14.08900 19.93400 42.40700
C  -14.91600 18.76300 42.48700
C  -14.01000 17.68700 42.73900
C  -14.48100 21.34000 42.12900
C  -16.43700 18.86100 42.27500
O  -16.88800 19.94000 41.95600
C  -17.38900 17.76300 42.46300
N  -12.17800 15.09600 43.12600
C  -13.48900 15.14500 43.06900
C  -14.13500 13.72800 43.10100
C  -12.84100 12.89000 42.97700
C  -11.72100 13.84000 43.13500
C  -14.98900 13.48000 44.35600
C  -12.72000 12.07900 41.67700
C  -13.36300 10.66500 41.75700
N  -9.37500 15.74400 43.30200
C  -9.25900 14.34000 43.46500
C  -7.89300 14.06200 43.62200
C  -7.25300 15.26100 43.66000
C  -8.18100 16.25700 43.37100
C  -7.27400 12.68000 43.91900
C  -5.96300 15.91100 43.76400
O  -4.87100 15.41500 43.84500
C  -6.21500 17.46700 43.48600
C  -5.88600 18.30900 44.76000
O  -6.53100 18.29300 45.80500
O  -4.84300 19.17900 44.53100
C  -4.41900 20.08400 45.54900
H  -11.84800 21.36800 42.68600
H  -15.37900 16.13600 42.82000
H  -10.18800 12.41300 43.44200
H  -7.06900 20.08800 43.35500
H  -9.30400 21.66600 42.22600
H  -8.21600 21.59100 44.85300
H  -9.79500 20.87300 45.14900
H  -9.67200 22.46800 44.27800
H  -7.69400 20.87700 40.58900
H  -7.32600 19.21500 40.82300
H  -5.45200 20.77100 42.41400
H  -5.73300 21.72500 41.06900
H  -15.22100 21.70700 42.84100
H  -14.83300 21.42700 41.10100
H  -13.69200 22.08700 42.04100
H  -18.39600 18.17400 42.40300
H  -17.20700 17.28000 43.42300
H  -17.33400 17.04900 41.64100
H  -14.83000 13.63900 42.26700
H  -12.76200 12.27500 43.87300
H  -14.88300 14.32800 45.03300
H  -14.46300 12.65100 44.83000
H  -16.01800 13.14300 44.23400
H  -11.65000 11.93200 41.52500
H  -13.22400 12.55800 40.83700
H  -12.50100 9.99900 41.80400
H  -13.93800 10.44300 40.85700
H  -14.00200 10.67700 42.64000
H  -7.68000 12.50200 44.91500
H  -6.18700 12.74000 43.95900
H  -7.57100 11.93700 43.17900
H  -5.51000 17.60600 42.66600
H  -4.55600 19.87100 46.60900
H  -4.80200 21.08900 45.37200
H  -3.35100 20.25300 45.40500

