158

Mg -0.01500 7.84800 26.46900
C  0.84000 9.84400 29.39900
C  -0.28900 5.15800 28.59200
C  -0.42100 6.11900 23.78900
C  0.42400 10.74800 24.63100
N  0.48900 7.51400 28.72900
C  0.59200 8.49000 29.75900
C  0.44500 7.83900 31.11300
C  0.20600 6.32600 30.73100
C  0.13500 6.32400 29.24700
C  1.33500 5.39100 31.33300
C  -0.71300 8.39200 31.94300
C  -0.39800 8.74000 33.40300
H  0.83500 8.11900 33.99200
N  -0.28000 5.91400 26.22800
C  -0.41800 4.93500 27.18800
C  -0.83600 3.67300 26.58400
C  -0.81000 3.92600 25.18400
C  -0.55400 5.39000 25.01400
C  -1.23600 2.45600 27.38600
C  -1.04500 3.00100 24.01100
O  -1.02600 3.30600 22.82200
C  -1.29400 1.50300 24.21200
N  0.02500 8.26800 24.51300
C  -0.14700 7.37100 23.49800
C  0.05100 8.05300 22.14000
C  -0.26600 9.56800 22.44600
C  0.00500 9.53500 23.99700
C  1.36300 7.91300 21.36100
C  -1.71500 9.95500 22.30400
C  -2.10600 10.60600 20.99800
N  0.55100 9.90700 26.79400
C  0.76400 10.93200 25.97300
C  1.21700 12.15800 26.67700
C  1.13700 11.73900 28.02300
C  0.81600 10.36700 28.02000
C  1.54400 13.46800 26.02400
C  1.34900 12.19400 29.30400
O  1.68300 13.31700 29.64900
C  1.16000 10.97700 30.28600
C  2.33500 10.95000 31.13800
O  3.31500 10.28100 30.81100
O  2.20300 11.73900 32.24700
C  3.28000 11.82200 33.29800
H  -0.63300 4.27500 29.13400
H  -0.41400 5.56000 22.85000
H  0.61300 11.53500 23.89900
H  1.43300 7.85700 31.57300
H  -0.73100 5.91500 31.10600
H  0.99200 5.11000 32.32900
H  2.30500 5.87300 31.21200
H  1.48700 4.48300 30.74900
H  -1.58600 7.74500 32.03200
H  -1.01400 9.28600 31.39800
H  -1.27600 8.41100 33.95900
H  -0.28600 9.81300 33.55400
H  -0.90000 1.56400 26.85600
H  -2.31700 2.50200 27.25200
H  -0.87800 2.39200 28.41400
H  -0.53500 0.93800 24.75300
H  -1.54600 1.11300 23.22600
H  -2.20900 1.44700 24.80300
H  -0.72100 7.66800 21.47400
H  0.40700 10.25900 21.94000
H  2.05200 8.74100 21.53000
H  1.19300 7.71400 20.30300
H  1.94200 7.11100 21.81700
H  -1.97200 10.74000 23.01600
H  -2.33800 9.07900 22.48900
H  -1.55200 10.41700 20.07800
H  -2.01600 11.69100 21.06600
H  -3.10300 10.31000 20.67100
H  0.60600 14.02000 25.96000
H  2.06200 13.28900 25.08200
H  2.11800 14.07200 26.72600
H  0.27100 11.21900 30.86900
H  4.16900 11.41700 32.81500
H  3.18800 11.22000 34.20300
H  3.44600 12.86100 33.58100
Mg 0.51000 42.38200 26.88400
C  2.08100 42.41500 29.97400
C  -2.34800 41.23600 28.25500
C  -0.69200 41.72200 23.78600
C  3.64900 43.20500 25.37300
N  -0.02800 41.99000 28.83600
C  0.72700 42.15700 29.98800
C  -0.18100 41.96400 31.20100
C  -1.55500 41.35200 30.71400
C  -1.30400 41.59100 29.14100
C  -1.79000 39.90500 31.18300
C  -0.39400 43.25500 32.03100
C  -0.01200 43.11500 33.56800
H  -0.31200 41.84400 34.39900
N  -1.24600 41.60400 26.11400
C  -2.39600 41.23900 26.84700
C  -3.48500 40.82200 25.94900
C  -2.96000 40.92300 24.65100
C  -1.54500 41.45000 24.79300
C  -4.90300 40.37400 26.39900
C  -3.70500 40.73300 23.35400
O  -3.21500 41.04300 22.27300
C  -5.10400 40.22900 23.23800
N  1.31500 42.41900 24.87100
C  0.64700 42.14300 23.78700
C  1.43500 42.46400 22.53200
C  2.73500 43.12600 23.02000
C  2.52600 43.02700 24.57500
C  1.65500 41.25500 21.61200
C  2.95800 44.60300 22.48600
C  3.78200 44.73800 21.13800
N  2.42600 42.81000 27.51000
C  3.61000 43.04400 26.78800
C  4.75300 43.20000 27.73600
C  4.13100 42.99900 29.04400
C  2.80300 42.69600 28.82400
C  6.15900 43.51800 27.41100
C  4.36600 42.85500 30.51700
O  5.41200 42.93800 31.17700
C  3.02100 42.61500 31.23800
C  3.06800 41.34400 32.01000
O  2.92000 40.24900 31.51600
O  3.54000 41.55700 33.30700
C  3.74500 40.36600 34.23800
H  -3.27600 40.96600 28.76400
H  -1.11700 41.53400 22.79800
H  4.59100 43.62100 25.01100
H  0.42400 41.30600 31.82600
H  -2.41000 41.90700 31.09800
H  -2.77300 39.71100 31.61400
H  -0.95100 39.51700 31.76100
H  -1.93400 39.33100 30.26800
H  -1.37900 43.70800 31.91900
H  0.30800 43.95500 31.57700
H  -0.63200 43.87500 34.04500
H  1.04800 43.30700 33.73400
H  -5.73300 41.04500 26.17700
H  -4.81300 40.35900 27.48500
H  -5.05400 39.35000 26.05600
H  -5.26900 39.25700 23.70300
H  -5.30100 40.08300 22.17600
H  -5.92500 40.93000 23.38900
H  0.87700 43.27900 22.07200
H  3.57800 42.50700 22.71300
H  1.18700 41.51700 20.66400
H  1.06700 40.43200 22.01900
H  2.70900 40.98400 21.53600
H  3.41400 45.17300 23.29600
H  1.98100 45.06100 22.33600
H  3.23300 45.29600 20.37900
H  4.08600 43.78800 20.69900
H  4.68100 45.33200 21.30400
H  6.39200 43.23300 26.38400
H  6.82600 42.97600 28.08100
H  6.31400 44.57800 27.61000
H  2.82700 43.47900 31.87300
H  4.72000 40.38000 34.72400
H  3.62100 39.34100 33.88700
H  2.96300 40.54800 34.97500

