158

Mg 48.19200 15.00900 28.57100
C  45.96800 15.49500 31.27400
C  50.39800 17.25000 30.09200
C  50.08900 14.91900 25.81600
C  45.54900 13.42100 26.83400
N  48.18400 16.36600 30.47600
C  47.23700 16.14600 31.41900
C  47.70900 16.72900 32.77400
C  48.98900 17.59100 32.30100
C  49.22900 17.08200 30.90200
C  48.97300 19.12700 32.47000
C  48.00900 15.70400 33.85700
C  47.34600 15.85400 35.26200
H  47.36400 17.28200 35.86000
N  49.96500 15.91400 27.98300
C  50.70900 16.76900 28.75400
C  51.94500 17.11200 27.97900
C  51.82500 16.48000 26.71000
C  50.61900 15.73300 26.78400
C  52.97100 18.09200 28.54800
C  52.86200 16.56000 25.51100
O  52.66200 15.96300 24.45500
C  54.13300 17.40300 25.67200
N  47.84900 14.39400 26.54600
C  48.85600 14.27000 25.66600
C  48.43500 13.68800 24.27900
C  46.98300 13.18200 24.70600
C  46.75300 13.71100 26.09900
C  48.43100 14.69000 23.12100
C  47.02400 11.60400 24.64800
C  47.45500 10.81300 25.86700
N  46.15800 14.52300 28.91900
C  45.26000 13.82200 28.17900
C  44.11400 13.50300 29.01600
C  44.38700 14.04100 30.28200
C  45.62300 14.72400 30.13100
C  42.94000 12.77900 28.42400
C  43.85800 14.19600 31.71000
O  42.85800 13.71100 32.23800
C  44.89100 15.14800 32.35000
C  44.09200 16.26700 32.99500
O  43.59300 17.17800 32.40900
O  44.06800 16.07500 34.38000
C  43.39800 17.05100 35.20300
H  51.09500 17.90000 30.62500
H  50.78000 14.78900 24.98100
H  44.87000 12.77600 26.27300
H  46.94800 17.41300 33.15000
H  49.87400 17.26800 32.85000
H  48.71600 19.53100 31.49000
H  49.92000 19.53200 32.82600
H  48.12500 19.36400 33.11300
H  49.07400 15.50200 33.97500
H  47.67400 14.73800 33.47800
H  47.97400 15.14400 35.80100
H  46.31300 15.51500 35.19400
H  53.81800 17.41400 28.65400
H  52.72700 18.57500 29.49400
H  53.13800 18.81600 27.75100
H  53.89700 18.45600 25.51900
H  54.85000 17.11600 24.90400
H  54.45000 17.17000 26.68900
H  49.10000 12.87100 24.00000
H  46.23800 13.50400 23.97900
H  47.93800 14.38300 22.19900
H  49.44600 14.90700 22.78600
H  47.85500 15.56900 23.41100
H  47.65500 11.18100 23.86600
H  45.99900 11.28000 24.46800
H  48.00500 9.94000 25.51500
H  46.57300 10.50000 26.42600
H  48.09700 11.43400 26.49300
H  42.10000 13.26700 27.93000
H  42.56400 12.21000 29.27400
H  43.33000 12.03200 27.73100
H  45.42400 14.67800 33.17600
H  43.45600 18.05900 34.79400
H  43.98100 16.98300 36.12100
H  42.34200 16.78400 35.20600
Mg 42.27100 41.72700 26.34500
C  40.96300 43.93000 28.64900
C  42.90700 39.48100 28.80000
C  43.51400 39.73800 23.99500
C  41.69100 44.24100 23.92300
N  42.08300 41.76300 28.53900
C  41.36000 42.71700 29.23700
C  41.31500 42.37500 30.76400
C  42.02200 40.99000 30.73400
C  42.37300 40.68700 29.27400
C  43.26600 40.77000 31.60100
C  39.90700 42.39400 31.38600
C  39.58000 41.66000 32.63100
H  39.30200 42.50000 33.88500
N  42.92000 39.85400 26.38100
C  43.10200 39.00800 27.44600
C  43.46700 37.67700 27.05800
C  43.60700 37.74100 25.63900
C  43.40800 39.20800 25.29400
C  43.50500 36.45600 27.98100
C  43.70200 36.68400 24.62300
O  43.94900 36.79900 23.43900
C  43.61500 35.22800 25.11200
N  42.48200 41.93800 24.21500
C  43.24200 41.03500 23.51500
C  43.56500 41.52900 22.14300
C  42.68300 42.81500 21.99000
C  42.24500 43.04100 23.46100
C  45.13200 41.67900 21.94200
C  41.51900 42.77200 21.01000
C  40.07300 43.03400 21.42900
N  41.55100 43.62600 26.24800
C  41.36100 44.54100 25.20500
C  40.72900 45.78200 25.64600
C  40.64600 45.59500 27.05300
C  41.08200 44.27800 27.33600
C  40.29700 46.96100 24.88800
C  40.20900 46.22800 28.28700
O  39.74900 47.36200 28.47200
C  40.46700 45.16400 29.37200
C  41.50100 45.74600 30.30500
O  42.68100 45.75400 30.18100
O  40.93600 46.17600 31.47700
C  41.76100 46.50500 32.64600
H  43.29200 38.79100 29.55400
H  44.01300 39.28200 23.13800
H  41.56300 45.03300 23.18200
H  42.03000 43.03200 31.26000
H  41.22600 40.29100 30.99000
H  44.11600 40.75700 30.91900
H  43.16700 39.86800 32.20500
H  43.40100 41.62200 32.26800
H  39.13500 42.09700 30.67600
H  39.66800 43.45400 31.48200
H  40.48400 41.09500 32.85500
H  38.80300 40.91100 32.48000
H  44.45100 36.01500 27.66600
H  42.66000 35.80700 27.75000
H  43.54100 36.72100 29.03800
H  43.54000 34.63700 24.19900
H  42.63700 35.10700 25.57900
H  44.55500 34.94600 25.58500
H  43.18900 40.83500 21.39100
H  43.27800 43.71100 21.81100
H  45.67600 41.42000 22.85100
H  45.31300 42.74500 21.80200
H  45.54500 41.10400 21.11300
H  41.58200 41.84200 20.44500
H  41.75100 43.50700 20.23800
H  39.43900 42.57400 20.67200
H  39.88200 44.08600 21.21800
H  39.74800 42.78100 22.43900
H  39.77900 46.57600 24.00900
H  41.04000 47.72600 24.66400
H  39.72900 47.59600 25.56800
H  39.52700 45.04800 29.91300
H  41.57500 47.50000 33.04900
H  42.81500 46.57100 32.37600
H  41.59300 45.70300 33.36500

