158

Mg -0.43900 7.72900 27.66200
C  0.27400 9.89100 30.16200
C  -0.55300 5.03500 29.89300
C  -1.34500 5.78700 25.06000
C  0.13200 10.40100 25.38700
N  -0.05500 7.46300 29.74800
C  0.04100 8.53500 30.60200
C  -0.11500 8.06000 32.03600
C  0.17600 6.46700 31.88600
C  -0.26000 6.28100 30.42900
C  1.65400 5.97200 32.18400
C  -1.50400 8.48100 32.63700
C  -1.64400 8.57500 34.20000
H  -0.37900 8.43600 35.01200
N  -0.98300 5.71200 27.48100
C  -0.96600 4.75600 28.55500
C  -1.33700 3.45000 28.00600
C  -1.43900 3.66600 26.56500
C  -1.32100 5.08700 26.30100
C  -1.35200 2.14800 28.83400
C  -1.57200 2.60100 25.48900
O  -1.51700 2.87100 24.27900
C  -1.72800 1.16000 25.80400
N  -0.60000 8.05200 25.49800
C  -1.04600 7.04000 24.67700
C  -0.95300 7.51200 23.20900
C  -0.73100 9.07100 23.41900
C  -0.41500 9.25700 24.85600
C  0.08800 6.71000 22.36900
C  -1.85500 10.06000 22.92800
C  -1.58100 10.88400 21.64600
N  0.30400 9.72700 27.68900
C  0.47400 10.67300 26.73500
C  0.91800 11.92100 27.32500
C  0.83800 11.66200 28.72800
C  0.33400 10.31800 28.87200
C  1.30300 13.22600 26.69100
C  1.09400 12.13400 30.06600
O  1.49400 13.19700 30.39300
C  0.71000 11.00700 31.04400
C  1.90600 10.67200 31.88500
O  2.83900 9.99800 31.51400
O  1.80100 11.25600 33.13600
C  2.89900 11.05600 34.00900
H  -0.41000 4.19300 30.57300
H  -1.69000 5.21900 24.19400
H  0.33600 11.17800 24.64800
H  0.70600 8.51400 32.59200
H  -0.56000 5.91000 32.46600
H  2.07100 6.87900 32.62300
H  2.09600 5.63800 31.24500
H  1.60800 5.16300 32.91200
H  -2.12800 7.63400 32.35400
H  -1.86100 9.39200 32.15700
H  -2.46600 7.99800 34.62300
H  -2.06000 9.56600 34.37400
H  -0.62300 1.49700 28.35200
H  -2.36800 1.75300 28.81300
H  -1.04100 2.37100 29.85400
H  -2.55500 1.25700 26.50700
H  -0.77400 0.68700 26.03800
H  -2.18100 0.59100 24.99200
H  -1.91100 7.36500 22.71000
H  0.24600 9.31300 23.00000
H  -0.29600 6.18000 21.49700
H  0.59700 5.94600 22.95600
H  0.73600 7.43700 21.87900
H  -2.02200 10.84200 23.66800
H  -2.82900 9.57400 22.97500
H  -1.16600 11.85200 21.92600
H  -2.48300 10.83900 21.03500
H  -0.77700 10.39900 21.09200
H  1.39000 13.02400 25.62300
H  2.32800 13.51600 26.92000
H  0.54200 13.94600 26.99200
H  -0.16100 11.20600 31.66800
H  3.84600 10.85300 33.51000
H  2.56100 10.39000 34.80300
H  3.09700 12.05000 34.41100
Mg 33.87800 2.50700 29.35900
C  31.82400 3.34500 32.13100
C  36.44000 2.11500 31.64200
C  35.89100 2.30500 26.77300
C  31.16600 3.29500 27.35700
N  34.05900 2.88100 31.67400
C  33.07600 3.05200 32.55600
C  33.66500 3.03300 33.98100
C  35.23000 2.69600 33.81500
C  35.24700 2.46900 32.26400
C  36.19600 3.83300 34.20700
C  32.80800 2.05300 34.90200
C  32.78400 2.40200 36.43600
H  33.93900 3.15500 37.10700
N  35.86000 2.20900 29.22700
C  36.81000 2.07100 30.26500
C  38.13100 1.92700 29.72800
C  38.04100 2.07200 28.29100
C  36.52800 2.21300 28.06600
C  39.41400 1.73700 30.60600
C  39.11400 1.97800 27.17300
O  38.81500 2.09200 25.99200
C  40.54200 1.61400 27.56900
N  33.56500 2.78100 27.41700
C  34.53500 2.45800 26.50700
C  34.09200 2.61100 25.02900
C  32.50500 2.73500 25.25600
C  32.37700 2.90400 26.76400
C  34.69100 3.85600 24.22200
C  31.66300 1.53300 24.63900
C  30.60500 1.72000 23.55900
N  31.91000 3.22500 29.59500
C  30.93900 3.50300 28.67700
C  29.71100 3.93400 29.28000
C  30.00900 3.94700 30.63300
C  31.37100 3.44700 30.75700
C  28.37700 4.23200 28.59800
C  29.54200 4.23700 31.95300
O  28.44800 4.58800 32.29700
C  30.69300 3.96800 32.92500
C  31.09200 5.22300 33.54800
O  31.55100 6.17600 32.96000
O  30.91900 5.07700 34.89100
C  31.31600 6.10100 35.76500
H  37.29200 2.04600 32.32200
H  36.51000 2.05300 25.91000
H  30.33100 3.48500 26.67900
H  33.60100 4.07400 34.29700
H  35.49600 1.78200 34.34700
H  36.70200 3.37000 35.05500
H  35.61100 4.68400 34.55600
H  36.84000 4.11600 33.37400
H  33.39900 1.13900 34.86200
H  31.78600 1.93300 34.54400
H  32.63500 1.52400 37.06500
H  31.89600 3.03200 36.48000
H  40.36800 2.18600 30.33000
H  39.60100 0.66600 30.68200
H  39.41500 2.11200 31.62900
H  40.62600 0.85700 28.34900
H  40.84500 2.58700 27.95600
H  41.15900 1.44400 26.68600
H  34.38800 1.68300 24.54000
H  32.16800 3.69300 24.86000
H  35.35400 4.35200 24.93200
H  34.01800 4.68900 24.01500
H  35.17700 3.47700 23.32400
H  31.27300 0.90800 25.44200
H  32.34300 0.87700 24.09400
H  29.56600 1.65300 23.88300
H  30.76800 1.00500 22.75300
H  30.77700 2.73200 23.19300
H  28.38700 4.56900 27.56200
H  27.81700 5.03100 29.08500
H  27.79700 3.31300 28.52100
H  30.31700 3.27600 33.67800
H  31.44400 5.69700 36.76900
H  30.44700 6.75900 35.80200
H  32.20500 6.71000 35.60000

