158

Mg 30.99300 57.31300 40.01000
C  28.51500 55.32200 38.90800
C  33.35700 54.94100 39.12000
C  33.61100 59.56800 40.43400
C  28.78100 59.95800 40.39200
N  30.87900 55.47000 38.95600
C  29.78500 54.76500 38.74200
C  30.11200 53.37300 38.24300
C  31.63600 53.18400 38.58900
C  32.00700 54.61800 38.97900
C  31.92300 52.05400 39.65300
C  29.76800 53.07500 36.74700
C  29.99400 54.11600 35.64000
H  29.06900 54.25600 34.38400
N  33.21400 57.20100 39.90700
C  33.95000 56.19100 39.41400
C  35.35900 56.60000 39.40000
C  35.44600 57.85400 39.98200
C  34.05100 58.27700 40.18700
C  36.43500 55.67800 38.92400
C  36.71500 58.59000 40.30100
O  37.81100 58.13900 39.89100
C  36.78300 59.78000 41.15300
N  31.13900 59.58700 40.08400
C  32.31600 60.15000 40.49600
C  32.20200 61.63000 40.93400
C  30.58400 61.72300 40.97700
C  30.08000 60.36500 40.41200
C  33.05900 62.12500 42.15000
C  29.90900 62.93400 40.23500
C  28.81400 63.81400 40.90700
N  28.98900 57.62600 39.87100
C  28.17800 58.74900 40.02800
C  26.83600 58.32100 39.77900
C  26.92300 56.95800 39.29800
C  28.25200 56.56000 39.40900
C  25.63500 59.14700 39.85900
C  26.11000 55.88500 38.83500
O  24.91500 55.78500 38.68100
C  27.17200 54.74500 38.50100
C  26.79600 53.50800 39.21100
O  26.83200 53.22500 40.40000
O  26.07100 52.78300 38.29200
C  25.17100 51.67500 38.76100
H  33.98800 54.10800 38.80300
H  34.31700 60.39600 40.51600
H  28.07300 60.72300 40.71900
H  29.46700 52.76600 38.87900
H  32.11200 52.92300 37.64300
H  32.42600 51.26900 39.08900
H  31.03800 51.76100 40.21700
H  32.66200 52.39000 40.38100
H  28.72800 52.75200 36.77900
H  30.38100 52.25500 36.37400
H  30.99900 53.89700 35.27800
H  30.02000 55.12000 36.06300
H  36.83400 56.08600 37.99500
H  36.12700 54.65200 38.72100
H  37.20500 55.51200 39.67700
H  37.50600 59.57700 41.94300
H  35.88400 59.78500 41.77000
H  36.87300 60.69500 40.56700
H  32.54300 62.16900 40.04900
H  30.28800 61.66900 42.02500
H  33.77000 62.92000 41.92400
H  33.57900 61.37500 42.74500
H  32.30100 62.53500 42.81700
H  29.41500 62.64000 39.30900
H  30.77500 63.55700 40.01300
H  29.20700 64.81300 40.71700
H  28.69400 63.60100 41.96900
H  27.86000 63.46400 40.51200
H  24.86800 58.50300 40.29000
H  25.25600 59.37700 38.86300
H  25.88100 60.08200 40.36200
H  27.09800 54.66000 37.41600
H  25.45200 51.32400 39.75500
H  25.31200 50.90700 38.00000
H  24.14000 52.01800 38.67600
Mg 36.77600 50.16000 25.50000
C  36.77000 48.29700 28.49300
C  35.58200 52.79900 27.11700
C  36.51600 51.79800 22.54500
C  37.69400 47.16500 23.84800
N  36.25900 50.49900 27.49500
C  36.33900 49.61000 28.60600
C  35.87300 50.32500 29.90200
C  35.29700 51.68500 29.34400
C  35.82000 51.66000 27.89000
C  33.79000 51.71200 29.41500
C  37.08800 50.61300 30.81500
C  36.83000 50.81300 32.36100
H  35.44600 50.72500 32.94900
N  36.07000 52.06900 24.90300
C  35.67400 52.99400 25.76800
C  35.41200 54.22600 25.08100
C  35.59000 54.03600 23.66400
C  36.10600 52.58700 23.63700
C  34.92300 55.41000 25.80100
C  35.36300 54.88400 22.52600
O  35.66400 54.54900 21.35200
C  34.58000 56.17900 22.70700
N  37.17100 49.55000 23.47400
C  36.86800 50.44100 22.43900
C  37.16700 49.78000 21.08300
C  37.56400 48.30600 21.47900
C  37.53300 48.34300 23.05200
C  35.97100 49.89000 20.06200
C  38.86100 47.73400 20.83800
C  40.17800 48.04900 21.54800
N  37.08300 48.11700 26.00600
C  37.56700 47.08500 25.26600
C  37.95000 45.94400 26.11100
C  37.67800 46.38600 27.43700
C  37.10300 47.67900 27.26800
C  38.48600 44.59700 25.64800
C  37.71100 46.12100 28.83700
O  37.93400 45.09500 29.46000
C  37.16600 47.31600 29.56300
C  36.09500 46.86000 30.46400
O  34.90100 46.80200 30.11800
O  36.63200 46.56300 31.69500
C  35.65000 45.92400 32.56900
H  35.30000 53.71100 27.64800
H  36.35800 52.30700 21.59200
H  38.08600 46.25300 23.39200
H  35.22200 49.71300 30.52600
H  35.69500 52.56200 29.85200
H  33.45600 52.32600 30.25100
H  33.36300 50.76000 29.73100
H  33.18800 51.83300 28.51400
H  37.52500 51.50100 30.35700
H  37.84200 49.82600 30.78700
H  37.25600 51.74900 32.72200
H  37.51300 50.17800 32.92500
H  34.45400 56.15200 25.15400
H  35.81500 55.81200 26.28200
H  34.12900 55.18700 26.51400
H  34.69100 56.72400 21.76900
H  35.16300 56.72800 23.44600
H  33.59400 55.77800 22.93900
H  37.99200 50.32100 20.61800
H  36.74300 47.63300 21.23400
H  35.73100 48.99500 19.48800
H  36.07100 50.70300 19.34200
H  35.07400 50.23300 20.57600
H  38.96200 47.85500 19.75900
H  38.78100 46.64800 20.86900
H  40.53200 47.16700 22.08200
H  40.12300 48.90800 22.21700
H  40.78900 48.40500 20.71900
H  38.04300 44.37300 24.67800
H  38.35400 43.76700 26.34300
H  39.57000 44.53500 25.54700
H  38.04200 47.70200 30.08300
H  34.92100 46.71700 32.72700
H  36.12900 45.72600 33.52800
H  35.08600 45.08400 32.16200

