158

Mg 25.00500 1.06000 29.67200
C  27.05600 1.08100 32.63200
C  22.22700 0.90500 31.65500
C  23.15900 0.69600 26.82000
C  27.96300 0.87600 27.76800
N  24.74200 0.91900 31.91600
C  25.68600 1.15400 32.87500
C  24.95300 1.25400 34.28900
C  23.41000 1.04500 33.87600
C  23.46200 0.98200 32.39200
C  22.56500 -0.13000 34.52000
C  25.27000 2.55200 35.07900
C  25.49600 2.38300 36.57200
H  24.86300 3.49800 37.48900
N  22.96300 0.99300 29.31300
C  21.97500 0.91100 30.25300
C  20.71500 0.76900 29.53500
C  21.02800 0.79200 28.15000
C  22.44400 0.83800 28.03200
C  19.34500 0.73200 30.21300
C  19.95600 0.68000 27.06400
O  20.15700 0.87000 25.92500
C  18.48500 0.26400 27.41700
N  25.51500 0.80900 27.65000
C  24.56200 0.69300 26.60600
C  25.22900 0.67000 25.23400
C  26.67900 1.00600 25.54900
C  26.71200 0.80900 27.09000
C  24.91400 -0.40200 24.23900
C  27.02000 2.42900 25.05500
C  26.59100 3.65200 25.95300
N  27.01500 0.80700 30.09400
C  28.09700 0.64900 29.20200
C  29.33000 0.45100 29.92200
C  28.98000 0.62900 31.20300
C  27.55000 0.84500 31.31700
C  30.72000 0.23400 29.43700
C  29.51600 0.70100 32.56600
O  30.70200 0.65600 32.92100
C  28.24800 1.09600 33.54900
C  28.10300 0.09000 34.55000
O  27.42700 -0.93000 34.46800
O  28.69300 0.46800 35.74500
C  28.84500 -0.54200 36.82700
H  21.33600 0.94200 32.28500
H  22.59900 0.48500 25.90700
H  28.83800 0.90100 27.11500
H  25.21500 0.39100 34.90200
H  22.84400 1.94900 34.10200
H  23.21100 -0.46900 35.33000
H  22.37000 -0.94100 33.81900
H  21.63500 0.25200 34.94300
H  24.39600 3.16800 34.86500
H  26.04700 3.23400 34.73400
H  26.58000 2.43700 36.67400
H  25.28600 1.36600 36.90200
H  18.69800 1.44700 29.70500
H  19.51200 1.10300 31.22400
H  18.88700 -0.25700 30.22100
H  18.50300 -0.59700 28.08600
H  18.04200 -0.01100 26.46000
H  17.90800 1.10900 27.79200
H  24.68200 1.52300 24.83400
H  27.40800 0.25500 25.24700
H  24.23100 -1.12700 24.68100
H  25.87100 -0.89100 24.05800
H  24.61400 -0.04100 23.25500
H  26.69900 2.54500 24.02000
H  28.10700 2.35900 25.09600
H  27.11200 3.50100 26.89800
H  25.51600 3.49100 26.04300
H  26.79900 4.58100 25.42300
H  31.38200 0.84300 30.05300
H  30.88700 0.50100 28.39300
H  31.08900 -0.78400 29.55600
H  28.38900 2.07500 34.00700
H  29.15700 -1.51200 36.44200
H  27.89300 -0.77400 37.30400
H  29.47300 -0.24900 37.66800
Mg -11.22500 37.86400 42.43000
C  -9.01200 35.30400 41.43800
C  -9.29100 40.18500 40.66700
C  -13.57300 40.13100 42.87800
C  -13.27100 35.38600 43.69300
N  -9.30500 37.77300 41.19400
C  -8.70700 36.56200 40.79100
C  -7.55600 36.75800 39.78400
C  -7.50900 38.35900 39.75300
C  -8.75600 38.79000 40.61000
C  -6.21000 39.07200 40.34600
C  -7.85000 36.02700 38.45600
C  -6.69900 35.31400 37.85900
H  -5.74000 36.10700 36.87400
N  -11.30500 39.95500 41.98200
C  -10.45700 40.69500 41.24900
C  -10.96000 42.05400 41.15700
C  -12.20400 42.07500 41.76200
C  -12.48000 40.68500 42.21500
C  -10.16500 43.21700 40.60600
C  -13.09500 43.33200 41.96900
O  -12.63000 44.34400 41.47400
C  -14.41700 43.29200 42.74600
N  -13.40600 37.74300 42.82200
C  -13.92100 38.84800 43.26100
C  -15.16100 38.51900 44.11000
C  -15.10400 37.04600 44.35500
C  -13.89400 36.65700 43.53800
C  -15.26500 39.43900 45.38300
C  -16.36800 36.17300 44.08200
C  -17.08700 35.59800 45.36400
N  -11.24600 35.75000 42.52800
C  -12.11200 34.89300 43.18100
C  -11.62000 33.57800 43.15600
C  -10.37800 33.63900 42.52500
C  -10.21100 35.01000 42.14600
C  -12.16700 32.43300 43.91500
C  -9.20800 32.93200 41.99100
O  -9.04200 31.71800 42.01400
C  -8.32300 33.95900 41.21200
C  -6.97200 33.89300 41.72700
O  -5.98600 33.23000 41.34100
O  -6.84300 34.88300 42.66900
C  -5.54800 35.02800 43.26300
H  -8.66400 40.83900 40.05700
H  -14.37400 40.79900 43.20200
H  -13.95500 34.70300 44.20200
H  -6.64800 36.37300 40.24900
H  -7.64900 38.70200 38.72700
H  -6.52500 39.88600 40.99900
H  -5.47200 39.38100 39.60700
H  -5.67800 38.39400 41.01300
H  -8.25700 36.79900 37.80300
H  -8.73600 35.40000 38.56200
H  -7.18800 34.50900 37.31200
H  -6.14700 34.80400 38.64800
H  -10.72400 43.72800 39.82200
H  -9.26500 42.84900 40.11500
H  -9.83200 43.94000 41.35000
H  -14.29800 42.77500 43.69800
H  -15.18800 42.97800 42.04200
H  -14.68100 44.32300 42.97800
H  -16.04700 38.72500 43.50900
H  -14.75000 36.91900 45.37800
H  -14.55500 40.26600 45.35400
H  -15.18100 38.78400 46.25100
H  -16.18600 40.01200 45.48900
H  -16.10900 35.34400 43.42300
H  -16.99900 36.89100 43.55900
H  -16.98200 36.22100 46.25300
H  -16.66300 34.59900 45.46700
H  -18.15800 35.48200 45.19600
H  -13.23500 32.63300 43.83300
H  -11.90900 32.52000 44.97000
H  -11.86200 31.44200 43.57900
H  -8.35200 33.59800 40.18400
H  -4.96500 35.71900 42.65300
H  -4.99400 34.09600 43.38000
H  -5.72400 35.47300 44.24200

