158

Mg 43.11100 42.67900 26.57900
C  42.32800 44.70700 29.14600
C  44.29400 40.31400 28.89000
C  44.19100 40.88700 24.01100
C  42.31400 45.35500 24.37200
N  43.32500 42.48800 28.80000
C  42.78300 43.47300 29.61000
C  42.85600 43.01500 31.08700
C  43.77500 41.66500 30.97500
C  43.81600 41.43400 29.47900
C  45.21200 41.76400 31.62700
C  41.46300 42.86400 31.71900
C  41.38400 42.07100 32.99800
H  40.51800 42.50300 34.10500
N  44.08400 40.86800 26.45000
C  44.40400 40.00700 27.53500
C  45.00500 38.80400 26.96900
C  44.83300 38.89300 25.52600
C  44.36800 40.23700 25.26800
C  45.53500 37.66100 27.81900
C  45.17400 37.85500 24.48000
O  44.83600 38.05000 23.28900
C  45.72400 36.56100 24.82800
N  43.34000 43.09800 24.52100
C  43.75300 42.16300 23.64500
C  43.63500 42.59300 22.19400
C  42.74000 43.89900 22.33200
C  42.71400 44.12000 23.80300
C  45.03400 42.86300 21.68900
C  41.24600 43.69700 21.82300
C  40.40900 42.67300 22.60400
N  42.48300 44.70800 26.61700
C  42.22300 45.66400 25.70000
C  41.67800 46.83900 26.38700
C  41.70400 46.47800 27.73300
C  42.27500 45.20900 27.83600
C  41.19200 48.07900 25.67000
C  41.33700 46.86100 29.06300
O  40.79200 47.87200 29.42100
C  41.77300 45.77900 30.04600
C  42.78400 46.30600 31.03200
O  43.94500 46.57500 30.88900
O  42.18100 46.48600 32.27800
C  42.94200 47.21300 33.28200
H  44.65500 39.60600 29.63900
H  44.50900 40.33100 23.12600
H  42.03700 46.11200 23.63600
H  43.39600 43.68400 31.75700
H  43.23300 40.83000 31.41900
H  45.21900 40.97700 32.38100
H  45.40500 42.70900 32.13300
H  46.02700 41.63700 30.91400
H  40.83600 42.30300 31.02700
H  40.93100 43.77600 31.99000
H  42.37700 41.85700 33.39300
H  40.89400 41.12600 32.76200
H  45.62200 37.95800 28.86400
H  46.55200 37.49400 27.46400
H  44.96700 36.73500 27.71700
H  46.21200 36.26700 23.89800
H  45.12700 35.70100 25.13300
H  46.60400 36.57600 25.46900
H  43.04300 41.81400 21.71300
H  43.17600 44.71600 21.75600
H  45.14000 42.35000 20.73300
H  45.86300 42.42200 22.24300
H  45.18100 43.94200 21.63200
H  41.37500 43.43300 20.77400
H  40.91500 44.73500 21.83800
H  39.75400 42.07500 21.97000
H  39.74300 43.14500 23.32600
H  41.03500 42.04700 23.24000
H  41.96600 48.30700 24.93800
H  41.09500 48.93700 26.33500
H  40.26400 47.84200 25.15000
H  40.89000 45.38600 30.55000
H  43.72000 47.92500 33.00300
H  43.29400 46.43200 33.95500
H  42.44400 47.94900 33.91300
Mg 6.81500 54.55500 40.87500
C  6.03300 51.18700 40.28500
C  10.01000 53.99200 40.12800
C  7.32300 57.88800 41.16200
C  3.33900 55.22100 41.28000
N  7.90400 52.78500 40.27000
C  7.39800 51.48300 40.02000
C  8.52200 50.56200 39.54200
C  9.77900 51.42300 39.98200
C  9.20400 52.84600 40.16100
C  10.61000 50.84700 41.22200
C  8.47500 50.44100 37.93500
C  8.74600 49.06700 37.23600
H  7.71800 48.47800 36.26600
N  8.39700 55.79700 40.61900
C  9.68500 55.34000 40.25800
C  10.54800 56.41600 40.07100
C  9.87300 57.56300 40.55800
C  8.47100 57.15500 40.83300
C  11.94100 56.37800 39.53300
C  10.50700 58.96400 40.63800
O  11.68800 59.09900 40.21600
C  9.75700 60.19100 41.09500
N  5.56700 56.26800 41.05300
C  6.02400 57.48700 41.37100
C  4.89600 58.48800 41.68600
C  3.63000 57.64000 41.52900
C  4.22300 56.25600 41.32500
C  5.08600 58.98900 43.13100
C  2.72100 58.08800 40.29400
C  1.56700 59.06200 40.60600
N  5.02600 53.42900 40.83200
C  3.70700 53.85600 41.07800
C  2.86200 52.59900 41.06200
C  3.78000 51.55400 40.93700
C  5.02500 52.14100 40.70500
C  1.33300 52.53900 41.27000
C  3.93200 50.08100 40.83800
O  3.04600 49.22800 40.96600
C  5.44000 49.76400 40.54300
C  5.51700 48.81300 39.35500
O  5.26400 49.13900 38.18900
O  5.97900 47.60800 39.75000
C  6.30700 46.55500 38.79200
H  11.07800 53.82900 39.96900
H  7.46600 58.97100 41.17700
H  2.27500 55.31100 41.50800
H  8.65700 49.65100 40.12600
H  10.40100 51.39800 39.08700
H  10.92600 51.70100 41.82100
H  11.43300 50.25200 40.82700
H  9.90400 50.30700 41.85200
H  9.25800 51.13800 37.63500
H  7.47300 50.76300 37.65300
H  8.90300 48.26100 37.95300
H  9.68100 49.18700 36.68900
H  11.98900 57.14800 38.76300
H  12.15600 55.40400 39.09300
H  12.63600 56.54700 40.35500
H  9.00900 60.35400 40.31900
H  10.57400 60.90900 41.02400
H  9.34500 59.92300 42.06800
H  4.92400 59.29400 40.95300
H  3.08000 57.61900 42.47000
H  5.29500 60.05500 43.21600
H  5.89800 58.44100 43.60900
H  4.25300 58.84300 43.81900
H  2.20000 57.22100 39.88700
H  3.39600 58.42800 39.50900
H  0.55700 58.71300 40.39300
H  1.69000 59.96700 40.01000
H  1.61700 59.42100 41.63400
H  0.89900 51.67800 40.76300
H  0.99600 53.39900 40.69200
H  1.01500 52.61400 42.31000
H  5.83500 49.19400 41.38400
H  5.94900 45.58400 39.13500
H  7.37900 46.42300 38.64700
H  5.79200 46.66400 37.83700

