158

Mg 40.27000 8.96000 29.22500
C  41.97400 10.10900 31.98600
C  38.38900 6.96800 31.20900
C  38.71700 7.91400 26.47500
C  42.82700 10.51400 27.26900
N  40.08600 8.70000 31.39400
C  40.82300 9.37800 32.34600
C  40.24300 9.14800 33.72100
C  39.37900 7.80300 33.52000
C  39.28300 7.78300 31.93400
C  39.94300 6.55500 34.22200
C  39.46600 10.36000 34.23100
C  39.29400 10.40100 35.81800
H  40.33400 11.12400 36.65000
N  38.63500 7.74100 28.93000
C  38.02800 6.96700 29.83400
C  36.91900 6.23500 29.20100
C  36.88500 6.61600 27.81300
C  38.14500 7.45500 27.64700
C  36.08100 5.20300 29.86500
C  36.06600 6.03600 26.71600
O  36.30600 6.24600 25.53200
C  34.90400 5.23300 27.00700
N  40.79500 9.16900 27.13400
C  39.88700 8.71800 26.23500
C  40.31700 9.09400 24.78600
C  41.66400 9.86400 24.95200
C  41.78900 9.94400 26.54200
C  40.35600 7.93500 23.83100
C  41.68100 11.24500 24.37400
C  40.66900 12.21800 24.92700
N  42.07600 9.96000 29.48000
C  43.04900 10.43900 28.63600
C  44.18300 11.04100 29.29400
C  43.78500 10.95700 30.62200
C  42.47900 10.32200 30.73700
C  45.46200 11.61800 28.71200
C  44.21600 11.21400 31.97400
O  45.14500 11.83900 32.38200
C  43.04700 10.63800 32.92100
C  43.65900 9.67300 33.80700
O  43.73000 8.49000 33.58600
O  44.12500 10.29200 34.90800
C  44.56200 9.44000 36.01800
H  37.80000 6.27400 31.81300
H  38.06300 7.75900 25.61500
H  43.68300 10.93300 26.73700
H  41.06400 9.08600 34.43500
H  38.36800 7.92300 33.90700
H  39.71400 5.73500 33.54200
H  39.33000 6.48400 35.12100
H  41.01700 6.64300 34.38500
H  38.44400 10.06600 33.99100
H  39.78300 11.29200 33.76300
H  39.13600 9.40400 36.22900
H  38.35100 10.93400 35.94200
H  36.36000 4.95600 30.88900
H  36.16200 4.23800 29.36500
H  35.07300 5.60900 29.94800
H  34.25900 5.78100 27.69300
H  35.23600 4.26600 27.38600
H  34.40700 5.10200 26.04500
H  39.53500 9.72900 24.36800
H  42.53600 9.40000 24.49100
H  40.46100 6.98000 24.34600
H  41.20000 7.98700 23.14400
H  39.44300 7.89900 23.23700
H  41.57100 11.21600 23.29000
H  42.69500 11.60700 24.54700
H  41.11400 12.64300 25.82700
H  39.74900 11.70600 25.20600
H  40.46400 13.09300 24.31000
H  45.89800 12.19100 29.53000
H  45.29200 12.35100 27.92300
H  46.11600 10.84600 28.30700
H  42.61600 11.50900 33.41600
H  44.88100 8.43700 35.73600
H  43.93200 9.48800 36.90600
H  45.55300 9.84500 36.22500
Mg 41.87900 41.16100 26.63000
C  41.17400 43.58700 29.06300
C  42.77500 39.03700 29.07300
C  42.93100 39.07800 24.21600
C  41.10000 43.61200 24.33600
N  42.05800 41.32400 28.84400
C  41.51800 42.26100 29.56200
C  41.40500 41.90800 31.06300
C  41.93700 40.39300 31.05600
C  42.30900 40.24500 29.54600
C  42.95000 39.89000 32.07500
C  39.86800 41.94600 31.57800
C  39.55600 41.43700 33.03400
H  38.70700 42.35800 33.92900
N  42.83100 39.29700 26.62800
C  43.13600 38.51200 27.73900
C  43.72200 37.27400 27.38500
C  43.72600 37.25900 25.95600
C  43.21600 38.59800 25.51700
C  43.94700 36.11000 28.38900
C  44.30000 36.19900 24.96500
O  44.33700 36.40500 23.71600
C  44.59700 34.85000 25.47200
N  41.88800 41.29900 24.63100
C  42.46100 40.29200 23.82200
C  42.41100 40.65800 22.31300
C  41.47300 41.98700 22.41300
C  41.54300 42.34800 23.87000
C  43.71500 40.92500 21.47300
C  39.92900 41.88100 22.03400
C  39.11200 40.69000 22.57900
N  41.24700 43.20800 26.60400
C  41.12100 44.08800 25.63100
C  40.88900 45.40200 26.08800
C  40.83900 45.24900 27.49600
C  41.06100 43.90200 27.71200
C  40.81300 46.65700 25.26000
C  40.71200 45.93800 28.70600
O  40.54700 47.12700 28.94600
C  40.85800 44.86900 29.79900
C  41.75100 45.29300 30.89100
O  42.90500 45.06800 31.05400
O  41.06800 46.14500 31.72500
C  41.79900 46.81100 32.79100
H  43.09000 38.34400 29.85700
H  43.19400 38.42300 23.38300
H  40.76000 44.25100 23.51800
H  41.95300 42.48100 31.80900
H  41.04600 39.77600 31.17400
H  43.12900 40.63500 32.85000
H  43.95000 39.88600 31.64000
H  42.64100 38.92100 32.46800
H  39.18200 41.36400 30.96300
H  39.36900 42.91500 31.53400
H  40.47200 41.20100 33.57500
H  38.99800 40.51800 32.85100
H  43.86100 36.35600 29.44800
H  44.92100 35.67700 28.16400
H  43.20800 35.34900 28.13800
H  43.69700 34.41100 25.90400
H  45.40300 34.87500 26.20500
H  44.92700 34.24600 24.62700
H  42.11800 39.81400 21.69000
H  41.96300 42.84200 21.94700
H  43.85200 40.07000 20.81100
H  44.59800 41.00000 22.10800
H  43.61600 41.87600 20.95000
H  40.01300 41.71100 20.96000
H  39.51800 42.85400 22.30400
H  38.32100 41.09900 23.20700
H  39.80200 40.18200 23.25300
H  38.71800 40.26900 21.65400
H  40.13400 46.49000 24.42400
H  41.79000 46.98800 24.90900
H  40.35200 47.48200 25.80300
H  39.86800 44.74700 30.24000
H  41.45700 47.84500 32.84200
H  42.87500 46.87400 32.62500
H  41.53600 46.42800 33.77700

