158

Mg 17.09700 53.14900 25.91600
C  19.10100 51.61100 28.34900
C  14.88100 54.11500 28.47900
C  15.09500 54.32200 23.60900
C  19.31900 51.86100 23.55100
N  17.03500 52.83300 28.16300
C  18.06700 52.32100 28.93700
C  17.83200 52.64700 30.40900
C  16.33300 53.18400 30.40800
C  16.05500 53.44500 28.91200
C  15.24400 52.15400 30.98400
C  18.89900 53.50100 31.00700
C  18.82900 53.53500 32.51300
H  17.95300 52.59900 33.32800
N  15.27700 54.12700 25.93300
C  14.47600 54.32400 27.06500
C  13.32600 55.04500 26.60800
C  13.38700 55.14500 25.19400
C  14.63000 54.52800 24.87300
C  12.31900 55.57700 27.57500
C  12.48000 55.87500 24.23100
O  12.69400 55.92300 23.01000
C  11.20600 56.59600 24.75200
N  17.20000 53.11000 23.84800
C  16.19800 53.63100 23.11800
C  16.46900 53.39000 21.58100
C  18.02500 52.96200 21.63000
C  18.20400 52.59700 23.09500
C  15.58000 52.41100 20.86400
C  18.99600 54.11200 21.14700
C  20.33300 53.59600 20.45900
N  18.75000 51.84800 25.88200
C  19.59100 51.46000 24.82600
C  20.76500 50.67200 25.27200
C  20.52700 50.65300 26.64500
C  19.34900 51.40700 26.96800
C  21.82500 50.10000 24.45600
C  21.16900 50.15800 27.89100
O  22.21700 49.51900 28.09500
C  20.23700 50.88300 29.00000
C  19.87700 49.71600 29.82100
O  19.25600 48.76300 29.41700
O  20.28700 49.89400 31.13100
C  19.73200 48.82300 32.02400
H  14.12600 54.31400 29.24200
H  14.39000 54.44600 22.78500
H  20.01900 51.58500 22.76000
H  17.81300 51.70400 30.95400
H  16.31500 54.12700 30.95300
H  14.97300 52.46600 31.99300
H  15.69700 51.17100 31.11500
H  14.33300 52.12300 30.38700
H  18.82500 54.55200 30.72600
H  19.92800 53.33100 30.69000
H  18.75900 54.57200 32.84200
H  19.81500 53.25200 32.88200
H  11.33300 55.28200 27.21600
H  12.51300 56.64600 27.65800
H  12.29700 55.18300 28.59100
H  10.86100 57.39400 24.09400
H  11.40000 57.25200 25.60100
H  10.33200 55.94600 24.74500
H  16.27800 54.34400 21.09000
H  18.42600 52.03900 21.21100
H  15.05300 51.75800 21.56000
H  16.22900 51.82500 20.21300
H  14.83000 52.94100 20.27600
H  19.24100 54.72600 22.01400
H  18.38200 54.71100 20.47600
H  20.14500 53.92500 19.43800
H  20.39400 52.50900 20.52600
H  21.12800 54.15000 20.95900
H  21.57200 50.07000 23.39600
H  21.88900 49.12300 24.93500
H  22.76700 50.64400 24.52600
H  20.84800 51.60500 29.54200
H  19.99100 47.81700 31.69200
H  18.65400 48.85800 32.17900
H  20.22300 48.75900 32.99500
Mg 1.83000 42.82200 25.35500
C  3.45000 42.86900 28.53300
C  -0.92700 41.81300 26.90200
C  0.63200 42.66200 22.23600
C  5.13400 43.68000 23.91600
N  1.36200 42.29000 27.53200
C  2.09000 42.50500 28.64700
C  1.18300 42.35300 29.88800
C  -0.16300 41.86500 29.27000
C  0.09500 42.02800 27.79700
C  -0.59100 40.40200 29.60100
C  1.05300 43.81400 30.53600
C  1.48800 43.98200 32.03500
H  0.90100 43.18000 33.15800
N  0.12400 42.38300 24.70600
C  -0.94400 41.97100 25.50200
C  -2.05300 41.80500 24.63600
C  -1.65000 42.18800 23.33000
C  -0.24100 42.41400 23.33300
C  -3.39800 41.24700 25.18200
C  -2.49100 42.30000 22.00800
O  -1.97500 42.68300 20.92100
C  -4.00300 42.10800 22.14500
N  2.81600 42.97300 23.38100
C  1.98900 42.99000 22.25500
C  2.80600 43.23900 21.00300
C  4.14300 43.74900 21.55100
C  4.06300 43.43600 23.03200
C  3.03200 41.96800 20.11700
C  4.40200 45.23100 21.30000
C  4.70900 45.65200 19.87600
N  3.83700 43.37300 25.99200
C  5.01600 43.60800 25.32800
C  6.04200 43.82800 26.31900
C  5.50200 43.44900 27.59300
C  4.16200 43.18300 27.32700
C  7.35500 44.32200 26.12800
C  5.84900 43.20500 28.98300
O  6.87300 43.28600 29.54600
C  4.47000 43.02800 29.70100
C  4.52100 41.77300 30.52200
O  4.87300 40.66800 30.19900
O  4.21400 42.10200 31.83100
C  4.51100 41.22800 32.91100
H  -1.88300 41.56600 27.36900
H  0.23000 42.65100 21.22100
H  6.15500 43.86800 23.57800
H  1.59000 41.62100 30.58600
H  -1.01300 42.49800 29.52400
H  -1.67300 40.28900 29.67000
H  -0.25400 40.07700 30.58600
H  -0.29500 39.73100 28.79500
H  0.00400 44.10800 30.51400
H  1.72400 44.41200 29.91900
H  1.26500 45.03000 32.23500
H  2.56900 43.88800 32.14500
H  -4.26000 41.89800 25.04100
H  -3.36400 41.04200 26.25200
H  -3.69400 40.36500 24.61500
H  -4.50800 42.04700 21.18100
H  -4.36200 42.86900 22.83700
H  -4.15200 41.14400 22.63100
H  2.34600 44.06300 20.45800
H  5.08700 43.29100 21.25500
H  4.07000 41.64900 20.02300
H  2.81000 42.18400 19.07200
H  2.59900 41.07200 20.56200
H  5.23400 45.49800 21.95200
H  3.53500 45.86100 21.49900
H  4.97900 44.85700 19.18000
H  5.56600 46.32600 19.89300
H  3.79500 46.14400 19.54300
H  7.82200 44.48600 27.09900
H  7.40200 45.15200 25.42400
H  7.97200 43.48900 25.79100
H  4.29500 43.85800 30.38500
H  5.59700 41.13100 32.90800
H  3.99500 40.27400 32.79700
H  4.11700 41.56100 33.87100

