158

Mg 49.43400 35.72400 27.49400
C  47.40200 34.05000 29.70800
C  50.01100 38.15300 29.84500
C  50.75100 37.64200 25.16300
C  48.68900 33.30900 25.03900
N  48.88600 35.89800 29.57600
C  48.07900 35.05800 30.28500
C  47.99000 35.47900 31.73100
C  48.58400 36.92300 31.64100
C  49.27800 36.99500 30.26600
C  47.52300 38.05200 31.90100
C  48.79200 34.49300 32.62300
C  48.38700 34.17400 34.10300
H  47.35200 35.11700 34.77600
N  50.31100 37.60000 27.47600
C  50.46800 38.39000 28.54900
C  50.99300 39.69500 28.10600
C  51.24000 39.60900 26.70200
C  50.67000 38.26300 26.34900
C  51.16600 40.85600 29.07600
C  51.95500 40.57900 25.87100
O  52.25300 40.34100 24.71500
C  52.49500 41.84700 26.39700
N  49.83100 35.41200 25.31500
C  50.42000 36.40600 24.66100
C  50.47300 35.99200 23.18000
C  49.92500 34.54100 23.15500
C  49.39500 34.39800 24.55000
C  49.68500 36.92400 22.22200
C  50.90000 33.43100 22.79000
C  51.71300 33.51000 21.47500
N  48.36300 33.98600 27.35500
C  48.18600 33.12300 26.32100
C  47.34200 32.01500 26.78700
C  46.96500 32.37400 28.09800
C  47.57300 33.56700 28.36800
C  46.99400 30.70900 26.09200
C  46.15900 31.95800 29.24500
O  45.42300 30.98900 29.45400
C  46.27700 33.09800 30.31900
C  46.64000 32.42500 31.65900
O  47.61500 31.72200 31.93900
O  45.53300 32.60900 32.48700
C  45.54900 31.70700 33.66300
H  49.98100 38.92900 30.61300
H  51.07000 38.36100 24.40500
H  48.52200 32.43900 24.40000
H  46.91500 35.45400 31.90500
H  49.27100 37.12900 32.46200
H  46.52200 37.68300 32.12600
H  47.42200 38.54600 30.93400
H  47.95300 38.69100 32.67200
H  49.78000 34.93500 32.75800
H  49.06100 33.62900 32.01500
H  49.32000 34.20000 34.66600
H  48.18300 33.12300 34.30700
H  50.57800 41.67300 28.65800
H  52.18900 41.16900 29.28500
H  50.74800 40.56700 30.04100
H  51.73900 42.51600 26.80800
H  53.08800 42.40800 25.67400
H  53.28800 41.60800 27.10600
H  51.49300 35.95800 22.79800
H  49.06200 34.38400 22.50800
H  49.08000 36.41400 21.47300
H  50.47100 37.50200 21.73600
H  49.04500 37.63000 22.75200
H  50.34100 32.50100 22.69200
H  51.47600 33.49600 23.71300
H  52.75000 33.72600 21.73100
H  51.15600 34.20800 20.85000
H  51.74400 32.54100 20.97700
H  46.68700 31.02100 25.09300
H  46.23000 30.12500 26.60600
H  47.94600 30.17900 26.07400
H  45.40200 33.74400 30.38800
H  44.54900 31.31000 33.84300
H  45.81900 32.33000 34.51600
H  46.21300 30.84500 33.60100
Mg -6.00400 25.27300 26.58600
C  -4.53400 26.77200 29.38900
C  -8.02500 23.52500 28.56700
C  -6.93700 23.73700 23.82900
C  -3.36800 26.87200 24.62500
N  -6.12300 24.99900 28.75500
C  -5.53600 25.84500 29.67200
C  -6.09400 25.53000 31.05600
C  -7.20900 24.45500 30.82100
C  -7.12500 24.31700 29.30400
C  -6.96800 23.16700 31.53800
C  -6.64000 26.79500 31.74100
C  -6.54600 26.91900 33.25900
H  -5.89300 25.82700 34.13100
N  -7.47300 24.02300 26.19200
C  -8.21000 23.37200 27.15700
C  -9.22200 22.60300 26.52000
C  -8.87600 22.44600 25.15500
C  -7.73400 23.42000 24.94100
C  -10.47000 22.07700 27.29300
C  -9.45800 21.42300 24.18300
O  -9.02400 21.33000 23.04400
C  -10.48000 20.30500 24.63600
N  -5.19800 25.20900 24.52200
C  -5.81000 24.45700 23.60800
C  -5.19500 24.65300 22.17400
C  -4.07200 25.76200 22.42800
C  -4.24400 26.04500 23.99700
C  -4.73200 23.35100 21.51200
C  -4.16200 27.04700 21.45000
C  -3.11300 27.10200 20.35900
N  -4.25800 26.56600 26.88900
C  -3.33100 27.16400 26.01800
C  -2.43300 28.00600 26.75200
C  -2.92600 27.90800 28.07200
C  -3.97600 27.01500 28.09300
C  -1.41700 28.87900 26.20400
C  -2.65400 28.38600 29.49300
O  -1.76900 29.09900 29.99500
C  -3.71000 27.63300 30.35700
C  -2.96300 26.88300 31.36400
O  -2.24200 25.95900 31.11700
O  -3.00100 27.53400 32.55600
C  -2.11200 27.04400 33.61600
H  -8.82900 23.09200 29.16600
H  -7.46200 23.44800 22.91600
H  -2.63600 27.32500 23.95200
H  -5.29000 25.15700 31.69000
H  -8.20200 24.77500 31.13400
H  -7.83700 22.62000 31.90400
H  -6.29400 23.33600 32.37800
H  -6.38800 22.50700 30.89200
H  -7.70100 26.91900 31.52400
H  -6.22100 27.66500 31.23500
H  -7.48300 27.16500 33.75800
H  -5.87600 27.74400 33.50100
H  -11.36500 22.36400 26.74100
H  -10.61000 22.47400 28.29800
H  -10.48000 20.99200 27.40200
H  -9.93200 19.78900 25.42400
H  -10.61800 19.65100 23.77500
H  -11.48000 20.63400 24.91800
H  -5.87500 25.08800 21.44200
H  -3.12500 25.24000 22.29100
H  -3.65500 23.21200 21.59900
H  -5.07900 23.18100 20.49300
H  -5.08900 22.52600 22.12900
H  -4.16100 27.90600 22.12200
H  -5.15700 27.07500 21.00600
H  -2.31900 26.40000 20.61500
H  -2.81400 28.14000 20.21400
H  -3.63900 26.70900 19.48900
H  -1.27500 28.62100 25.15400
H  -0.51600 28.79400 26.81200
H  -1.82800 29.88800 26.20200
H  -4.31100 28.40000 30.84500
H  -1.87800 25.98700 33.49000
H  -2.52100 27.22300 34.61000
H  -1.12800 27.51300 33.58400

