158

Mg 45.40200 3.46500 48.25400
C  43.14400 6.02200 47.16900
C  42.71300 1.18700 47.57400
C  47.56000 0.90600 48.54200
C  48.05900 5.77700 47.96600
N  43.28400 3.64200 47.32200
C  42.52200 4.76300 47.02600
C  41.03900 4.46700 46.65700
C  40.92900 2.92300 47.06900
C  42.44600 2.56900 47.34000
C  39.95400 2.77400 48.29000
C  40.59600 4.81000 45.21500
C  39.13800 5.33900 44.87800
H  38.59400 4.93700 43.52900
N  45.17100 1.28700 48.24900
C  44.01600 0.60800 47.95000
C  44.29100 -0.81800 48.19200
C  45.69900 -0.91400 48.47000
C  46.24100 0.47300 48.47300
C  43.29900 -1.93500 48.09100
C  46.42700 -2.20900 48.63200
O  45.82000 -3.27900 48.74000
C  47.89800 -2.26700 48.72900
N  47.49500 3.35700 48.04800
C  48.15300 2.17700 48.26900
C  49.60800 2.43000 48.70400
C  49.87700 3.94500 48.34200
C  48.42500 4.42800 48.18700
C  49.89500 1.99300 50.19100
C  50.68600 4.26200 47.03200
C  52.04800 4.97400 47.24900
N  45.61600 5.55500 47.78700
C  46.75900 6.31600 47.68200
C  46.34500 7.73600 47.41800
C  44.90200 7.64600 47.26600
C  44.52600 6.29400 47.46900
C  47.19400 8.93700 47.21000
C  43.73600 8.43100 46.92300
O  43.68200 9.61300 46.61800
C  42.50900 7.38700 46.84100
C  41.44100 7.77900 47.75600
O  41.27300 7.36300 48.93600
O  40.67600 8.79600 47.22100
C  39.75400 9.37900 48.19300
H  41.87700 0.48300 47.58200
H  48.34800 0.18800 48.77900
H  48.89700 6.47100 48.06400
H  40.43600 5.08800 47.32000
H  40.45000 2.37800 46.25600
H  38.93100 2.96400 47.96600
H  40.13700 3.51700 49.06500
H  40.01700 1.76700 48.70300
H  40.73300 3.87500 44.67100
H  41.38300 5.43400 44.79400
H  39.07600 6.42500 44.80400
H  38.43800 5.06400 45.66700
H  42.36500 -1.51600 47.71600
H  43.21000 -2.35000 49.09500
H  43.53700 -2.68600 47.33800
H  48.11900 -1.85600 47.74400
H  48.15100 -3.32700 48.73200
H  48.29100 -1.79900 49.63100
H  50.21800 1.83800 48.02200
H  50.36100 4.38500 49.21300
H  50.80400 1.41900 50.37300
H  49.06100 1.37500 50.52400
H  49.88500 2.78800 50.93700
H  50.10400 4.94900 46.41700
H  50.89000 3.36000 46.45500
H  52.83000 4.29500 46.90900
H  52.30900 5.19500 48.28400
H  52.26700 5.86700 46.66300
H  47.76200 8.83100 46.28500
H  47.92700 9.05300 48.00800
H  46.55600 9.81700 47.28900
H  42.04300 7.36500 45.85600
H  39.09300 8.66500 48.68600
H  39.00900 10.03300 47.73900
H  40.30500 10.00700 48.89200
Mg 16.60800 51.64700 24.87300
C  18.37000 50.53600 27.70000
C  14.10100 52.65500 26.95500
C  14.60000 52.18300 22.29600
C  18.95600 50.06200 22.83600
N  16.31700 51.49700 27.06400
C  17.24900 51.20700 27.97800
C  16.83000 51.63300 29.40100
C  15.32100 52.09700 29.12400
C  15.23400 52.14400 27.60900
C  14.28300 51.18900 29.89500
C  17.70400 52.84000 29.93600
C  17.93300 52.87400 31.51800
H  17.20800 52.03000 32.41500
N  14.67900 52.45600 24.67100
C  13.81400 52.85800 25.63900
C  12.64500 53.41300 25.02600
C  12.74300 53.26200 23.67800
C  14.06300 52.69400 23.47300
C  11.47000 54.05200 25.77800
C  11.71200 53.57500 22.64700
O  11.89600 53.36700 21.47400
C  10.33500 53.93400 23.04300
N  16.71400 51.29600 22.88700
C  15.81500 51.60600 21.97100
C  16.24900 51.33800 20.55600
C  17.70200 50.66200 20.73500
C  17.79500 50.70500 22.27500
C  15.22000 50.59000 19.66200
C  18.92000 51.40800 20.04600
C  19.88900 50.54100 19.15100
N  18.28400 50.47700 25.19500
C  19.24300 50.03400 24.22800
C  20.34000 49.40900 24.97100
C  20.04600 49.58100 26.33800
C  18.78100 50.28200 26.38000
C  21.62000 48.79800 24.35600
C  20.54200 49.40200 27.65600
O  21.62100 48.99900 28.02200
C  19.41600 49.94900 28.58400
C  18.91500 48.71700 29.33700
O  18.11800 47.89000 28.91400
O  19.34200 48.77600 30.68100
C  18.66100 47.85400 31.63400
H  13.40400 53.16100 27.62600
H  13.94500 52.30500 21.43100
H  19.73600 49.67100 22.17900
H  16.80400 50.74400 30.03000
H  15.21200 53.10800 29.51500
H  13.79300 50.71100 29.04600
H  13.63900 51.84900 30.47700
H  14.82200 50.57200 30.61300
H  17.17500 53.77600 29.75900
H  18.59100 52.68600 29.32100
H  17.94400 53.91900 31.82500
H  18.99900 52.68900 31.65400
H  10.64700 53.35000 25.90900
H  11.04300 54.96300 25.35800
H  11.81800 54.32200 26.77500
H  10.27200 54.96000 23.40700
H  9.99500 53.16500 23.73700
H  9.68500 53.94500 22.16800
H  16.33100 52.29200 20.03600
H  17.74400 49.61400 20.44200
H  14.74200 51.37200 19.07200
H  14.40400 50.08500 20.18100
H  15.72400 49.90000 18.98500
H  19.49100 52.00600 20.75700
H  18.61500 52.06400 19.23100
H  19.87900 50.92000 18.13000
H  19.57600 49.49800 19.19100
H  20.87200 50.78800 19.55300
H  22.15000 49.52700 23.74300
H  21.26000 47.96600 23.75100
H  22.30900 48.39500 25.09900
H  19.73300 50.73600 29.26800
H  18.42100 46.90100 31.16400
H  17.89400 48.31800 32.25500
H  19.45400 47.50300 32.29500

