158

Mg 25.85900 1.43500 29.89500
C  27.73300 1.24100 33.01400
C  23.08200 1.99000 31.83400
C  24.11600 1.39100 27.06200
C  28.69400 0.37200 28.21600
N  25.52000 1.30300 32.10500
C  26.40700 1.43400 33.24500
C  25.64300 1.54400 34.60100
C  24.21200 1.73900 34.10700
C  24.22500 1.62100 32.57200
C  23.16800 0.83700 34.80600
C  26.24000 2.66600 35.51900
C  26.40600 2.15800 36.99000
H  26.15800 3.13700 38.08800
N  23.89000 1.74800 29.46000
C  22.90200 1.91400 30.44200
C  21.60700 1.96100 29.70200
C  21.84300 1.61000 28.31100
C  23.30600 1.56700 28.25200
C  20.26100 2.08800 30.45900
C  20.89900 1.24300 27.22000
O  21.36800 0.78700 26.17600
C  19.45600 1.32100 27.44000
N  26.29400 0.81100 27.96100
C  25.43800 1.15100 26.92800
C  26.07000 0.99500 25.58400
C  27.53800 0.54900 25.96000
C  27.54900 0.49800 27.46700
C  25.42100 -0.05500 24.57300
C  28.67300 1.41800 25.24200
C  29.30300 2.62800 25.97800
N  27.86800 0.98600 30.42700
C  28.82900 0.47900 29.60600
C  30.04900 0.41100 30.40100
C  29.67600 0.68800 31.74400
C  28.35300 1.00900 31.71900
C  31.40600 0.16900 29.86200
C  30.23300 0.81800 33.09500
O  31.38800 0.85700 33.55100
C  28.95300 1.13300 34.01600
C  28.80400 0.01300 34.88200
O  28.23400 -1.04400 34.58900
O  29.32300 0.31400 36.11700
C  29.20400 -0.73700 37.15200
H  22.15900 2.23900 32.36200
H  23.52600 1.57100 26.16100
H  29.65000 0.04600 27.80000
H  25.75000 0.58200 35.10300
H  24.02200 2.80300 34.24700
H  22.37600 1.36100 35.34100
H  23.65000 0.02900 35.35800
H  22.64800 0.33100 33.99400
H  25.55800 3.51600 35.52500
H  27.09400 3.17100 35.06700
H  27.40700 1.74800 37.12300
H  25.65900 1.37100 37.09400
H  19.74700 3.02500 30.24500
H  20.38500 2.01700 31.54000
H  19.75500 1.16600 30.17400
H  19.22800 0.31600 27.79500
H  19.02400 1.52100 26.45900
H  19.12500 2.18500 28.01600
H  25.99700 1.93300 25.03300
H  27.65400 -0.45000 25.54200
H  24.48700 -0.39700 25.01700
H  25.98200 -0.98300 24.45900
H  25.34300 0.54100 23.66300
H  28.31300 1.82700 24.29800
H  29.43800 0.65400 25.10100
H  28.71000 2.77100 26.88200
H  29.17900 3.59900 25.50000
H  30.33600 2.39700 26.23600
H  31.48200 0.79900 28.97600
H  31.52200 -0.85500 29.50500
H  32.09400 0.37600 30.68200
H  29.18100 2.01900 34.60900
H  28.30600 -0.63700 37.76200
H  30.13700 -0.82700 37.70900
H  29.04500 -1.69700 36.66100
Mg 0.26800 43.57300 25.26400
C  2.37100 43.15400 28.20700
C  -2.44400 42.79900 27.29500
C  -1.52200 43.56100 22.51900
C  3.22300 43.96600 23.41700
N  0.04200 42.84100 27.55600
C  0.99400 42.96300 28.50000
C  0.37600 42.79700 29.89100
C  -1.13800 42.51500 29.52200
C  -1.18200 42.70900 28.01700
C  -1.74200 41.09600 29.73100
C  0.58500 43.98300 30.82400
C  0.83900 43.72000 32.29400
H  0.60100 42.34700 32.99200
N  -1.70800 43.22500 24.95200
C  -2.70700 43.00000 25.90400
C  -4.01700 43.06000 25.20000
C  -3.73100 43.27100 23.78200
C  -2.25800 43.36500 23.68900
C  -5.33500 43.01900 25.90100
C  -4.67400 43.32700 22.67700
O  -4.27500 43.27400 21.55700
C  -6.17600 43.27800 22.91100
N  0.75200 43.74700 23.29500
C  -0.15900 43.78700 22.31600
C  0.48700 43.88500 20.96800
C  1.89500 44.32700 21.28200
C  1.97500 43.93400 22.77800
C  0.36100 42.51000 20.14400
C  2.11300 45.79300 21.05100
C  3.36600 46.29000 20.21200
N  2.38600 43.46100 25.64300
C  3.40800 43.76800 24.81200
C  4.66200 43.92200 25.57800
C  4.27800 43.64100 26.88200
C  2.90100 43.38900 26.89400
C  5.97800 44.19100 24.99100
C  4.84300 43.54300 28.17200
O  5.95200 43.81800 28.65500
C  3.56100 43.31100 29.14400
C  3.81200 42.04900 29.94200
O  3.59600 40.91200 29.61300
O  4.35600 42.34700 31.12500
C  4.65300 41.20700 31.97500
H  -3.29100 42.83200 27.98400
H  -2.05100 43.66000 21.56900
H  4.08300 44.36600 22.87600
H  0.77300 41.89500 30.35600
H  -1.81100 43.22300 30.00400
H  -2.77800 41.17500 30.06200
H  -1.20100 40.52200 30.48300
H  -1.85100 40.58300 28.77600
H  -0.25000 44.68200 30.85500
H  1.36200 44.63300 30.42100
H  0.41200 44.46000 32.97100
H  1.89600 43.81000 32.54300
H  -5.27100 42.82800 26.97200
H  -5.95400 42.21200 25.50800
H  -5.90800 43.94600 25.88500
H  -6.56000 42.28400 23.14100
H  -6.53900 43.64200 21.95100
H  -6.48900 44.06200 23.60100
H  -0.08100 44.55000 20.31600
H  2.64100 43.73600 20.75200
H  -0.18700 41.85700 20.82300
H  1.27700 42.02400 19.80900
H  -0.33800 42.49000 19.30700
H  2.12500 46.32200 22.00400
H  1.27000 46.22500 20.51300
H  2.96600 46.95100 19.44300
H  3.90800 45.46400 19.75200
H  4.09300 46.80800 20.83800
H  6.58000 44.67100 25.76200
H  5.94300 44.67300 24.01400
H  6.50400 43.26700 24.74900
H  3.61600 44.21600 29.74900
H  5.48200 40.59000 31.63000
H  3.82100 40.53600 32.18900
H  5.04100 41.69600 32.86800

