158

Mg 35.90600 2.55900 30.69400
C  33.64700 3.71500 32.99100
C  38.35700 2.54400 33.12900
C  38.24700 1.56600 28.36100
C  33.54900 2.88200 28.14300
N  35.96000 3.08800 32.71600
C  34.91900 3.42400 33.50800
C  35.30100 3.27800 35.06500
C  36.82600 3.37600 34.86000
C  37.08700 2.97300 33.41600
C  37.48100 4.64100 35.35200
C  34.70500 2.01800 35.70800
C  34.44000 2.12100 37.26200
H  34.99200 3.34800 37.97100
N  38.05500 2.09700 30.70700
C  38.81600 2.15900 31.87500
C  40.16500 1.79400 31.57900
C  40.19500 1.35900 30.14200
C  38.82800 1.69300 29.64600
C  41.28000 1.84200 32.62000
C  41.23400 0.84200 29.31300
O  41.11600 0.50500 28.12200
C  42.59000 0.69000 29.89700
N  35.93000 2.49700 28.51500
C  36.96300 1.87800 27.80900
C  36.63300 1.56400 26.31700
C  35.12400 1.93700 26.26600
C  34.83600 2.51000 27.69800
C  37.62600 2.27200 25.33700
C  34.09500 0.84400 25.81800
C  34.37900 0.11500 24.51900
N  33.97400 3.23000 30.52600
C  33.14200 3.31600 29.42500
C  31.80900 3.72400 29.93000
C  31.93800 3.79800 31.33800
C  33.29700 3.62100 31.58900
C  30.55100 3.82500 29.03900
C  31.21700 4.07200 32.56600
O  30.04400 4.30500 32.65000
C  32.23700 3.89200 33.75000
C  31.94700 4.99100 34.67600
O  32.33000 6.15200 34.54700
O  31.14900 4.49400 35.71000
C  31.04400 5.42600 36.89000
H  39.06500 2.66900 33.95100
H  38.95300 1.30300 27.57000
H  32.75400 2.90100 27.39500
H  34.98100 4.13000 35.66400
H  37.27300 2.51600 35.35900
H  36.89000 5.08200 36.15500
H  37.62600 5.29500 34.49200
H  38.44300 4.45300 35.82900
H  35.32600 1.15300 35.47500
H  33.78200 1.77100 35.18300
H  34.81400 1.26700 37.82500
H  33.35400 2.08400 37.34600
H  41.36200 0.80800 32.95400
H  41.02100 2.53200 33.42300
H  42.16800 2.34400 32.23500
H  43.31100 0.30900 29.17400
H  42.50900 0.11000 30.81700
H  42.94500 1.68900 30.14900
H  36.71400 0.52900 25.98500
H  34.95000 2.82200 25.65400
H  37.15600 3.09900 24.80500
H  38.24600 1.63000 24.71100
H  38.26900 2.81600 26.02900
H  33.12500 1.29400 25.61000
H  34.01100 0.10800 26.61800
H  34.39800 -0.97200 24.59500
H  35.39700 0.38900 24.24100
H  33.62500 0.35500 23.77000
H  30.60700 3.06200 28.26200
H  30.34700 4.85400 28.74000
H  29.65900 3.44400 29.53600
H  31.90100 2.92800 34.13200
H  30.25500 4.93800 37.46200
H  30.71900 6.45100 36.71100
H  31.92900 5.37300 37.52400
Mg 54.95900 24.44400 44.41400
C  52.33200 26.58800 43.44800
C  53.00000 21.89100 43.30900
C  57.68100 22.62600 44.31700
C  56.77700 27.30800 45.31900
N  52.97200 24.31400 43.52700
C  51.98700 25.27300 43.22900
C  50.61000 24.69000 42.81600
C  50.84500 23.16900 43.26600
C  52.32700 23.10800 43.45500
C  50.24200 22.74700 44.61200
C  50.39900 24.81900 41.24700
C  48.95900 24.52900 40.82400
H  48.83000 24.47700 39.25600
N  55.27000 22.45800 44.06300
C  54.35500 21.54400 43.57100
C  54.96200 20.28300 43.49400
C  56.33300 20.48300 43.90500
C  56.48400 21.88100 44.09900
C  54.19800 19.08700 43.07700
C  57.27800 19.33800 44.03300
O  56.90700 18.17600 43.71500
C  58.70600 19.47400 44.42600
N  57.02400 24.98200 44.60100
C  57.91700 23.94300 44.60500
C  59.28800 24.59500 44.78300
C  58.98100 26.00600 45.39400
C  57.48300 26.11900 45.10200
C  60.28500 23.71200 45.63200
C  59.91800 27.20600 45.01700
C  60.84100 27.60500 46.29600
N  54.65100 26.53900 44.46900
C  55.42200 27.52300 45.07600
C  54.73000 28.71100 45.07800
C  53.47900 28.42200 44.48100
C  53.55000 27.12100 44.08800
C  55.23800 30.03100 45.63300
C  52.18700 28.94300 44.10900
O  51.65600 30.02300 44.22900
C  51.45000 27.73400 43.37300
C  51.09200 28.19000 41.92100
O  51.89500 28.16400 41.03000
O  49.71200 28.23700 41.82400
C  49.27300 28.61400 40.47500
H  52.32800 21.03500 43.21900
H  58.58300 22.03900 44.13800
H  57.35100 28.08600 45.82700
H  49.71900 25.11100 43.28200
H  50.46500 22.50700 42.48800
H  51.00400 22.46200 45.33700
H  49.66800 21.83800 44.42800
H  49.65000 23.54700 45.05700
H  51.09300 24.11800 40.78300
H  50.83500 25.76000 40.90900
H  48.32100 25.31700 41.22500
H  48.71100 23.60900 41.35300
H  54.77100 18.57300 42.30500
H  53.25300 19.38600 42.62500
H  54.00400 18.46100 43.94900
H  59.21900 19.98400 43.61100
H  59.19000 18.51600 44.61700
H  58.75400 20.13800 45.29000
H  59.75900 24.71800 43.80800
H  58.97000 25.91500 46.48000
H  59.89200 22.69900 45.71800
H  60.35400 24.19400 46.60700
H  61.28200 23.60200 45.20600
H  59.28600 28.04700 44.73000
H  60.48100 26.95000 44.11900
H  61.75300 27.93500 45.79800
H  60.95400 26.79100 47.01200
H  60.40100 28.46400 46.80200
H  55.56000 30.75400 44.88400
H  56.21100 29.86200 46.09400
H  54.59900 30.49900 46.38100
H  50.56600 27.52400 43.97600
H  49.58400 29.63100 40.23700
H  48.21200 28.39500 40.35400
H  49.81400 27.87200 39.89000

