158

Mg 26.32600 51.44000 25.42300
C  23.96300 52.59100 27.77000
C  28.41400 50.79200 27.94500
C  28.41800 50.54400 23.16300
C  24.01400 52.71900 22.90600
N  26.20600 51.74100 27.58100
C  25.17800 52.12000 28.29600
C  25.36600 51.88600 29.78300
C  26.87700 51.54300 29.86000
C  27.24700 51.37200 28.34400
C  27.84900 52.67400 30.47000
C  24.41700 50.75200 30.35000
C  23.57400 51.07700 31.59000
H  23.97600 50.47100 32.94400
N  28.20100 50.78800 25.55900
C  28.91200 50.51000 26.68400
C  30.21700 50.04900 26.28700
C  30.27300 50.02300 24.86600
C  28.90400 50.39200 24.46900
C  31.23700 49.83300 27.44300
C  31.44400 49.71500 23.92100
O  31.38300 49.95500 22.69200
C  32.70700 49.22900 24.51900
N  26.25000 51.80700 23.29800
C  27.27100 51.21100 22.63800
C  26.99800 51.24300 21.12300
C  25.45000 51.75000 21.05500
C  25.21800 52.10300 22.52300
C  28.11200 52.06300 20.19600
C  24.34900 50.82900 20.51700
C  23.27700 51.40600 19.56400
N  24.35700 52.46700 25.31600
C  23.56500 52.84400 24.22800
C  22.33400 53.38400 24.65100
C  22.35000 53.31100 26.04000
C  23.65200 52.76600 26.37200
C  21.26100 53.95200 23.74100
C  21.71800 53.49300 27.35000
O  20.62400 53.86200 27.61200
C  22.71700 53.08100 28.53500
C  23.05000 54.09800 29.52000
O  23.90300 54.96300 29.44700
O  22.31300 53.88700 30.66900
C  22.24500 54.89000 31.74200
H  29.04300 50.44800 28.76900
H  28.96500 49.99400 22.39400
H  23.24600 52.84900 22.14200
H  25.29200 52.80200 30.36900
H  26.99100 50.58000 30.35800
H  27.28400 53.57500 30.70900
H  28.58100 53.01400 29.73700
H  28.17600 52.44000 31.48300
H  25.05900 49.87500 30.42000
H  23.76400 50.41200 29.54600
H  22.58700 50.66300 31.38200
H  23.36600 52.14500 31.65100
H  30.79900 49.26600 28.26400
H  31.31600 50.84500 27.84000
H  32.24300 49.45100 27.26700
H  33.01100 50.16100 24.99500
H  33.33700 48.97300 23.66700
H  32.56600 48.31100 25.08900
H  26.97800 50.21800 20.75200
H  25.42100 52.66900 20.47100
H  28.94100 52.21800 20.88500
H  27.74500 53.03700 19.87200
H  28.59100 51.51000 19.38800
H  23.74500 50.38000 21.30600
H  24.77700 49.95800 20.02100
H  23.23500 50.88700 18.60600
H  23.48800 52.46800 19.44400
H  22.30100 51.33800 20.04500
H  20.57600 54.58600 24.30400
H  20.81600 53.18200 23.11000
H  21.75300 54.72800 23.15600
H  22.17900 52.29200 29.06100
H  23.10000 55.56200 31.66000
H  22.23700 54.45100 32.73900
H  21.40500 55.58500 31.70200
Mg 6.96400 54.62000 40.70300
C  7.09200 51.10200 40.59000
C  10.18700 54.80900 39.74700
C  6.73900 58.01700 40.44200
C  3.44500 54.35700 41.16200
N  8.38500 53.16800 40.15800
C  8.32700 51.74300 40.25500
C  9.71500 51.04200 40.04800
C  10.71100 52.28600 40.22300
C  9.72900 53.54100 39.99000
C  11.27700 52.46400 41.66900
C  9.72400 50.33400 38.65400
C  9.20000 51.16800 37.53500
H  7.77600 51.09200 37.00800
N  8.28500 56.24300 40.13700
C  9.59800 56.08000 39.79200
C  10.18300 57.32800 39.39100
C  9.21700 58.29300 39.62400
C  8.02100 57.55500 40.11900
C  11.57000 57.58300 38.69800
C  9.38200 59.76900 39.40400
O  10.48800 60.12300 39.09600
C  8.26700 60.79900 39.56000
N  5.30700 55.97600 40.80000
C  5.51800 57.29800 40.64100
C  4.17300 58.06100 40.73800
C  3.10000 56.90800 40.88000
C  3.96400 55.64300 40.90900
C  4.16500 59.17100 41.86700
C  2.00200 56.93300 39.74300
C  0.55500 57.29800 40.21500
N  5.52600 53.03500 40.89200
C  4.14500 53.07200 41.13100
C  3.69800 51.70500 41.26500
C  4.85100 50.92900 41.12600
C  5.85100 51.75700 40.83200
C  2.26200 51.33800 41.81600
C  5.22300 49.60600 41.33600
O  4.61400 48.64500 41.87000
C  6.74200 49.60400 40.76000
C  6.58100 48.81300 39.50300
O  5.81200 49.04800 38.63200
O  7.13800 47.51700 39.54400
C  6.80900 46.60200 38.46700
H  11.26000 54.72300 39.56100
H  6.49300 59.08100 40.42500
H  2.36100 54.30400 41.28200
H  9.81600 50.32000 40.85800
H  11.51100 52.18800 39.49000
H  12.34000 52.24700 41.56300
H  10.91600 51.80100 42.45500
H  11.10800 53.46200 42.07300
H  9.25900 49.36400 38.82500
H  10.72600 49.98100 38.41200
H  9.78100 50.87500 36.66100
H  9.56000 52.16100 37.80100
H  11.40600 58.15600 37.78500
H  12.06700 56.63600 38.48300
H  12.25800 58.08700 39.37800
H  7.43100 60.40500 38.98200
H  8.65400 61.76800 39.24400
H  8.00900 60.75200 40.61800
H  4.02300 58.45200 39.73200
H  2.70300 57.05300 41.88400
H  4.99700 58.96300 42.54000
H  3.25000 59.21300 42.45700
H  4.47700 60.11500 41.42000
H  2.00900 55.91400 39.35800
H  2.22800 57.62700 38.93200
H  -0.08600 56.43500 40.03500
H  0.25800 58.18400 39.65400
H  0.59700 57.56600 41.27100
H  1.62100 51.37800 40.93500
H  1.89900 52.10200 42.50400
H  2.29900 50.33400 42.23800
H  7.38100 49.05600 41.45300
H  7.47700 45.74100 38.50700
H  7.00800 47.01000 37.47600
H  5.79300 46.28200 38.69600

