158

Mg 48.21800 24.84300 29.70600
C  49.32000 27.33200 31.96600
C  46.52800 23.23100 32.35300
C  47.70500 22.30800 27.64200
C  50.04100 26.52300 27.26800
N  48.16500 25.18000 31.92200
C  48.55700 26.33700 32.56500
C  48.14000 26.26600 34.03700
C  47.54500 24.83100 34.17000
C  47.34100 24.37200 32.75000
C  48.45200 23.81000 34.87200
C  47.15200 27.44200 34.44900
C  47.72800 28.36000 35.50600
H  46.87100 28.57300 36.73000
N  47.11800 23.05300 29.93600
C  46.50500 22.60700 31.05400
C  45.74600 21.40100 30.67300
C  46.09000 21.06300 29.32500
C  47.05800 22.15800 28.91100
C  44.99100 20.53000 31.70100
C  45.67500 19.90700 28.52900
O  46.14700 19.70200 27.43400
C  44.63800 19.10000 28.98300
N  48.96000 24.43000 27.79100
C  48.45000 23.32400 27.14300
C  48.82900 23.41700 25.63200
C  49.27300 24.93100 25.42700
C  49.43600 25.32400 26.88100
C  49.90400 22.34300 25.26800
C  48.20400 25.86600 24.88600
C  48.77700 27.04100 23.98000
N  49.31000 26.60400 29.53800
C  49.98000 27.11200 28.49900
C  50.71500 28.33400 28.86200
C  50.39700 28.50600 30.26600
C  49.54000 27.38900 30.57600
C  51.58300 29.12700 28.00500
C  50.72300 29.33900 31.44100
O  51.37500 30.36800 31.53100
C  50.04200 28.52500 32.63200
C  51.07100 28.22100 33.69500
O  51.89000 27.33700 33.63200
O  51.01700 29.10700 34.74100
C  51.99600 29.01300 35.82100
H  45.99200 22.74600 33.17100
H  47.40100 21.47700 27.00200
H  50.53200 27.07300 26.46200
H  49.05000 26.33300 34.63400
H  46.55400 24.79000 34.62200
H  48.65200 22.97600 34.19900
H  47.88200 23.26800 35.62700
H  49.40700 24.19500 35.23000
H  46.24300 26.91800 34.74300
H  46.93400 27.99200 33.53300
H  47.88900 29.35500 35.09100
H  48.75300 28.18000 35.83200
H  45.23600 20.74900 32.74000
H  45.31900 19.49100 31.73700
H  43.91400 20.52800 31.53100
H  43.80500 19.75500 29.23900
H  45.03800 18.60900 29.87000
H  44.30200 18.40000 28.21700
H  47.95800 23.23900 25.00000
H  50.21000 25.10600 24.89800
H  49.42300 21.36500 25.26500
H  50.59100 22.00500 26.04400
H  50.36900 22.41200 24.28500
H  47.73700 26.43000 25.69400
H  47.51600 25.25100 24.30500
H  49.58400 26.58900 23.40200
H  49.12500 27.83100 24.64600
H  47.96300 27.30900 23.30700
H  51.29000 28.97700 26.96600
H  52.62500 28.87700 28.20200
H  51.38700 30.14900 28.32900
H  49.39800 29.28700 33.07000
H  52.01000 29.98300 36.31800
H  52.98800 28.76900 35.43900
H  51.58300 28.28800 36.52200
Mg 10.12200 46.95200 25.20300
C  7.52800 47.31300 27.51600
C  12.30200 48.32100 27.28900
C  12.32300 46.85700 22.64300
C  7.52000 46.11800 22.71800
N  9.91200 47.68600 27.23000
C  8.81200 47.69100 28.04300
C  9.22000 48.04200 29.47300
C  10.67600 48.60900 29.26700
C  10.97100 48.29500 27.80000
C  10.86700 50.13500 29.53400
C  9.00100 46.95300 30.63600
C  9.61000 47.21400 32.01300
H  8.79200 46.55200 33.16400
N  12.02600 47.42300 25.01600
C  12.79700 47.90700 26.02000
C  14.24800 47.82300 25.55600
C  14.17200 47.26200 24.27600
C  12.77500 47.17300 23.94300
C  15.35900 48.18500 26.53500
C  15.38800 46.76100 23.40400
O  15.25600 46.30700 22.29800
C  16.78000 46.77600 24.01100
N  9.88400 46.45700 22.99700
C  11.04900 46.56900 22.22500
C  10.58400 46.30600 20.75400
C  9.14400 45.64400 20.86400
C  8.80700 46.05700 22.25900
C  10.80400 47.55400 19.85500
C  9.14500 44.06700 20.62400
C  9.01600 43.24300 21.93100
N  7.99500 46.71200 25.07400
C  7.15500 46.33700 24.07900
C  5.84600 46.21000 24.54900
C  5.95700 46.50800 25.91800
C  7.28000 46.94100 26.15500
C  4.60500 45.79800 23.68500
C  5.15000 46.55400 27.11700
O  3.99700 46.27800 27.34500
C  6.18100 47.07800 28.18700
C  6.24100 46.00500 29.19000
O  6.95400 45.00400 29.10500
O  5.34000 46.27400 30.19500
C  5.05600 45.22900 31.11700
H  13.08200 48.60600 27.99800
H  12.97600 46.92400 21.77100
H  6.78600 45.69000 22.03300
H  8.55000 48.88300 29.65100
H  11.35500 48.10200 29.95200
H  11.59500 50.23500 30.33900
H  9.93900 50.58700 29.88400
H  11.26100 50.52200 28.59500
H  9.26900 45.99800 30.18600
H  7.92300 47.01000 30.78700
H  9.81500 48.28000 32.10500
H  10.53300 46.63300 32.01600
H  15.04800 48.51100 27.52800
H  16.00500 48.97600 26.15300
H  15.97800 47.31000 26.73500
H  16.77000 46.13000 24.88900
H  17.06300 47.80800 24.21900
H  17.50600 46.35800 23.31400
H  11.29700 45.56500 20.39300
H  8.41800 46.02300 20.14400
H  9.83100 47.92500 19.53200
H  11.49900 47.39900 19.02900
H  11.29900 48.40000 20.33200
H  10.05200 43.81700 20.07400
H  8.25100 43.86900 20.03300
H  9.14800 43.80800 22.85400
H  9.66100 42.36400 21.93300
H  8.00600 42.83200 21.95200
H  5.04500 44.99300 23.09700
H  4.23000 46.65600 23.12700
H  3.80300 45.38000 24.29300
H  5.86500 47.99300 28.68800
H  4.52500 44.33600 30.78500
H  4.41000 45.76600 31.81100
H  5.88800 44.90200 31.74000

