158

Mg 49.56400 34.42500 27.77100
C  47.24800 33.69800 30.41100
C  50.23100 37.44400 29.48000
C  51.25800 35.23600 25.16000
C  48.40700 31.49600 26.07100
N  48.92000 35.36900 29.76800
C  47.95000 34.91300 30.62900
C  47.91700 35.75700 31.91400
C  48.62300 37.09000 31.39200
C  49.34200 36.56100 30.13800
C  47.75700 38.32300 31.12800
C  48.69800 35.14800 33.12400
C  47.90800 35.23600 34.43500
H  48.39300 36.20900 35.47100
N  50.62500 36.08700 27.39400
C  50.86300 37.18800 28.18800
C  51.76800 38.07100 27.52000
C  52.03500 37.52300 26.32100
C  51.34100 36.21300 26.28000
C  51.94200 39.45500 28.00900
C  52.62900 38.19400 25.04900
O  52.73200 37.55200 23.99200
C  53.12300 39.58700 25.07500
N  49.73700 33.54500 25.82800
C  50.56200 34.06900 24.92500
C  50.55900 33.28600 23.53700
C  49.90400 31.99100 23.98300
C  49.34300 32.29300 25.42000
C  49.81400 34.14700 22.48000
C  50.96500 30.80200 23.93000
C  50.52800 29.45300 23.30800
N  48.10300 32.89600 28.04600
C  47.75400 31.79300 27.23400
C  46.69300 31.02200 27.99000
C  46.43500 31.83400 29.12000
C  47.36300 32.86400 29.17700
C  46.09100 29.76700 27.65900
C  45.57500 31.86300 30.33900
O  44.74400 31.01800 30.71100
C  46.01600 33.17600 31.13300
C  46.29000 32.56200 32.52900
O  47.39600 32.41600 32.92200
O  45.12200 32.35900 33.24400
C  45.34900 31.87600 34.64100
H  50.29100 38.45900 29.87800
H  51.77900 35.49200 24.23500
H  47.99100 30.57500 25.65700
H  46.85900 35.91300 32.12300
H  49.37000 37.45900 32.09500
H  47.92300 38.70800 30.12200
H  47.91800 39.17800 31.78500
H  46.68300 38.15600 31.20900
H  49.55300 35.79300 33.32600
H  49.02200 34.12700 32.91800
H  48.08200 34.27500 34.91800
H  46.82700 35.35100 34.36200
H  51.49800 39.63900 28.98800
H  51.44500 40.19900 27.38700
H  53.02500 39.56000 27.94300
H  52.28300 40.25000 25.28000
H  53.28500 39.83100 24.02500
H  53.97300 39.74500 25.73800
H  51.56300 33.30600 23.11100
H  49.03300 31.79800 23.35700
H  50.48400 34.63200 21.77000
H  49.22900 34.93200 22.96100
H  49.03300 33.61200 21.94000
H  51.37200 30.60000 24.92100
H  51.82900 31.17300 23.37900
H  49.54500 29.50000 22.83900
H  50.35400 28.67600 24.05300
H  51.25300 29.16900 22.54500
H  45.81800 29.83600 26.60600
H  45.15900 29.71100 28.22200
H  46.88800 29.04700 27.84200
H  45.11400 33.78400 31.20000
H  45.89600 30.93600 34.56700
H  44.43400 31.67200 35.19700
H  46.03400 32.58300 35.10900
Mg -5.44900 25.81500 25.69000
C  -4.09500 27.00800 28.66600
C  -7.01900 23.32800 27.57000
C  -6.41800 24.36400 22.88200
C  -3.07600 27.71400 23.97300
N  -5.56200 25.26500 27.88800
C  -4.95000 25.93000 28.93600
C  -5.41200 25.39600 30.29400
C  -6.01100 23.94400 29.91300
C  -6.22800 24.15900 28.38000
C  -5.18400 22.74600 30.41200
C  -6.42300 26.23800 31.07000
C  -6.12300 26.59700 32.52300
H  -5.30600 25.54300 33.35500
N  -6.72000 24.17200 25.31200
C  -7.30400 23.32000 26.17500
C  -8.12300 22.34700 25.44500
C  -8.03600 22.69200 24.05900
C  -6.99300 23.79300 24.06300
C  -8.93600 21.20500 26.07200
C  -8.80900 22.16500 22.81000
O  -8.54700 22.50400 21.66500
C  -9.83200 21.18100 22.91600
N  -4.73200 25.87700 23.73500
C  -5.40300 25.27200 22.79600
C  -4.79000 25.63700 21.40300
C  -3.85700 26.81300 21.72600
C  -3.87100 26.87300 23.22000
C  -4.08600 24.40800 20.72100
C  -4.29700 28.23000 21.15800
C  -3.33400 28.98200 20.20700
N  -3.88800 27.15700 26.14300
C  -3.02400 27.82600 25.31400
C  -2.38900 28.82100 26.17600
C  -2.79400 28.56300 27.47200
C  -3.67300 27.52700 27.41400
C  -1.57000 29.98800 25.73300
C  -2.60100 28.92600 28.83800
O  -1.85100 29.75800 29.39000
C  -3.31400 27.85400 29.66100
C  -2.51700 27.09800 30.63300
O  -1.90500 26.05100 30.40300
O  -2.47900 27.82500 31.78700
C  -1.39200 27.52700 32.69100
H  -7.51300 22.53200 28.13000
H  -6.74600 23.85900 21.97100
H  -2.57000 28.43300 23.32600
H  -4.51900 25.19600 30.88700
H  -6.98700 23.77200 30.36700
H  -5.08500 21.97300 29.64900
H  -5.64300 22.27100 31.27900
H  -4.18200 23.05100 30.71400
H  -7.38900 25.73400 31.06300
H  -6.63200 27.17900 30.56200
H  -7.14800 26.67100 32.88600
H  -5.58300 27.53100 32.67600
H  -8.37600 20.72000 26.87200
H  -9.26800 20.38900 25.43100
H  -9.76100 21.74000 26.54300
H  -9.43600 20.18000 23.08900
H  -10.41200 21.16600 21.99300
H  -10.56100 21.35900 23.70700
H  -5.54500 25.92600 20.67200
H  -2.88000 26.54500 21.32300
H  -4.27400 23.51200 21.31300
H  -3.03700 24.47900 20.43200
H  -4.67300 24.23300 19.82000
H  -4.49200 28.88100 22.01100
H  -5.23700 28.07900 20.62800
H  -2.37900 28.47700 20.06100
H  -3.19900 30.00500 20.55700
H  -3.69500 28.90100 19.18200
H  -0.54300 29.63500 25.63900
H  -1.72000 30.85300 26.37900
H  -1.88900 30.21100 24.71500
H  -4.09400 28.37300 30.21900
H  -0.45500 27.43300 32.14200
H  -1.59100 26.65300 33.31100
H  -1.34100 28.39100 33.35300

