158

Mg 46.69600 15.82800 28.42800
C  44.93100 15.23700 31.40400
C  49.01500 17.67500 30.23700
C  48.19500 16.94600 25.51000
C  44.07400 14.48000 26.52800
N  46.88100 16.39300 30.56300
C  46.09200 16.02400 31.60500
C  46.61300 16.55400 32.95100
C  47.77800 17.44900 32.53500
C  47.91900 17.13700 31.02100
C  47.59200 19.00900 32.90000
C  46.98200 15.47600 33.99800
C  46.24100 15.44000 35.32700
H  45.98600 16.75300 35.99500
N  48.39400 17.06400 27.96000
C  49.26600 17.61200 28.88100
C  50.36000 18.26200 28.22500
C  50.14600 18.13800 26.80800
C  48.90200 17.33200 26.69000
C  51.55600 18.71400 29.03500
C  50.98200 18.69300 25.70900
O  50.73800 18.40200 24.52100
C  52.15600 19.54800 25.98700
N  46.22700 15.63800 26.30600
C  46.94400 16.24500 25.30700
C  46.36100 15.90800 23.88600
C  45.18100 14.93500 24.29100
C  45.12900 15.03000 25.79500
C  45.88600 17.20800 23.15400
C  45.21300 13.44800 23.84100
C  46.53900 12.81500 24.12500
N  44.89200 14.91600 28.86000
C  43.91300 14.39200 27.99300
C  42.83200 13.84700 28.77000
C  43.24700 14.10100 30.12900
C  44.46700 14.80000 30.17400
C  41.54200 13.15900 28.31800
C  42.78800 13.93900 31.43900
O  41.72200 13.51700 31.86800
C  43.86400 14.57800 32.33800
C  43.16300 15.56800 33.22700
O  43.05400 16.80100 32.99900
O  42.69400 14.95200 34.35400
C  42.08900 15.85200 35.29900
H  49.67400 18.18900 30.94100
H  48.50100 17.31900 24.53000
H  43.26400 13.94400 26.02800
H  45.88700 17.28200 33.31300
H  48.73800 17.25600 33.01400
H  46.57900 19.26700 33.20900
H  47.73800 19.66300 32.04100
H  48.29300 19.33700 33.66700
H  48.04400 15.50200 34.24300
H  46.83000 14.52200 33.49400
H  46.86500 14.88200 36.02600
H  45.24800 14.99200 35.35200
H  51.71700 19.79200 29.02300
H  52.33300 18.14200 28.52700
H  51.53200 18.37900 30.07100
H  53.00300 18.88300 26.15600
H  51.79600 20.05800 26.88000
H  52.45900 20.23400 25.19600
H  47.13600 15.43300 23.28500
H  44.24500 15.22200 23.81100
H  46.61600 17.56100 22.42600
H  45.71000 18.02900 23.84900
H  45.11600 16.98800 22.41400
H  44.92400 13.35600 22.79400
H  44.42500 12.87800 24.33200
H  47.29900 13.54900 24.39400
H  46.74900 12.31200 23.18100
H  46.46700 12.06300 24.91000
H  41.29100 13.48600 27.30900
H  40.72900 13.49900 28.96000
H  41.64100 12.07300 28.32000
H  44.41900 13.81400 32.88200
H  42.00100 15.43800 36.30400
H  41.12300 16.24600 34.98500
H  42.72600 16.69200 35.57700
Mg 6.35100 54.80100 41.09900
C  5.55500 51.29100 40.92800
C  9.61700 53.96800 40.21700
C  7.01400 58.02500 41.00900
C  2.90300 55.33800 41.46400
N  7.40700 52.84000 40.40500
C  6.89200 51.58300 40.46800
C  7.85400 50.58700 39.89800
C  9.19600 51.36000 39.91700
C  8.74500 52.83600 40.22900
C  10.21500 51.00200 40.99500
C  7.49400 49.96400 38.47700
C  7.77500 50.79000 37.20200
H  6.89000 50.44200 36.00600
N  8.08700 55.81800 40.72300
C  9.31300 55.33000 40.42800
C  10.28300 56.45100 40.34200
C  9.53700 57.61100 40.58300
C  8.18200 57.18400 40.86800
C  11.72200 56.22400 39.99500
C  10.10000 58.99800 40.56700
O  11.28600 59.15900 40.40000
C  9.34400 60.30000 40.75400
N  5.06600 56.46800 41.18300
C  5.61200 57.70000 41.15400
C  4.60200 58.80400 41.38900
C  3.22300 57.94500 41.56600
C  3.70400 56.49100 41.40400
C  4.94800 59.76800 42.59700
C  2.07600 58.41000 40.54800
C  0.80300 59.00100 41.12300
N  4.53800 53.61800 41.25400
C  3.25800 53.96900 41.53800
C  2.44900 52.74100 41.94400
C  3.34500 51.78900 41.74400
C  4.60000 52.27800 41.27500
C  1.05100 52.70500 42.53900
C  3.47300 50.37500 41.94900
O  2.74500 49.52300 42.42900
C  4.79400 49.99000 41.31200
C  4.44000 49.26700 40.10600
O  3.76100 49.73000 39.16300
O  4.72300 47.92400 40.27900
C  4.44800 47.05100 39.08800
H  10.65600 53.80000 39.92700
H  7.21900 59.09400 40.92300
H  1.88300 55.58900 41.76200
H  7.81200 49.70500 40.53700
H  9.75100 51.23400 38.98700
H  10.41700 51.80500 41.70400
H  11.11300 50.74300 40.43600
H  9.78500 50.12400 41.47700
H  6.45700 49.64200 38.56800
H  8.02300 49.02200 38.33300
H  8.85700 50.75500 37.07200
H  7.60900 51.84500 37.42000
H  12.31400 57.13500 40.07800
H  11.74600 55.90800 38.95200
H  12.11400 55.46600 40.67300
H  8.73300 60.62800 39.91300
H  10.08900 61.09600 40.75600
H  8.81200 60.24000 41.70300
H  4.52400 59.45800 40.52000
H  2.74600 58.05800 42.54000
H  4.94300 60.83400 42.37100
H  5.88900 59.52300 43.08900
H  4.24500 59.50400 43.38600
H  1.71100 57.58200 39.94100
H  2.47000 59.20400 39.91300
H  0.98200 59.19500 42.18100
H  -0.06600 58.35400 41.00000
H  0.57700 59.94400 40.62600
H  1.17100 52.17000 43.48100
H  0.29900 52.12000 42.01000
H  0.61400 53.68200 42.74700
H  5.46800 49.42500 41.95600
H  5.22000 46.28600 39.00600
H  4.29400 47.52700 38.11900
H  3.51600 46.53600 39.32100

