158

Mg 43.78600 41.76600 26.48400
C  42.73700 44.18000 28.83000
C  44.73900 39.79200 29.06900
C  44.77800 39.59500 24.22800
C  43.17900 44.24200 23.99000
N  43.89100 42.12200 28.71700
C  43.25200 43.07700 29.45200
C  43.15200 42.64500 30.96100
C  44.11400 41.43600 31.00700
C  44.37400 41.13400 29.50100
C  45.44800 41.66700 31.83700
C  41.63300 42.56900 31.37400
C  41.27700 41.70300 32.56900
H  40.61600 42.32400 33.84700
N  44.67700 39.97300 26.64900
C  44.95800 39.26400 27.79400
C  45.40300 37.90800 27.43900
C  45.52500 37.89000 26.05200
C  45.02100 39.15200 25.55500
C  45.74200 36.73400 28.48700
C  45.98000 36.73200 25.14500
O  45.88600 36.70100 23.91000
C  46.55400 35.46600 25.79100
N  43.92900 41.91200 24.34700
C  44.38600 40.87300 23.64800
C  44.33500 41.13700 22.12700
C  43.79400 42.64400 22.09600
C  43.60600 42.99200 23.52200
C  45.75300 41.02300 21.38000
C  42.52300 42.89300 21.20300
C  42.66100 43.98900 20.28000
N  43.08000 43.69900 26.33700
C  42.90000 44.58800 25.29100
C  42.32700 45.83300 25.76100
C  42.24900 45.67900 27.14700
C  42.77100 44.43100 27.46900
C  42.01100 46.93400 24.92800
C  41.90600 46.46700 28.40400
O  41.48000 47.56400 28.56400
C  42.11700 45.37500 29.55500
C  42.96500 45.99100 30.55500
O  44.11200 46.40900 30.41900
O  42.15500 46.25700 31.72400
C  42.82400 46.89500 32.87900
H  45.05100 39.04900 29.80600
H  45.02400 38.89300 23.42800
H  43.08800 45.05600 23.26800
H  43.54800 43.52500 31.46800
H  43.67300 40.55300 31.47100
H  46.34100 41.33300 31.30900
H  45.32500 40.99900 32.69000
H  45.52500 42.68900 32.21000
H  41.04100 42.14300 30.56400
H  41.37400 43.61600 31.53000
H  42.07500 41.04800 32.92000
H  40.55800 40.94600 32.25400
H  44.96600 35.98400 28.64000
H  45.85500 37.32300 29.39700
H  46.76000 36.35900 28.37700
H  46.93400 34.86500 24.96500
H  45.79000 34.95400 26.37500
H  47.40500 35.62800 26.45300
H  43.59100 40.49300 21.65900
H  44.61300 43.28900 21.77800
H  46.52800 41.38700 22.05500
H  45.77300 41.59100 20.45000
H  45.79600 39.96900 21.10800
H  41.76400 43.23100 21.90800
H  42.18200 41.99500 20.68800
H  43.64200 44.06600 19.81100
H  42.29100 44.90700 20.73600
H  42.02200 43.73900 19.43300
H  42.97800 47.43100 24.84400
H  41.39100 47.62200 25.50200
H  41.58400 46.65100 23.96600
H  41.12700 45.17800 29.96500
H  42.73900 46.29000 33.78200
H  42.55100 47.92600 33.10400
H  43.89100 46.93900 32.65900
Mg 6.21800 52.93800 41.77800
C  5.53200 49.40500 41.40900
C  9.07600 52.50900 40.07400
C  6.49800 56.14000 41.83500
C  3.00500 53.16700 43.29800
N  7.12600 51.19400 40.91200
C  6.71100 49.93100 40.82000
C  7.68200 49.13800 39.92100
C  8.98900 49.99300 39.92200
C  8.37400 51.35900 40.30500
C  9.97700 49.41800 40.94900
C  7.00600 49.02900 38.53400
C  7.46500 47.81300 37.78800
H  7.92500 48.08200 36.30500
N  7.61900 54.24300 41.05700
C  8.74400 53.84100 40.41600
C  9.53100 55.03600 40.09000
C  8.77600 56.19200 40.50500
C  7.57000 55.53800 41.17100
C  10.79300 54.98500 39.29100
C  9.14200 57.65100 40.28600
O  10.23100 57.98400 39.74700
C  8.06100 58.69400 40.46700
N  4.79800 54.44700 42.22000
C  5.29800 55.71900 42.32400
C  4.35900 56.64300 42.98200
C  3.24000 55.70700 43.49900
C  3.70000 54.29700 43.01800
C  4.88200 57.69900 44.09000
C  1.81200 56.15900 43.08300
C  0.74900 55.95800 44.07200
N  4.52600 51.60200 42.19600
C  3.33300 51.86600 42.83600
C  2.63400 50.62700 43.19100
C  3.44100 49.60600 42.59200
C  4.63000 50.26400 42.05800
C  1.37500 50.43800 43.90400
C  3.63500 48.16400 42.49000
O  2.95700 47.28200 42.93700
C  4.96000 47.92900 41.57100
C  4.59200 47.18300 40.36300
O  3.50400 47.28200 39.82400
O  5.51200 46.21900 40.12500
C  5.09500 45.04100 39.36000
H  10.04200 52.41600 39.57400
H  6.65300 57.21300 41.96000
H  2.00200 53.33100 43.69800
H  7.85900 48.19900 40.44400
H  9.51300 50.03400 38.96700
H  10.91200 49.24800 40.41400
H  9.67900 48.46300 41.38000
H  10.26000 50.21500 41.63600
H  7.24400 49.86500 37.87500
H  5.94600 48.84100 38.69900
H  6.67600 47.07600 37.63300
H  8.26900 47.35500 38.36500
H  11.20300 54.04300 38.92700
H  11.53700 55.32700 40.01000
H  10.77200 55.67400 38.44600
H  8.47600 59.59900 40.02200
H  8.04200 59.05100 41.49700
H  7.09600 58.39500 40.05900
H  4.02200 57.29000 42.17200
H  3.43300 55.58400 44.56400
H  5.85400 58.17400 43.95400
H  4.61300 57.46000 45.11900
H  4.22100 58.49400 43.74500
H  1.60500 55.66700 42.13200
H  1.88100 57.24600 43.02800
H  0.09200 55.17700 43.68700
H  0.15600 56.84000 44.31100
H  1.09300 55.46100 44.97900
H  1.35300 51.15600 44.72400
H  1.31900 49.43100 44.31700
H  0.51100 50.57500 43.25400
H  5.63700 47.32600 42.17600
H  4.03300 44.84400 39.50300
H  5.75700 44.25400 39.72300
H  5.28700 45.22100 38.30200

