158

Mg 48.80300 35.30100 27.81700
C  46.60400 33.48400 29.86000
C  48.40700 37.89600 29.82800
C  50.14300 37.25900 25.33000
C  48.29700 32.67700 25.40100
N  47.69400 35.56800 29.64300
C  47.00500 34.70800 30.35100
C  46.91000 35.15000 31.85900
C  47.17900 36.67700 31.77000
C  47.83800 36.74800 30.40300
C  45.91800 37.59300 31.87200
C  48.00500 34.40700 32.78800
C  48.03900 34.92400 34.24500
H  46.86000 35.79500 34.73900
N  49.18300 37.27200 27.59600
C  49.03100 38.18900 28.59000
C  49.47500 39.52100 28.07300
C  50.12400 39.27200 26.81100
C  49.77000 37.90700 26.51700
C  49.43100 40.81600 28.90300
C  51.02600 40.18900 25.99100
O  51.50300 39.92600 24.92700
C  51.31100 41.57400 26.55300
N  49.09200 34.99800 25.64100
C  49.83000 35.99100 24.95100
C  50.30000 35.47900 23.54900
C  49.85200 33.94200 23.65800
C  49.03700 33.79300 24.94000
C  49.87900 36.29100 22.31300
C  51.02600 32.93100 23.68800
C  51.50500 32.46700 22.29900
N  47.86300 33.33400 27.68400
C  47.69300 32.48000 26.65000
C  46.86000 31.36400 27.06600
C  46.39100 31.69900 28.29100
C  47.02300 32.91300 28.59500
C  46.68900 30.01300 26.42300
C  45.49900 31.33400 29.38600
O  44.87000 30.26500 29.45800
C  45.48500 32.55100 30.40900
C  45.86200 32.06000 31.76500
O  46.64400 31.14300 31.96900
O  45.05000 32.61300 32.71500
C  45.11600 31.96500 34.00400
H  48.22800 38.72800 30.51200
H  50.69500 37.88300 24.62400
H  48.19700 31.95400 24.58800
H  45.86500 34.97200 32.11300
H  47.84400 37.00300 32.57000
H  44.97700 37.05600 31.99200
H  45.73600 38.00900 30.88100
H  46.06200 38.37200 32.62100
H  48.96100 34.51300 32.27600
H  47.72800 33.35900 32.89800
H  48.98900 35.43900 34.39200
H  48.02000 34.08500 34.94000
H  48.74900 41.53000 28.44100
H  50.44600 41.20800 28.97000
H  49.01300 40.59800 29.88600
H  51.84300 42.16900 25.81000
H  52.01500 41.57700 27.38400
H  50.35800 42.07100 26.73600
H  51.38600 35.51900 23.46100
H  49.24800 33.62900 22.80600
H  49.05900 35.84100 21.75300
H  50.75100 36.50900 21.69600
H  49.51600 37.24700 22.69000
H  50.74200 32.08100 24.30800
H  51.89800 33.31500 24.21800
H  52.57900 32.28200 22.34400
H  51.49200 33.20700 21.49800
H  51.09800 31.50800 21.97900
H  47.45000 29.80100 25.67200
H  45.73100 30.14500 25.92000
H  46.59400 29.24400 27.18900
H  44.45200 32.89100 30.34100
H  45.96500 32.53200 34.38600
H  45.17700 30.88200 33.89100
H  44.21500 32.20300 34.56900
Mg 36.40500 49.05900 25.18000
C  36.53000 47.00800 28.16100
C  35.17400 51.57100 27.06500
C  35.77000 50.60900 22.34500
C  37.64100 46.20700 23.46600
N  35.53800 49.14200 27.30600
C  35.96100 48.30100 28.35700
C  35.83200 48.97800 29.72000
C  35.20200 50.32800 29.32700
C  35.28300 50.37100 27.82800
C  33.65300 50.48900 29.66200
C  37.16100 49.11800 30.59100
C  37.07200 48.54900 32.04800
H  36.67600 49.40800 33.12800
N  35.62300 50.90500 24.72100
C  35.19700 51.83400 25.63700
C  35.00300 53.07600 25.02900
C  35.25200 52.82900 23.63000
C  35.51900 51.38300 23.51300
C  34.75200 54.42700 25.77000
C  35.11000 53.82800 22.48900
O  35.28400 53.60300 21.27300
C  34.84800 55.17300 22.87100
N  36.77600 48.51700 23.23500
C  36.37800 49.34200 22.24700
C  36.65300 48.62000 20.88100
C  37.63100 47.38600 21.25700
C  37.41300 47.39600 22.80900
C  35.25700 48.26000 20.27600
C  39.11500 47.36700 20.84400
C  39.50400 46.57800 19.56800
N  36.92600 46.95600 25.61000
C  37.43300 45.91800 24.83600
C  37.62700 44.73700 25.63000
C  37.36700 45.18900 26.93400
C  36.93100 46.48700 26.88000
C  38.05900 43.43500 25.05800
C  37.51700 44.79500 28.31600
O  37.99600 43.80000 28.87200
C  36.89400 45.95700 29.15100
C  35.69200 45.47900 30.03600
O  34.55200 45.51900 29.64200
O  36.13500 45.04000 31.26400
C  35.03800 44.75800 32.29200
H  34.89400 52.41000 27.70500
H  35.35500 50.99100 21.41000
H  37.88100 45.38100 22.79400
H  35.06400 48.34600 30.16600
H  35.68100 51.21200 29.74600
H  33.14500 51.06500 28.88900
H  33.54100 50.94900 30.64300
H  33.01900 49.60200 29.66100
H  37.38600 50.17100 30.75700
H  38.00500 48.61500 30.11800
H  38.00200 48.04700 32.31600
H  36.35600 47.72800 32.06800
H  35.38400 55.26300 25.47000
H  35.15800 54.31300 26.77500
H  33.70700 54.70100 25.91000
H  35.70600 55.55900 23.42200
H  33.86800 55.37400 23.30500
H  34.90900 55.76100 21.95500
H  37.11400 49.36400 20.23200
H  37.11800 46.49500 20.89600
H  34.46700 48.79200 20.80700
H  34.96600 47.21100 20.33600
H  35.13000 48.59100 19.24600
H  39.76100 47.21300 21.70800
H  39.24600 48.41000 20.55600
H  39.24900 47.20200 18.71100
H  38.96200 45.65500 19.36300
H  40.57100 46.37000 19.65100
H  37.22400 42.89300 24.61600
H  38.58300 42.89300 25.84500
H  38.75300 43.68100 24.25300
H  37.62600 46.40700 29.82300
H  34.00100 44.76700 31.95600
H  35.05700 45.55100 33.03900
H  35.33000 43.91100 32.91200

