158

Mg 2.74800 -2.44700 43.68600
C  6.04300 -1.48800 43.11000
C  1.58600 0.03800 41.51900
C  -0.24400 -3.95500 43.58900
C  4.04300 -5.35400 45.17700
N  3.73300 -0.94200 42.48000
C  5.15000 -0.68000 42.37700
C  5.44000 0.49100 41.40800
C  3.95100 0.97000 41.08300
C  2.99600 -0.06000 41.69400
C  3.60400 2.34500 41.62100
C  6.40700 -0.03400 40.23200
C  7.71600 0.78800 40.06600
H  8.30400 0.97200 38.66100
N  0.84600 -1.79000 42.96500
C  0.59200 -0.76600 42.08700
C  -0.80600 -0.67700 41.83200
C  -1.35700 -1.88000 42.34300
C  -0.30400 -2.60400 43.01800
C  -1.39000 0.59500 41.07700
C  -2.82700 -2.27500 42.16300
O  -3.57800 -1.47900 41.52000
C  -3.49700 -3.54600 42.54700
N  2.06500 -4.44600 44.17000
C  0.72500 -4.74800 44.16100
C  0.43200 -6.23600 44.58800
C  1.74600 -6.51800 45.34700
C  2.72000 -5.43100 44.81600
C  -0.88300 -6.37500 45.44200
C  2.34200 -7.95900 45.12600
C  2.94200 -8.79300 46.27700
N  4.59800 -3.22500 44.25400
C  4.97800 -4.40400 44.82100
C  6.41500 -4.40300 45.11700
C  6.80500 -3.18800 44.49900
C  5.69000 -2.62600 43.88900
C  7.18800 -5.45100 45.88000
C  7.96000 -2.40600 44.21100
O  9.10900 -2.62600 44.51900
C  7.48500 -1.23900 43.35500
C  7.72200 0.02700 44.13800
O  7.26000 0.25300 45.24500
O  8.46800 0.86800 43.32400
C  8.63400 2.17200 43.84400
H  1.18500 0.84100 40.89600
H  -1.21900 -4.44300 43.52900
H  4.37300 -6.19500 45.79000
H  6.00300 1.24600 41.95700
H  3.81400 1.08800 40.00800
H  4.53000 2.90300 41.76200
H  3.03200 2.24000 42.54300
H  3.01900 2.88500 40.87700
H  5.90900 0.18300 39.28700
H  6.63500 -1.09600 40.31800
H  8.41700 0.24300 40.69800
H  7.53300 1.79100 40.44900
H  -2.40900 0.76900 41.42300
H  -1.34200 0.45700 39.99600
H  -0.81400 1.51500 41.17300
H  -3.43100 -3.92500 43.56600
H  -3.02400 -4.28300 41.89900
H  -4.57700 -3.43000 42.45800
H  0.31300 -6.77200 43.64700
H  1.64400 -6.29800 46.41000
H  -1.21900 -5.34100 45.51200
H  -0.71900 -6.95900 46.34800
H  -1.72900 -6.82500 44.92300
H  3.04200 -7.91000 44.29200
H  1.48900 -8.56600 44.82500
H  3.04200 -8.17100 47.16600
H  3.98300 -8.96900 46.00600
H  2.31300 -9.64800 46.52200
H  8.20200 -5.05800 45.79600
H  7.02100 -6.39900 45.36900
H  6.87900 -5.47900 46.92500
H  7.99400 -1.28700 42.39200
H  8.66300 2.79300 42.94900
H  9.43900 2.21600 44.57800
H  7.87900 2.60700 44.49900
Mg 35.30700 3.13500 30.31000
C  32.82200 4.04700 32.68100
C  37.69700 3.28600 32.78200
C  37.75300 2.61500 27.92100
C  32.97700 3.51900 27.77700
N  35.18900 3.52600 32.46800
C  34.09900 3.90200 33.24500
C  34.48400 3.91800 34.74100
C  36.06200 4.00700 34.67300
C  36.36500 3.60700 33.23700
C  36.57400 5.41000 34.98200
C  34.04900 2.61100 35.54000
C  33.73900 2.81600 37.07800
H  34.58100 3.86500 37.91300
N  37.45500 2.88400 30.35500
C  38.21000 2.96100 31.50400
C  39.56500 2.67000 31.16500
C  39.64800 2.47700 29.73700
C  38.25600 2.65600 29.27000
C  40.71100 2.66400 32.15900
C  40.82000 2.05700 28.82100
O  40.69000 1.84200 27.63000
C  42.15600 1.83100 29.36300
N  35.35000 3.13900 28.20200
C  36.48700 2.82800 27.40800
C  36.16000 2.69100 25.93700
C  34.66100 2.84400 25.95100
C  34.24300 3.14100 27.43500
C  36.96400 3.64100 24.99700
C  33.82200 1.71500 25.16500
C  33.98400 1.55800 23.65100
N  33.29900 3.56200 30.20100
C  32.49300 3.76600 29.07200
C  31.08600 4.07500 29.50600
C  31.15200 4.16100 30.95100
C  32.53800 3.94000 31.25900
C  29.91700 4.30500 28.65300
C  30.47400 4.41100 32.14400
O  29.29800 4.75500 32.40100
C  31.48900 4.17800 33.29700
C  31.46000 5.26000 34.22900
O  31.88800 6.36200 34.00300
O  31.00700 4.79100 35.47500
C  31.02800 5.97000 36.39800
H  38.53800 3.25000 33.47800
H  38.48200 2.40500 27.13500
H  32.24900 3.67100 26.97700
H  34.05400 4.83500 35.14300
H  36.61400 3.28000 35.26900
H  35.82400 6.02200 35.48300
H  36.97600 5.94300 34.12100
H  37.35500 5.19700 35.71200
H  34.74000 1.79900 35.31600
H  33.09600 2.26200 35.14200
H  33.95100 1.84500 37.52600
H  32.67500 3.02700 37.19100
H  41.62300 3.02000 31.67800
H  40.75200 1.79200 32.81200
H  40.52100 3.36600 32.97000
H  42.74600 1.35900 28.57800
H  42.25700 1.31800 30.32000
H  42.65000 2.80100 29.41500
H  36.36700 1.65200 25.67800
H  34.39000 3.81000 25.52400
H  37.20600 4.47300 25.65800
H  36.32400 3.98600 24.18500
H  37.87200 3.25500 24.53400
H  32.78500 1.89700 25.44500
H  34.01100 0.71200 25.54800
H  34.49000 0.60200 23.51200
H  34.37600 2.36400 23.03100
H  33.01000 1.35100 23.20600
H  29.68400 5.26800 28.20000
H  29.00900 3.92900 29.12400
H  29.94500 3.67900 27.76100
H  31.23200 3.26000 33.82600
H  30.79300 5.65000 37.41300
H  30.29200 6.71000 36.08300
H  32.05300 6.34000 36.37900

