158

Mg 16.92000 -1.96300 27.46000
C  16.04300 0.28300 30.12400
C  18.71200 -3.81200 29.88500
C  17.82300 -3.96500 25.08500
C  15.42100 0.21400 25.20200
N  17.41700 -1.77200 29.80000
C  16.74900 -0.84400 30.60200
C  17.12500 -1.19800 32.05300
C  18.27800 -2.31000 31.96300
C  18.07100 -2.73000 30.48600
C  19.79300 -2.00600 32.32100
C  15.83400 -1.62300 32.77900
C  15.55100 -0.95800 34.12700
H  16.79300 -0.47400 34.79900
N  18.10500 -3.60900 27.45600
C  18.77600 -4.19300 28.50100
C  19.57200 -5.31400 28.00200
C  19.31700 -5.38500 26.58800
C  18.40100 -4.29000 26.34300
C  20.41000 -6.30300 28.87200
C  19.81300 -6.41100 25.52300
O  19.71100 -6.22700 24.29600
C  20.68500 -7.61700 26.01900
N  16.65300 -1.89100 25.37500
C  17.04100 -2.90600 24.62200
C  16.85400 -2.52500 23.18500
C  15.81400 -1.37100 23.24100
C  15.97800 -0.92300 24.62600
C  18.20500 -2.16200 22.57600
C  14.35100 -1.75600 22.90900
C  14.08800 -1.91900 21.36100
N  16.04600 -0.09400 27.59200
C  15.44200 0.68600 26.52900
C  14.80900 1.80900 27.18400
C  14.97300 1.69300 28.59100
C  15.77300 0.56400 28.76100
C  14.04200 2.88800 26.49100
C  14.61700 2.23700 29.85800
O  13.69500 2.99400 30.08000
C  15.38500 1.40600 30.91900
C  16.40500 2.26200 31.44300
O  17.55300 2.30100 30.97500
O  15.95600 2.77700 32.57500
C  16.77700 3.75300 33.36400
H  19.37300 -4.42500 30.50100
H  18.17000 -4.54500 24.22700
H  14.81000 0.79700 24.51000
H  17.62900 -0.34500 32.50800
H  17.89000 -3.20400 32.45000
H  20.39200 -2.13900 31.42100
H  20.14700 -2.64100 33.13300
H  19.93900 -0.99600 32.70500
H  15.80900 -2.69100 32.99500
H  14.89700 -1.46600 32.24400
H  15.03300 -1.71600 34.71500
H  14.79200 -0.17700 34.17500
H  21.46800 -6.34600 28.61500
H  20.00400 -7.31100 28.79200
H  20.30900 -6.04500 29.92700
H  21.61800 -7.35800 26.52000
H  20.93000 -8.33300 25.23400
H  20.10700 -8.25400 26.68900
H  16.39800 -3.32900 22.60700
H  16.08800 -0.48500 22.66800
H  18.65900 -3.06800 22.17400
H  18.89800 -1.69700 23.27700
H  17.98600 -1.45300 21.77700
H  13.65600 -0.97200 23.21100
H  14.01900 -2.57900 23.54100
H  13.66800 -0.99100 20.97400
H  13.45300 -2.78400 21.17000
H  14.99700 -2.22300 20.84200
H  13.18500 2.48400 25.95300
H  14.65400 3.44900 25.78500
H  13.65200 3.57900 27.23900
H  14.75300 0.95500 31.68400
H  17.48200 4.36300 32.80000
H  17.38300 3.18400 34.06900
H  16.11500 4.43800 33.89500
Mg 35.66700 49.31200 24.87000
C  35.49400 47.53200 27.92600
C  34.29500 52.03400 26.43800
C  35.08400 50.74900 21.81700
C  36.60500 46.37500 23.31800
N  35.07900 49.75700 26.93400
C  35.09200 48.89300 28.03100
C  34.89400 49.66400 29.34100
C  34.36500 51.04700 28.93600
C  34.62900 50.97900 27.35100
C  32.94200 51.39600 29.26800
C  36.08100 49.77600 30.28900
C  35.78200 49.45100 31.81600
H  34.33200 49.63500 32.36200
N  34.74300 51.14000 24.24700
C  34.29700 52.19100 25.03500
C  33.87000 53.25500 24.23200
C  34.00400 52.83700 22.85200
C  34.61800 51.49300 22.90700
C  33.44700 54.58000 24.83100
C  33.65800 53.64900 21.60800
O  33.84300 53.16600 20.45500
C  33.03800 55.09400 21.68500
N  35.57300 48.60800 22.79300
C  35.47400 49.42300 21.79000
C  35.88400 48.76200 20.41700
C  36.55500 47.45500 20.95500
C  36.27500 47.43500 22.49900
C  34.78500 48.54300 19.38300
C  38.11700 47.47100 20.84400
C  38.77800 46.69500 19.69200
N  36.09900 47.32400 25.46000
C  36.56500 46.22500 24.72500
C  36.73600 45.11700 25.58900
C  36.30000 45.57000 26.86900
C  35.92700 46.89800 26.71900
C  37.20400 43.73500 25.20800
C  36.02500 45.18500 28.25700
O  36.17200 44.12900 28.83600
C  35.62800 46.48200 29.06500
C  34.39500 46.15100 29.84900
O  33.26600 46.40500 29.52700
O  34.73000 45.79900 31.15900
C  33.64800 45.41700 32.11000
H  34.11100 53.00600 26.90000
H  35.15000 51.17900 20.81500
H  36.93400 45.50600 22.74400
H  34.10300 49.16800 29.90400
H  34.93800 51.84900 29.40000
H  32.58200 50.75000 30.06800
H  32.25600 51.47600 28.42500
H  32.96400 52.38200 29.73300
H  36.59100 50.73900 30.25500
H  36.93000 49.14300 30.03100
H  36.41600 50.04900 32.46900
H  36.21500 48.46400 31.97600
H  32.43800 54.78100 24.47200
H  34.01700 55.47800 24.59300
H  33.42000 54.56300 25.92100
H  32.67200 55.21900 20.66500
H  33.70100 55.91900 21.94700
H  32.13800 55.02100 22.29600
H  36.64100 49.39500 19.95300
H  36.16500 46.55500 20.48000
H  35.13600 49.10600 18.51800
H  33.85200 49.04800 19.63000
H  34.61300 47.48500 19.18200
H  38.57400 46.97500 21.70000
H  38.36600 48.53000 20.77800
H  38.87900 45.62600 19.88000
H  39.78700 47.07400 19.53300
H  38.17300 46.88700 18.80600
H  37.86000 43.43300 26.02400
H  37.84500 43.82500 24.33000
H  36.42200 42.97700 25.19500
H  36.50200 46.71300 29.67400
H  33.69700 44.33100 32.18600
H  32.69200 45.82600 31.78300
H  33.88700 45.97100 33.01800

