158

Mg -0.13300 43.31500 26.40600
C  2.30600 42.76500 28.77400
C  -2.50300 42.89300 29.08800
C  -2.65800 43.58000 24.13300
C  2.27700 43.44300 23.84900
N  -0.02800 43.04300 28.65900
C  1.06800 42.87100 29.42200
C  0.81900 42.83600 30.96400
C  -0.74200 42.71500 30.93700
C  -1.12300 42.84900 29.46500
C  -1.23000 41.34600 31.49400
C  1.28900 44.10000 31.75000
C  0.81200 44.38100 33.19000
H  0.42000 43.24200 34.10800
N  -2.22700 43.27000 26.59900
C  -3.00700 43.00900 27.72000
C  -4.43100 42.97500 27.28100
C  -4.46600 43.21600 25.94500
C  -3.06600 43.37900 25.49600
C  -5.42300 42.55900 28.29900
C  -5.72900 43.26900 25.06800
O  -5.60000 43.45100 23.85200
C  -7.13600 43.01800 25.64400
N  -0.17100 43.51400 24.39200
C  -1.32600 43.57600 23.65600
C  -1.04400 43.58300 22.18500
C  0.47400 43.74000 22.10600
C  0.94400 43.53100 23.54000
C  -1.73100 42.47500 21.30900
C  1.01600 45.11400 21.50000
C  1.56300 44.99400 20.07500
N  1.83600 43.19500 26.26400
C  2.71900 43.26300 25.19700
C  4.10400 43.25700 25.71000
C  3.96800 43.14200 27.04900
C  2.57000 43.04700 27.40000
C  5.41500 43.33300 24.90900
C  4.69200 43.08300 28.33400
O  5.89900 43.06600 28.50500
C  3.64200 42.79100 29.49500
C  4.11100 41.60800 30.29100
O  4.39200 40.54200 29.85500
O  4.06800 41.95800 31.64800
C  4.60900 40.85600 32.48100
H  -3.09800 42.82400 30.00100
H  -3.49300 43.69100 23.43900
H  3.05800 43.46900 23.08700
H  1.26400 41.92400 31.36000
H  -1.20200 43.55300 31.46000
H  -0.51900 40.97700 32.23300
H  -1.23800 40.57900 30.72000
H  -2.22500 41.49600 31.91400
H  1.13100 44.96100 31.10100
H  2.36000 44.30200 31.76900
H  0.01400 45.09800 32.99500
H  1.53800 44.99500 33.72200
H  -4.87700 42.23400 29.18400
H  -5.77800 41.63400 27.84600
H  -6.22000 43.26600 28.52900
H  -7.25700 42.00800 26.03600
H  -7.87700 43.09000 24.84800
H  -7.35500 43.80300 26.36900
H  -1.49400 44.49800 21.80200
H  0.77600 42.88600 21.50000
H  -2.07400 41.66300 21.95100
H  -1.04100 41.98300 20.62300
H  -2.60000 42.96500 20.86900
H  1.86100 45.41600 22.11800
H  0.32500 45.94800 21.62600
H  2.64900 45.07700 20.09500
H  1.13500 45.77600 19.44700
H  1.39400 43.99300 19.67700
H  5.93500 44.26600 25.12600
H  5.23800 43.25900 23.83600
H  6.00900 42.46500 25.19700
H  3.64000 43.69800 30.10100
H  4.20200 41.06900 33.46900
H  5.69100 40.72300 32.48100
H  4.13800 39.91300 32.20400
Mg -10.60100 16.17600 42.94100
C  -7.16000 16.89100 43.10700
C  -11.20500 19.38500 42.22000
C  -13.78500 15.30700 42.61500
C  -9.69100 12.77200 43.16100
N  -9.21900 17.95300 42.41700
C  -7.89000 18.03100 42.69800
C  -7.38400 19.46500 42.75000
C  -8.75800 20.26500 42.42300
C  -9.82000 19.17100 42.38400
C  -9.06500 21.48100 43.39600
C  -6.11100 19.68200 41.77400
C  -5.81300 21.09300 41.31200
H  -6.01100 21.50300 39.86800
N  -12.24600 17.15400 42.22300
C  -12.30700 18.50500 42.04100
C  -13.64000 18.84200 41.66600
C  -14.42500 17.67700 41.57900
C  -13.50400 16.66000 42.20800
C  -14.06300 20.33900 41.48100
C  -15.86200 17.53200 41.04900
O  -16.46800 18.40700 40.47300
C  -16.47000 16.14900 41.09400
N  -11.61800 14.22900 42.73800
C  -12.98100 14.17900 42.93500
C  -13.47400 12.79400 43.36800
C  -12.17500 12.01800 43.46600
C  -11.06500 13.05400 43.13200
C  -14.35200 12.75900 44.64600
C  -12.12400 10.72600 42.58000
C  -12.59500 9.50200 43.28800
N  -8.81900 15.03400 43.17000
C  -8.63800 13.68300 43.19500
C  -7.28200 13.33600 43.41600
C  -6.67400 14.56700 43.41200
C  -7.63200 15.58400 43.22400
C  -6.72400 12.00800 43.68900
C  -5.34500 15.22000 43.70800
O  -4.30500 14.70300 43.94400
C  -5.67500 16.76800 43.57000
C  -5.34700 17.37900 44.88200
O  -5.82100 17.11800 45.90800
O  -4.42500 18.44200 44.68100
C  -3.91600 19.10200 45.88900
H  -11.28700 20.45600 42.01900
H  -14.84900 15.07700 42.53200
H  -9.34200 11.76300 43.39100
H  -7.11600 19.73700 43.77100
H  -8.60500 20.65500 41.41600
H  -8.14400 21.83500 43.86000
H  -9.74100 21.21400 44.20800
H  -9.61000 22.23100 42.82300
H  -6.46400 19.09600 40.92600
H  -5.17100 19.33500 42.20300
H  -4.81100 21.45900 41.53800
H  -6.46400 21.82700 41.78500
H  -13.87500 20.78100 40.50300
H  -13.54600 21.02500 42.15100
H  -15.09200 20.45300 41.82400
H  -15.93300 15.33400 40.60900
H  -17.31500 16.32400 40.42800
H  -16.99300 15.91600 42.02200
H  -14.11200 12.47700 42.54300
H  -12.03100 11.77000 44.51700
H  -13.90100 12.12600 45.41100
H  -15.37000 12.53600 44.32900
H  -14.25100 13.80100 44.94800
H  -11.15300 10.48000 42.15000
H  -12.77300 10.90800 41.72400
H  -12.83900 9.76600 44.31800
H  -11.87900 8.68100 43.28900
H  -13.53500 9.17900 42.84200
H  -7.05500 11.32000 42.91100
H  -6.97900 11.63900 44.68200
H  -5.63900 11.97100 43.59600
H  -4.94900 17.18600 42.87400
H  -2.83700 19.24500 45.82100
H  -4.13200 18.57800 46.82000
H  -4.28000 20.12800 45.93200

