158

Mg 23.68400 -5.79100 45.98300
C  25.86100 -3.55700 44.38600
C  21.10900 -4.68800 44.06800
C  21.99000 -8.63500 46.77700
C  26.61800 -7.18200 47.50400
N  23.54900 -4.45000 44.29600
C  24.54800 -3.52300 43.98100
C  24.05300 -2.50800 42.89300
C  22.49200 -2.80200 42.99200
C  22.35600 -4.04300 43.85500
C  21.60800 -1.60400 43.61400
C  24.64000 -2.79400 41.51900
C  25.26200 -1.62300 40.76200
H  25.11000 -1.57600 39.25300
N  21.76500 -6.56500 45.54400
C  20.80300 -5.91600 44.78000
C  19.56900 -6.68900 44.69600
C  19.92000 -7.94800 45.27000
C  21.27400 -7.82000 45.88400
C  18.29200 -6.25800 43.89000
C  19.06800 -9.16000 45.29400
O  17.93100 -9.09700 44.95400
C  19.65400 -10.53300 45.61600
N  24.29500 -7.70700 46.89700
C  23.33400 -8.63900 47.23100
C  23.92800 -9.68300 48.12400
C  25.36000 -9.12500 48.52300
C  25.49200 -7.97300 47.54000
C  23.11100 -10.05800 49.29600
C  26.35800 -10.25800 48.28400
C  27.46500 -10.27800 49.36100
N  25.82600 -5.38500 46.02800
C  26.82100 -6.00400 46.78400
C  28.04400 -5.26500 46.58300
C  27.75600 -4.27800 45.65300
C  26.40000 -4.44500 45.25100
C  29.40800 -5.51500 47.19500
C  28.36500 -3.18900 44.83800
O  29.45100 -2.63900 44.77300
C  27.08300 -2.67400 43.98500
C  26.80500 -1.25600 44.36400
O  26.39000 -0.92900 45.47100
O  27.17200 -0.51600 43.32400
C  27.13100 0.98100 43.56000
H  20.25400 -4.24400 43.55300
H  21.43200 -9.46900 47.20700
H  27.42700 -7.54600 48.14100
H  24.38500 -1.51300 43.18900
H  22.10500 -3.03600 42.00000
H  21.02400 -1.22600 42.77400
H  22.32000 -0.81300 43.84600
H  20.97800 -1.87100 44.46200
H  23.87300 -3.24100 40.88700
H  25.43700 -3.53600 41.52000
H  26.32500 -1.49300 40.96300
H  24.88100 -0.71700 41.23300
H  18.19100 -7.18700 43.32900
H  18.41300 -5.45100 43.16600
H  17.46500 -5.98600 44.54500
H  19.00200 -11.26700 45.14400
H  19.52100 -10.67300 46.68900
H  20.67400 -10.68700 45.26400
H  24.09100 -10.57900 47.52500
H  25.40600 -8.68900 49.52100
H  22.16600 -9.51400 49.30400
H  23.64200 -9.78400 50.20700
H  22.99300 -11.14100 49.31300
H  26.80300 -10.29800 47.29000
H  25.95200 -11.27000 48.31200
H  27.39100 -11.32700 49.64800
H  27.29500 -9.59700 50.19500
H  28.39700 -10.03400 48.85000
H  29.62200 -6.54800 46.92200
H  29.18700 -5.46300 48.26100
H  30.13100 -4.80000 46.80200
H  27.41000 -2.72200 42.94700
H  26.18500 1.23400 44.03800
H  27.21900 1.58000 42.65300
H  27.94900 1.16100 44.25700
Mg 30.24200 58.49300 39.46600
C  27.70000 56.20300 38.52300
C  32.44600 56.01000 39.18500
C  32.72700 60.81200 40.03400
C  27.86000 61.09600 39.29700
N  30.12600 56.38400 38.75500
C  28.98000 55.61300 38.43200
C  29.38200 54.19000 38.09600
C  30.86000 54.09100 38.50500
C  31.18600 55.58200 38.90400
C  31.07400 53.10000 39.71700
C  28.95100 53.75500 36.65800
C  29.45000 54.59800 35.48600
H  28.50000 55.17100 34.44000
N  32.28300 58.41500 39.50900
C  33.02200 57.24900 39.37300
C  34.39000 57.54800 39.58300
C  34.50600 58.91900 39.94000
C  33.13200 59.46800 39.85600
C  35.45800 56.49800 39.43300
C  35.87400 59.64800 40.33700
O  36.92100 59.07100 40.25000
C  35.91600 61.08800 40.88600
N  30.27800 60.59800 39.59800
C  31.43300 61.31100 39.90400
C  31.14100 62.86100 39.94700
C  29.57600 62.89600 39.64000
C  29.19000 61.41700 39.58700
C  31.68500 63.47400 41.26100
C  29.18800 63.63700 38.35000
C  27.98400 64.61200 38.36600
N  28.17400 58.64400 39.14000
C  27.35500 59.75900 39.11500
C  26.00700 59.29100 38.73900
C  26.08000 57.91200 38.50800
C  27.38500 57.56100 38.83200
C  24.88200 60.25000 38.64100
C  25.32500 56.79900 38.22800
O  24.16600 56.68200 37.90500
C  26.26100 55.58700 38.28600
C  25.84700 54.58000 39.29900
O  26.60000 53.91100 40.04400
O  24.47600 54.31500 39.32600
C  23.91600 53.40200 40.30900
H  33.20400 55.23000 39.08700
H  33.56200 61.50300 40.17000
H  27.09700 61.87600 39.33300
H  28.69600 53.59200 38.69600
H  31.48200 53.75700 37.67400
H  30.25800 52.49100 40.10600
H  31.53300 53.65000 40.53800
H  31.87600 52.38300 39.54000
H  27.87300 53.59700 36.65000
H  29.45200 52.79400 36.54100
H  30.27300 53.98000 35.12700
H  30.05300 55.44800 35.80400
H  36.38700 57.06000 39.33800
H  35.33000 56.08400 38.43300
H  35.55800 55.69400 40.16300
H  36.92500 61.39000 41.16700
H  35.33600 61.20100 41.80200
H  35.63300 61.84100 40.15000
H  31.78700 63.06400 39.09300
H  29.07900 63.41800 40.45800
H  32.52500 64.14000 41.06400
H  31.96800 62.63100 41.89100
H  30.94300 64.05900 41.80500
H  29.04500 62.95500 37.51200
H  30.01700 64.25700 38.00600
H  27.83300 65.08000 39.33900
H  27.05800 64.08100 38.14900
H  28.04100 65.48200 37.71200
H  24.63400 60.61500 39.63800
H  24.01100 59.64000 38.40300
H  25.05300 61.06900 37.94300
H  26.23000 54.95200 37.40100
H  24.32900 53.53900 41.30800
H  24.18500 52.40600 39.95500
H  22.84000 53.24100 40.24200

