158

Mg 23.88100 -5.54100 46.01800
C  26.12500 -3.57400 44.19800
C  21.37400 -4.70500 43.83600
C  22.23700 -8.37400 46.98100
C  26.56900 -6.61400 48.03200
N  23.77500 -4.42900 44.20800
C  24.79600 -3.67800 43.61700
C  24.29800 -2.77000 42.50000
C  22.75800 -3.12000 42.55500
C  22.55200 -4.09600 43.59200
C  21.86100 -1.86800 42.74300
C  25.06600 -3.06600 41.13400
C  25.69600 -1.91000 40.43800
H  25.91600 -2.00200 38.90600
N  21.94000 -6.27900 45.63600
C  21.08000 -5.76200 44.77100
C  19.76200 -6.46100 44.95300
C  19.99800 -7.44000 45.95400
C  21.46300 -7.38600 46.24500
C  18.48100 -6.07800 44.21900
C  18.98800 -8.44700 46.53800
O  17.84800 -8.51500 46.09800
C  19.28800 -9.31300 47.71000
N  24.41900 -7.32200 47.22800
C  23.57600 -8.38300 47.42200
C  24.19600 -9.47900 48.37700
C  25.32800 -8.69200 48.98200
C  25.44100 -7.45700 48.09700
C  23.29500 -10.25800 49.37200
C  26.74900 -9.46300 49.12100
C  27.62600 -9.03200 50.27700
N  25.92800 -5.17100 46.17400
C  26.91700 -5.68400 47.06400
C  28.11300 -4.95100 46.89500
C  27.92000 -4.05600 45.80900
C  26.53400 -4.32500 45.33500
C  29.26500 -5.15300 47.83900
C  28.45200 -3.02300 44.93800
O  29.54200 -2.48100 44.99200
C  27.34700 -2.72800 43.85900
C  27.11300 -1.25000 43.96900
O  26.38900 -0.73700 44.80500
O  27.95000 -0.62800 43.10300
C  28.00300 0.80400 43.31100
H  20.50400 -4.38500 43.25900
H  21.76000 -9.34700 47.11200
H  27.28500 -6.85600 48.82000
H  24.43300 -1.71900 42.75400
H  22.37800 -3.53200 41.62100
H  21.14500 -1.93500 43.56200
H  21.28900 -1.74800 41.82300
H  22.39100 -0.91600 42.76200
H  24.33000 -3.49300 40.45200
H  25.78300 -3.88500 41.19500
H  26.61200 -1.87200 41.02700
H  25.25000 -0.92900 40.60100
H  18.13100 -6.79600 43.47700
H  18.58200 -5.15800 43.64400
H  17.75600 -5.86400 45.00400
H  18.36200 -9.62900 48.19000
H  19.96100 -8.69500 48.30400
H  19.68800 -10.23700 47.29500
H  24.50000 -10.27300 47.69400
H  24.95000 -8.41700 49.96700
H  22.38600 -9.70300 49.60400
H  23.78100 -10.37200 50.34100
H  23.03800 -11.23400 48.96000
H  27.27300 -9.21700 48.19800
H  26.56100 -10.53000 49.24300
H  27.90600 -9.80000 50.99800
H  27.01000 -8.31400 50.81800
H  28.48200 -8.44900 49.93800
H  30.00200 -4.50300 47.36800
H  29.45900 -6.22500 47.88500
H  29.08600 -4.89300 48.88200
H  27.62200 -2.98700 42.83600
H  26.96100 1.11600 43.37700
H  28.47300 1.31900 42.47200
H  28.60500 1.01800 44.19400
Mg 25.57800 1.26200 30.06700
C  27.54200 0.85400 32.82000
C  22.86500 1.31600 32.04800
C  23.62600 0.76200 27.18700
C  28.38400 0.58700 27.97100
N  25.26100 0.99600 32.16800
C  26.21400 1.07800 33.10700
C  25.64600 1.50500 34.60500
C  24.13600 1.31100 34.28600
C  24.03800 1.17900 32.75200
C  23.54100 0.00700 34.98900
C  26.08400 2.96800 34.99400
C  27.07800 3.04900 36.11100
H  26.49500 3.61900 37.40000
N  23.51200 1.21900 29.65700
C  22.57200 1.26400 30.64200
C  21.28400 1.16600 29.98500
C  21.49200 0.89700 28.59700
C  22.94300 0.92600 28.40800
C  19.98600 1.33300 30.73700
C  20.48700 0.75200 27.46000
O  20.66300 0.59600 26.27800
C  19.08500 0.78700 27.73400
N  25.92500 0.74200 27.95300
C  24.97100 0.73500 27.03400
C  25.58100 0.98300 25.56500
C  27.10100 0.85200 25.78500
C  27.15800 0.73200 27.32700
C  25.09800 0.07000 24.42100
C  27.94200 2.09700 25.34500
C  29.23500 1.81400 24.65900
N  27.58400 0.87900 30.27300
C  28.55400 0.63900 29.41800
C  29.73700 0.21800 30.14600
C  29.44000 0.35300 31.52500
C  28.08300 0.67200 31.53000
C  30.99900 -0.23000 29.55500
C  29.88200 0.27700 32.82400
O  31.00600 -0.00900 33.20300
C  28.74300 0.74600 33.78700
C  28.58100 -0.32200 34.77400
O  28.05500 -1.44300 34.63400
O  29.17600 0.03700 35.93000
C  28.89400 -0.67500 37.15800
H  21.95100 1.33500 32.64500
H  23.12900 0.69100 26.21700
H  29.22300 0.45100 27.28500
H  25.93600 0.71200 35.29300
H  23.53400 2.11300 34.71100
H  24.03400 -0.14900 35.94800
H  23.60700 -0.84300 34.30900
H  22.46300 0.14900 35.06900
H  25.13900 3.44800 35.24900
H  26.44400 3.59200 34.17600
H  27.75900 3.85200 35.82900
H  27.54000 2.06900 36.23100
H  19.51200 0.36800 30.91600
H  19.36100 2.11000 30.29600
H  20.22300 1.69400 31.73800
H  18.55000 0.85800 26.78700
H  18.84900 1.68100 28.31200
H  18.77200 -0.15900 28.17500
H  25.34700 2.03300 25.39200
H  27.39200 -0.10300 25.34900
H  24.85400 -0.93300 24.77100
H  25.87400 -0.14500 23.68600
H  24.19500 0.61900 24.15500
H  28.11100 2.75900 26.19500
H  27.37100 2.64300 24.59400
H  29.38400 0.73600 24.60500
H  30.02500 2.41100 25.11500
H  29.23500 2.26700 23.66700
H  31.79700 -0.00900 30.26400
H  31.35200 0.27400 28.65500
H  30.78400 -1.27100 29.31200
H  29.10700 1.67800 34.22000
H  28.35000 -1.61800 37.10900
H  28.34500 -0.01900 37.83300
H  29.83500 -0.79000 37.69600

