158

Mg 16.10500 -2.09600 27.72600
C  15.02500 -0.16700 30.30000
C  18.16000 -3.93600 29.91000
C  17.34100 -3.62300 25.15400
C  14.23500 0.00300 25.50500
N  16.73900 -1.84500 29.83900
C  15.90600 -1.20300 30.71800
C  16.27200 -1.53500 32.22200
C  17.41800 -2.55800 32.00400
C  17.47300 -2.80400 30.49400
C  18.78900 -1.89500 32.48100
C  15.14500 -2.06300 33.09200
C  15.15100 -1.49000 34.53900
H  16.39700 -0.95000 35.34100
N  17.34800 -3.70600 27.50000
C  18.02400 -4.35800 28.53900
C  18.56700 -5.57300 28.01900
C  18.39500 -5.45700 26.59400
C  17.73100 -4.26100 26.34800
C  19.22500 -6.71600 28.82800
C  18.68700 -6.57500 25.51400
O  18.40700 -6.40800 24.32600
C  19.26400 -7.85500 25.89000
N  15.90400 -1.74700 25.59400
C  16.62200 -2.47100 24.72900
C  16.57700 -1.89500 23.26400
C  15.35900 -0.93400 23.40100
C  15.12900 -0.88900 24.94900
C  17.88300 -1.28100 22.67800
C  14.08900 -1.45700 22.76200
C  13.44000 -0.48400 21.86400
N  14.79700 -0.40700 27.80700
C  14.10100 0.26700 26.84200
C  13.28200 1.31000 27.48600
C  13.58900 1.16300 28.82000
C  14.57400 0.14000 28.96200
C  12.47100 2.30700 26.86500
C  13.30800 1.69500 30.20000
O  12.50000 2.54200 30.57900
C  14.21200 0.76700 31.19100
C  15.11300 1.65400 31.93800
O  16.20600 2.12400 31.56000
O  14.44900 2.16800 32.99500
C  14.99400 3.39000 33.57800
H  18.91500 -4.41000 30.54000
H  17.72500 -4.13700 24.27000
H  13.58100 0.52400 24.80300
H  16.72900 -0.63800 32.64000
H  17.27000 -3.45700 32.60200
H  18.76600 -0.80600 32.44600
H  19.59900 -2.34200 31.90500
H  18.81200 -2.13200 33.54500
H  15.03400 -3.14600 33.14300
H  14.21200 -1.61900 32.74700
H  14.57400 -2.19200 35.14100
H  14.51000 -0.61000 34.48500
H  18.58300 -7.59500 28.90000
H  19.47300 -6.46800 29.86000
H  20.25500 -6.91500 28.53300
H  18.61300 -8.37800 26.59100
H  20.29000 -7.75600 26.24600
H  19.23200 -8.49000 25.00400
H  16.27600 -2.69500 22.58700
H  15.66000 0.03200 22.99500
H  18.48700 -1.58000 23.53500
H  17.82100 -0.22400 22.42000
H  18.12800 -1.93800 21.84400
H  13.43400 -1.86600 23.53100
H  14.34600 -2.22500 22.03400
H  13.83000 0.52700 21.98300
H  12.36800 -0.39200 22.04200
H  13.53000 -0.78000 20.81900
H  11.83600 2.86900 27.55000
H  11.65600 1.89600 26.26900
H  13.08400 2.99200 26.28000
H  13.66200 0.36300 32.04100
H  15.63200 3.96900 32.91000
H  15.56700 3.16700 34.47900
H  14.11200 3.92300 33.93200
Mg 16.80700 52.17200 26.14600
C  18.84900 50.74300 28.56600
C  14.56100 52.81200 28.69700
C  14.78300 53.39300 23.81400
C  18.89000 50.91700 23.65200
N  16.70800 51.73900 28.31000
C  17.75200 51.34600 29.09900
C  17.41800 51.41600 30.56100
C  15.87200 51.66600 30.55000
C  15.69800 52.10100 29.12700
C  14.99000 50.47800 30.98800
C  18.29000 52.49700 31.25800
C  18.49400 52.50200 32.80000
H  17.57600 51.56900 33.63800
N  14.96400 52.93700 26.27500
C  14.22200 53.28200 27.35200
C  13.10400 53.99900 27.01100
C  13.03700 54.11700 25.59900
C  14.28300 53.44700 25.14200
C  12.11100 54.57100 28.13300
C  12.01200 54.78200 24.62900
O  12.12100 54.89000 23.41600
C  10.85900 55.64000 25.25200
N  16.76400 52.05300 23.99800
C  15.87800 52.72700 23.25400
C  16.29000 52.84300 21.79100
C  17.62100 52.11100 21.74200
C  17.84700 51.65800 23.23100
C  15.22700 52.41200 20.71600
C  18.85900 53.00700 21.35400
C  20.01000 52.20200 20.78200
N  18.62400 51.13900 26.08600
C  19.24900 50.59700 24.98800
C  20.47300 49.96700 25.46700
C  20.32000 49.92400 26.89800
C  19.18100 50.66800 27.20000
C  21.55800 49.25200 24.66100
C  20.97500 49.41200 28.11900
O  22.01000 48.75900 28.24600
C  19.97400 49.95300 29.28700
C  19.69000 48.79700 30.18000
O  18.90800 47.92500 29.81800
O  20.22900 48.91500 31.45400
C  19.83100 47.92900 32.44900
H  13.80300 52.94700 29.47100
H  14.23900 53.87000 22.99600
H  19.54200 50.51700 22.87200
H  17.51700 50.43500 31.02600
H  15.69500 52.48900 31.24300
H  15.53500 49.60600 31.34800
H  14.30000 50.31100 30.16100
H  14.44100 50.77500 31.88100
H  17.80900 53.46300 31.10900
H  19.29600 52.53700 30.83900
H  18.30800 53.50200 33.19200
H  19.52200 52.18300 32.97600
H  11.12400 54.11200 28.19600
H  11.87200 55.57900 27.79700
H  12.39500 54.74800 29.17100
H  10.08600 55.80100 24.50200
H  11.28700 56.62800 25.42300
H  10.36100 55.18600 26.10900
H  16.30900 53.90800 21.56100
H  17.41800 51.27300 21.07500
H  14.73800 53.24100 20.20400
H  14.47800 51.83900 21.26200
H  15.61800 51.67100 20.01800
H  19.27300 53.48400 22.24200
H  18.48700 53.67400 20.57600
H  19.84400 51.13600 20.63000
H  20.97100 52.40800 21.25300
H  20.15900 52.58800 19.77300
H  22.32900 49.97300 24.38900
H  21.26300 48.76000 23.73500
H  21.94000 48.50100 25.35300
H  20.59000 50.59300 29.91800
H  18.76100 48.00800 32.64300
H  20.43000 48.06700 33.34900
H  20.14800 46.94500 32.10400

