158

Mg 34.98800 48.21800 26.24100
C  35.80100 46.18500 29.07900
C  33.71000 50.48500 28.38100
C  34.46800 50.25700 23.59000
C  35.95100 45.58500 24.22200
N  34.78900 48.32200 28.48700
C  35.22200 47.42600 29.45100
C  35.23800 48.03300 30.79200
C  34.13200 49.18300 30.59600
C  34.17600 49.35900 29.08100
C  32.71700 48.81400 31.15500
C  36.63900 48.52700 31.24500
C  36.86200 48.55100 32.73200
H  35.75300 48.85700 33.64700
N  34.22200 50.18400 26.01700
C  33.70300 50.91300 27.03000
C  33.41000 52.25800 26.46000
C  33.60900 52.18800 25.02500
C  34.13300 50.85900 24.80200
C  32.84700 53.35200 27.34500
C  33.43000 53.26200 23.99200
O  33.87500 53.14400 22.83000
C  32.78600 54.52500 24.47900
N  35.18000 48.01700 24.19900
C  34.88800 48.95200 23.26200
C  35.12800 48.35500 21.89300
C  35.64700 46.88400 22.10100
C  35.55900 46.79500 23.61300
C  33.90500 48.63500 20.97000
C  37.08200 46.65600 21.50100
C  37.16700 46.20800 20.05400
N  35.57100 46.16000 26.51900
C  36.06900 45.32600 25.59000
C  36.66700 44.16100 26.30900
C  36.56500 44.47700 27.63000
C  35.84300 45.70600 27.76400
C  37.22400 42.81500 25.74700
C  36.80500 43.97400 28.98700
O  37.27000 42.86700 29.36700
C  36.40000 45.12600 29.98600
C  35.46300 44.73700 31.06700
O  34.39000 44.18900 30.96200
O  35.95200 45.07900 32.30500
C  35.12300 44.53500 33.42200
H  33.15500 51.13000 29.06500
H  34.13700 50.80800 22.70700
H  36.23300 44.72400 23.61200
H  34.77000 47.36700 31.51700
H  34.49500 49.98600 31.23700
H  32.82200 47.77300 31.46000
H  31.98600 48.77100 30.34700
H  32.31700 49.56000 31.84200
H  36.83000 49.50000 30.79000
H  37.41100 47.97500 30.70800
H  37.66900 49.23800 32.98600
H  37.32000 47.60100 33.00900
H  32.73800 52.91600 28.33800
H  31.80900 53.60000 27.12500
H  33.50600 54.21500 27.44100
H  33.32000 54.83300 25.37800
H  31.76300 54.39400 24.83300
H  32.86900 55.24300 23.66400
H  35.86800 48.96700 21.37900
H  34.98100 46.14600 21.65500
H  33.75000 49.70500 20.83300
H  33.01900 48.14100 21.36900
H  34.07500 48.15600 20.00600
H  37.46100 45.85700 22.13900
H  37.72900 47.52900 21.58100
H  36.25200 46.40100 19.49500
H  37.39200 45.15300 20.20800
H  38.00700 46.71700 19.58100
H  37.75700 42.26800 26.52500
H  37.80500 42.92900 24.83200
H  36.33700 42.19600 25.61200
H  37.33500 45.48700 30.41600
H  34.89500 43.49800 33.17500
H  34.21300 45.13000 33.49700
H  35.76200 44.60000 34.30300
Mg 1.00000 44.02800 25.09400
C  2.89400 43.57600 27.97600
C  -1.70900 43.20900 26.98300
C  -0.74600 43.87600 22.26500
C  3.96700 44.10200 23.16300
N  0.66000 43.66000 27.31000
C  1.59900 43.52300 28.31100
C  0.84600 43.28700 29.64800
C  -0.63300 43.16100 29.26000
C  -0.54500 43.32300 27.76000
C  -1.36200 41.87100 29.73100
C  1.16100 44.50300 30.55800
C  1.54900 44.16700 32.03100
H  0.90100 42.90000 32.72400
N  -1.03700 43.83200 24.68100
C  -1.94900 43.40200 25.55900
C  -3.20700 43.14200 24.84100
C  -3.02200 43.64700 23.53400
C  -1.58400 43.84600 23.42900
C  -4.37600 42.53700 25.48300
C  -3.94900 43.76700 22.28900
O  -3.54500 44.14500 21.19000
C  -5.30600 43.20300 22.43200
N  1.54400 43.95100 23.02100
C  0.63200 43.93800 22.04300
C  1.28200 43.62500 20.63900
C  2.69300 44.19500 20.90000
C  2.77800 44.08500 22.41700
C  1.12600 42.08900 20.22300
C  2.86400 45.63100 20.39200
C  4.24500 46.06700 20.05300
N  2.93800 43.88500 25.44600
C  4.03100 43.92200 24.57400
C  5.20900 43.93600 25.39500
C  4.87600 43.78800 26.72200
C  3.44100 43.78800 26.68200
C  6.53500 44.02000 24.77100
C  5.41300 43.47600 28.05400
O  6.55400 43.26000 28.40900
C  4.08200 43.43200 28.93400
C  4.07300 42.24800 29.87500
O  3.69000 41.13000 29.64000
O  4.75600 42.69800 30.99000
C  5.11000 41.54600 31.89700
H  -2.62000 42.88500 27.49200
H  -1.29400 43.65000 21.34800
H  4.84800 44.09300 22.51800
H  1.28000 42.41700 30.14000
H  -1.14400 44.04500 29.64400
H  -2.06600 42.20800 30.49200
H  -0.79800 41.13400 30.30200
H  -1.82100 41.32600 28.90600
H  0.25200 45.10300 30.60300
H  2.00300 45.11800 30.23900
H  1.28600 45.10100 32.52700
H  2.63000 44.12800 32.16400
H  -5.08300 43.36700 25.51000
H  -4.23400 42.17600 26.50100
H  -4.71900 41.67600 24.90900
H  -5.93400 43.38000 21.55900
H  -5.71600 43.80500 23.24300
H  -5.29900 42.12700 22.60500
H  0.75200 44.23300 19.90600
H  3.45800 43.67100 20.32700
H  0.71200 41.56200 21.08200
H  2.10200 41.61200 20.14000
H  0.62600 42.02300 19.25700
H  2.41300 46.24800 21.16800
H  2.32900 45.81900 19.46100
H  5.02500 45.43600 20.47900
H  4.54400 46.91700 20.66600
H  4.36000 46.53200 19.07400
H  7.20000 43.72300 25.58100
H  6.94500 44.98100 24.46000
H  6.56200 43.16400 24.09700
H  4.15000 44.30500 29.58400
H  6.04600 41.13900 31.51500
H  4.40800 40.71400 31.95100
H  5.28200 41.96800 32.88700

