158

Mg 1.35300 -2.77500 45.06800
C  4.34700 -1.18900 43.76100
C  -0.28500 -0.33700 43.38400
C  -1.28900 -4.38800 45.89300
C  3.44100 -5.39500 46.20000
N  2.00300 -1.07500 43.57100
C  3.23000 -0.55900 43.31900
C  3.20400 0.69000 42.50400
C  1.76700 1.13000 42.79500
C  1.09500 -0.20700 43.21600
C  1.53900 2.33300 43.80600
C  3.67300 0.49800 41.06800
C  4.77400 1.53800 40.59600
H  6.27100 0.97300 40.38600
N  -0.53800 -2.49500 44.62700
C  -1.00900 -1.45700 43.89300
C  -2.42900 -1.62100 43.70100
C  -2.78700 -2.79800 44.39700
C  -1.53000 -3.27800 45.04700
C  -3.26200 -0.76900 42.86800
C  -4.16100 -3.55200 44.39600
O  -5.07900 -2.98500 43.80100
C  -4.40700 -4.72800 45.25100
N  1.15300 -4.67000 45.97400
C  -0.11000 -5.10500 46.29000
C  -0.00700 -6.42900 47.13800
C  1.55000 -6.71800 47.11100
C  2.09600 -5.58900 46.32100
C  -0.68400 -6.44500 48.59200
C  1.90900 -8.15200 46.53000
C  2.46400 -9.29100 47.53500
N  3.45300 -3.20300 45.10500
C  4.13200 -4.32400 45.58000
C  5.57000 -4.13300 45.41500
C  5.67300 -2.89400 44.75500
C  4.35500 -2.39100 44.52700
C  6.64200 -5.12800 45.69400
C  6.58200 -1.86600 44.27100
O  7.80100 -1.90500 44.18900
C  5.70900 -0.70300 43.68600
C  5.98300 0.54600 44.47100
O  5.26200 1.13300 45.24700
O  7.19500 1.05700 44.03600
C  7.59500 2.32400 44.56900
H  -0.81300 0.53800 42.99800
H  -2.20000 -4.87600 46.24800
H  4.17500 -6.11400 46.57100
H  3.76000 1.51000 42.95800
H  1.33000 1.35200 41.82100
H  1.16900 3.10900 43.13600
H  2.42400 2.76100 44.27500
H  0.84400 2.04300 44.59400
H  2.82000 0.49300 40.38900
H  4.11400 -0.49400 40.96800
H  4.74300 2.28500 41.39000
H  4.42100 2.04700 39.70000
H  -3.87900 -1.34500 42.17900
H  -2.65800 -0.17200 42.18500
H  -3.85600 -0.19600 43.58000
H  -3.76100 -5.58300 45.05000
H  -5.41600 -5.10800 45.09100
H  -4.17200 -4.41200 46.26700
H  -0.41200 -7.19600 46.47800
H  1.79600 -6.66500 48.17100
H  -0.35600 -7.29500 49.19000
H  -1.76400 -6.51700 48.45700
H  -0.44600 -5.49500 49.07000
H  2.72700 -7.98000 45.83000
H  1.04600 -8.61400 46.05200
H  2.64000 -8.89200 48.53400
H  3.34400 -9.80200 47.14400
H  1.61400 -9.92700 47.78200
H  7.59500 -4.66300 45.44400
H  6.38200 -5.97600 45.06100
H  6.72000 -5.46500 46.72700
H  6.18200 -0.56900 42.71300
H  8.00900 2.29700 45.57700
H  6.76000 3.02500 44.55600
H  8.33600 2.62600 43.82900
Mg -11.21700 38.42900 41.10300
C  -10.12600 35.18200 40.74900
C  -8.41800 39.55100 39.54200
C  -12.77500 41.42800 40.64900
C  -14.43900 36.94800 41.93500
N  -9.52300 37.45800 40.19800
C  -9.20000 36.14400 40.29200
C  -7.91400 35.88700 39.44300
C  -7.20800 37.27900 39.48600
C  -8.42800 38.14600 39.74800
C  -6.08500 37.54000 40.56100
C  -8.14200 35.30700 37.97000
C  -6.95000 34.74100 37.17000
H  -6.52300 35.48600 35.88200
N  -10.63000 40.34000 40.36200
C  -9.36100 40.59800 39.82300
C  -9.21800 41.99600 39.65700
C  -10.50600 42.60700 39.94800
C  -11.39100 41.49900 40.34500
C  -7.90200 42.63900 39.21600
C  -10.81800 44.10400 39.87100
O  -9.95000 44.81400 39.34000
C  -12.11900 44.64800 40.36800
N  -13.32800 39.07300 41.07800
C  -13.61800 40.34800 40.93800
C  -15.13000 40.62700 41.35700
C  -15.69000 39.17400 41.60400
C  -14.40600 38.31800 41.51300
C  -15.29900 41.51700 42.68100
C  -16.88700 38.65600 40.70200
C  -18.23200 39.49700 40.70500
N  -12.10100 36.54200 41.65000
C  -13.36800 36.11400 42.02000
C  -13.35400 34.69600 42.22300
C  -12.11300 34.30300 41.73000
C  -11.37000 35.40500 41.36100
C  -14.50300 33.87900 42.77000
C  -11.28300 33.11200 41.52400
O  -11.48000 31.91100 41.69100
C  -9.96800 33.64600 40.88800
C  -8.72300 33.21900 41.51600
O  -7.70100 32.92300 40.99300
O  -8.93800 33.23600 42.89600
C  -7.66300 32.99900 43.57500
H  -7.45600 39.88400 39.14600
H  -13.15100 42.45300 40.66000
H  -15.41600 36.49300 42.11100
H  -7.32700 35.10800 39.93000
H  -6.82000 37.58500 38.51500
H  -6.20800 36.84800 41.39400
H  -6.14100 38.53600 41.00100
H  -5.12700 37.37700 40.06700
H  -8.72500 36.01200 37.37900
H  -8.87700 34.52800 38.17700
H  -7.17800 33.77000 36.72900
H  -6.10900 34.58700 37.84700
H  -8.00700 43.06400 38.21700
H  -7.10500 41.90000 39.30300
H  -7.54600 43.51600 39.75600
H  -12.94400 44.35100 39.72000
H  -12.04800 45.73600 40.37900
H  -12.11800 44.33800 41.41300
H  -15.66500 41.08000 40.52200
H  -16.03700 39.19900 42.63600
H  -14.80900 41.00700 43.51200
H  -16.37700 41.62800 42.79000
H  -14.75300 42.43400 42.45900
H  -17.09000 37.60600 40.91600
H  -16.45600 38.64100 39.70200
H  -18.96700 38.98200 41.32400
H  -18.62800 39.60900 39.69600
H  -18.14600 40.50700 41.10400
H  -14.74200 34.16900 43.79300
H  -14.23700 32.82200 42.80100
H  -15.43500 33.88400 42.20400
H  -9.98200 33.22200 39.88500
H  -7.85900 32.67600 44.59700
H  -7.14800 33.96000 43.59000
H  -7.10400 32.16600 43.14800

