158

Mg -1.88900 17.54100 25.60800
C  -2.31300 15.30600 28.36500
C  -2.70100 20.10100 27.72200
C  -2.16000 19.52400 22.89300
C  -1.83300 14.78100 23.53200
N  -2.52400 17.61700 27.74200
C  -2.38600 16.63400 28.75100
C  -2.47400 17.25200 30.19700
C  -2.73500 18.77100 29.90200
C  -2.68800 18.82300 28.37000
C  -4.12800 19.24400 30.51300
C  -1.13100 16.94100 31.07400
C  -0.94900 17.70000 32.39800
H  -1.19000 16.89700 33.63900
N  -2.12500 19.50600 25.36300
C  -2.38100 20.42800 26.36300
C  -2.49500 21.74200 25.79200
C  -2.14200 21.57100 24.40800
C  -2.16100 20.15100 24.13400
C  -2.78600 23.03700 26.56500
C  -1.82900 22.67300 23.35000
O  -1.55400 22.37400 22.17100
C  -1.80300 24.05200 23.75100
N  -2.16200 17.18700 23.53000
C  -2.09100 18.17000 22.57500
C  -2.12600 17.60000 21.16100
C  -1.56500 16.13400 21.42900
C  -1.84200 15.99000 22.90600
C  -3.54100 17.61200 20.44100
C  -0.03200 15.93700 21.12400
C  0.93600 16.76500 21.94200
N  -1.93300 15.48500 25.86600
C  -1.93900 14.48800 24.88600
C  -2.03900 13.18100 25.50800
C  -2.11800 13.47000 26.84400
C  -2.08600 14.85900 27.00300
C  -1.92300 11.90700 24.78300
C  -2.28200 12.84300 28.09300
O  -2.22500 11.67900 28.45000
C  -2.34600 14.00000 29.16600
C  -1.28600 13.79800 30.18500
O  -0.08900 13.91400 29.91000
O  -1.75600 13.35400 31.45400
C  -0.79700 13.22800 32.48200
H  -2.75600 20.80100 28.55900
H  -2.30600 20.13200 21.99800
H  -1.60200 13.89600 22.93500
H  -3.24600 16.78000 30.80600
H  -1.94500 19.29000 30.44400
H  -4.76400 19.67800 29.74200
H  -3.94100 19.95600 31.31600
H  -4.70000 18.43700 30.97100
H  -0.22200 16.88600 30.47500
H  -1.29200 15.89700 31.34100
H  -1.63400 18.54800 32.38100
H  0.05300 18.12500 32.46100
H  -1.91500 23.69000 26.59700
H  -2.99100 22.80800 27.61100
H  -3.71100 23.42600 26.13800
H  -2.80200 24.25700 24.13600
H  -1.67500 24.72600 22.90400
H  -1.00700 24.19800 24.48100
H  -1.37000 18.06300 20.52700
H  -2.12500 15.41800 20.82700
H  -3.45600 17.87300 19.38600
H  -4.15100 18.38400 20.91000
H  -4.07400 16.67400 20.59600
H  0.18500 16.08800 20.06600
H  0.29300 14.90800 21.27400
H  0.49600 17.74700 22.11300
H  1.81500 17.06400 21.37000
H  1.18000 16.19100 22.83600
H  -1.14100 12.15700 24.06600
H  -2.82300 11.67200 24.21400
H  -1.62600 11.08200 25.43000
H  -3.34100 13.77900 29.55100
H  -1.05800 14.06600 33.12800
H  0.26500 13.32600 32.25700
H  -0.90000 12.25200 32.95600
Mg 43.82800 3.45500 48.04900
C  41.52600 5.91700 47.13200
C  41.30000 1.15700 47.72600
C  46.04900 1.02700 48.22200
C  46.39200 5.86800 47.83000
N  41.72500 3.54000 47.25400
C  40.92300 4.68100 47.02400
C  39.44500 4.31200 46.77100
C  39.44100 2.80200 47.28100
C  40.93200 2.48400 47.59000
C  38.46700 2.63300 48.57300
C  39.06100 4.50000 45.22000
C  37.86400 5.38600 44.95100
H  38.00300 6.25500 43.77400
N  43.68700 1.33400 47.89100
C  42.56500 0.54700 47.92900
C  42.88400 -0.84700 48.04900
C  44.29200 -0.89300 48.31300
C  44.74200 0.47600 48.14400
C  41.83600 -1.92400 48.11100
C  45.04800 -2.16700 48.75400
O  44.49700 -3.24400 48.87300
C  46.49200 -2.16900 49.04500
N  45.93600 3.41100 47.59400
C  46.63600 2.26700 47.90100
C  48.18800 2.49000 47.82500
C  48.21500 4.04900 47.62100
C  46.78100 4.49700 47.58700
C  48.92700 2.03500 49.11200
C  49.00500 4.43300 46.35300
C  50.42900 3.86800 46.27200
N  43.99200 5.54400 47.74000
C  45.11100 6.32400 47.60300
C  44.65300 7.68900 47.43500
C  43.23900 7.57600 47.27700
C  42.91100 6.23700 47.40800
C  45.52400 8.87700 47.27400
C  42.00800 8.36900 47.15500
O  41.82800 9.57600 47.03500
C  40.86200 7.29900 47.14900
C  40.06000 7.47400 48.39500
O  40.27800 7.01100 49.51400
O  39.09700 8.41700 48.05700
C  38.07900 8.89200 49.03900
H  40.44200 0.48300 47.74800
H  46.79600 0.24400 48.37400
H  47.18200 6.61200 47.94900
H  38.85500 4.94200 47.43800
H  39.02600 2.25800 46.43200
H  37.87100 1.72100 48.52800
H  37.72300 3.42900 48.59400
H  39.03300 2.68100 49.50400
H  38.69100 3.55400 44.82700
H  39.84900 4.88500 44.57300
H  37.66300 6.02500 45.81100
H  37.01800 4.72300 44.77100
H  42.13100 -2.64400 47.34900
H  40.80100 -1.73300 47.82800
H  41.74800 -2.57600 48.98000
H  47.04000 -1.96900 48.12500
H  46.74900 -3.09200 49.56600
H  46.62000 -1.39600 49.80300
H  48.58800 2.01600 46.92900
H  48.68000 4.47000 48.51200
H  49.73000 2.71600 49.39200
H  49.28600 1.08600 48.71500
H  48.32300 1.82300 49.99500
H  49.02300 5.52200 46.40200
H  48.55100 4.00500 45.45900
H  50.53200 3.16300 45.44700
H  50.70400 3.33200 47.18000
H  51.11500 4.71000 46.18200
H  45.12200 9.70100 47.86200
H  45.59600 9.25900 46.25600
H  46.57100 8.81400 47.57100
H  40.27100 7.52800 46.26200
H  37.75800 9.87500 48.69600
H  38.35700 8.98300 50.09000
H  37.23800 8.20300 48.96300

