158

Mg 16.99200 -1.33500 28.18800
C  15.80300 0.50100 30.91000
C  18.84200 -3.29600 30.46900
C  18.44500 -2.74200 25.59000
C  15.24400 0.74200 26.09600
N  17.17300 -1.42900 30.45900
C  16.68400 -0.51900 31.30900
C  17.11900 -0.77100 32.73000
C  18.13000 -1.99600 32.55800
C  18.10100 -2.29200 31.06200
C  19.58300 -1.83600 33.06300
C  15.90800 -1.19400 33.66200
C  16.16400 -1.23300 35.22900
H  17.44100 -0.55900 35.78700
N  18.31500 -2.86400 28.02400
C  18.95300 -3.63400 29.07900
C  19.68000 -4.67200 28.41700
C  19.63000 -4.42900 27.02900
C  18.81100 -3.26400 26.83000
C  20.31800 -5.79900 29.18400
C  20.39400 -5.24400 25.95100
O  20.25400 -5.04400 24.74900
C  21.28500 -6.29100 26.38600
N  17.08200 -0.92300 26.12200
C  17.71900 -1.64200 25.22400
C  17.36400 -1.37800 23.79800
C  16.29600 -0.30700 23.91600
C  16.12600 -0.23200 25.49400
C  18.57800 -1.08800 22.86800
C  15.00400 -0.53900 23.08200
C  13.91700 -1.35300 23.88700
N  15.73500 0.32300 28.39000
C  15.05900 1.01000 27.42900
C  14.22100 1.99500 28.05200
C  14.49300 1.86100 29.39700
C  15.36300 0.81100 29.57700
C  13.34200 2.95800 27.35500
C  14.24300 2.46100 30.69000
O  13.58600 3.41800 31.13300
C  15.08900 1.60400 31.74300
C  15.95800 2.49800 32.55200
O  17.10000 2.77700 32.30800
O  15.24800 3.13700 33.55600
C  16.00200 4.04400 34.40200
H  19.33600 -4.00500 31.13600
H  18.91200 -3.19600 24.71300
H  14.64900 1.44400 25.50800
H  17.72200 -0.00200 33.21300
H  17.76100 -2.88100 33.07700
H  19.81300 -2.67900 33.71600
H  19.64600 -0.85700 33.53800
H  20.28000 -1.97700 32.23700
H  15.55300 -2.14900 33.27500
H  15.09100 -0.47700 33.58700
H  15.99400 -2.24400 35.59900
H  15.30600 -0.68500 35.61800
H  21.36900 -5.52400 29.27600
H  20.27700 -6.77900 28.71000
H  19.71100 -5.90300 30.08400
H  21.82800 -6.57300 25.48400
H  20.65600 -7.07800 26.80300
H  21.96600 -5.84900 27.11400
H  16.97200 -2.34200 23.47400
H  16.74300 0.61500 23.54500
H  19.37000 -0.64100 23.46900
H  18.34100 -0.43900 22.02500
H  18.94100 -2.09500 22.66100
H  15.28100 -1.10900 22.19500
H  14.64000 0.41900 22.71200
H  13.51200 -0.75700 24.70500
H  14.34900 -2.23400 24.36200
H  13.04300 -1.61600 23.29100
H  12.73900 2.38100 26.65300
H  13.93700 3.66600 26.77900
H  12.73200 3.47300 28.09700
H  14.32500 1.18100 32.39500
H  15.23900 4.49800 35.03600
H  16.35800 4.90600 33.83900
H  16.75600 3.43400 34.90000
Mg 8.61100 48.31400 26.12200
C  6.43900 48.75200 28.86600
C  11.25800 49.20900 28.14100
C  10.60100 47.91900 23.52200
C  5.79500 47.66500 24.06300
N  8.83300 48.75800 28.26600
C  7.77000 48.91900 29.18400
C  8.36000 49.37100 30.54200
C  9.89400 49.60400 30.28600
C  10.02200 49.16300 28.77700
C  10.44400 51.06600 30.48700
C  7.90200 48.47300 31.76100
C  8.90800 48.40600 32.96200
H  8.31200 47.75800 34.23300
N  10.65300 48.74400 25.84000
C  11.62000 49.04300 26.80600
C  12.91100 49.05600 26.14700
C  12.69100 48.74600 24.77900
C  11.24400 48.42300 24.68200
C  14.18500 49.41400 26.90100
C  13.71400 48.60100 23.68300
O  13.38200 48.25100 22.58400
C  15.20000 48.73300 24.02800
N  8.15600 48.11300 23.92400
C  9.22700 47.76600 23.13400
C  8.76800 47.14900 21.82000
C  7.23800 47.03000 22.03300
C  7.03200 47.72900 23.37700
C  9.15600 48.02000 20.56400
C  6.76600 45.60600 21.97600
C  7.32100 44.62600 23.04000
N  6.55200 48.13600 26.36600
C  5.55700 47.86800 25.48000
C  4.30100 47.87200 26.16700
C  4.57000 48.27100 27.46300
C  5.97300 48.44900 27.53400
C  2.88500 47.43500 25.55100
C  3.97700 48.58600 28.71900
O  2.85000 48.56300 29.10500
C  5.16000 49.00200 29.65900
C  4.87200 48.28800 30.93800
O  4.74300 47.10700 31.13600
O  4.41900 49.20600 31.84300
C  4.16400 48.66800 33.17000
H  12.10700 49.61900 28.69200
H  11.25100 47.60600 22.70200
H  5.04200 47.06300 23.55000
H  7.78100 50.28900 30.44400
H  10.48000 48.91200 30.89000
H  9.74900 51.63000 31.10900
H  10.54900 51.57800 29.53100
H  11.39000 51.08600 31.02800
H  7.87800 47.43700 31.42500
H  6.93500 48.63100 32.23900
H  9.34600 49.31600 33.37100
H  9.71900 47.73500 32.67900
H  14.02400 49.57900 27.96600
H  14.52700 50.37900 26.52700
H  14.97300 48.66600 26.81700
H  15.54400 47.82700 24.52600
H  15.23900 49.62300 24.65700
H  15.87500 48.83500 23.17800
H  9.23500 46.18100 21.63900
H  6.70300 47.59700 21.27200
H  8.30600 48.43100 20.02000
H  9.72100 47.43500 19.83800
H  9.75500 48.89900 20.80000
H  6.83600 45.21000 20.96300
H  5.69000 45.58800 22.15300
H  6.56300 43.89200 23.31500
H  7.56000 45.12500 23.97900
H  8.16300 44.12000 22.56800
H  3.15400 46.71300 24.78000
H  2.34100 48.36600 25.38900
H  2.41300 46.85500 26.34400
H  4.99000 50.07400 29.75000
H  4.18800 49.56900 33.78300
H  4.87200 47.88800 33.45100
H  3.15200 48.26200 33.16600

