158

Mg 41.13900 9.38400 29.04800
C  43.03000 10.57700 31.66700
C  38.86000 7.96200 31.21500
C  39.39500 7.82600 26.43500
C  43.56700 10.30600 26.84200
N  40.89200 9.36700 31.14900
C  41.83900 9.87900 32.03800
C  41.30000 9.73800 33.42900
C  40.07200 8.77900 33.27900
C  39.93200 8.70100 31.81800
C  40.43300 7.35400 33.88100
C  40.92700 11.09100 34.15900
C  39.96000 10.97300 35.35000
H  40.32000 11.94800 36.54700
N  39.19900 8.24500 28.85500
C  38.46400 7.75400 29.90300
C  37.35700 7.03000 29.36500
C  37.46900 7.09500 27.89200
C  38.74300 7.74400 27.65400
C  36.36000 6.41200 30.23200
C  36.46500 6.72400 26.85100
O  36.60000 6.94600 25.60600
C  35.10300 6.38100 27.30600
N  41.41700 9.14300 26.91000
C  40.65300 8.42500 26.05700
C  41.35600 8.33700 24.62000
C  42.20200 9.63700 24.76600
C  42.49400 9.70800 26.27800
C  42.18900 6.99800 24.40400
C  41.55700 10.99800 24.24000
C  40.97600 12.00000 25.16200
N  42.93500 10.29200 29.16000
C  43.78700 10.62300 28.18000
C  44.88700 11.35400 28.75800
C  44.64000 11.42600 30.13200
C  43.46300 10.71700 30.31700
C  46.04200 11.93800 28.00100
C  45.13400 11.77600 31.48900
O  46.16700 12.35500 31.83200
C  44.08300 11.36300 32.49600
C  44.63100 10.58500 33.59100
O  45.09600 9.48500 33.50200
O  44.39600 11.31500 34.78600
C  44.69500 10.56600 36.05300
H  38.15000 7.51500 31.91400
H  39.00300 7.24600 25.59600
H  44.31200 10.70700 26.15100
H  42.09400 9.12900 33.86100
H  39.10500 9.10000 33.66500
H  40.14600 7.12000 34.90600
H  41.49900 7.12500 33.85900
H  39.89900 6.63800 33.25600
H  40.57800 11.71400 33.33600
H  41.87000 11.47400 34.54800
H  39.89400 9.93700 35.68400
H  38.94400 11.28400 35.10700
H  36.72500 6.16800 31.23000
H  36.03900 5.45300 29.82500
H  35.40700 6.93700 30.29000
H  34.40800 6.31500 26.46900
H  34.76400 7.26100 27.85300
H  34.99200 5.42000 27.80800
H  40.60900 8.45900 23.83600
H  43.16100 9.49700 24.26800
H  41.85200 6.67300 23.41900
H  41.83600 6.28700 25.15100
H  43.26200 7.18400 24.42500
H  40.77800 10.68500 23.54400
H  42.33600 11.49100 23.65900
H  40.69800 11.51700 26.09800
H  40.19000 12.51400 24.60800
H  41.78500 12.70500 25.35500
H  45.72400 12.67300 27.26200
H  46.52700 11.18400 27.38000
H  46.69800 12.54800 28.62200
H  43.68500 12.25900 32.97200
H  43.72000 10.35300 36.49300
H  45.37700 11.19200 36.62900
H  45.17200 9.59900 35.89200
Mg -5.68600 25.17000 26.04700
C  -4.23400 26.65200 28.84800
C  -7.35600 23.07200 28.08300
C  -6.67600 23.44000 23.27900
C  -3.40300 26.99500 24.03700
N  -5.55400 24.74300 28.21000
C  -5.09800 25.57200 29.20400
C  -5.66300 25.22600 30.62100
C  -6.18200 23.78600 30.26900
C  -6.37000 23.80000 28.74400
C  -5.22700 22.58700 30.68200
C  -6.71800 26.25200 31.26700
C  -6.88400 26.16600 32.80800
H  -6.11200 25.08500 33.56500
N  -7.00600 23.58700 25.71800
C  -7.65600 22.90200 26.69200
C  -8.63400 21.97700 26.12100
C  -8.47400 22.11900 24.67200
C  -7.37600 23.16200 24.47600
C  -9.53300 21.12800 26.99300
C  -9.26200 21.43900 23.52900
O  -8.95700 21.63100 22.31000
C  -10.45800 20.62200 23.76400
N  -5.28100 25.44900 23.84500
C  -5.71100 24.51400 22.98200
C  -4.90900 24.54400 21.58000
C  -3.95200 25.79900 21.84000
C  -4.28500 26.16400 23.28300
C  -4.19600 23.09900 21.28700
C  -4.19900 26.99500 20.85000
C  -5.17800 28.07200 21.28500
N  -4.30300 26.67800 26.31300
C  -3.42400 27.33200 25.43800
C  -2.56400 28.24800 26.20700
C  -2.92900 28.10900 27.52000
C  -3.82100 27.00500 27.57700
C  -1.63800 29.22500 25.68100
C  -2.62100 28.53000 28.82200
O  -1.90200 29.37400 29.25100
C  -3.48700 27.57400 29.75000
C  -2.67800 26.88700 30.73100
O  -2.13100 25.82700 30.45100
O  -2.64600 27.51500 31.93400
C  -2.14300 26.71800 33.10200
H  -7.92300 22.34600 28.66900
H  -6.84000 22.80000 22.41000
H  -2.61600 27.38100 23.38500
H  -4.86300 25.18300 31.36000
H  -7.12300 23.48300 30.72800
H  -5.83100 21.84500 31.20500
H  -4.38300 22.96200 31.26100
H  -4.69600 22.19000 29.81700
H  -7.61000 26.09400 30.66000
H  -6.51200 27.27800 30.96100
H  -7.93900 26.07800 33.06900
H  -6.58000 27.12900 33.21800
H  -10.39600 21.62100 27.43900
H  -8.91400 20.61900 27.73300
H  -9.83300 20.25900 26.40700
H  -10.13300 19.59500 23.92900
H  -10.93400 20.62400 22.78300
H  -11.10200 21.06400 24.52400
H  -5.61300 24.77000 20.77900
H  -2.93900 25.41200 21.95800
H  -3.17900 23.22600 20.91700
H  -4.77000 22.64800 20.47700
H  -4.23900 22.34800 22.07500
H  -4.45200 26.58900 19.87100
H  -3.19500 27.39400 20.70400
H  -5.66000 28.29600 20.33400
H  -4.65800 28.89900 21.76900
H  -6.02100 27.68500 21.85800
H  -1.21500 28.82800 24.75800
H  -0.74100 29.30400 26.29500
H  -2.03300 30.22600 25.50900
H  -4.21700 28.23000 30.22300
H  -1.28700 26.10000 32.83100
H  -2.91500 26.03500 33.45800
H  -1.85400 27.34100 33.94800

