158

Mg 8.41200 3.15900 27.03600
C  9.86300 1.85300 29.83600
C  6.64300 5.35800 28.98400
C  6.92900 4.23800 24.19000
C  10.11700 0.70500 25.09800
N  8.14000 3.44800 29.20600
C  8.88000 2.85600 30.17700
C  8.66800 3.51600 31.49300
C  7.64700 4.60200 31.18400
C  7.44600 4.48500 29.71100
C  6.42300 4.50100 32.09500
C  10.06800 4.05800 32.10000
C  10.33800 3.78500 33.63300
H  10.26100 4.82400 34.70500
N  6.85800 4.49700 26.63200
C  6.23100 5.28000 27.58900
C  5.34900 6.18400 26.90500
C  5.41600 5.98800 25.49600
C  6.41200 4.81600 25.36700
C  4.54800 7.28200 27.67800
C  4.74400 6.59400 24.29200
O  5.05900 6.29000 23.18000
C  3.54500 7.45900 24.43800
N  8.59100 2.56300 25.01600
C  7.95800 3.23300 23.99200
C  8.29200 2.81400 22.51400
C  9.23100 1.58700 22.81100
C  9.37300 1.66600 24.40700
C  7.07300 2.42100 21.57200
C  10.52600 1.54500 21.98000
C  10.56300 0.71800 20.65000
N  9.74700 1.53200 27.36300
C  10.36300 0.66800 26.47400
C  11.12300 -0.26800 27.29400
C  11.01700 0.19300 28.60800
C  10.16200 1.32400 28.58800
C  11.99300 -1.37900 26.71600
C  11.43800 -0.03100 29.95800
O  12.19600 -0.91500 30.40000
C  10.66300 0.99500 30.82800
C  9.90100 0.20500 31.90100
O  8.83900 -0.32300 31.76200
O  10.56700 0.26300 33.07300
C  9.89300 -0.33300 34.24500
H  6.24200 6.05300 29.72400
H  6.72700 4.72800 23.23500
H  10.50600 -0.14100 24.52800
H  8.20000 2.79700 32.16500
H  8.08700 5.59800 31.22800
H  5.46800 4.60300 31.58000
H  6.49300 5.40000 32.70800
H  6.42600 3.60100 32.70900
H  10.06100 5.14000 31.97000
H  10.89300 3.84900 31.41900
H  11.32300 3.31900 33.59100
H  9.61500 3.03900 33.96300
H  4.85000 7.45000 28.71200
H  3.51300 6.94100 27.67100
H  4.67800 8.29100 27.28500
H  2.79600 6.93800 25.03400
H  3.20300 7.74800 23.44500
H  3.90600 8.36600 24.92400
H  8.84800 3.71400 22.25300
H  8.61400 0.71100 22.61200
H  6.14000 2.31400 22.12500
H  7.17900 1.50000 20.99800
H  6.94600 3.21800 20.83900
H  11.27400 1.08400 22.62600
H  10.87200 2.56600 21.81800
H  11.26700 1.10100 19.91100
H  9.59700 0.45800 20.21500
H  10.93300 -0.26700 20.93300
H  12.99100 -1.41200 27.15300
H  12.13200 -1.32500 25.63700
H  11.48500 -2.32500 26.90300
H  11.43200 1.57600 31.33700
H  8.98400 -0.89400 34.02600
H  9.72400 0.42400 35.01200
H  10.51800 -1.13200 34.64400
Mg 23.64300 -4.95500 45.27400
C  25.84000 -2.56500 44.01500
C  21.20300 -3.84700 43.13000
C  21.97300 -7.92000 45.76600
C  26.21700 -6.18400 47.22200
N  23.57800 -3.37000 43.78500
C  24.60100 -2.60400 43.37200
C  24.08200 -1.64200 42.24000
C  22.48200 -1.75700 42.28200
C  22.36000 -3.04100 43.12400
C  21.66900 -0.54700 42.89700
C  24.64600 -2.05900 40.79300
C  25.18700 -0.87600 39.96100
H  25.48600 -1.14900 38.49900
N  21.77100 -5.73300 44.62700
C  20.94900 -5.12100 43.76800
C  19.70600 -5.85700 43.63300
C  19.84200 -6.96900 44.46200
C  21.26300 -6.96700 45.00300
C  18.52300 -5.30800 42.85100
C  18.79900 -8.05900 44.72100
O  17.72500 -8.00500 44.16500
C  19.06200 -9.22800 45.64000
N  24.11300 -6.80700 46.28900
C  23.17600 -7.76000 46.47700
C  23.73300 -8.93600 47.36800
C  25.11800 -8.48200 47.75300
C  25.18300 -7.11800 47.06500
C  22.81000 -9.55900 48.42300
C  26.29500 -9.43900 47.31400
C  27.34600 -9.58700 48.38000
N  25.58500 -4.35600 45.70800
C  26.51800 -4.97300 46.47700
C  27.74400 -4.22300 46.47500
C  27.54100 -3.22600 45.45600
C  26.23100 -3.40500 44.99100
C  29.01000 -4.64200 47.10300
C  28.06700 -2.11000 44.66300
O  29.14200 -1.54400 44.70200
C  26.99400 -1.63600 43.61300
C  26.85700 -0.21000 43.96900
O  26.45200 0.24900 45.01500
O  27.23700 0.58500 42.86500
C  27.23700 2.00300 43.16500
H  20.37300 -3.44200 42.54800
H  21.54100 -8.92200 45.78700
H  27.10700 -6.49600 47.77300
H  24.32400 -0.59800 42.43700
H  22.12800 -1.98600 41.27600
H  20.77200 -0.44000 42.28700
H  22.12300 0.44400 42.88400
H  21.50500 -0.81500 43.94000
H  23.93700 -2.77700 40.38100
H  25.49600 -2.70500 41.01200
H  26.16800 -0.75500 40.42100
H  24.66900 0.04800 40.21600
H  18.36600 -4.25300 43.07700
H  17.56000 -5.74600 43.11200
H  18.63600 -5.33700 41.76700
H  19.76000 -9.94100 45.20200
H  18.13700 -9.75400 45.87900
H  19.50100 -8.93300 46.59300
H  23.81900 -9.77900 46.68200
H  25.19100 -8.36100 48.83400
H  23.37100 -9.45100 49.35100
H  22.60000 -10.61500 48.25200
H  21.86800 -9.01100 48.43900
H  26.75400 -8.86900 46.50700
H  25.96900 -10.44200 47.03800
H  27.57200 -10.63700 48.56400
H  27.12900 -9.02900 49.29100
H  28.27800 -9.33200 47.87600
H  29.24700 -5.55000 46.54800
H  28.93000 -4.93400 48.15100
H  29.76100 -3.86100 46.98800
H  27.35100 -1.73100 42.58700
H  28.07500 2.20400 43.83200
H  26.32700 2.39900 43.61500
H  27.37000 2.63800 42.28900

