158

Mg 44.39600 4.89800 46.77700
C  42.43600 7.65700 47.02700
C  41.50400 3.07800 46.09300
C  46.22500 2.09000 45.97700
C  47.23800 6.84600 46.54300
N  42.21700 5.38600 46.72500
C  41.71100 6.59200 46.79000
C  40.16400 6.60600 46.64400
C  39.87800 5.07700 46.25500
C  41.27400 4.43300 46.43800
C  38.72100 4.54400 47.17500
C  39.59000 7.56600 45.50400
C  40.37300 7.82500 44.17000
H  39.81000 7.14800 42.89600
N  43.95900 2.82500 46.30900
C  42.69000 2.30600 46.02500
C  42.74600 0.91000 45.63400
C  44.12700 0.56400 45.56800
C  44.87100 1.84500 45.99800
C  41.54100 0.05500 45.42200
C  44.67700 -0.82400 45.29400
O  43.88300 -1.69700 45.08500
C  46.10200 -1.23100 45.22500
N  46.44900 4.49000 46.33400
C  46.96000 3.28300 46.10800
C  48.49600 3.35500 46.10800
C  48.79500 4.82700 46.49700
C  47.43900 5.44200 46.51300
C  49.09700 2.27800 47.04400
C  49.78200 5.60900 45.48000
C  51.28800 5.16300 45.53700
N  44.87600 6.90500 46.84200
C  46.03800 7.56000 46.73700
C  45.85400 8.97400 46.90300
C  44.44100 9.11200 47.05800
C  43.91000 7.79700 47.03000
C  46.81300 10.03600 46.91200
C  43.31000 10.02000 47.30000
O  43.28700 11.23000 47.67800
C  42.01000 9.12400 47.25000
C  41.18500 9.24800 48.42600
O  41.11600 8.43800 49.37900
O  40.38000 10.35400 48.32300
C  39.47800 10.72600 49.42700
H  40.56200 2.61600 45.79100
H  46.83900 1.21500 45.75700
H  48.08500 7.51900 46.69100
H  39.69000 6.86300 47.59100
H  39.55000 5.04900 45.21600
H  38.12900 5.42200 47.43700
H  39.14800 4.10200 48.07500
H  38.21200 3.83100 46.52700
H  39.49700 8.58500 45.87800
H  38.59200 7.20800 45.25300
H  41.37600 7.42600 44.31900
H  40.35200 8.91400 44.15000
H  41.53400 -0.01000 44.33400
H  40.55400 0.40100 45.72800
H  41.67900 -0.94400 45.83600
H  46.25900 -2.27000 44.93400
H  46.51200 -1.14300 46.23100
H  46.62400 -0.57200 44.53100
H  48.80000 3.02900 45.11300
H  49.15300 4.86800 47.52600
H  50.17900 2.27700 46.91200
H  48.74300 1.30100 46.71600
H  48.75400 2.27800 48.07900
H  49.70900 6.67300 45.70600
H  49.43300 5.44800 44.46000
H  51.79000 5.08000 44.57300
H  51.49800 4.27600 46.13500
H  51.84300 5.93200 46.07500
H  46.82600 10.57100 47.86100
H  46.49900 10.78700 46.18700
H  47.87200 9.91100 46.68600
H  41.43300 9.56900 46.43900
H  40.17200 11.15100 50.15100
H  38.90800 9.84100 49.70900
H  38.90400 11.61200 49.15400
Mg 34.37700 3.40600 29.30600
C  32.45300 4.24300 31.97600
C  37.05900 2.82400 31.51900
C  36.55000 2.81100 26.64800
C  31.81000 3.92500 27.15800
N  34.70000 3.53400 31.45700
C  33.72900 3.86600 32.34000
C  34.26200 3.87500 33.79000
C  35.79300 3.64300 33.70200
C  35.86600 3.24200 32.13800
C  36.65100 4.96500 33.98500
C  33.49700 2.86900 34.70200
C  33.20700 3.35400 36.06800
H  33.90900 4.41500 36.79800
N  36.46800 2.84000 29.13000
C  37.32900 2.57500 30.11400
C  38.62500 2.35500 29.64600
C  38.55800 2.33600 28.22600
C  37.17000 2.69500 27.92400
C  39.82200 2.14700 30.59800
C  39.65600 2.03800 27.16900
O  39.45600 2.12800 25.91500
C  41.07500 1.59000 27.76100
N  34.18900 3.36400 27.21800
C  35.20300 3.04200 26.26800
C  34.78700 3.35700 24.84800
C  33.27000 3.65300 25.00200
C  33.08700 3.66000 26.56300
C  35.60300 4.46900 24.12200
C  32.39100 2.66400 24.12400
C  31.89500 1.37800 24.86200
N  32.45900 3.92400 29.47100
C  31.52500 4.07600 28.51000
C  30.28000 4.55400 29.09300
C  30.62600 4.62400 30.48000
C  31.96200 4.22100 30.62900
C  29.09300 4.81600 28.21700
C  30.06600 4.92000 31.79700
O  28.92500 5.10500 32.24500
C  31.25600 4.68200 32.82900
C  31.43000 5.94300 33.59500
O  32.11800 6.91300 33.31400
O  30.60300 5.90300 34.69300
C  30.59000 7.15700 35.45500
H  37.81500 2.74500 32.30300
H  37.08700 2.81900 25.69700
H  31.08800 4.14000 26.36800
H  34.08400 4.89700 34.12300
H  36.15000 2.78700 34.27600
H  36.03300 5.56200 34.65600
H  36.95600 5.57100 33.13200
H  37.53400 4.74000 34.58200
H  34.02700 1.92900 34.54300
H  32.56900 2.68600 34.16000
H  33.47100 2.55700 36.76300
H  32.13600 3.51100 36.19600
H  40.71300 2.59700 30.16100
H  40.12900 1.13000 30.84100
H  39.66500 2.68300 31.53400
H  41.69000 1.20000 26.95000
H  41.00500 0.79700 28.50500
H  41.65700 2.45100 28.09100
H  34.86400 2.37400 24.38400
H  33.11700 4.66300 24.62000
H  36.09100 3.88300 23.34200
H  36.32600 4.98800 24.75000
H  34.89900 5.20300 23.73000
H  32.88500 2.31700 23.21600
H  31.52900 3.27100 23.84600
H  32.44700 1.27800 25.79600
H  32.06900 0.50300 24.23500
H  30.81600 1.48300 24.97800
H  28.69800 3.98600 27.62900
H  29.48800 5.57300 27.54000
H  28.24500 5.21000 28.77700
H  30.84200 3.94200 33.51300
H  29.78200 7.14600 36.18700
H  30.48000 8.11100 34.93900
H  31.57600 7.24700 35.91100

