158

Mg 30.39200 58.73800 40.49500
C  27.74500 56.76500 39.15500
C  32.50700 56.37700 39.57900
C  32.68200 61.02100 41.09800
C  27.87500 61.22700 41.28300
N  30.10800 56.84600 39.47800
C  29.02700 56.22100 38.94900
C  29.34200 55.00100 38.10800
C  30.72400 54.71600 38.64900
C  31.17600 56.07500 39.19800
C  30.81900 53.62700 39.76700
C  29.18100 55.39800 36.66800
C  28.46800 54.45000 35.71000
H  28.86700 54.53900 34.23300
N  32.37700 58.66300 40.45300
C  33.10500 57.60300 40.07900
C  34.45600 57.84600 40.40200
C  34.57400 59.22300 40.84600
C  33.19900 59.69600 40.77100
C  35.54900 56.92000 40.13700
C  35.87200 59.84600 41.28100
O  36.92800 59.31800 41.03600
C  35.99000 61.29400 41.85300
N  30.21800 60.84500 41.05900
C  31.38900 61.52800 41.25300
C  31.09200 62.89100 41.76000
C  29.59500 62.83800 42.22300
C  29.16500 61.58700 41.44400
C  32.11800 63.47800 42.76700
C  28.80100 64.06100 41.93700
C  28.14800 64.69800 43.17000
N  28.29800 59.05500 40.15700
C  27.43000 60.04400 40.59100
C  26.05300 59.70700 40.16400
C  26.16800 58.43600 39.63700
C  27.50700 58.03000 39.72600
C  24.84500 60.60900 40.33200
C  25.34800 57.37700 39.16000
O  24.14300 57.31200 38.94700
C  26.42200 56.23000 38.80300
C  26.25500 55.04400 39.61200
O  26.43500 55.01300 40.83700
O  25.87100 53.98600 38.81300
C  25.90300 52.72600 39.57400
H  33.36300 55.73200 39.37100
H  33.48700 61.74000 41.26200
H  27.12700 61.97500 41.55200
H  28.71600 54.16700 38.42800
H  31.36300 54.22400 37.91600
H  30.91100 54.13300 40.72800
H  31.69300 53.02300 39.52700
H  29.95400 52.96400 39.73600
H  30.18900 55.50300 36.26500
H  28.63600 56.34100 36.62800
H  27.40100 54.62200 35.85300
H  28.69500 53.41500 35.96500
H  36.11800 57.23100 39.26100
H  35.26800 55.88100 39.96400
H  36.23400 56.93400 40.98400
H  37.03900 61.54200 42.01500
H  35.33500 61.37400 42.72100
H  35.65600 62.05700 41.15000
H  31.15500 63.48400 40.84800
H  29.63100 62.55300 43.27400
H  32.69300 62.71900 43.29600
H  31.74000 64.20900 43.48300
H  32.83500 64.07800 42.20700
H  28.05500 63.80200 41.18600
H  29.48800 64.75000 41.44500
H  28.48100 65.73400 43.09600
H  28.63000 64.36400 44.08900
H  27.06900 64.54600 43.16200
H  24.37300 60.25500 41.24800
H  24.20300 60.33400 39.49500
H  25.15500 61.65400 40.32500
H  26.32700 56.02900 37.73600
H  25.48400 52.85900 40.57200
H  26.92000 52.41400 39.81000
H  25.32600 51.97800 39.03000
Mg 1.36600 42.44800 25.35100
C  2.68600 42.57300 28.78600
C  -1.48800 41.18300 26.60300
C  0.61000 41.71100 22.26900
C  4.38700 43.82300 24.40400
N  0.70000 41.84900 27.52500
C  1.33800 42.13800 28.73900
C  0.38300 41.79700 29.86200
C  -0.89400 41.24900 29.09700
C  -0.58900 41.43500 27.66000
C  -1.21000 39.74600 29.27600
C  0.04600 42.96600 30.80800
C  0.13800 42.74900 32.30700
H  -0.34400 41.30400 32.71900
N  -0.31000 41.65500 24.55500
C  -1.42700 41.18700 25.20900
C  -2.40800 40.77400 24.24500
C  -1.81900 40.89800 22.95800
C  -0.44800 41.49500 23.20100
C  -3.87500 40.44400 24.68100
C  -2.38400 40.57100 21.62000
O  -1.82100 40.84100 20.55000
C  -3.74200 39.96100 21.62100
N  2.34200 42.76400 23.59200
C  1.80300 42.22900 22.42800
C  2.92000 42.25000 21.40200
C  3.99200 43.18200 21.99400
C  3.56100 43.34500 23.44200
C  3.39100 40.84600 20.93700
C  4.40200 44.57000 21.28900
C  3.35600 45.75500 21.41000
N  3.15800 43.12000 26.28800
C  4.28000 43.64200 25.81100
C  5.20200 44.04100 26.84500
C  4.60700 43.61700 28.01400
C  3.35200 43.10500 27.65500
C  6.64800 44.61500 26.68000
C  4.81500 43.41800 29.46900
O  5.79600 43.59800 30.15400
C  3.51000 42.77600 30.02300
C  3.85000 41.48600 30.69200
O  4.31000 40.48800 30.21100
O  3.32100 41.47700 31.90300
C  3.40500 40.25000 32.67900
H  -2.44100 40.78200 26.95300
H  0.24500 41.40400 21.28700
H  5.36500 44.14500 24.04100
H  0.89700 40.95800 30.33100
H  -1.84200 41.74700 29.29900
H  -0.51900 39.28600 29.98200
H  -1.16500 39.23500 28.31500
H  -2.20500 39.69500 29.71900
H  -0.84800 43.53800 30.55700
H  0.78800 43.73800 30.60900
H  -0.33500 43.54800 32.87700
H  1.21700 42.69900 32.45100
H  -4.02100 39.36600 24.76200
H  -4.64300 40.96100 24.10600
H  -4.08400 40.85700 25.66800
H  -4.38200 40.77800 21.95500
H  -3.65700 39.04000 22.19700
H  -3.95300 39.76000 20.57000
H  2.55400 42.76900 20.51600
H  4.88800 42.56600 22.07000
H  2.72600 40.11300 21.39300
H  4.43800 40.77100 21.23100
H  3.14600 40.85800 19.87500
H  4.71000 44.37200 20.26200
H  5.28300 44.82000 21.88000
H  2.45400 45.21400 21.69500
H  3.20100 46.34800 20.50900
H  3.67700 46.46500 22.17200
H  6.99200 44.97800 27.64900
H  6.79900 45.39200 25.93000
H  7.30600 43.76200 26.51300
H  3.06300 43.44200 30.76000
H  2.70700 39.52800 32.25600
H  3.08200 40.34800 33.71500
H  4.41800 39.85600 32.76700

