158

Mg 10.41900 47.60900 26.10200
C  8.09100 47.41300 28.76100
C  12.75600 48.41900 28.58700
C  12.37500 48.49700 23.63200
C  7.77200 47.26000 23.84100
N  10.42400 47.94300 28.47700
C  9.29600 47.71800 29.29300
C  9.64200 47.95100 30.75400
C  11.16600 48.28600 30.73800
C  11.48000 48.32000 29.16700
C  11.52000 49.57700 31.54600
C  9.32900 46.75300 31.80700
C  10.14600 46.64200 33.12400
H  9.51200 45.84100 34.24000
N  12.35600 48.20800 26.07600
C  13.15500 48.43900 27.19100
C  14.45800 48.68100 26.70900
C  14.42200 48.73700 25.26000
C  12.97900 48.52000 24.93100
C  15.67400 48.91900 27.66000
C  15.53100 48.89500 24.29600
O  15.27900 49.17900 23.11800
C  17.01400 48.83000 24.68800
N  10.05400 47.99600 23.98800
C  11.09900 48.29400 23.15100
C  10.68000 48.42300 21.71500
C  9.29400 47.83600 21.80600
C  8.97200 47.70500 23.27500
C  10.80300 49.86300 21.20300
C  9.06000 46.50900 21.04400
C  8.20600 46.62900 19.71700
N  8.33100 47.19900 26.27200
C  7.42700 47.05100 25.21100
C  6.07400 46.81800 25.72800
C  6.30600 46.92800 27.17000
C  7.68300 47.17200 27.40900
C  4.76300 46.73500 24.99600
C  5.65900 46.89600 28.40300
O  4.53000 46.51300 28.76400
C  6.73700 47.25700 29.50700
C  6.65900 46.08500 30.39000
O  7.22500 45.02000 30.24500
O  5.72100 46.41300 31.39000
C  5.72700 45.44500 32.54300
H  13.49900 48.56300 29.37300
H  13.06700 48.57700 22.79100
H  6.93600 47.12200 23.15300
H  9.05300 48.85400 30.91500
H  11.86500 47.49700 31.01600
H  11.70400 50.50800 31.00900
H  12.38100 49.33500 32.16900
H  10.74300 49.66300 32.30600
H  9.41900 45.80200 31.28200
H  8.31700 46.90800 32.18100
H  10.53200 47.61600 33.42400
H  11.03400 46.11100 32.78000
H  16.66000 48.50600 27.44900
H  15.48000 48.84300 28.73000
H  15.85200 49.97700 27.46900
H  17.22500 49.59800 25.43100
H  17.71400 49.05600 23.88400
H  17.14200 47.82900 25.10100
H  11.39500 47.81400 21.16200
H  8.59900 48.55300 21.36800
H  11.14400 50.53100 21.99400
H  9.84500 50.28100 20.89200
H  11.36400 49.81800 20.27000
H  8.72500 45.77600 21.77900
H  10.05800 46.14400 20.79900
H  7.78400 47.62500 19.57900
H  7.42600 45.88200 19.86700
H  8.68400 46.26500 18.80800
H  4.66800 45.66000 24.84000
H  4.77100 47.32900 24.08200
H  3.87400 47.01200 25.56300
H  6.40800 48.05500 30.17200
H  5.52500 46.11500 33.37900
H  6.63300 44.84000 32.59500
H  4.86200 44.86200 32.23000
Mg -4.54700 24.82800 26.19000
C  -2.79100 26.31900 28.86300
C  -5.90200 22.53800 28.59200
C  -6.02500 23.31200 23.76800
C  -2.49700 26.64700 24.00900
N  -4.39100 24.54100 28.44600
C  -3.68300 25.36300 29.33100
C  -4.14100 25.00100 30.78600
C  -4.73100 23.52200 30.54500
C  -5.04900 23.50900 29.08900
C  -3.62100 22.42200 30.84500
C  -5.21700 25.95000 31.23500
C  -5.13300 26.52100 32.58700
H  -4.66000 25.66400 33.69500
N  -5.92300 23.23800 26.17500
C  -6.38400 22.48700 27.25300
C  -7.35100 21.52800 26.72000
C  -7.41400 21.83900 25.31700
C  -6.39800 22.76800 25.01100
C  -8.01600 20.43200 27.54100
C  -8.42300 21.18200 24.27900
O  -8.34800 21.37000 23.06400
C  -9.48000 20.30000 24.67200
N  -4.25900 24.90100 24.15700
C  -5.06100 24.25900 23.33600
C  -4.70800 24.51800 21.85400
C  -3.65800 25.66500 21.91300
C  -3.48700 25.82800 23.43100
C  -4.28000 23.25100 21.09200
C  -4.09000 27.03900 21.29800
C  -5.06800 27.04300 20.08200
N  -3.03800 26.30700 26.37800
C  -2.28500 26.92100 25.39200
C  -1.52800 27.98800 25.99700
C  -1.66100 27.71000 27.38500
C  -2.52800 26.66400 27.56800
C  -0.66400 28.93800 25.29200
C  -1.14200 28.07800 28.72000
O  -0.37100 28.94900 29.03800
C  -1.95100 27.18500 29.73700
C  -1.04300 26.52100 30.78000
O  -0.13500 25.76000 30.53900
O  -1.49500 27.03800 32.04800
C  -0.81500 26.40400 33.13100
H  -6.33300 21.86100 29.33300
H  -6.49500 22.94800 22.85300
H  -1.80800 27.20700 23.37200
H  -3.31800 24.95900 31.50000
H  -5.62200 23.30500 31.13500
H  -3.94100 21.44100 30.49200
H  -3.43100 22.26500 31.90700
H  -2.77000 22.82400 30.29600
H  -6.24100 25.68500 30.97500
H  -5.17100 26.82600 30.58800
H  -6.11400 26.85700 32.92400
H  -4.51600 27.41700 32.64100
H  -7.42600 20.15300 28.41400
H  -8.07000 19.49400 26.99000
H  -9.05800 20.64000 27.78300
H  -10.18900 20.77900 25.34700
H  -9.09800 19.34200 25.02300
H  -10.01600 20.00800 23.76900
H  -5.61200 24.84600 21.34000
H  -2.69700 25.32100 21.52900
H  -5.09500 23.08100 20.38900
H  -4.27700 22.39500 21.76600
H  -3.35500 23.35500 20.52600
H  -3.28600 27.64900 20.88700
H  -4.53900 27.54200 22.15500
H  -6.08800 27.31400 20.35300
H  -5.08600 26.09400 19.54600
H  -4.77700 27.69900 19.26100
H  -0.13100 29.63500 25.93900
H  -1.14000 29.69500 24.66800
H  0.02300 28.34500 24.68900
H  -2.61600 27.88700 30.23900
H  -0.94800 27.04100 34.00600
H  0.26700 26.31400 33.03600
H  -1.08900 25.35000 33.16800

