158

Mg 25.76300 0.53100 29.86600
C  27.65500 0.25300 32.83600
C  22.91400 0.89300 31.84200
C  23.74900 0.64400 27.15500
C  28.47700 -0.32200 27.96400
N  25.37400 0.58900 32.03600
C  26.27900 0.49800 33.08100
C  25.70500 0.76400 34.41100
C  24.18900 0.97400 34.13700
C  24.15700 0.78400 32.60000
C  23.13600 -0.10800 34.74400
C  26.38700 1.90400 35.19000
C  26.70900 1.57900 36.66200
H  26.24700 2.69700 37.60600
N  23.59400 0.73300 29.58200
C  22.60800 0.90400 30.49000
C  21.37400 1.21600 29.91800
C  21.62000 1.10700 28.52400
C  22.99500 0.88700 28.37000
C  20.14400 1.58600 30.69500
C  20.70900 1.04400 27.34800
O  21.01100 0.67900 26.18400
C  19.24400 1.33000 27.59200
N  26.12700 0.13000 27.85500
C  25.11700 0.28100 26.90200
C  25.67200 0.17400 25.44900
C  27.22000 0.08100 25.67200
C  27.31700 -0.03400 27.24000
C  25.00800 -0.99500 24.73700
C  28.08900 1.31000 25.14600
C  27.75200 2.72300 25.69600
N  27.68400 0.12100 30.25800
C  28.63900 -0.30700 29.37800
C  29.87700 -0.62800 30.21100
C  29.48300 -0.30300 31.49700
C  28.20500 0.02200 31.52000
C  31.16500 -1.04600 29.77800
C  29.99900 -0.32400 32.87100
O  31.07300 -0.70200 33.33600
C  28.87600 0.12200 33.82300
C  28.75500 -1.01900 34.74300
O  28.47700 -2.11300 34.39800
O  29.23800 -0.65100 35.95800
C  29.07000 -1.56900 37.09200
H  22.07400 1.16500 32.48500
H  23.30700 1.04600 26.24100
H  29.43400 -0.52000 27.47800
H  25.80800 -0.05800 35.11900
H  23.89500 1.99300 34.38600
H  22.28800 0.37000 35.23300
H  23.65800 -0.59500 35.56700
H  22.66400 -0.88400 34.14000
H  25.74000 2.77900 35.12100
H  27.25600 2.32100 34.68200
H  27.79300 1.59200 36.77500
H  26.35400 0.59600 36.96900
H  19.95900 2.64200 30.49600
H  20.18500 1.54700 31.78400
H  19.24600 1.04400 30.39900
H  19.21900 2.20600 28.24000
H  18.82600 0.49000 28.14700
H  18.65100 1.61600 26.72300
H  25.33700 1.14800 25.09200
H  27.65600 -0.82300 25.24700
H  24.58900 -1.67600 25.47800
H  25.81600 -1.48800 24.19600
H  24.27900 -0.75600 23.96300
H  27.95100 1.44900 24.07300
H  29.12800 0.98300 25.19100
H  28.52300 3.25500 26.25400
H  26.95500 2.71700 26.44000
H  27.47400 3.30100 24.81400
H  31.28500 -1.26900 28.71800
H  31.43300 -2.03600 30.14600
H  31.90900 -0.29600 30.04400
H  29.06800 1.01900 34.41200
H  28.21100 -1.27800 37.69500
H  30.00100 -1.61200 37.65700
H  28.84700 -2.59200 36.78600
Mg -2.70100 34.28400 27.19000
C  -4.17500 32.33600 29.91500
C  -1.31100 36.29700 29.59500
C  -1.71800 36.28100 24.68400
C  -4.48600 32.28000 24.96700
N  -2.90500 34.32900 29.52700
C  -3.42600 33.40700 30.49100
C  -3.08500 33.73300 31.90200
C  -2.17700 35.05500 31.73400
C  -2.17300 35.29500 30.17000
C  -2.50500 36.38300 32.61200
C  -2.41200 32.53200 32.65600
C  -3.03700 32.18600 34.07000
H  -1.99000 31.85300 35.17200
N  -1.59200 36.03900 27.11500
C  -1.06000 36.69100 28.23700
C  -0.29700 37.76900 27.78200
C  -0.35100 37.77200 26.36200
C  -1.29200 36.69200 25.98300
C  0.35800 38.73100 28.79200
C  0.47300 38.66200 25.40300
O  0.58100 38.49100 24.21200
C  1.11000 39.90500 25.95900
N  -2.94700 34.24300 25.03300
C  -2.45300 35.19700 24.20600
C  -2.85000 34.96400 22.76500
C  -3.48600 33.55000 22.82400
C  -3.64000 33.28900 24.37400
C  -3.93700 35.98100 22.29400
C  -2.55200 32.45300 22.27600
C  -1.14200 32.28900 22.83600
N  -4.09500 32.60900 27.34900
C  -4.72400 31.97500 26.31500
C  -5.44400 30.82300 26.82500
C  -5.31700 30.89300 28.23800
C  -4.46400 32.04900 28.57000
C  -6.40500 29.88100 26.01600
C  -5.72700 30.36000 29.52300
O  -6.50700 29.44200 29.75500
C  -5.09200 31.29500 30.62300
C  -6.22800 31.81700 31.36100
O  -6.95600 32.75000 31.14400
O  -6.22800 31.10500 32.53900
C  -6.79500 31.80800 33.69600
H  -0.75600 36.92200 30.29800
H  -1.37400 37.06100 24.00100
H  -5.10500 31.69900 24.28100
H  -4.01800 34.05100 32.36700
H  -1.16900 34.76000 32.02700
H  -3.53300 36.33800 32.97300
H  -2.26700 37.27400 32.03100
H  -1.91800 36.37000 33.53000
H  -1.39000 32.85000 32.86300
H  -2.42400 31.68300 31.97300
H  -3.84500 31.46500 33.95000
H  -3.58900 33.08300 34.35100
H  -0.24700 38.83400 29.69300
H  0.35400 39.76200 28.44000
H  1.30300 38.36100 29.19000
H  0.42400 40.41700 26.63300
H  1.42000 40.59300 25.17300
H  2.01000 39.59400 26.49000
H  -2.09800 35.04000 21.98100
H  -4.39300 33.55400 22.21900
H  -4.74800 36.06600 23.01700
H  -4.32100 35.69100 21.31700
H  -3.46800 36.95600 22.16300
H  -2.42700 32.60400 21.20400
H  -3.07200 31.50400 22.40500
H  -0.54500 32.51100 21.95200
H  -0.91300 31.24500 23.05400
H  -0.93000 33.00500 23.62900
H  -6.30800 29.95600 24.93200
H  -7.39200 30.09200 26.42700
H  -6.31600 28.81100 26.20200
H  -4.48900 30.65700 31.26800
H  -6.01900 32.42300 34.15300
H  -7.19300 31.13700 34.45800
H  -7.71700 32.34100 33.46100

