158

Mg 25.45400 1.47600 29.14300
C  27.37800 1.03700 32.14600
C  22.64500 2.03700 31.07600
C  23.73100 1.83600 26.32700
C  28.26000 0.61800 27.25900
N  25.05500 1.50000 31.37800
C  26.04600 1.39600 32.38900
C  25.33300 1.68300 33.72800
C  23.87300 1.80700 33.31400
C  23.88600 1.83900 31.79500
C  22.74200 0.92700 34.03700
C  25.89500 2.88100 34.53700
C  26.58800 2.65700 35.86600
H  26.39500 3.73800 37.00200
N  23.47900 1.90600 28.75200
C  22.48000 1.96500 29.65800
C  21.24300 2.13500 29.03000
C  21.49100 1.92100 27.59300
C  22.93700 1.86000 27.49800
C  19.95500 2.39800 29.81300
C  20.47900 1.74800 26.46400
O  20.87800 1.63500 25.33000
C  19.00800 1.75200 26.70900
N  26.02100 1.42000 27.02500
C  25.11400 1.66000 26.08100
C  25.79000 1.59800 24.66800
C  27.23200 0.99400 24.95300
C  27.19200 0.99600 26.50600
C  25.16500 0.66000 23.59300
C  28.45100 1.68400 24.36200
C  28.58900 3.22800 24.64800
N  27.41500 0.89100 29.53200
C  28.43900 0.58300 28.66800
C  29.62400 0.33900 29.48700
C  29.28400 0.57400 30.80600
C  27.87500 0.85000 30.79200
C  30.89800 -0.23000 28.87100
C  29.81300 0.68700 32.14500
O  30.92900 0.40900 32.58500
C  28.58500 1.06300 32.98200
C  28.40300 0.03400 34.09400
O  27.57800 -0.86900 34.19200
O  29.23000 0.46900 35.13000
C  29.23800 -0.41200 36.33600
H  21.78900 2.30600 31.69800
H  23.09700 2.04100 25.46200
H  29.06400 0.35900 26.56600
H  25.47800 0.78400 34.32700
H  23.52800 2.80500 33.58500
H  22.24100 0.24800 33.34800
H  22.02500 1.53700 34.58500
H  23.27500 0.26100 34.71500
H  25.10300 3.59300 34.77000
H  26.60300 3.35600 33.85800
H  27.65100 2.46500 35.72600
H  26.16000 1.70200 36.17100
H  20.02200 3.44600 30.10500
H  19.81700 1.77800 30.69900
H  19.02700 2.33600 29.24500
H  18.51200 2.69500 26.93700
H  18.73200 0.97000 27.41700
H  18.55500 1.45500 25.76300
H  25.75800 2.63500 24.33400
H  27.37100 -0.04600 24.65700
H  24.80900 1.31300 22.79600
H  24.37000 0.14100 24.12800
H  25.84700 -0.00400 23.06200
H  28.25500 1.65000 23.29100
H  29.39000 1.14100 24.46600
H  28.30200 3.57200 25.64200
H  27.86600 3.76000 24.03100
H  29.60100 3.62500 24.57400
H  30.68000 -0.91100 28.04800
H  31.40900 -0.64800 29.73800
H  31.55800 0.57100 28.53800
H  28.70200 2.04800 33.43400
H  29.10200 -1.44500 36.01600
H  28.67100 -0.15200 37.23000
H  30.25700 -0.40900 36.72300
Mg 30.55100 58.69600 41.03200
C  27.78800 56.89700 39.93600
C  32.55600 56.28800 39.65300
C  33.08500 60.99600 41.01800
C  28.31300 61.40500 41.77700
N  30.12000 56.88400 39.81100
C  28.96600 56.23500 39.65300
C  29.11200 54.76500 39.27700
C  30.64600 54.58400 39.34500
C  31.16700 55.98200 39.67400
C  31.17400 53.39700 40.17900
C  28.40300 54.26700 38.03300
C  28.20200 55.22000 36.80900
H  28.36100 54.82800 35.37800
N  32.53300 58.61900 40.55400
C  33.15300 57.56000 39.92700
C  34.57800 57.88400 39.83100
C  34.78100 59.20800 40.15200
C  33.46400 59.66500 40.59600
C  35.64000 56.94800 39.27800
C  36.13000 59.92400 40.08900
O  37.07600 59.38900 39.49600
C  36.40400 61.29700 40.65200
N  30.61000 60.81000 41.59400
C  31.81700 61.49200 41.52800
C  31.71600 62.98000 41.88000
C  30.18500 63.10400 42.21200
C  29.65700 61.74400 41.81500
C  32.65600 63.39900 43.03300
C  29.35700 64.29000 41.68100
C  29.08600 65.49200 42.69300
N  28.43000 59.06500 41.08200
C  27.64800 60.18500 41.37200
C  26.26800 59.91600 41.15100
C  26.32400 58.61300 40.59400
C  27.62300 58.16900 40.48000
C  25.18600 60.90800 41.35800
C  25.43500 57.54900 40.07600
O  24.23200 57.56700 39.92900
C  26.39200 56.36700 39.76300
C  26.10000 55.32100 40.78100
O  26.58800 55.16800 41.87600
O  25.14800 54.43700 40.26300
C  24.70500 53.22900 41.05300
H  33.24600 55.53600 39.26400
H  33.74900 61.85300 40.89000
H  27.59100 62.21400 41.90600
H  28.68100 54.33100 40.17900
H  31.07300 54.44700 38.35200
H  31.92200 53.72900 40.89800
H  31.55000 52.69100 39.43800
H  30.44700 52.89100 40.81400
H  27.43700 53.88700 38.36500
H  29.00700 53.48100 37.58000
H  28.92800 56.02200 36.94200
H  27.18000 55.57900 36.92600
H  35.68000 57.22400 38.22500
H  35.33700 55.90600 39.38800
H  36.57600 57.08800 39.81800
H  35.92900 61.54600 41.60200
H  36.14200 62.01600 39.87500
H  37.47900 61.36700 40.81400
H  31.80000 63.54000 40.94900
H  30.15700 63.07300 43.30200
H  33.16300 62.52200 43.43600
H  32.19000 63.90200 43.88000
H  33.32700 64.17300 42.66200
H  28.47400 63.91300 41.16500
H  29.93000 64.61200 40.81100
H  29.32000 65.24700 43.72900
H  28.00600 65.63800 42.66200
H  29.56600 66.40300 42.33600
H  25.40500 61.47400 42.26300
H  24.30600 60.29300 41.54800
H  25.04600 61.45500 40.42600
H  26.09600 56.08700 38.75100
H  24.26900 53.60500 41.97900
H  25.51900 52.57500 41.36600
H  24.00200 52.68100 40.42600

