158

Mg 47.83500 15.13100 28.14400
C  45.80300 14.80500 30.99800
C  50.00100 17.09700 30.19900
C  49.63900 15.83000 25.47500
C  45.39200 13.51900 26.22600
N  47.91400 15.75200 30.37000
C  46.95900 15.55600 31.27300
C  47.38500 15.99900 32.61200
C  48.47000 17.09200 32.22300
C  48.82500 16.62900 30.86100
C  48.01700 18.56000 32.33700
C  47.96600 14.82500 33.46800
C  48.40500 15.19200 34.94900
H  48.09000 16.60300 35.46100
N  49.71400 16.20100 27.93200
C  50.42400 16.82700 28.91300
C  51.53400 17.43900 28.22600
C  51.41900 17.15800 26.88300
C  50.29200 16.32000 26.68800
C  52.49200 18.30100 28.99200
C  52.31000 17.72900 25.76000
O  52.12200 17.37400 24.60800
C  53.67300 18.48600 25.93800
N  47.50000 14.75100 26.17300
C  48.48700 15.04200 25.24800
C  48.10700 14.49700 23.85000
C  46.76300 13.74500 24.08300
C  46.47800 13.98700 25.58600
C  48.14600 15.55400 22.66800
C  46.64800 12.24900 23.71300
C  45.63600 11.86800 22.63300
N  45.95300 14.36100 28.51600
C  45.02200 13.78700 27.64000
C  43.81200 13.47600 28.38800
C  44.07100 13.94600 29.66900
C  45.38900 14.37600 29.76600
C  42.62600 12.70300 27.79300
C  43.49100 14.08200 30.93700
O  42.41000 13.79000 31.45100
C  44.60900 14.64000 31.88300
C  44.07700 15.89200 32.48500
O  43.90300 16.94200 31.87300
O  43.92200 15.75900 33.87700
C  43.44700 16.84800 34.73700
H  50.52800 17.84300 30.79800
H  50.21400 16.14900 24.60300
H  44.62100 13.06500 25.60000
H  46.60200 16.41800 33.24300
H  49.30800 16.83400 32.87100
H  46.93500 18.62700 32.45700
H  48.28000 19.10400 31.43000
H  48.69000 19.02300 33.05900
H  48.82400 14.41100 32.93800
H  47.30200 13.96100 33.48600
H  49.48700 15.06000 34.95900
H  47.94100 14.60700 35.74300
H  53.49800 17.98800 28.71400
H  52.52300 18.21800 30.07900
H  52.24500 19.33300 28.74200
H  53.51600 19.37200 26.55200
H  54.07100 18.89800 25.01000
H  54.39700 17.82200 26.41000
H  48.84200 13.71500 23.66000
H  45.96200 14.22400 23.51900
H  48.24900 16.57500 23.03600
H  47.27400 15.63000 22.01800
H  48.97600 15.39300 21.98000
H  46.20000 11.80200 24.60100
H  47.62300 11.85700 23.42500
H  46.08300 11.07400 22.03500
H  45.35400 12.76900 22.08900
H  44.77800 11.43800 23.15000
H  42.57800 12.94000 26.73000
H  41.77400 13.10500 28.34200
H  42.80700 11.66900 28.08600
H  44.80700 13.94100 32.69600
H  42.40400 16.59500 34.92300
H  43.40600 17.77900 34.17000
H  43.94700 16.81900 35.70500
Mg 34.49600 47.59300 24.69200
C  35.09500 46.21200 27.86700
C  32.87000 50.32700 26.09900
C  33.62900 48.58400 21.65600
C  36.22800 44.94100 23.25400
N  34.07400 48.29300 26.77500
C  34.36300 47.51000 27.86900
C  33.91200 48.27800 29.17000
C  33.18800 49.57100 28.55400
C  33.36700 49.42500 27.07100
C  31.70200 49.85700 29.06600
C  35.00500 48.38000 30.24500
C  34.76400 47.68500 31.58200
H  33.40000 47.57100 32.24500
N  33.47700 49.30500 23.99800
C  32.88300 50.29400 24.72500
C  32.29800 51.27500 23.79200
C  32.33300 50.69900 22.55100
C  33.14100 49.43400 22.69700
C  31.72200 52.69700 24.28500
C  31.83500 51.25500 21.23500
O  31.84200 50.66200 20.17300
C  31.09400 52.60900 21.21400
N  34.90500 46.86100 22.72700
C  34.50500 47.50900 21.66000
C  35.13000 46.90500 20.36800
C  36.08600 45.84600 20.96500
C  35.76600 45.89800 22.38600
C  34.19200 46.37400 19.22100
C  37.55200 45.96000 20.55900
C  38.45600 44.68600 20.62700
N  35.39500 45.97000 25.36500
C  36.03300 44.91200 24.63300
C  36.39400 43.85000 25.59500
C  36.05400 44.25900 26.89000
C  35.49100 45.58700 26.65900
C  37.09600 42.55100 25.21700
C  36.05700 43.88600 28.29500
O  36.48200 42.88200 28.87800
C  35.36500 45.11700 29.02900
C  34.06400 44.71700 29.77200
O  32.92500 44.59800 29.27200
O  34.32100 44.47400 31.12000
C  33.21000 43.77300 31.80300
H  32.50700 51.26300 26.52900
H  33.37100 48.94500 20.65900
H  36.76800 44.05900 22.90500
H  33.09800 47.68800 29.59100
H  33.67600 50.46000 28.95300
H  31.05100 49.91900 28.19400
H  31.65400 50.84400 29.52600
H  31.41000 49.06200 29.75300
H  35.06400 49.45200 30.42900
H  35.95800 48.03300 29.84500
H  35.27000 48.31500 32.31400
H  35.19400 46.68500 31.63500
H  32.23900 53.48900 23.74200
H  31.96400 52.79300 25.34300
H  30.66200 52.81100 24.05800
H  31.80200 53.33800 21.61100
H  30.15600 52.72800 21.75700
H  30.76300 52.84100 20.20200
H  35.74500 47.68500 19.91900
H  35.76000 44.82300 20.77600
H  33.18000 46.52400 19.59600
H  34.31300 45.30000 19.08100
H  34.27600 46.85000 18.24400
H  37.97600 46.66100 21.27700
H  37.58100 46.46200 19.59200
H  39.24900 44.83900 21.35900
H  38.87200 44.58000 19.62500
H  37.87000 43.82000 20.93300
H  37.94700 42.71400 24.55600
H  36.47200 41.81200 24.71300
H  37.54900 42.16100 26.12900
H  35.96300 45.44200 29.88000
H  33.68500 43.42600 32.72000
H  32.78500 42.95900 31.21600
H  32.39700 44.46600 32.02000

