158

Mg 24.44000 -6.84300 46.73100
C  26.74000 -4.63400 45.15900
C  22.07400 -5.56200 44.60700
C  22.60200 -9.64900 47.33300
C  27.18800 -8.43000 48.27000
N  24.45200 -5.28500 45.06700
C  25.51500 -4.56600 44.55000
C  25.01700 -3.46600 43.59200
C  23.44100 -3.52700 43.67300
C  23.27600 -4.81400 44.56500
C  22.64700 -2.36500 44.28500
C  25.65300 -3.68500 42.12700
C  26.15900 -2.42200 41.50600
H  26.16100 -2.27700 39.95400
N  22.60000 -7.44200 46.18500
C  21.76000 -6.66100 45.38700
C  20.40700 -7.28400 45.36700
C  20.52300 -8.51900 46.13400
C  21.89700 -8.53700 46.64700
C  19.25500 -6.66100 44.68400
C  19.29900 -9.51700 46.25000
O  18.19800 -9.29600 45.72800
C  19.41500 -10.88600 46.93900
N  24.86100 -8.73800 47.70000
C  23.88000 -9.65000 47.90300
C  24.34200 -10.83700 48.73500
C  25.85400 -10.48700 48.97600
C  26.02900 -9.10500 48.24600
C  23.58300 -11.09200 50.02100
C  26.82800 -11.61400 48.67300
C  27.63400 -11.61000 47.38300
N  26.53300 -6.50400 46.86800
C  27.50400 -7.24600 47.55000
C  28.77600 -6.53400 47.34900
C  28.51700 -5.48300 46.48300
C  27.13300 -5.56100 46.13400
C  30.13200 -7.07000 47.82900
C  29.13600 -4.37600 45.74800
O  30.28700 -4.01900 45.76500
C  27.98100 -3.69800 44.91300
C  27.73600 -2.29400 45.26600
O  27.80700 -1.38900 44.41100
O  27.43300 -2.08100 46.57000
C  27.14700 -0.77300 47.09100
H  21.25800 -5.22900 43.96200
H  22.15400 -10.63400 47.47700
H  28.00600 -8.95500 48.76800
H  25.38400 -2.55800 44.07100
H  23.02900 -3.79000 42.69900
H  22.27800 -1.77000 43.45000
H  23.25400 -1.78300 44.97800
H  21.71600 -2.68000 44.75700
H  24.82600 -4.10700 41.55500
H  26.45900 -4.41800 42.12300
H  27.18900 -2.24200 41.81300
H  25.59800 -1.59300 41.93800
H  19.46700 -6.59000 43.61700
H  19.17400 -5.70500 45.20200
H  18.33200 -7.24100 44.67000
H  20.02400 -11.54500 46.32000
H  18.51900 -11.47400 47.13500
H  19.87600 -10.74400 47.91600
H  24.34000 -11.75700 48.15000
H  26.00000 -10.33400 50.04600
H  23.27200 -12.13100 50.13300
H  22.68200 -10.48400 49.93500
H  24.10400 -10.81100 50.93700
H  26.22900 -12.52500 48.67900
H  27.51400 -11.76200 49.50700
H  28.70000 -11.45900 47.55500
H  27.13400 -10.85100 46.78000
H  27.48200 -12.53000 46.81800
H  30.30500 -7.97700 47.25000
H  30.06500 -7.45000 48.84900
H  30.93500 -6.33900 47.73400
H  28.30200 -3.74600 43.87300
H  26.31100 -0.80700 47.79000
H  26.98200 0.04000 46.38400
H  27.97800 -0.46700 47.72600
Mg 30.13700 58.25800 39.18600
C  27.29200 56.52100 38.26800
C  32.03700 55.45900 38.10300
C  32.98500 60.14500 38.90000
C  28.18000 61.21300 39.19500
N  29.72000 56.32700 38.19400
C  28.41800 55.78900 38.11100
C  28.50500 54.40700 37.41400
C  29.98400 53.94000 37.92200
C  30.61800 55.32300 38.11000
C  30.03400 53.10600 39.19900
C  28.36100 54.43200 35.86500
C  27.30200 53.53700 35.24700
H  26.27400 54.29400 34.32500
N  32.34400 57.84500 38.86200
C  32.84900 56.63800 38.39800
C  34.27000 56.76900 38.19700
C  34.63900 58.10900 38.42200
C  33.36600 58.74900 38.78400
C  35.08800 55.52000 37.73900
C  36.01000 58.66100 38.27400
O  36.87500 57.95200 37.86400
C  36.35600 60.07500 38.64200
N  30.51800 60.34900 38.89600
C  31.77000 60.84900 39.04400
C  31.73900 62.37300 39.09500
C  30.21700 62.69200 39.19200
C  29.56600 61.30500 39.02900
C  32.70300 63.01600 40.12800
C  29.65200 63.68600 38.07300
C  29.61000 65.18700 38.57800
N  28.08600 58.77500 39.07700
C  27.41800 59.99300 39.16100
C  26.00500 59.76800 39.08900
C  25.90700 58.41500 38.63200
C  27.17700 57.84500 38.68800
C  24.96100 60.82900 39.12400
C  25.01400 57.43600 38.12000
O  23.83400 57.57000 37.97500
C  25.80800 56.15300 37.85000
C  25.36400 55.13200 38.82000
O  25.82200 54.94900 39.94800
O  24.40000 54.35900 38.24600
C  23.85000 53.11000 38.87400
H  32.58200 54.53600 37.89100
H  33.78500 60.88500 38.83900
H  27.60500 62.13800 39.12100
H  27.72700 53.77500 37.84100
H  30.41100 53.32700 37.12900
H  29.02800 52.99100 39.60300
H  30.61000 53.58500 39.99100
H  30.36300 52.10900 38.90600
H  29.34300 54.25300 35.42800
H  28.24000 55.45500 35.50800
H  26.58800 53.11800 35.95600
H  27.70200 52.78200 34.57000
H  34.61000 54.59400 38.05900
H  36.04100 55.43400 38.26000
H  35.21300 55.49000 36.65700
H  37.41400 60.25800 38.45700
H  36.03400 60.36300 39.64300
H  35.75000 60.71600 38.00200
H  32.07400 62.75300 38.13000
H  29.93500 63.01700 40.19300
H  33.15900 62.27500 40.78400
H  32.05500 63.71400 40.65800
H  33.43100 63.58000 39.54500
H  28.68900 63.31400 37.72200
H  30.30900 63.78600 37.20900
H  30.38500 65.80600 38.12500
H  29.72200 65.25100 39.66000
H  28.63600 65.67000 38.50700
H  24.28500 60.36800 39.84400
H  24.47200 60.93800 38.15700
H  25.38500 61.74400 39.54000
H  25.71100 55.77000 36.83400
H  24.08500 52.31700 38.16400
H  22.77400 53.16500 39.04100
H  24.36600 52.83400 39.79300

