158

Mg 24.21400 -7.39000 46.42600
C  26.27600 -4.94100 45.23200
C  21.76300 -6.38300 43.96000
C  22.35900 -10.03900 47.16300
C  26.76400 -8.57600 48.40600
N  24.04700 -5.86500 44.71700
C  25.11200 -4.95700 44.43400
C  24.77700 -4.07800 43.27600
C  23.19700 -4.45200 43.03500
C  22.93600 -5.59800 43.97400
C  22.27300 -3.27900 43.28700
C  25.61700 -4.29400 41.97100
C  26.31900 -3.03100 41.31600
H  26.11100 -3.00400 39.78500
N  22.35600 -8.03500 45.77500
C  21.45500 -7.47300 44.84400
C  20.24100 -8.16600 44.87100
C  20.39700 -9.18300 45.88200
C  21.67200 -9.09800 46.36600
C  19.04400 -8.04200 44.03100
C  19.29800 -10.20400 46.21000
O  18.26500 -10.24100 45.50700
C  19.34700 -11.16000 47.32300
N  24.58900 -9.18100 47.47700
C  23.59700 -10.08200 47.78900
C  24.16000 -11.24800 48.58400
C  25.56600 -10.69000 49.10400
C  25.65600 -9.35300 48.32600
C  23.28500 -11.79300 49.74300
C  26.68400 -11.73600 48.78300
C  26.65600 -13.02600 49.65400
N  26.04600 -6.94000 46.84700
C  26.97000 -7.36800 47.75500
C  28.14800 -6.60400 47.79900
C  27.96500 -5.66200 46.71900
C  26.61300 -5.92800 46.27000
C  29.41400 -6.86700 48.58800
C  28.55800 -4.53900 46.02800
O  29.60100 -3.95700 46.06800
C  27.44500 -4.09500 45.02400
C  27.21300 -2.67300 45.32000
O  26.83900 -2.16200 46.40400
O  27.77300 -1.97600 44.24500
C  27.69000 -0.47600 44.39500
H  20.92100 -6.21200 43.28600
H  21.75700 -10.87200 47.53200
H  27.41700 -8.89600 49.22100
H  24.91600 -3.01900 43.49200
H  23.01500 -4.77000 42.00800
H  21.69900 -3.58800 44.16100
H  21.61700 -3.12200 42.43100
H  22.77700 -2.33200 43.48000
H  24.90400 -4.71700 41.26300
H  26.41700 -4.99800 42.19800
H  27.40100 -3.05500 41.44100
H  26.01300 -2.08100 41.75500
H  18.14700 -7.91900 44.63800
H  18.96200 -8.89500 43.35700
H  19.14500 -7.14800 43.41600
H  19.42300 -10.71800 48.31700
H  20.12200 -11.89800 47.11600
H  18.39300 -11.68400 47.37800
H  24.25100 -12.00300 47.80300
H  25.64800 -10.54300 50.18100
H  23.18100 -12.87200 49.62900
H  22.26300 -11.41400 49.76000
H  23.72000 -11.49600 50.69700
H  27.72000 -11.48300 49.00700
H  26.57700 -11.93700 47.71700
H  27.61100 -13.54400 49.73700
H  25.96500 -13.69900 49.14700
H  26.23400 -12.75300 50.62100
H  29.96700 -7.62700 48.03600
H  29.11600 -7.20700 49.58000
H  29.99100 -5.94200 48.57200
H  27.76600 -4.20700 43.98800
H  26.61900 -0.28800 44.33000
H  28.21300 -0.04600 43.54000
H  28.17700 -0.14100 45.31100
Mg 47.10800 34.15100 26.81800
C  45.65000 32.53000 29.59200
C  47.36000 37.01100 28.72300
C  48.28800 35.75600 24.17900
C  46.58200 31.33500 24.95400
N  46.43100 34.73500 28.85700
C  45.89100 33.90700 29.79100
C  45.56300 34.74000 31.03900
C  46.14400 36.09400 30.79900
C  46.70700 35.98300 29.38500
C  45.01700 37.19200 31.04400
C  45.97200 34.05400 32.34500
C  46.26500 35.00700 33.55300
H  47.68000 35.48300 33.93300
N  47.77700 36.12200 26.49200
C  47.78700 37.12800 27.41600
C  48.54900 38.27700 26.82500
C  48.76200 37.95800 25.48000
C  48.20800 36.58400 25.30700
C  48.75700 39.53500 27.64400
C  49.31000 38.85900 24.34200
O  49.62100 38.37700 23.22900
C  49.63700 40.21900 24.65700
N  47.37400 33.60200 24.92800
C  47.90500 34.42400 23.96200
C  48.04500 33.75500 22.55300
C  47.67500 32.32300 22.95300
C  47.17100 32.41000 24.32200
C  47.23500 34.47800 21.41700
C  48.79800 31.34000 22.72300
C  48.44100 29.88100 22.26100
N  46.19800 32.31400 27.10500
C  46.02800 31.24800 26.21600
C  45.38600 30.18400 26.88400
C  45.28700 30.61900 28.25000
C  45.73900 31.95900 28.33100
C  45.09500 28.81700 26.33900
C  44.84400 30.15800 29.50000
O  44.48800 29.07800 29.85600
C  45.11100 31.39800 30.48900
C  46.05500 30.92000 31.53000
O  47.28700 30.81900 31.46300
O  45.40000 30.60800 32.67300
C  46.25100 30.09700 33.75900
H  47.38600 37.94500 29.28800
H  48.61300 36.30400 23.29200
H  46.44400 30.45500 24.32300
H  44.47600 34.71800 31.11800
H  46.92800 36.23500 31.54300
H  45.41400 37.85100 31.81600
H  44.00300 36.85700 31.26300
H  44.94600 37.79200 30.13700
H  46.93100 33.56100 32.18800
H  45.28400 33.26500 32.64700
H  45.70200 34.60500 34.39500
H  45.69500 35.92800 33.43100
H  47.89300 39.64900 28.29900
H  48.59900 40.46100 27.09000
H  49.67300 39.63700 28.22700
H  48.76600 40.78500 24.98900
H  49.86200 40.74700 23.73100
H  50.54500 40.37000 25.24200
H  49.10800 33.85300 22.33300
H  46.74600 32.01400 22.47400
H  46.41400 35.03300 21.87200
H  46.90400 33.72100 20.70700
H  47.81700 35.23800 20.89600
H  49.29900 31.13100 23.66800
H  49.59800 31.70800 22.08000
H  49.01800 29.71800 21.35000
H  47.39700 29.79400 21.95900
H  48.72600 29.13600 23.00400
H  45.89300 28.09300 26.50900
H  44.82200 28.85200 25.28500
H  44.18000 28.49400 26.83600
H  44.16100 31.64300 30.96500
H  45.66900 29.89800 34.65900
H  47.12100 30.68200 34.05600
H  46.69100 29.13500 33.49400

