158

Mg 44.95300 34.84800 28.13900
C  43.50100 32.59900 30.45700
C  45.17000 37.12200 30.70500
C  46.33900 36.93900 25.97800
C  44.58500 32.46600 25.68800
N  44.53100 34.77100 30.33900
C  43.98700 33.74600 31.10500
C  43.95200 34.09100 32.62600
C  43.78000 35.63100 32.41900
C  44.59900 35.86800 31.12900
C  42.27700 36.06400 32.36900
C  45.31700 33.56400 33.23500
C  45.31900 33.44300 34.78700
H  44.40100 34.28000 35.59500
N  45.64700 36.75200 28.32300
C  45.69700 37.50300 29.48000
C  46.23100 38.80200 29.09700
C  46.76800 38.71400 27.78300
C  46.30300 37.43900 27.27200
C  46.30100 39.89800 30.14600
C  47.50000 39.79300 27.09500
O  48.06900 39.57800 26.01600
C  47.63800 41.27500 27.67500
N  45.24800 34.77100 26.08600
C  45.90100 35.75000 25.38400
C  46.27900 35.27600 24.01300
C  45.47000 33.88200 23.89200
C  45.19300 33.62300 25.33600
C  45.76900 36.31700 22.92700
C  46.27300 32.82900 23.04400
C  45.56000 32.14300 21.90800
N  44.32600 32.90200 28.03200
C  44.10900 32.09500 26.93500
C  43.50700 30.86900 27.37500
C  43.06600 31.09300 28.72500
C  43.69600 32.33900 29.08900
C  43.36700 29.66600 26.65000
C  42.47900 30.44000 29.87200
O  41.97400 29.36900 30.02200
C  42.61200 31.45800 31.05500
C  43.10200 30.74500 32.24400
O  44.11000 30.07900 32.33200
O  42.24900 31.06200 33.34100
C  42.54200 30.28500 34.61500
H  45.18500 37.82200 31.54300
H  46.90700 37.59900 25.31800
H  44.64400 31.68600 24.92600
H  43.02900 33.79100 33.12300
H  44.30600 36.08700 33.25800
H  42.14800 36.91300 31.69700
H  42.09100 36.55400 33.32400
H  41.56700 35.28600 32.08900
H  46.17000 34.18500 32.96200
H  45.52600 32.57300 32.83100
H  46.36400 33.61600 35.04500
H  45.06900 32.38800 34.90200
H  45.98900 40.89000 29.81800
H  47.27800 39.92800 30.62700
H  45.67200 39.68000 31.00900
H  48.18000 41.27400 28.62000
H  46.61300 41.62300 27.79700
H  48.13100 41.93900 26.96500
H  47.33500 35.09300 23.81800
H  44.47800 33.95800 23.44600
H  45.03500 35.84600 22.27400
H  46.55100 36.76500 22.31300
H  45.29600 37.19000 23.37800
H  46.72300 32.06200 23.67500
H  47.15400 33.37400 22.70700
H  45.83700 31.09500 21.79700
H  45.79600 32.58700 20.94100
H  44.48000 32.20600 22.03900
H  44.27300 29.06400 26.58300
H  43.14000 29.94500 25.62100
H  42.58800 28.93100 26.85500
H  41.56500 31.73900 31.16400
H  41.73000 30.07100 35.31000
H  43.16800 30.81500 35.33300
H  43.17800 29.41200 34.46200
Mg 29.30200 59.77500 40.84200
C  26.24000 58.36500 40.06200
C  30.81700 56.90000 39.78100
C  32.29900 61.33200 41.11900
C  27.62900 62.77200 41.50300
N  28.59700 57.87100 40.12500
C  27.35100 57.63500 39.70000
C  27.41300 56.28700 38.88900
C  28.69500 55.56400 39.35500
C  29.41500 56.83100 39.73900
C  28.54700 54.53100 40.46400
C  27.26500 56.48100 37.36400
C  26.70600 55.28600 36.57800
H  25.92100 55.70100 35.39100
N  31.28500 59.17300 40.47200
C  31.73200 57.98000 40.05200
C  33.16800 57.95400 39.93000
C  33.62800 59.19200 40.30600
C  32.36600 59.91900 40.69800
C  33.96200 56.73800 39.48000
C  35.05700 59.58300 40.49600
O  35.93600 58.75100 40.31000
C  35.43600 60.98000 40.85700
N  29.85900 61.79800 41.29400
C  31.19700 62.13700 41.39000
C  31.33400 63.66600 41.71600
C  29.79300 63.96600 42.02300
C  29.01000 62.78900 41.54300
C  32.28000 64.05200 42.84400
C  29.17100 65.31500 41.49000
C  28.28400 66.15200 42.42100
N  27.25300 60.41600 41.10000
C  26.79200 61.67700 41.26700
C  25.40400 61.61400 41.18500
C  25.11500 60.29400 40.65500
C  26.27800 59.62900 40.62500
C  24.40300 62.61800 41.44000
C  24.01900 59.37200 40.23400
O  22.81200 59.43500 40.26700
C  24.71800 58.05600 39.84300
C  24.27900 56.91300 40.84900
O  24.32700 57.14600 42.04800
O  23.78200 55.81900 40.21500
C  23.49300 54.73000 41.17100
H  31.18400 55.92300 39.46100
H  33.25600 61.84300 41.24300
H  27.13100 63.70100 41.78700
H  26.58100 55.66100 39.21500
H  29.16200 55.09200 38.49100
H  28.80700 54.94100 41.44000
H  29.19100 53.66100 40.33300
H  27.51200 54.19400 40.40400
H  28.23200 56.76200 36.94700
H  26.52900 57.24900 37.12800
H  26.10200 54.58600 37.15600
H  27.57000 54.69700 36.27000
H  33.34000 55.97900 39.00400
H  34.61200 56.25500 40.20900
H  34.63600 57.17000 38.74000
H  34.95000 61.62600 40.12600
H  36.49400 61.23300 40.92900
H  35.14800 61.08000 41.90300
H  31.76300 64.21000 40.87500
H  29.77200 63.92700 43.11200
H  32.97000 63.26700 43.15500
H  31.72900 64.15100 43.77900
H  32.94100 64.86800 42.55100
H  28.58800 65.03800 40.61200
H  30.02700 65.89200 41.14000
H  28.57700 67.20100 42.37400
H  28.41800 65.85200 43.46000
H  27.21900 66.06000 42.20800
H  23.46200 62.55700 40.89300
H  24.71500 63.54000 40.95100
H  24.38100 62.82200 42.51000
H  24.52200 57.68600 38.83700
H  24.46800 54.29500 41.39000
H  22.90900 53.89000 40.79400
H  23.00900 54.99100 42.11200

