158

Mg 47.52100 24.76900 27.97500
C  48.41100 27.05900 30.60400
C  47.03900 22.36000 30.50500
C  46.91300 22.49300 25.56400
C  48.66100 26.96900 25.81700
N  47.64500 24.77200 30.28900
C  47.81200 25.89100 31.11200
C  47.82700 25.53400 32.64700
C  47.54800 23.97800 32.52300
C  47.36400 23.65500 31.01400
C  48.68400 23.16900 33.25500
C  46.76900 26.27400 33.51200
C  47.06700 26.25700 34.99900
H  45.89500 26.41800 35.96700
N  46.94500 22.76700 28.07900
C  46.85600 21.92300 29.15200
C  46.32900 20.61400 28.76700
C  46.34000 20.62800 27.27900
C  46.72800 22.03000 26.91600
C  45.99700 19.53400 29.69900
C  46.10600 19.55200 26.27500
O  46.39600 19.66600 25.09200
C  45.65400 18.20300 26.79100
N  48.04400 24.57800 25.91500
C  47.49300 23.66700 25.07200
C  47.45100 24.12400 23.60700
C  48.01400 25.59900 23.71900
C  48.18900 25.76100 25.26100
C  48.27200 23.17500 22.67400
C  47.15100 26.74700 23.13800
C  47.75800 27.55300 21.96200
N  48.29600 26.73600 28.15100
C  48.72200 27.45200 27.09600
C  49.20800 28.68300 27.50000
C  49.15100 28.61800 28.94600
C  48.58100 27.34200 29.26700
C  49.94000 29.70900 26.70600
C  49.46300 29.27000 30.21400
O  50.11600 30.31300 30.49100
C  48.79000 28.40200 31.23300
C  49.61800 28.38200 32.52100
O  50.72300 27.81900 32.61100
O  48.99000 29.01100 33.52100
C  49.60000 29.16500 34.85700
H  46.81300 21.62000 31.27500
H  46.48500 21.89300 24.75900
H  48.91800 27.66800 25.01800
H  48.79200 25.75300 33.10600
H  46.58600 23.68400 32.94300
H  49.26600 23.81400 33.91400
H  49.45200 22.76900 32.59300
H  48.24900 22.37500 33.86200
H  45.84800 25.69500 33.44100
H  46.68400 27.26000 33.05400
H  47.79800 27.04700 35.16800
H  47.39200 25.23300 35.18400
H  45.00600 19.09000 29.60900
H  46.12800 19.76400 30.75600
H  46.80900 18.82500 29.53500
H  46.46600 17.79900 27.39600
H  45.54100 17.48400 25.97900
H  44.67300 18.27900 27.26000
H  46.45300 24.23900 23.18500
H  49.01900 25.62900 23.29700
H  48.57200 22.23400 23.13500
H  49.18000 23.75000 22.49300
H  47.79800 23.06100 21.69900
H  47.03700 27.51400 23.90400
H  46.16700 26.38200 22.84300
H  48.67500 27.10500 21.57700
H  47.82400 28.63700 22.05000
H  46.96200 27.59600 21.21800
H  49.78900 29.57200 25.63500
H  51.02600 29.70400 26.80600
H  49.50800 30.67700 26.95900
H  47.83700 28.88800 31.44200
H  50.53100 28.60200 34.92900
H  48.98100 28.76300 35.65900
H  49.72800 30.21200 35.13000
Mg 41.94400 40.31800 27.58500
C  40.94900 42.76700 29.87300
C  43.20300 38.42600 30.02400
C  42.60600 38.13100 25.15900
C  41.09100 42.77700 24.97500
N  42.01100 40.57200 29.74900
C  41.47700 41.58000 30.51600
C  41.80800 41.37300 32.01200
C  42.52400 39.99600 31.95500
C  42.70300 39.67100 30.42900
C  43.96700 40.06800 32.53500
C  40.57800 41.48900 32.93200
C  40.72000 42.10800 34.30100
H  40.26000 41.34500 35.58500
N  42.84400 38.47400 27.58800
C  43.23700 37.81600 28.70700
C  43.64800 36.44100 28.29700
C  43.47400 36.35200 26.90800
C  42.93500 37.67800 26.50700
C  44.10600 35.45900 29.25200
C  43.62500 35.16300 25.97600
O  43.33500 35.22400 24.77500
C  44.06400 33.89300 26.51100
N  41.92900 40.48900 25.36700
C  42.18600 39.34900 24.72000
C  42.03100 39.57600 23.24100
C  41.57000 41.06200 23.10400
C  41.48800 41.53100 24.56600
C  43.09400 39.23800 22.24400
C  40.22900 41.29700 22.35300
C  38.80600 41.07200 22.94400
N  41.18900 42.32800 27.44100
C  40.99100 43.17200 26.30600
C  40.51400 44.46900 26.68100
C  40.51200 44.43300 28.05700
C  40.90700 43.04300 28.50300
C  40.12100 45.57100 25.70500
C  40.19400 45.05200 29.34200
O  39.72000 46.21000 29.61700
C  40.66400 44.09000 30.51600
C  41.85600 44.59600 31.26800
O  42.95600 44.98800 30.79500
O  41.51600 44.60800 32.61600
C  42.54600 45.05000 33.57200
H  43.40700 37.68000 30.79500
H  42.59600 37.35300 24.39300
H  40.74000 43.35100 24.11500
H  42.61700 42.06900 32.23300
H  41.99300 39.18800 32.45900
H  44.16300 40.90400 33.20700
H  44.71900 39.92000 31.76000
H  44.07700 39.25200 33.24800
H  40.27200 40.45700 33.10200
H  39.76700 42.01600 32.42900
H  40.32500 43.12400 34.30600
H  41.80100 42.12300 34.44700
H  45.00700 35.00800 28.83500
H  43.30100 34.74900 29.44300
H  44.41000 35.98800 30.15500
H  43.46200 33.52900 27.34400
H  45.11100 34.01200 26.79200
H  43.98300 33.14400 25.72400
H  41.17800 38.97700 22.92100
H  42.47100 41.57700 22.77100
H  43.03600 39.62000 21.22500
H  43.17300 38.15300 22.18200
H  44.03000 39.69100 22.57000
H  40.21500 40.55500 21.55400
H  40.34700 42.24500 21.82900
H  38.88300 40.78700 23.99300
H  38.21000 40.27000 22.51100
H  38.28200 42.02800 22.92700
H  39.89500 45.16600 24.71800
H  40.79600 46.42700 25.72500
H  39.20900 45.98300 26.13800
H  39.82200 43.92400 31.18800
H  43.47100 44.53900 33.30700
H  42.08800 44.86800 34.54400
H  42.59500 46.13100 33.44200

