158

Mg -1.32800 16.88000 26.48000
C  -1.79000 14.77400 29.23500
C  -1.90700 19.61000 28.51000
C  -1.49400 18.91900 23.73400
C  -1.33000 14.10100 24.39800
N  -1.68100 17.11100 28.68400
C  -1.73700 16.11000 29.60100
C  -2.04000 16.72800 30.99000
C  -2.29500 18.22800 30.74700
C  -1.89600 18.38100 29.18800
C  -3.77900 18.64500 31.03000
C  -0.97000 16.42100 32.05300
C  -0.95400 17.12400 33.40700
H  -0.74800 16.23500 34.68900
N  -1.64400 18.94300 26.20000
C  -1.66600 19.91100 27.19000
C  -1.59200 21.21300 26.61800
C  -1.51400 21.08100 25.21100
C  -1.61000 19.60600 24.98700
C  -1.53300 22.48600 27.53800
C  -1.35600 22.14000 24.13600
O  -1.35500 21.93400 22.91500
C  -0.94800 23.48600 24.58600
N  -1.69200 16.53800 24.28200
C  -1.51300 17.59300 23.40000
C  -1.29700 17.08100 21.98300
C  -1.19300 15.48800 22.24100
C  -1.37100 15.35900 23.74800
C  -2.55000 17.33000 21.08100
C  0.12600 14.83400 21.62600
C  1.35500 14.88900 22.56600
N  -1.50500 14.88900 26.70700
C  -1.51900 13.85300 25.73300
C  -1.56200 12.55700 26.43700
C  -1.79700 12.91200 27.78500
C  -1.74100 14.31600 27.87800
C  -1.37700 11.28600 25.74100
C  -1.92700 12.31400 29.06600
O  -1.97800 11.13600 29.47100
C  -2.14300 13.46400 30.04500
C  -1.25900 13.16600 31.15200
O  -0.02800 13.18600 31.10600
O  -2.05900 12.82600 32.23800
C  -1.40400 12.21000 33.46100
H  -2.00500 20.42100 29.23400
H  -1.25700 19.52900 22.86000
H  -1.19700 13.22900 23.75300
H  -2.96700 16.22900 31.27300
H  -1.63700 18.87900 31.32200
H  -4.20200 18.74200 30.03000
H  -3.87700 19.55600 31.62000
H  -4.40400 17.96800 31.61300
H  0.00600 16.39100 31.56800
H  -1.10700 15.42400 32.47300
H  -1.79900 17.79500 33.56400
H  -0.10800 17.78500 33.22000
H  -1.71500 22.36600 28.60600
H  -2.36800 23.13100 27.26300
H  -0.56800 22.97200 27.40000
H  -1.75400 23.93000 25.17100
H  -0.75000 24.08000 23.69300
H  0.05100 23.43000 25.01900
H  -0.33800 17.31700 21.52100
H  -2.06300 15.10300 21.70800
H  -3.19000 16.45900 20.94400
H  -2.15900 17.61600 20.10500
H  -3.14900 18.20000 21.35100
H  0.32700 15.38700 20.70900
H  -0.14100 13.81400 21.35200
H  1.50100 13.86000 22.89500
H  1.22900 15.50400 23.45700
H  2.27400 15.16500 22.04900
H  -0.64700 10.69900 26.29900
H  -0.95700 11.33900 24.73700
H  -2.31400 10.78200 25.97500
H  -3.20200 13.53100 30.29300
H  -1.39200 13.04800 34.15700
H  -0.34300 11.98100 33.36700
H  -2.05300 11.48900 33.95900
Mg 47.28100 24.16600 27.99400
C  47.97600 26.34600 30.73100
C  46.32900 21.74300 30.12000
C  46.97300 22.12300 25.34000
C  48.52800 26.70600 25.88000
N  47.07200 24.12000 30.13100
C  47.44300 25.07500 31.03400
C  47.12600 24.54100 32.47500
C  46.74400 23.07400 32.23700
C  46.67900 22.98500 30.73500
C  47.68000 21.96600 32.85500
C  45.97200 25.35400 33.15100
C  46.40700 25.91300 34.48900
H  45.30200 26.35700 35.55400
N  46.60400 22.24700 27.77700
C  46.21900 21.35400 28.76100
C  45.83700 20.15600 28.21500
C  46.05600 20.22200 26.80900
C  46.51700 21.62400 26.58900
C  45.34000 19.04100 29.00300
C  45.75900 19.19400 25.64400
O  46.14100 19.39600 24.53200
C  45.06900 17.86800 25.95400
N  47.66800 24.39200 25.89600
C  47.52800 23.44300 25.03500
C  47.63100 23.94100 23.61200
C  47.76700 25.47200 23.79500
C  48.04700 25.56300 25.27000
C  48.79000 23.28300 22.91600
C  46.67400 26.35800 23.19900
C  45.38200 26.63300 24.00700
N  48.21500 26.13800 28.22200
C  48.58400 27.04100 27.20800
C  48.94700 28.27700 27.84200
C  48.77500 28.02700 29.25900
C  48.28100 26.76200 29.40900
C  49.47000 29.50200 27.15500
C  49.00300 28.61500 30.60100
O  49.46200 29.73400 30.80500
C  48.47400 27.49800 31.59300
C  49.47200 27.12400 32.60700
O  50.08400 26.08900 32.64000
O  49.43500 28.09700 33.58600
C  50.28400 27.73000 34.72800
H  46.22600 20.88500 30.78700
H  46.77900 21.54400 24.43500
H  48.72700 27.54200 25.20600
H  48.09900 24.58400 32.96500
H  45.74100 22.78400 32.55100
H  47.05700 21.18300 33.28700
H  48.28800 22.25700 33.71100
H  48.38300 21.48800 32.17300
H  45.19900 24.64900 33.45600
H  45.60600 26.11100 32.45700
H  47.09400 26.75700 34.43100
H  46.99400 25.12800 34.96600
H  44.36800 18.66800 28.68000
H  45.08200 19.32700 30.02200
H  46.13300 18.29900 28.91900
H  45.49700 17.49700 26.88500
H  45.33300 17.16300 25.16600
H  43.98000 17.85000 26.00000
H  46.70600 23.69100 23.09300
H  48.74000 25.87100 23.51100
H  49.55200 24.01900 22.66100
H  48.43100 22.64400 22.11000
H  49.24400 22.59200 23.62700
H  46.38200 25.89000 22.25800
H  46.99000 27.36500 22.92800
H  45.52200 26.41800 25.06600
H  44.68800 25.92800 23.55100
H  45.04700 27.66000 23.86100
H  48.66100 30.23300 27.18100
H  49.67500 29.30200 26.10400
H  50.35500 29.78900 27.72300
H  47.53600 27.87000 32.00700
H  50.30900 28.56800 35.42400
H  51.31500 27.50900 34.45200
H  49.88000 26.82700 35.18600

