158

Mg 26.93300 51.20700 25.87000
C  25.02300 52.34500 28.55600
C  29.34700 50.30900 28.12100
C  28.73700 50.18800 23.29500
C  24.75800 52.83100 23.74800
N  27.15100 51.33200 28.10700
C  26.20300 51.76600 28.91800
C  26.60300 51.50800 30.41800
C  28.04200 50.92700 30.27500
C  28.22300 50.87500 28.77300
C  29.22200 51.75800 31.01000
C  25.57100 50.57700 31.16500
C  24.91800 51.25800 32.42200
H  24.93700 50.56800 33.83200
N  28.72200 50.25200 25.73700
C  29.62900 50.12900 26.74500
C  30.81400 49.45700 26.21500
C  30.60300 49.23000 24.85100
C  29.32300 49.81300 24.56800
C  31.97000 49.03800 27.18000
C  31.48500 48.60700 23.82300
O  31.13900 48.39000 22.61900
C  32.86300 48.26500 24.12000
N  26.88300 51.59000 23.84200
C  27.64800 50.93600 22.97000
C  27.29600 51.23800 21.49000
C  25.92900 52.00300 21.69100
C  25.87700 52.17100 23.19000
C  28.38500 52.03600 20.75000
C  24.63600 51.26500 21.16900
C  24.10100 51.89000 19.90700
N  25.24100 52.39800 26.06700
C  24.44000 52.97800 25.10000
C  23.31900 53.68700 25.70300
C  23.44100 53.41600 27.11700
C  24.62600 52.67000 27.23100
C  22.22300 54.43000 24.99300
C  22.89600 53.63000 28.44300
O  21.93600 54.22600 28.84700
C  23.97300 52.98100 29.40500
C  24.46700 53.95700 30.34400
O  25.33600 54.75700 30.13000
O  23.71500 53.96600 31.50400
C  23.96400 54.76600 32.69300
H  29.99000 49.93700 28.92200
H  29.35700 49.86700 22.45500
H  23.96400 53.17500 23.08200
H  26.62300 52.49200 30.88700
H  27.99400 49.88900 30.60400
H  29.93800 52.28700 30.38100
H  29.64500 50.93000 31.57900
H  28.80500 52.52500 31.66200
H  26.09000 49.72900 31.61100
H  24.81400 50.17700 30.49100
H  23.85800 51.26900 32.16700
H  25.22100 52.29600 32.55300
H  32.92500 49.44500 26.84600
H  32.19500 47.97300 27.12400
H  31.90300 49.34600 28.22300
H  33.23000 49.23600 24.45300
H  33.43300 47.87200 23.27800
H  33.09600 47.56800 24.92500
H  27.07500 50.33700 20.91800
H  25.94800 52.98500 21.21900
H  28.87000 51.36000 20.04600
H  29.01600 52.52500 21.49200
H  27.92800 52.84000 20.17300
H  23.88700 51.30300 21.96100
H  24.94000 50.23400 20.98400
H  23.02600 51.97600 20.06200
H  24.16500 51.23900 19.03500
H  24.56500 52.82800 19.60100
H  22.31300 54.43500 23.90600
H  22.39000 55.46300 25.29900
H  21.23600 54.08600 25.30300
H  23.58500 52.08200 29.88300
H  24.27500 55.76200 32.37800
H  24.73400 54.38200 33.36300
H  23.02400 54.73400 33.24400
Mg -4.91100 25.63500 25.82400
C  -3.59800 26.94600 28.82600
C  -6.64300 23.35000 27.70500
C  -5.66200 23.95100 22.98100
C  -2.75800 27.67500 24.06900
N  -5.00300 25.18400 27.99300
C  -4.43700 25.88900 29.04300
C  -5.06900 25.48400 30.38000
C  -5.86000 24.14900 29.95600
C  -5.80900 24.20500 28.41300
C  -5.38300 22.80100 30.45800
C  -5.91100 26.58800 31.01100
C  -5.66100 26.81100 32.50700
H  -5.18200 25.59200 33.40600
N  -6.17600 24.02300 25.37100
C  -6.83200 23.20600 26.28600
C  -7.82800 22.39600 25.61700
C  -7.59400 22.63300 24.20800
C  -6.39000 23.49100 24.07800
C  -8.76700 21.42800 26.35700
C  -8.30100 21.94600 23.01100
O  -8.03600 22.27600 21.85900
C  -9.32700 20.92600 23.23900
N  -4.46100 25.91000 23.74500
C  -4.84500 25.01400 22.73800
C  -4.13000 25.37900 21.44800
C  -3.36600 26.75600 21.71800
C  -3.55600 26.77900 23.27000
C  -3.21300 24.27000 20.94300
C  -4.10900 27.88700 21.00600
C  -3.19400 29.12200 20.63200
N  -3.47700 27.02800 26.26500
C  -2.66700 27.79200 25.43100
C  -1.75300 28.63800 26.30300
C  -2.14800 28.34700 27.61600
C  -3.13100 27.33000 27.55300
C  -0.73400 29.65000 25.95500
C  -1.86600 28.67700 28.94900
O  -1.08800 29.49800 29.42100
C  -2.86300 27.83700 29.82400
C  -2.15100 27.22700 30.90600
O  -1.75400 26.06100 30.85600
O  -2.07200 28.02700 31.95800
C  -1.36700 27.46600 33.09600
H  -7.29400 22.78700 28.37800
H  -5.90700 23.34900 22.10300
H  -2.08800 28.35000 23.53200
H  -4.24500 25.09300 30.97800
H  -6.90800 24.28300 30.22600
H  -4.50800 22.92300 31.09700
H  -4.99800 22.22000 29.62100
H  -6.12500 22.23800 31.02400
H  -6.95300 26.27500 31.08100
H  -5.87500 27.55100 30.50100
H  -6.61100 27.07600 32.97200
H  -4.94900 27.61400 32.69600
H  -8.56100 20.38400 26.11900
H  -9.76100 21.77200 26.07300
H  -8.70500 21.52900 27.44100
H  -8.92400 20.06800 23.77600
H  -9.63000 20.38800 22.34100
H  -10.19800 21.40200 23.68900
H  -4.98900 25.46600 20.78300
H  -2.31000 26.74500 21.44600
H  -2.17600 24.52000 20.72100
H  -3.62600 23.75600 20.07500
H  -3.06100 23.46600 21.66200
H  -4.84300 28.24300 21.72800
H  -4.59700 27.56600 20.08500
H  -3.52400 29.93100 21.28400
H  -3.46600 29.39200 19.61200
H  -2.14100 28.89000 20.79300
H  -0.52900 29.67500 24.88400
H  0.20200 29.54800 26.50400
H  -1.15300 30.59600 26.29800
H  -3.65000 28.52600 30.13100
H  -1.97600 27.86600 33.90600
H  -0.36100 27.87800 33.17800
H  -1.20800 26.39200 33.19500

