158

Mg 54.54000 24.23300 44.04200
C  51.94000 26.50600 43.12500
C  52.67000 21.70900 42.58300
C  57.27800 22.33500 43.81500
C  56.37400 26.86900 45.14300
N  52.54800 24.21300 42.88900
C  51.66900 25.20100 42.68900
C  50.46000 24.67500 41.94600
C  50.50800 23.13600 42.15400
C  52.00200 22.98400 42.49100
C  49.60400 22.57900 43.25900
C  50.36500 25.08500 40.37900
C  51.68600 25.27800 39.61000
H  51.46500 25.93500 38.20700
N  54.94900 22.19200 43.49000
C  53.98500 21.35200 42.91600
C  54.57200 20.05900 42.81000
C  55.96400 20.19600 43.24600
C  56.12700 21.60700 43.58000
C  53.72700 18.83500 42.45900
C  56.86100 19.03300 43.34800
O  56.52000 17.93600 42.91600
C  58.21900 19.12900 43.99300
N  56.55700 24.60800 44.23600
C  57.55600 23.68400 44.18100
C  58.98600 24.29400 44.46100
C  58.59900 25.70500 44.99300
C  57.09700 25.72400 44.80100
C  59.69800 23.34500 45.51300
C  59.30500 26.90800 44.29500
C  59.64500 28.12100 45.18800
N  54.22100 26.27900 44.31300
C  55.04600 27.19500 44.85100
C  54.38700 28.48600 44.90900
C  53.09900 28.25500 44.31100
C  53.09400 26.93000 43.90000
C  54.81000 29.69800 45.61900
C  51.86700 28.86100 43.93700
O  51.45100 29.98500 44.13800
C  51.04500 27.77600 43.23200
C  50.50500 28.16700 41.97200
O  51.15400 28.22400 40.88300
O  49.15100 28.46700 42.07600
C  48.38300 28.53700 40.80100
H  51.98700 20.90400 42.30300
H  58.15300 21.70800 43.63200
H  56.92600 27.79000 45.34300
H  49.59700 25.17900 42.38100
H  50.22000 22.57800 41.26400
H  49.08300 23.45000 43.65700
H  50.09700 22.05900 44.08000
H  49.00500 21.86900 42.68800
H  49.69100 25.93400 40.26900
H  49.93200 24.22700 39.86500
H  52.18600 24.31200 39.53400
H  52.49700 25.82500 40.09000
H  52.64700 18.97600 42.51100
H  53.85200 17.97700 43.12000
H  54.08700 18.48400 41.49200
H  58.26400 19.83700 44.82100
H  58.88900 19.41600 43.18200
H  58.39700 18.12000 44.36600
H  59.59600 24.39400 43.56300
H  58.51900 25.88300 46.06600
H  59.04600 22.53600 45.84400
H  59.91700 23.93000 46.40700
H  60.61800 22.91700 45.11500
H  58.66600 27.20700 43.46400
H  60.29000 26.51500 44.04000
H  59.29200 28.02200 46.21500
H  59.44400 29.10200 44.75700
H  60.72400 28.14000 45.34200
H  54.80200 29.38600 46.66300
H  54.11400 30.53700 45.58300
H  55.79300 30.13700 45.45000
H  50.18200 27.45500 43.81600
H  47.90600 29.51500 40.74800
H  47.70800 27.68300 40.85000
H  48.92600 28.47400 39.85700
Mg 26.77900 49.94000 27.42400
C  24.80300 51.04500 30.10800
C  29.05200 48.93800 29.71500
C  28.82600 49.56700 24.76000
C  24.47800 51.53200 25.33400
N  26.92900 50.14400 29.69400
C  25.93000 50.36800 30.60600
C  26.37700 50.04600 32.05500
C  27.80200 49.54800 31.81900
C  27.98400 49.59300 30.31800
C  28.91000 50.34900 32.56000
C  25.41400 48.97700 32.72500
C  24.64300 49.54700 33.96500
H  24.69000 48.71800 35.25200
N  28.58000 49.21700 27.25300
C  29.39400 48.86300 28.35100
C  30.68900 48.42100 27.81600
C  30.74800 48.68300 26.41600
C  29.31200 49.21300 26.08800
C  31.78700 47.83500 28.66200
C  31.97300 48.55700 25.40100
O  31.81000 48.83400 24.23600
C  33.32000 48.15200 25.82200
N  26.52700 50.28500 25.24600
C  27.52900 50.01500 24.38000
C  27.01100 50.18500 22.96700
C  25.50500 50.66100 23.20600
C  25.43000 50.88200 24.67700
C  27.83700 51.15100 22.11900
C  24.43800 49.66700 22.72700
C  23.22200 50.40200 21.99000
N  25.05900 51.16500 27.60000
C  24.18600 51.62900 26.70000
C  23.02700 52.21000 27.30400
C  23.20100 52.03500 28.69600
C  24.45200 51.40100 28.77500
C  21.93200 52.94900 26.70600
C  22.68200 52.17500 30.01900
O  21.55400 52.60100 30.29600
C  23.73900 51.64100 30.97500
C  24.25800 52.79900 31.81200
O  25.11100 53.64300 31.46900
O  23.68200 52.74400 33.07700
C  24.30100 53.73300 34.00200
H  29.82900 48.42600 30.28600
H  29.49800 49.36300 23.92400
H  23.71400 51.96500 24.68500
H  26.52500 50.99600 32.56900
H  27.96400 48.52700 32.16600
H  29.62700 50.83700 31.90000
H  29.54700 49.69900 33.15900
H  28.59500 51.13500 33.24600
H  25.88700 48.03000 32.98400
H  24.69400 48.68700 31.96100
H  23.61400 49.76200 33.67700
H  25.28500 50.40100 34.18100
H  32.52100 48.46000 29.17000
H  32.29600 47.09800 28.04000
H  31.27000 47.23000 29.40700
H  33.21600 47.13800 26.20900
H  33.59900 48.83000 26.62900
H  34.10400 48.20500 25.06700
H  26.99500 49.19100 22.52100
H  25.27900 51.61500 22.72900
H  28.73400 51.40500 22.68400
H  27.41600 52.15600 22.12100
H  27.92700 50.74500 21.11200
H  24.00900 49.16700 23.59500
H  24.89500 48.86300 22.15000
H  22.87600 49.95200 21.06000
H  23.33000 51.48100 21.88200
H  22.32500 50.23000 22.58500
H  21.06300 52.54100 27.22200
H  21.85900 52.67000 25.65400
H  22.02700 54.02400 26.85900
H  23.22900 50.98200 31.67700
H  25.35100 53.89300 33.75600
H  24.36900 53.23500 34.96900
H  23.88700 54.72600 34.17200

