158

Mg 24.44200 -6.29500 45.62400
C  26.46100 -3.62300 44.68100
C  21.90100 -4.90600 43.82600
C  22.67300 -9.10600 46.07500
C  27.08100 -7.55100 47.41300
N  24.26900 -4.47300 44.41500
C  25.24600 -3.60100 44.06900
C  24.62700 -2.43000 43.24800
C  23.09500 -2.81200 43.20400
C  23.07600 -4.18400 43.79400
C  22.16600 -1.81200 43.91800
C  25.34100 -2.11400 41.83000
C  24.78900 -0.97200 40.99000
H  24.10600 -1.27500 39.67200
N  22.56600 -6.89800 45.06200
C  21.66300 -6.16900 44.42300
C  20.44300 -6.95200 44.39600
C  20.66200 -8.17900 44.96700
C  22.05900 -8.08800 45.41900
C  19.28400 -6.42500 43.68400
C  19.52200 -9.27800 45.01000
O  18.40000 -9.08900 44.55300
C  19.92600 -10.70600 45.54300
N  24.97400 -8.17900 46.39600
C  24.01800 -9.14800 46.57600
C  24.59000 -10.38300 47.22400
C  25.83000 -9.79500 47.93700
C  25.96000 -8.41400 47.18500
C  23.59300 -11.13100 48.13000
C  27.08100 -10.57000 47.76400
C  28.10400 -10.36700 48.93800
N  26.39800 -5.74100 45.98700
C  27.36700 -6.32000 46.79600
C  28.52600 -5.41700 46.89500
C  28.28300 -4.37200 46.02000
C  26.93900 -4.64000 45.52400
C  29.74200 -5.65200 47.72900
C  28.74800 -3.05100 45.41300
O  29.79900 -2.45300 45.54500
C  27.60000 -2.64600 44.49000
C  27.20500 -1.17300 44.76900
O  26.34300 -0.80400 45.53100
O  27.91600 -0.41500 43.89200
C  27.49100 1.00400 43.79200
H  21.06900 -4.36200 43.37300
H  22.16700 -10.07000 46.15900
H  27.74300 -7.93900 48.18900
H  24.69600 -1.53500 43.86500
H  22.75900 -3.02000 42.18800
H  21.65400 -2.31300 44.73900
H  21.50500 -1.40600 43.15200
H  22.58900 -0.91000 44.36100
H  25.41300 -2.97000 41.15800
H  26.39600 -1.90800 42.00800
H  25.66300 -0.36900 40.74100
H  24.04700 -0.41900 41.56600
H  19.20900 -5.35300 43.50100
H  18.35300 -6.56900 44.23200
H  19.04300 -6.93800 42.75300
H  19.06100 -11.36500 45.46500
H  20.19000 -10.65200 46.60000
H  20.78000 -11.12700 45.01200
H  24.93900 -10.92900 46.34800
H  25.58900 -9.53100 48.96700
H  23.46900 -12.16200 47.79800
H  22.70400 -10.52100 48.28600
H  24.08800 -11.35100 49.07600
H  27.55300 -10.21200 46.84900
H  26.89700 -11.64100 47.68500
H  29.13000 -10.16400 48.62900
H  28.27800 -11.28300 49.50300
H  27.79600 -9.65900 49.70700
H  29.42700 -5.60700 48.77100
H  30.57400 -4.98000 47.51600
H  29.99800 -6.70700 47.63200
H  27.91700 -2.73500 43.45100
H  26.50200 1.09500 43.34200
H  28.17600 1.56900 43.16000
H  27.59200 1.33600 44.82600
Mg 50.18700 46.70700 42.86500
C  46.94500 47.26300 41.53900
C  50.25200 43.78200 41.21000
C  53.23500 46.45900 43.83700
C  50.18200 50.18300 43.75800
N  48.81800 45.69600 41.43100
C  47.50600 45.98800 41.20600
C  46.75500 44.98700 40.40200
C  47.67500 43.77500 40.60800
C  48.99700 44.41500 41.11000
C  47.16600 42.63100 41.55200
C  46.61800 45.45100 38.89000
C  45.27100 45.74400 38.34100
H  44.70500 44.63300 37.39200
N  51.58700 45.30200 42.51100
C  51.46000 44.12200 41.81800
C  52.64700 43.27700 42.07400
C  53.53400 44.04300 42.87200
C  52.83400 45.32200 43.08800
C  52.88900 41.89400 41.51900
C  54.92800 43.59700 43.41200
O  55.32900 42.46700 43.21100
C  55.73000 44.48200 44.36400
N  51.54800 48.21400 43.48300
C  52.76300 47.75700 43.90100
C  53.72700 48.84500 44.42300
C  52.64900 50.05600 44.47200
C  51.35800 49.47100 43.88800
C  54.52400 48.43200 45.71200
C  53.15900 51.30400 43.60500
C  53.43100 52.59100 44.33500
N  48.84900 48.42200 42.67500
C  49.00400 49.76200 43.06300
C  47.83200 50.52200 42.76300
C  46.92600 49.59400 42.22500
C  47.64800 48.33600 42.11700
C  47.63900 51.92800 43.03800
C  45.65300 49.42100 41.57900
O  44.66200 50.11800 41.36800
C  45.58200 47.85600 41.20600
C  44.42500 47.23200 41.80500
O  44.25400 46.93300 42.99500
O  43.39600 47.15600 40.86100
C  42.10100 46.77400 41.32500
H  50.30800 42.77400 40.79400
H  54.30300 46.44600 44.06300
H  50.19000 51.20800 44.13400
H  45.81800 44.70200 40.88100
H  47.91500 43.35200 39.63300
H  46.17800 42.85400 41.95300
H  47.87100 42.52100 42.37700
H  46.96200 41.80100 40.87600
H  47.22900 44.70100 38.38700
H  47.18600 46.37500 38.77900
H  45.35700 46.71900 37.86100
H  44.44800 45.84600 39.04800
H  53.95100 41.78200 41.29700
H  52.36800 41.61300 40.60400
H  52.64200 41.16000 42.28600
H  55.20800 44.79300 45.26900
H  55.89500 45.37800 43.76600
H  56.69900 44.08200 44.66300
H  54.49200 48.97500 43.65800
H  52.51200 50.34600 45.51400
H  54.39600 49.25500 46.41500
H  55.58900 48.37900 45.48500
H  54.19800 47.51800 46.20800
H  52.44900 51.58100 42.82500
H  54.14500 51.11300 43.18100
H  54.48600 52.85500 44.26400
H  53.13200 52.44400 45.37300
H  52.80300 53.40700 43.97800
H  48.46400 52.30600 43.64000
H  46.78800 52.04900 43.70800
H  47.52400 52.44300 42.08400
H  45.51300 47.86200 40.11800
H  42.24400 45.87100 41.91800
H  41.50500 46.62700 40.42400
H  41.48600 47.44700 41.92300

