158

Mg 17.35900 -2.50300 28.50100
C  16.68000 -0.27000 31.25200
C  19.04400 -4.34300 30.66700
C  18.40500 -4.07300 25.88200
C  15.88800 0.01900 26.33000
N  17.62600 -2.35500 30.73300
C  17.24400 -1.44200 31.68900
C  17.68300 -1.78700 33.07300
C  18.73100 -2.91500 32.80800
C  18.44700 -3.24700 31.30500
C  20.19200 -2.68100 33.08500
C  16.51000 -2.17200 33.91200
C  16.57400 -1.80600 35.38000
H  17.90100 -1.30500 35.95400
N  18.38800 -4.22100 28.37100
C  19.03300 -4.87700 29.36300
C  19.68400 -6.01400 28.79400
C  19.44800 -5.97600 27.38800
C  18.73300 -4.70400 27.11600
C  20.46400 -6.94300 29.69800
C  19.84900 -7.04100 26.32800
O  19.57400 -6.99800 25.11200
C  20.70600 -8.17500 26.76700
N  17.03800 -2.08800 26.37900
C  17.65600 -2.88400 25.52300
C  17.62400 -2.36000 24.11400
C  16.64400 -1.16300 24.14900
C  16.49300 -1.08000 25.68200
C  19.05600 -2.14000 23.57700
C  15.27100 -1.45600 23.45900
C  14.68200 -0.39400 22.49700
N  16.43700 -0.62400 28.71000
C  15.89800 0.20500 27.72400
C  15.33700 1.39400 28.34300
C  15.56000 1.27700 29.69500
C  16.26800 0.01100 29.86200
C  14.60900 2.52500 27.64600
C  15.48100 1.92000 30.98600
O  15.03400 3.07200 31.18800
C  16.16500 0.96900 32.09400
C  17.27300 1.60900 32.77600
O  18.48200 1.63000 32.58900
O  16.75200 2.21900 33.97300
C  17.59900 2.79300 35.04500
H  19.82400 -4.72700 31.32800
H  18.95700 -4.57400 25.08400
H  15.40800 0.74000 25.66500
H  18.28000 -1.01100 33.55200
H  18.49800 -3.82500 33.36000
H  20.74600 -2.47900 32.16800
H  20.78000 -3.54900 33.38300
H  20.36300 -1.87700 33.80100
H  16.38500 -3.24600 33.77300
H  15.60400 -1.79100 33.43900
H  16.29500 -2.73500 35.87600
H  15.81200 -1.05200 35.57600
H  21.38700 -7.27100 29.21900
H  19.84300 -7.81300 29.91200
H  20.57300 -6.42300 30.65000
H  20.24700 -8.75800 27.56500
H  21.69700 -7.92900 27.15000
H  20.80700 -8.93100 25.98800
H  17.23100 -3.15200 23.47600
H  17.17600 -0.28700 23.77800
H  19.22200 -1.15700 23.13500
H  19.35900 -2.86500 22.82200
H  19.77700 -2.16900 24.39400
H  14.57600 -1.66500 24.27200
H  15.26700 -2.33800 22.82000
H  13.94200 0.20800 23.02400
H  14.29300 -0.94100 21.63900
H  15.44500 0.31700 22.17900
H  13.73000 2.89300 28.17500
H  14.25100 2.23900 26.65800
H  15.35000 3.31100 27.49700
H  15.38500 0.71100 32.81100
H  17.05300 3.65500 35.42800
H  18.54800 3.20300 34.69900
H  17.67100 2.11100 35.89200
Mg 47.02200 34.32100 28.02000
C  45.26600 32.50400 30.29600
C  47.30400 36.85400 30.19000
C  48.11700 36.31300 25.45200
C  46.06300 31.98500 25.58200
N  46.46100 34.57300 30.02500
C  45.84200 33.64100 30.82200
C  45.97200 34.03300 32.28900
C  46.27700 35.57100 32.20800
C  46.64400 35.72200 30.78200
C  45.10100 36.49600 32.69900
C  47.16000 33.32100 32.99700
C  46.93000 33.05200 34.47500
H  46.15800 34.05400 35.20500
N  47.89900 36.23200 27.94100
C  47.98000 37.12000 28.95900
C  48.72500 38.23300 28.62000
C  48.91000 38.20200 27.23500
C  48.34000 36.90400 26.80000
C  49.09200 39.24600 29.68000
C  49.55500 39.21900 26.31500
O  49.71600 38.95100 25.11600
C  50.05700 40.50800 26.83300
N  47.20300 34.05400 25.81500
C  47.55900 35.07700 25.03600
C  47.36500 34.74400 23.50800
C  46.97400 33.25400 23.54900
C  46.78800 33.06000 25.09100
C  46.26300 35.62600 22.73800
C  47.93400 32.22700 22.92200
C  48.94500 31.53100 23.80800
N  46.00300 32.52400 27.89800
C  45.69200 31.67800 26.85700
C  44.99200 30.55300 27.43100
C  44.74000 30.91000 28.76900
C  45.41800 32.06600 28.98000
C  44.56700 29.31800 26.61800
C  44.06300 30.42300 29.98200
O  43.51000 29.35100 30.22700
C  44.21900 31.58200 30.89800
C  44.37100 31.12100 32.33000
O  45.32900 30.59900 32.78000
O  43.23400 31.25300 33.03100
C  43.30500 30.88100 34.47900
H  47.34800 37.55100 31.02900
H  48.33400 36.96200 24.60000
H  45.68100 31.22600 24.89600
H  45.01500 33.84300 32.77400
H  47.13000 35.86500 32.82000
H  45.04500 36.67100 33.77300
H  44.12200 36.08000 32.46000
H  45.27600 37.41500 32.13900
H  48.07900 33.88800 32.85100
H  47.37200 32.36100 32.52500
H  47.89800 32.91900 34.95900
H  46.36100 32.12900 34.58700
H  50.13600 39.52000 29.52300
H  49.00600 38.86900 30.69900
H  48.45100 40.12100 29.57600
H  49.29000 41.20400 27.17200
H  50.45500 41.11000 26.01700
H  50.86400 40.44900 27.56400
H  48.36100 34.89200 23.09100
H  45.98500 33.06300 23.13300
H  45.66300 35.02900 22.05000
H  46.81600 36.43300 22.25700
H  45.55900 35.94900 23.50600
H  48.48500 32.82200 22.19300
H  47.38400 31.46500 22.36900
H  49.94700 31.68200 23.40600
H  48.71700 30.46900 23.72200
H  48.89700 31.71200 24.88200
H  45.18600 29.14400 25.73700
H  43.50900 29.30000 26.35600
H  44.68700 28.37400 27.15000
H  43.29000 32.15100 30.88400
H  43.56200 29.83200 34.62000
H  42.31800 31.09500 34.89000
H  44.03000 31.50800 34.99900

