158

Mg 24.37000 -4.66200 45.73000
C  26.56900 -2.36700 44.12200
C  21.91300 -3.54700 43.65100
C  22.47400 -7.29500 46.57600
C  27.01500 -5.84500 47.43000
N  24.23100 -2.99500 44.21400
C  25.16700 -2.21900 43.67200
C  24.71900 -1.42800 42.45900
C  23.18000 -1.66500 42.54000
C  23.04500 -2.80900 43.57300
C  22.36100 -0.33700 42.83900
C  25.38700 -1.88200 41.12800
C  26.10000 -0.83700 40.28300
H  25.84300 -0.81000 38.80000
N  22.44700 -5.30600 45.23500
C  21.60900 -4.66900 44.39300
C  20.35200 -5.41500 44.35200
C  20.53700 -6.59300 45.09800
C  21.86200 -6.39500 45.67800
C  19.17400 -5.10800 43.55400
C  19.51400 -7.69700 45.25700
O  18.35200 -7.61600 44.87500
C  19.80100 -8.92000 46.00500
N  24.65000 -6.34000 46.81300
C  23.72700 -7.28800 47.11000
C  24.25300 -8.36600 48.03100
C  25.61700 -7.79000 48.46200
C  25.79600 -6.58900 47.50300
C  23.35700 -8.79800 49.17200
C  26.74600 -8.86100 48.39200
C  27.49800 -8.96000 49.68200
N  26.37500 -4.19800 45.80700
C  27.37000 -4.77800 46.57900
C  28.53000 -3.97800 46.54900
C  28.26600 -3.15600 45.45200
C  26.94600 -3.25500 45.06600
C  29.81600 -4.08500 47.35100
C  28.87600 -2.18700 44.58400
O  30.00600 -1.75000 44.60500
C  27.80800 -1.66200 43.65000
C  27.66200 -0.16000 43.72000
O  26.94000 0.44600 44.50600
O  28.50600 0.39500 42.83000
C  28.80500 1.77800 43.23900
H  21.00100 -3.21400 43.15200
H  21.90700 -8.13000 46.99300
H  27.79300 -6.21600 48.10000
H  24.94900 -0.38400 42.67300
H  22.60700 -2.09800 41.72000
H  22.92400 0.57600 42.64600
H  21.94100 -0.25800 43.84200
H  21.70000 -0.31100 41.97300
H  24.67800 -2.45900 40.53600
H  26.14700 -2.59500 41.44800
H  27.17400 -1.02500 40.29700
H  26.03600 0.17300 40.68600
H  19.05200 -5.77900 42.70400
H  19.17800 -4.07900 43.19300
H  18.30300 -5.24300 44.19500
H  19.78600 -8.52000 47.01900
H  20.79100 -9.27000 45.71100
H  18.98700 -9.63500 45.88500
H  24.38100 -9.22600 47.37400
H  25.57300 -7.46600 49.50200
H  23.95600 -9.01400 50.05700
H  22.86000 -9.72400 48.88000
H  22.70200 -7.95100 49.37400
H  27.46100 -8.66100 47.59300
H  26.36900 -9.87400 48.25400
H  26.84000 -9.05600 50.54500
H  28.11900 -8.08400 49.87400
H  28.15600 -9.82900 49.66300
H  30.49100 -3.32300 46.96100
H  30.23800 -5.08400 47.24400
H  29.60700 -3.84900 48.39500
H  28.14900 -1.90900 42.64500
H  29.74700 1.97300 42.72700
H  28.87800 1.96500 44.31100
H  28.00200 2.40400 42.85200
Mg 36.01500 2.00000 29.93900
C  33.86000 3.14500 32.35100
C  38.56500 1.95300 32.49300
C  38.32200 1.13900 27.61700
C  33.59200 2.47800 27.54500
N  36.16400 2.44800 32.14400
C  35.10700 2.92400 32.88900
C  35.53600 3.05800 34.35700
C  37.07100 3.00500 34.20600
C  37.28400 2.40500 32.87300
C  37.86500 4.37100 34.39100
C  34.86700 2.04700 35.26600
C  34.45200 2.48100 36.65600
H  35.01800 3.77500 37.32100
N  38.08400 1.51500 30.02300
C  38.92200 1.56000 31.14200
C  40.21600 1.12600 30.68600
C  40.21200 0.79700 29.29400
C  38.84800 1.23400 28.91500
C  41.44700 1.20300 31.63400
C  41.29600 0.31400 28.38000
O  41.09500 0.17400 27.20100
C  42.77300 0.12700 28.92400
N  36.00600 2.00300 27.83000
C  37.09200 1.44300 27.10700
C  36.68600 1.15900 25.63300
C  35.18400 1.67000 25.61700
C  34.87700 2.01000 27.10800
C  37.61100 1.75800 24.54600
C  34.14500 0.52700 25.03100
C  33.04500 1.13300 24.12500
N  34.13300 2.69500 29.93800
C  33.23600 2.77900 28.84600
C  31.92300 3.07900 29.31900
C  32.09400 3.28700 30.73700
C  33.44100 2.99700 31.02200
C  30.66400 3.35200 28.38500
C  31.47900 3.77900 32.02600
O  30.42400 4.24100 32.26100
C  32.66100 3.57500 33.08000
C  32.78900 4.81200 33.85400
O  33.24600 5.88600 33.42400
O  32.16500 4.71900 35.08300
C  31.72800 5.96000 35.75700
H  39.29700 1.89600 33.30100
H  38.98500 0.93400 26.77300
H  32.83000 2.66400 26.78500
H  35.31100 4.06700 34.70200
H  37.52300 2.47000 35.04200
H  38.55500 4.22400 35.22200
H  37.31700 5.27700 34.64700
H  38.48700 4.54500 33.51200
H  35.54700 1.19500 35.24900
H  34.01700 1.62100 34.73500
H  34.81900 1.64200 37.24700
H  33.36600 2.40400 36.60800
H  41.96800 0.24600 31.66900
H  41.07100 1.40300 32.63700
H  42.03500 2.05700 31.29700
H  43.49800 -0.11900 28.14800
H  42.84400 -0.82200 29.45600
H  43.11000 1.01400 29.46100
H  36.63100 0.07200 25.58200
H  35.07800 2.57700 25.02200
H  38.40700 1.02800 24.39500
H  38.05100 2.66800 24.95400
H  37.09800 1.92400 23.59900
H  33.67200 -0.03100 25.83900
H  34.74000 -0.10400 24.37100
H  33.17700 0.77300 23.10500
H  33.12400 2.22000 24.15000
H  32.08600 0.79400 24.51700
H  30.35900 2.44800 27.85700
H  30.99000 4.18000 27.75500
H  29.85400 3.73000 29.00900
H  32.44200 2.71400 33.71200
H  30.69800 5.85000 36.09900
H  31.72400 6.88600 35.18200
H  32.31500 6.14700 36.65600

