158

Mg -10.40400 39.57500 39.70800
C  -9.82500 36.20000 39.05500
C  -6.99900 40.21000 38.82100
C  -11.15900 42.70500 39.12700
C  -13.76600 38.75200 40.36100
N  -8.69700 38.34600 38.72600
C  -8.71900 36.94400 38.66300
C  -7.33100 36.45700 38.24700
C  -6.45600 37.70600 38.59600
C  -7.41700 38.84300 38.67400
C  -5.76300 37.56600 39.95900
C  -7.29300 35.99300 36.76500
C  -7.70100 36.97300 35.59800
H  -8.91000 36.69400 34.83300
N  -9.30800 41.24800 39.17000
C  -7.91800 41.32900 38.87800
C  -7.54000 42.68600 38.65700
C  -8.68300 43.44100 38.78000
C  -9.78300 42.45900 39.04100
C  -6.22900 43.13100 38.28700
C  -8.67400 44.94900 38.60900
O  -7.71800 45.60200 38.14400
C  -9.76300 45.70800 39.07200
N  -12.22700 40.59700 39.72000
C  -12.26300 41.91700 39.50300
C  -13.71200 42.34800 39.50300
C  -14.47300 41.10700 40.01300
C  -13.45700 40.05500 40.07000
C  -14.05500 43.65400 40.26700
C  -15.69500 40.77800 39.08200
C  -16.98700 41.47200 39.47500
N  -11.59400 37.83800 39.76800
C  -12.94500 37.64600 40.08600
C  -13.19900 36.22300 40.09000
C  -11.97400 35.61200 39.72300
C  -11.07500 36.66700 39.58000
C  -14.57800 35.54500 40.40900
C  -11.38800 34.36400 39.44300
O  -11.87100 33.24600 39.35500
C  -9.97400 34.71800 38.94000
C  -8.97900 33.94200 39.78800
O  -8.95600 33.93900 40.99800
O  -8.12500 33.27500 38.97700
C  -7.21000 32.32000 39.73200
H  -5.93800 40.43000 38.68400
H  -11.54600 43.70100 38.90000
H  -14.79900 38.48900 40.59900
H  -7.01700 35.62700 38.88000
H  -5.70800 38.03400 37.87500
H  -6.06400 36.66000 40.48500
H  -5.96900 38.45000 40.56200
H  -4.70100 37.52300 39.71700
H  -7.95300 35.12600 36.73800
H  -6.23300 35.77300 36.63600
H  -6.85200 37.15800 34.94000
H  -7.88200 37.95100 36.04400
H  -6.01100 44.09800 38.74100
H  -6.12200 43.17700 37.20300
H  -5.44700 42.44200 38.60500
H  -10.21000 45.18500 39.91800
H  -10.51800 45.86800 38.30200
H  -9.40200 46.65100 39.48100
H  -14.01600 42.57200 38.48100
H  -14.85200 41.34200 41.00700
H  -13.10100 44.10400 40.54000
H  -14.63900 43.39800 41.15200
H  -14.62900 44.24900 39.55600
H  -15.88800 39.71400 38.94100
H  -15.37600 41.08700 38.08700
H  -17.54500 40.72200 40.03500
H  -17.62000 41.77700 38.64100
H  -16.85700 42.40400 40.02600
H  -15.10200 36.19900 41.10500
H  -14.49700 34.58500 40.92000
H  -15.16400 35.41900 39.49800
H  -9.92400 34.40200 37.89900
H  -7.48500 31.31100 39.42500
H  -7.18100 32.40500 40.81800
H  -6.15000 32.45300 39.51600
Mg -5.95100 25.54300 26.18800
C  -5.06600 27.05800 29.13800
C  -7.59100 23.08600 28.03400
C  -6.33500 23.72900 23.39500
C  -3.96300 27.89400 24.42000
N  -6.20200 25.09400 28.33700
C  -5.81900 25.90600 29.34600
C  -6.37300 25.38900 30.72000
C  -6.94600 23.98100 30.31800
C  -6.91400 24.08600 28.78700
C  -6.19500 22.61100 30.85700
C  -7.47800 26.28100 31.30800
C  -7.54700 26.35300 32.85600
H  -6.84300 25.28000 33.65500
N  -6.98100 23.73200 25.74700
C  -7.66400 22.95800 26.58400
C  -8.29900 21.93100 25.87900
C  -7.82200 22.03200 24.51600
C  -6.99000 23.18600 24.50900
C  -9.19600 20.93400 26.51300
C  -8.06800 21.08600 23.34900
O  -7.66100 21.25300 22.17500
C  -8.97900 19.90700 23.47200
N  -5.45100 25.90000 24.15300
C  -5.61000 24.89400 23.20100
C  -4.88300 25.27900 21.86700
C  -4.19200 26.68700 22.17800
C  -4.50700 26.79800 23.70100
C  -3.91000 24.22500 21.19400
C  -4.78900 27.85400 21.26200
C  -3.66500 28.57400 20.40500
N  -4.76500 27.18400 26.65500
C  -4.05000 28.09300 25.79700
C  -3.29400 28.97000 26.71200
C  -3.72300 28.67600 27.99400
C  -4.57400 27.57500 27.92400
C  -2.21400 29.96000 26.20000
C  -3.69900 29.07300 29.36900
O  -3.12500 30.04300 29.89100
C  -4.48600 27.97800 30.21200
C  -3.50700 27.32800 31.18000
O  -2.70600 26.44200 30.76600
O  -3.68300 27.77400 32.46400
C  -2.69600 27.20400 33.37300
H  -8.26200 22.50100 28.66700
H  -6.38400 23.18400 22.44900
H  -3.23500 28.56200 23.95500
H  -5.51200 25.27700 31.38000
H  -7.98800 23.85100 30.60800
H  -5.74400 22.16400 29.97000
H  -6.83000 21.78900 31.18600
H  -5.45500 22.71800 31.65000
H  -8.45300 26.06500 30.87200
H  -7.32900 27.24300 30.81900
H  -8.60500 26.41700 33.11100
H  -7.11500 27.33000 33.07100
H  -8.94300 20.81500 27.56700
H  -9.15800 20.00400 25.94500
H  -10.22600 21.28100 26.43900
H  -9.30700 19.62600 22.47100
H  -9.92500 20.10700 23.97700
H  -8.46100 19.11800 24.01900
H  -5.74400 25.29200 21.19900
H  -3.11800 26.50900 22.11800
H  -2.88400 24.55700 21.03300
H  -4.23500 24.08600 20.16400
H  -4.02600 23.25900 21.68400
H  -5.25300 28.67900 21.80300
H  -5.42000 27.39500 20.50100
H  -2.67200 28.25200 20.71700
H  -3.74500 29.63800 20.62700
H  -3.86400 28.49200 19.33600
H  -1.51900 29.46600 25.52100
H  -1.64200 30.25600 27.08000
H  -2.73100 30.71500 25.60700
H  -5.14700 28.47300 30.92400
H  -1.74300 27.71200 33.22200
H  -2.46200 26.15200 33.21100
H  -3.01000 27.33700 34.40800

