158

Mg 24.15700 -4.53200 45.94200
C  26.63800 -2.46400 44.34600
C  21.94100 -3.41500 43.39600
C  22.23400 -7.25100 46.31600
C  26.80800 -5.96200 47.72100
N  24.28100 -3.16700 44.06000
C  25.34200 -2.33100 43.75100
C  24.96000 -1.38600 42.57900
C  23.42600 -1.62700 42.40500
C  23.19000 -2.78700 43.37100
C  22.58800 -0.32200 42.71000
C  25.81900 -1.70200 41.37700
C  26.51500 -0.45800 40.84300
H  26.42600 -0.24600 39.34100
N  22.24000 -5.14900 45.13300
C  21.47700 -4.46800 44.19000
C  20.16500 -5.12200 44.10000
C  20.27600 -6.30900 44.86900
C  21.65000 -6.33400 45.42500
C  19.08100 -4.80200 43.17300
C  19.18300 -7.34100 44.89000
O  18.09200 -7.07600 44.44200
C  19.52600 -8.75300 45.30600
N  24.50600 -6.28000 46.87500
C  23.48200 -7.21000 47.02000
C  23.90300 -8.38400 47.90600
C  25.31000 -8.01700 48.38400
C  25.62500 -6.68600 47.61100
C  22.81800 -8.70100 49.01400
C  26.45400 -9.15200 48.33100
C  27.09800 -9.55000 49.67900
N  26.27700 -4.25700 46.04900
C  27.12300 -4.88600 46.90200
C  28.50500 -4.39400 46.60200
C  28.35700 -3.41100 45.63700
C  26.97400 -3.40400 45.35200
C  29.82500 -4.97900 47.20400
C  29.00500 -2.47400 44.75400
O  30.23000 -2.33400 44.58800
C  27.95200 -1.76500 43.97100
C  27.95900 -0.29800 44.12900
O  27.06600 0.41700 44.57500
O  29.14900 0.13900 43.58600
C  29.12400 1.59200 43.41700
H  21.25700 -3.12600 42.59500
H  21.74500 -8.19900 46.55100
H  27.55100 -6.42900 48.37100
H  25.23900 -0.40500 42.96100
H  23.18900 -1.79100 41.35400
H  23.07100 0.25700 43.49800
H  21.64400 -0.66900 43.13000
H  22.40300 0.27100 41.81400
H  25.19400 -2.06900 40.56400
H  26.58400 -2.42300 41.66900
H  27.59300 -0.51800 40.99000
H  26.10400 0.46900 41.24200
H  19.16700 -5.65300 42.49800
H  19.37600 -3.87400 42.68500
H  18.12900 -4.69700 43.69400
H  19.45500 -8.82800 46.39100
H  20.47000 -9.13400 44.91600
H  18.68600 -9.32200 44.90500
H  23.94900 -9.32100 47.35300
H  25.04200 -7.85000 49.42800
H  22.04100 -9.37300 48.65100
H  22.31700 -7.73400 49.06000
H  23.18700 -9.09400 49.96100
H  27.17300 -8.75700 47.61200
H  26.22900 -10.06200 47.77600
H  26.43600 -9.22100 50.47900
H  28.09800 -9.17700 49.90000
H  27.11800 -10.64000 49.66600
H  30.56900 -4.21600 47.43200
H  30.29000 -5.69400 46.52400
H  29.66200 -5.54800 48.11900
H  28.29300 -2.02100 42.96800
H  30.14400 1.97200 43.35600
H  28.94100 2.06000 44.38400
H  28.54500 2.03000 42.60400
Mg 1.14600 42.08500 25.22800
C  1.97600 42.23400 28.72300
C  -1.89000 40.72100 26.31300
C  0.42200 41.71300 22.14400
C  4.32500 43.11700 24.58400
N  0.08600 41.71500 27.28100
C  0.61500 41.89900 28.49100
C  -0.43800 41.83500 29.63200
C  -1.62200 41.25100 28.79900
C  -1.12500 41.15100 27.35700
C  -2.32100 39.96900 29.40500
C  -0.78800 43.17100 30.38100
C  -1.35200 43.08900 31.80700
H  -1.97000 41.73000 32.22300
N  -0.53900 41.36700 24.34500
C  -1.68500 40.88300 24.90300
C  -2.57700 40.43500 23.93500
C  -1.97100 40.69400 22.63700
C  -0.66200 41.34200 23.00300
C  -3.85600 39.65900 24.10400
C  -2.43700 40.39700 21.21200
O  -1.83600 40.74800 20.25200
C  -3.72900 39.75800 20.97300
N  2.23600 42.22900 23.63700
C  1.69500 42.23500 22.38600
C  2.69100 42.44000 21.27000
C  3.89300 43.09500 22.07000
C  3.48900 42.81000 23.56200
C  3.11400 41.18400 20.50200
C  4.05200 44.64400 21.74400
C  2.85500 45.57400 21.91300
N  2.86200 42.63600 26.37000
C  4.12100 42.97300 25.91000
C  5.01300 43.22400 26.95600
C  4.21200 42.90400 28.09100
C  2.88500 42.59200 27.70000
C  6.51700 43.56700 26.78100
C  4.21100 42.68700 29.59000
O  5.10900 42.82600 30.43500
C  2.76900 42.25200 30.02400
C  2.72500 40.85300 30.55600
O  3.22900 39.94800 30.00700
O  1.93300 40.87500 31.71700
C  1.75000 39.49500 32.33700
H  -2.83800 40.30500 26.65900
H  0.13800 41.49200 21.11300
H  5.31100 43.46900 24.27500
H  -0.17200 41.03600 30.32400
H  -2.35400 42.05700 28.75000
H  -2.32100 39.11700 28.72400
H  -3.33800 40.30700 29.60800
H  -1.80500 39.68900 30.32400
H  -1.35600 43.84900 29.74500
H  0.17000 43.68700 30.31900
H  -2.26500 43.68300 31.78200
H  -0.74100 43.58200 32.56300
H  -3.91500 39.30200 25.13200
H  -3.94900 38.70100 23.59100
H  -4.76700 40.19500 23.83700
H  -4.65500 40.24800 21.27300
H  -3.70000 38.74200 21.36600
H  -3.89500 39.61400 19.90600
H  2.40900 43.15200 20.49400
H  4.87000 42.63100 21.93200
H  2.88300 41.37300 19.45400
H  2.60900 40.25300 20.75900
H  4.18900 41.09300 20.66200
H  4.59800 44.86000 20.82500
H  4.64400 44.97000 22.59900
H  1.86600 45.17500 22.13900
H  2.70900 46.03700 20.93700
H  3.10400 46.32300 22.66400
H  6.69000 43.97500 25.78600
H  7.12400 42.69700 27.03400
H  6.70100 44.35500 27.51100
H  2.28300 42.87700 30.77400
H  1.24800 38.81100 31.65300
H  1.06700 39.41500 33.18300
H  2.72600 39.11000 32.63100

