158

Mg 42.71900 4.22200 47.32400
C  40.99100 7.18400 46.97100
C  39.71500 2.47400 47.06100
C  44.38600 1.15300 47.22900
C  45.74800 5.85500 46.86200
N  40.67000 4.74100 46.91600
C  40.17700 6.04900 46.82200
C  38.69100 6.03700 46.53100
C  38.22200 4.60300 46.92700
C  39.64900 3.86100 46.99900
C  37.44300 4.63400 48.36400
C  38.28900 6.41400 45.05300
C  39.36100 6.13400 43.92500
H  38.91100 6.35800 42.48500
N  42.12300 2.14300 47.18400
C  40.86600 1.67200 47.12200
C  40.82200 0.23800 47.17600
C  42.13600 -0.19300 47.16200
C  43.00900 1.06500 47.21400
C  39.46400 -0.61800 47.32000
C  42.55400 -1.62100 47.08600
O  41.75000 -2.48900 47.17000
C  43.95500 -2.03800 47.07100
N  44.81700 3.53700 47.10900
C  45.19200 2.25900 47.10700
C  46.72300 2.14900 47.03100
C  47.17900 3.64400 46.95800
C  45.82900 4.41100 46.97700
C  47.38300 1.23600 48.08700
C  48.06400 3.85200 45.71800
C  49.51900 4.14500 46.15700
N  43.31700 6.16800 47.07000
C  44.58600 6.70700 46.91400
C  44.41800 8.18500 46.90000
C  43.02500 8.37200 47.00900
C  42.42100 7.12100 47.01800
C  45.55200 9.18500 46.84100
C  41.94500 9.35500 46.96700
O  42.04400 10.58600 46.91200
C  40.60500 8.60200 46.99300
C  39.86800 8.82600 48.25900
O  39.78800 8.05800 49.21300
O  39.20900 10.01800 48.13900
C  38.58000 10.52100 49.36400
H  38.77200 1.92900 47.14000
H  44.93200 0.20800 47.26700
H  46.70200 6.38500 46.83700
H  38.12600 6.72300 47.16200
H  37.70600 4.00700 46.17500
H  37.02100 3.67600 48.66500
H  36.70200 5.42900 48.28400
H  38.18900 4.79600 49.14200
H  37.97300 7.45000 44.93200
H  37.40500 5.84400 44.76500
H  39.75500 5.11700 43.91300
H  40.20100 6.82700 43.95600
H  38.65400 -0.38900 46.62700
H  39.17000 -0.35100 48.33500
H  39.58900 -1.70000 47.31500
H  44.47800 -1.55100 46.24900
H  43.96300 -3.10400 46.84500
H  44.44100 -1.72100 47.99400
H  46.86900 1.76200 46.02300
H  47.68300 3.84100 47.90400
H  46.68800 0.84500 48.83000
H  48.29300 1.62900 48.54100
H  47.79700 0.40500 47.51600
H  47.68300 4.74600 45.22500
H  48.17700 3.03900 45.00100
H  49.59900 5.23200 46.13400
H  50.18900 3.65200 45.45300
H  49.73500 3.93300 47.20400
H  46.06800 9.22500 47.80100
H  45.04400 10.11800 46.59700
H  46.30000 9.03800 46.06200
H  39.99800 9.01400 46.18700
H  37.51800 10.32900 49.20900
H  38.82900 11.56500 49.55500
H  38.87700 9.93200 50.23100
Mg -1.56600 34.03500 27.41800
C  -3.25600 32.25600 29.95700
C  -0.44000 36.19700 29.78900
C  -0.42900 36.11500 24.99000
C  -3.55300 32.35000 25.03000
N  -2.03400 34.25800 29.55500
C  -2.58000 33.36200 30.47200
C  -2.36300 33.84800 31.90500
C  -1.74100 35.26300 31.79700
C  -1.33700 35.28700 30.23300
C  -2.64900 36.46400 32.16700
C  -1.57700 32.76400 32.73900
C  -2.09800 32.37200 34.16800
H  -1.23200 32.06800 35.37200
N  -0.41200 35.72800 27.42100
C  0.07700 36.41600 28.53000
C  0.92800 37.47700 28.09100
C  0.99300 37.38500 26.61300
C  -0.01200 36.41000 26.26400
C  1.76200 38.34500 29.08500
C  1.77200 38.26700 25.66100
O  1.67800 38.16500 24.41900
C  2.69300 39.41500 26.10900
N  -2.15600 34.32400 25.33000
C  -1.38400 35.22400 24.57400
C  -1.75900 34.97700 23.08600
C  -2.47700 33.59400 23.07000
C  -2.75400 33.41200 24.52200
C  -2.53200 36.22000 22.47100
C  -1.77700 32.33300 22.47700
C  -0.54900 31.83100 23.35100
N  -3.17500 32.62300 27.43700
C  -3.74600 31.94200 26.44000
C  -4.57000 30.86100 26.94400
C  -4.39700 30.94200 28.29700
C  -3.50200 32.04600 28.58500
C  -5.37800 29.98600 26.01900
C  -4.82400 30.42100 29.56700
O  -5.55400 29.44800 29.70300
C  -3.93900 31.16000 30.74500
C  -4.94800 31.72600 31.73900
O  -5.55100 32.80400 31.59900
O  -4.99700 30.96100 32.87700
C  -5.77100 31.63000 33.98000
H  -0.24400 36.95100 30.55400
H  -0.01100 36.65500 24.13800
H  -4.08900 31.82300 24.23800
H  -3.35600 33.97200 32.33800
H  -0.83700 35.21400 32.40400
H  -2.54800 37.23600 31.40400
H  -2.27700 36.77200 33.14400
H  -3.66000 36.06700 32.25700
H  -0.57300 33.16400 32.88300
H  -1.55000 31.83000 32.17700
H  -2.66400 31.46700 33.95100
H  -2.75000 33.19600 34.45800
H  1.43800 39.38400 29.01800
H  2.83000 38.35800 28.86500
H  1.56600 38.10900 30.13100
H  3.60500 38.92800 26.45400
H  2.14800 39.85000 26.94700
H  2.82100 40.12400 25.29100
H  -0.82200 34.87000 22.54000
H  -3.45200 33.58000 22.58300
H  -2.94500 36.80000 23.29700
H  -3.31500 35.85100 21.80900
H  -1.85000 36.72800 21.78900
H  -1.32500 32.59400 21.52000
H  -2.49500 31.53800 22.27600
H  -0.57400 32.12400 24.40000
H  0.37800 32.29500 23.01300
H  -0.49700 30.74300 23.37800
H  -5.76900 29.09700 26.51200
H  -4.71500 29.77200 25.18100
H  -6.15400 30.67900 25.69600
H  -3.30400 30.45300 31.27900
H  -6.65500 32.18500 33.66600
H  -5.15600 32.34400 34.52800
H  -5.99500 30.83300 34.68900

