158

Mg 35.37900 1.85600 30.06400
C  33.36100 2.99700 32.51900
C  38.05000 1.80500 32.30400
C  37.38500 1.21800 27.48800
C  32.62200 2.24300 27.78500
N  35.64100 2.34500 32.07500
C  34.67300 2.65500 32.94200
C  35.10400 2.47700 34.42100
C  36.65300 2.39000 34.26800
C  36.80600 2.24300 32.77900
C  37.55200 3.57300 34.90200
C  34.44100 1.30800 35.06700
C  34.19000 1.48800 36.59900
H  34.75900 2.72500 37.34500
N  37.48100 1.60200 29.88300
C  38.36300 1.53900 30.94700
C  39.68300 1.34900 30.37000
C  39.47000 1.10500 28.94800
C  38.07800 1.28000 28.63100
C  40.94000 1.62300 31.05900
C  40.50600 0.88300 27.90800
O  40.23500 0.69400 26.74400
C  41.98200 0.71200 28.13300
N  35.01000 1.74300 27.95900
C  36.04100 1.46000 27.17600
C  35.62100 1.41800 25.64800
C  34.09400 1.40600 25.79100
C  33.87800 1.86100 27.24400
C  36.18200 2.58900 24.76200
C  33.36700 0.05400 25.29700
C  32.95100 -0.01500 23.79500
N  33.34800 2.47600 30.05100
C  32.38000 2.61500 29.12000
C  31.22100 3.25200 29.72400
C  31.56900 3.43300 31.07800
C  32.87900 2.92700 31.20800
C  30.07500 3.67200 28.91300
C  31.14500 3.96200 32.29400
O  30.07400 4.49400 32.60900
C  32.26100 3.59700 33.35000
C  32.68500 4.75700 34.18500
O  33.33300 5.70600 33.79400
O  32.03200 4.62900 35.37600
C  32.09600 5.84300 36.21000
H  38.81600 1.69100 33.07300
H  38.06400 1.08200 26.64400
H  31.86300 2.35700 27.00800
H  34.87800 3.38100 34.98700
H  37.01200 1.48200 34.75200
H  36.95700 4.42900 35.22000
H  38.26200 3.94000 34.16000
H  38.23100 3.26300 35.69600
H  35.05600 0.40900 35.03300
H  33.46700 1.18500 34.59500
H  34.58900 0.56200 37.01400
H  33.13600 1.48400 36.87800
H  41.39600 0.66400 31.30500
H  40.72400 2.04000 32.04300
H  41.73300 2.27600 30.69500
H  42.20200 -0.18900 28.70600
H  42.27900 1.59800 28.69500
H  42.52800 0.63000 27.19300
H  35.89500 0.47800 25.16900
H  33.70000 2.10500 25.05400
H  36.68100 3.31000 25.41000
H  35.34500 3.11600 24.30300
H  36.85700 2.23400 23.98300
H  32.49700 -0.06200 25.94500
H  34.03300 -0.80900 25.30500
H  33.21400 0.92600 23.31100
H  31.89200 -0.24500 23.67800
H  33.56900 -0.76100 23.29600
H  29.32400 2.95000 28.59200
H  30.36300 4.16100 27.98200
H  29.65400 4.43100 29.57100
H  31.66400 2.98700 34.02900
H  32.60400 6.67300 35.72000
H  32.59200 5.50700 37.12100
H  31.06100 6.15300 36.35400
Mg 9.67300 48.33200 26.21200
C  7.42100 48.68100 28.89500
C  12.15700 49.57400 28.08400
C  11.54100 48.24900 23.44800
C  6.71400 47.95100 24.12000
N  9.70900 49.08300 28.17800
C  8.75800 48.88400 29.14900
C  9.44000 49.29900 30.52900
C  10.70000 50.12900 30.17500
C  10.85500 49.64900 28.66500
C  10.33800 51.59600 30.30200
C  9.76900 47.91800 31.20200
C  9.79600 47.94200 32.72400
H  9.22500 46.75500 33.46900
N  11.65900 48.79700 25.86000
C  12.58300 49.16500 26.80600
C  13.91400 49.05000 26.20700
C  13.70700 48.82800 24.78500
C  12.27500 48.60600 24.65400
C  15.26100 49.24800 26.93400
C  14.70900 48.60700 23.61000
O  14.45300 48.37600 22.43200
C  16.10900 48.82100 23.82200
N  9.12200 48.31600 24.02700
C  10.17100 48.20800 23.14700
C  9.57800 47.87500 21.69200
C  8.06200 47.63300 22.02900
C  7.93900 47.92400 23.50700
C  9.87900 48.93100 20.66000
C  7.51100 46.16300 21.63800
C  8.47900 44.97800 21.84000
N  7.56600 48.02600 26.43600
C  6.47500 47.93400 25.50300
C  5.20800 47.85600 26.16300
C  5.51900 48.17100 27.52800
C  6.93200 48.35800 27.59500
C  3.89200 47.58000 25.58800
C  5.00000 48.28800 28.90000
O  3.86000 48.10100 29.26000
C  6.27500 48.61100 29.86100
C  6.34600 47.42000 30.77800
O  6.97100 46.40400 30.62800
O  5.32900 47.54700 31.72500
C  5.04100 46.29000 32.48700
H  13.01000 49.75500 28.74100
H  12.20000 48.12100 22.58600
H  5.81800 47.91100 23.49700
H  8.65900 49.77600 31.12000
H  11.52400 49.83500 30.82500
H  9.67300 51.85200 29.47700
H  11.11600 52.36000 30.31600
H  9.79600 51.79200 31.22700
H  10.74200 47.59200 30.83700
H  9.10600 47.12400 30.85600
H  9.06200 48.71700 32.94500
H  10.82300 48.11400 33.04300
H  15.00000 49.58700 27.93600
H  15.60300 50.15000 26.42700
H  15.98600 48.43400 26.89500
H  16.54900 47.99000 24.37400
H  16.36700 49.75200 24.32500
H  16.78500 48.70300 22.97400
H  10.10200 46.97900 21.35700
H  7.42200 48.37200 21.54600
H  9.02000 49.53000 20.35600
H  10.28800 48.35400 19.83200
H  10.61500 49.58500 21.12800
H  7.13700 46.22400 20.61500
H  6.54400 46.00300 22.11500
H  8.72500 44.73700 20.80600
H  7.88700 44.16700 22.26400
H  9.27100 45.16600 22.56500
H  3.21600 47.29700 26.39600
H  4.17500 46.74500 24.94700
H  3.45400 48.39900 25.01900
H  5.93500 49.53700 30.32500
H  5.50800 46.26300 33.47100
H  5.51600 45.40200 32.06900
H  3.96200 46.16900 32.58700

