158

Mg 2.37000 -1.73400 43.34300
C  5.82000 -0.93200 42.73800
C  1.47800 1.04300 41.66600
C  -0.71700 -2.85200 43.48800
C  3.53600 -4.87700 44.61900
N  3.56200 -0.21600 42.16800
C  4.92600 0.03600 42.24600
C  5.32200 1.37000 41.65000
C  3.87500 2.05600 41.44700
C  2.90000 0.89500 41.83500
C  3.69600 3.39700 42.34500
C  6.09700 1.24600 40.30800
C  7.43600 2.00200 40.21000
H  8.05600 2.32900 38.79700
N  0.58500 -1.04800 42.59000
C  0.40300 0.17900 42.04400
C  -0.98100 0.34300 41.66600
C  -1.66000 -0.68600 42.32300
C  -0.61100 -1.61800 42.82000
C  -1.56800 1.41200 40.80600
C  -3.21700 -0.82500 42.30800
O  -3.87000 0.08400 41.86300
C  -3.91100 -2.05100 42.89900
N  1.53000 -3.61000 44.04400
C  0.20200 -3.80200 43.97900
C  -0.16300 -5.19200 44.47300
C  1.21600 -5.81600 44.89800
C  2.11300 -4.70500 44.43400
C  -1.30700 -5.11800 45.60400
C  1.61800 -7.14300 44.27000
C  1.54400 -8.41200 45.15100
N  4.24600 -2.77100 43.62500
C  4.49300 -3.96900 44.24500
C  5.88100 -4.08900 44.49600
C  6.45800 -2.93400 43.92500
C  5.42400 -2.20600 43.31600
C  6.59700 -5.18900 45.24600
C  7.72900 -2.17500 43.73500
O  8.89000 -2.36600 44.09500
C  7.32700 -0.80200 43.04300
C  7.57100 0.38000 43.92000
O  6.82500 0.79400 44.82500
O  8.63400 1.04900 43.44400
C  8.86100 2.40300 43.96300
H  1.18500 2.01200 41.25500
H  -1.77500 -3.12000 43.51200
H  3.88600 -5.74400 45.18200
H  5.88900 1.86200 42.44000
H  3.63500 2.27800 40.40700
H  4.70400 3.68300 42.64400
H  3.16100 3.00900 43.21200
H  3.22400 4.21500 41.80200
H  5.53600 1.52600 39.41700
H  6.49700 0.25100 40.11400
H  8.29300 1.53100 40.69000
H  7.26200 2.94500 40.72800
H  -2.25700 0.94500 40.10200
H  -0.76400 1.86500 40.22500
H  -1.97600 2.20700 41.42900
H  -4.92400 -1.65600 42.81500
H  -3.62700 -1.98300 43.94900
H  -3.82100 -2.93000 42.26100
H  -0.53700 -5.75900 43.62000
H  1.27800 -5.81500 45.98600
H  -2.23500 -5.60600 45.30700
H  -1.67600 -4.11600 45.82400
H  -0.92800 -5.51400 46.54700
H  2.60600 -7.09600 43.81400
H  0.86500 -7.27600 43.49300
H  2.34000 -9.09700 44.85900
H  0.64300 -8.96200 44.88000
H  1.49900 -8.18200 46.21600
H  7.16800 -5.81600 44.56200
H  5.99000 -5.89000 45.81900
H  7.29500 -4.64900 45.88600
H  7.81600 -0.59200 42.09200
H  8.50400 3.23600 43.35800
H  9.94800 2.44500 44.03300
H  8.48400 2.53800 44.97800
Mg 41.24000 40.53300 26.64700
C  40.54900 42.99300 29.06100
C  42.46100 38.47400 29.14000
C  42.23300 38.47200 24.15400
C  40.44600 42.86900 24.20000
N  41.37100 40.70000 28.86800
C  40.99800 41.75900 29.60700
C  41.09200 41.44300 31.09200
C  41.90700 40.07400 31.10600
C  41.92200 39.70700 29.58700
C  43.32100 40.22000 31.77400
C  39.67100 41.45200 31.76700
C  39.49300 42.37400 32.98500
H  38.85000 41.68700 34.19700
N  42.13200 38.72000 26.66800
C  42.62500 38.03400 27.78200
C  43.19000 36.74700 27.27800
C  43.29100 36.74700 25.84400
C  42.53000 38.02500 25.47700
C  43.82300 35.79700 28.27400
C  43.94200 35.86900 24.91700
O  44.21200 36.16600 23.71400
C  44.46600 34.54700 25.44800
N  41.43100 40.72300 24.45800
C  41.71100 39.68400 23.68200
C  41.36300 39.90200 22.18100
C  40.81200 41.39400 22.20800
C  40.87700 41.70400 23.69400
C  42.67200 39.81800 21.32000
C  39.47400 41.66700 21.54400
C  39.36100 43.02600 20.79900
N  40.62600 42.52900 26.55500
C  40.25700 43.32200 25.51300
C  39.90900 44.62600 26.00900
C  39.97300 44.53500 27.37900
C  40.41300 43.18700 27.66200
C  39.58500 45.80600 25.13200
C  39.78700 45.25300 28.59000
O  39.38200 46.38200 28.79500
C  40.10500 44.18700 29.78100
C  41.24600 44.81300 30.54100
O  42.37100 44.93500 30.03500
O  40.79100 45.23400 31.78000
C  41.92900 45.36500 32.68800
H  42.89300 37.81900 29.89900
H  42.51300 37.84600 23.30500
H  40.23600 43.60900 23.42400
H  41.70700 42.21300 31.55700
H  41.25700 39.37200 31.62900
H  43.42800 41.22200 32.18800
H  44.16700 40.19300 31.08700
H  43.44800 39.54900 32.62300
H  39.56300 40.42700 32.12300
H  38.84900 41.56300 31.06000
H  38.76500 43.09500 32.61400
H  40.46000 42.86800 33.09000
H  44.88800 36.00800 28.18300
H  43.72900 34.76000 27.95100
H  43.40200 35.81500 29.27900
H  43.63800 34.07900 25.98200
H  45.34300 34.68700 26.08100
H  44.67800 33.89100 24.60500
H  40.65500 39.17500 21.78300
H  41.54700 42.04600 21.73600
H  43.60000 39.62100 21.85600
H  42.88400 40.61500 20.60800
H  42.64200 38.85300 20.81600
H  38.75500 41.69000 22.36300
H  39.23700 40.86200 20.84800
H  38.69600 42.91400 19.94300
H  40.38700 43.37700 20.69000
H  38.99400 43.79700 21.47700
H  38.96300 45.56700 24.27000
H  40.54900 46.22600 24.84500
H  39.02400 46.49700 25.76200
H  39.20500 43.92600 30.33900
H  41.56800 45.91900 33.55400
H  42.66400 45.98800 32.17900
H  42.32200 44.45500 33.14200

