158

Mg 17.58000 -1.51400 27.10700
C  16.68100 0.43500 29.91600
C  19.23900 -3.53900 29.20200
C  18.88100 -2.94300 24.43100
C  15.72300 0.61800 25.04100
N  18.04100 -1.42400 29.36400
C  17.49200 -0.60800 30.36400
C  17.74900 -1.20600 31.76000
C  18.47100 -2.53700 31.41000
C  18.60900 -2.51500 29.89100
C  19.77200 -2.88900 32.20800
C  16.46400 -1.42500 32.63700
C  16.57700 -0.72300 34.03300
H  17.97800 -0.53600 34.58200
N  18.90100 -2.97600 26.87800
C  19.42200 -3.78200 27.84200
C  20.11700 -4.93100 27.28100
C  20.06800 -4.70900 25.85800
C  19.25000 -3.48400 25.65000
C  20.94200 -5.88600 28.18800
C  20.65900 -5.62500 24.76000
O  20.42800 -5.39300 23.58100
C  21.34700 -6.91600 25.00700
N  17.21300 -1.35900 25.00400
C  18.00900 -1.93800 24.08100
C  17.84800 -1.42900 22.61700
C  16.82300 -0.27400 22.93100
C  16.52500 -0.40400 24.38800
C  19.18100 -0.90400 22.02300
C  15.55800 -0.39800 21.99200
C  15.23400 0.74900 21.01600
N  16.48600 0.22400 27.31900
C  15.70200 0.90400 26.42500
C  15.04200 2.00900 27.07700
C  15.32900 1.80700 28.42400
C  16.20500 0.67500 28.59500
C  14.11400 3.03500 26.50400
C  15.05600 2.31700 29.75800
O  14.28900 3.18900 30.14800
C  15.93800 1.47400 30.80900
C  16.84100 2.52500 31.39800
O  17.87600 3.02100 30.89200
O  16.42800 2.75800 32.73700
C  17.31300 3.51400 33.63100
H  19.63900 -4.25200 29.92600
H  19.37000 -3.34900 23.54300
H  15.26600 1.35900 24.38200
H  18.51700 -0.56600 32.19400
H  17.78600 -3.36800 31.57300
H  19.96000 -2.22800 33.05400
H  20.58000 -2.95600 31.47900
H  19.59600 -3.85100 32.68900
H  16.26300 -2.49500 32.70100
H  15.61300 -0.88700 32.22000
H  15.98500 -1.21900 34.80300
H  16.30900 0.32100 33.87200
H  20.99900 -6.90600 27.80800
H  20.49200 -6.07400 29.16300
H  21.95100 -5.53500 28.40600
H  22.28800 -6.61200 25.46700
H  21.63400 -7.40200 24.07500
H  20.80800 -7.48500 25.76500
H  17.56600 -2.06700 21.77900
H  17.17100 0.73100 22.68900
H  19.92600 -0.71300 22.79600
H  19.14700 0.07600 21.54600
H  19.50600 -1.72000 21.37700
H  14.67100 -0.39500 22.62600
H  15.52200 -1.35500 21.47100
H  14.22600 1.08300 21.26100
H  15.24400 0.36400 19.99600
H  15.93900 1.57600 21.09800
H  14.28500 4.03200 26.91000
H  13.07900 2.80900 26.76100
H  14.25400 3.09500 25.42500
H  15.36300 1.04700 31.63100
H  17.33500 2.88800 34.52200
H  16.88300 4.47200 33.92200
H  18.35800 3.51000 33.31800
Mg 26.03200 49.50500 26.69100
C  24.14600 50.95300 29.30600
C  28.51300 48.95000 28.92500
C  27.83200 48.36700 24.08200
C  23.84100 50.99900 24.39800
N  26.23500 49.93400 28.89800
C  25.29500 50.38000 29.76600
C  25.62700 50.06700 31.18800
C  27.15200 49.71000 31.00600
C  27.35000 49.55800 29.54900
C  28.23200 50.69000 31.67400
C  24.61700 49.03200 31.78700
C  24.04700 49.16800 33.28600
H  24.85600 50.04800 34.20600
N  27.93900 48.76600 26.50600
C  28.78400 48.56000 27.62300
C  30.03600 48.07600 27.09500
C  29.91900 47.94700 25.65400
C  28.53800 48.37200 25.34800
C  31.20100 47.84700 27.99600
C  30.99500 47.50000 24.61400
O  30.61800 47.33700 23.44500
C  32.40800 47.13700 25.01100
N  25.88100 49.61600 24.55800
C  26.59500 48.88200 23.69300
C  25.94300 48.77000 22.27800
C  24.70300 49.64200 22.46700
C  24.82800 50.13400 23.92400
C  26.89500 49.20800 21.10800
C  23.28100 48.97400 22.13600
C  22.60900 49.70200 20.98900
N  24.43300 50.79100 26.76200
C  23.63700 51.38200 25.75300
C  22.44800 52.03400 26.32700
C  22.67800 51.88600 27.70500
C  23.86100 51.13900 27.92000
C  21.32300 52.74900 25.63200
C  22.06700 52.21500 29.01600
O  21.01300 52.81800 29.29000
C  22.95400 51.54100 30.05600
C  23.40600 52.63400 31.00000
O  24.20200 53.51800 30.77200
O  22.73400 52.46100 32.24800
C  23.08000 53.45100 33.30000
H  29.24300 48.66100 29.68400
H  28.34300 47.97500 23.20100
H  23.07700 51.42000 23.74000
H  25.60600 51.01800 31.72100
H  27.30200 48.70500 31.39900
H  27.81900 51.66400 31.93200
H  29.09000 50.84000 31.01800
H  28.49600 50.13800 32.57600
H  25.16500 48.09000 31.75100
H  23.84200 48.83000 31.04700
H  23.89100 48.19800 33.75800
H  23.04700 49.60200 33.30500
H  32.10400 48.12500 27.45200
H  31.36300 46.78700 28.19200
H  31.34200 48.37400 28.93900
H  32.91800 47.98600 25.46400
H  32.98900 46.84800 24.13500
H  32.37700 46.37900 25.79400
H  25.75000 47.74800 21.95400
H  24.70400 50.57100 21.89600
H  27.89300 49.42400 21.48900
H  26.48700 50.09600 20.62500
H  26.98500 48.44900 20.33100
H  22.68600 49.09100 23.04200
H  23.37700 47.90800 21.92700
H  22.81700 49.06600 20.12900
H  23.00500 50.68600 20.73800
H  21.52600 49.75000 21.10600
H  20.35200 52.25400 25.62400
H  21.59500 53.12600 24.64600
H  21.02000 53.60200 26.23800
H  22.31000 50.81700 30.55400
H  24.13100 53.56900 33.56400
H  22.57400 53.26300 34.24700
H  22.68300 54.35300 32.83400

