158

Mg 47.07100 24.47200 28.61700
C  47.47500 26.79100 31.19400
C  46.27200 22.06800 30.91600
C  47.55800 22.19500 26.18400
C  48.62900 26.85400 26.33200
N  46.86100 24.46700 30.82400
C  47.09100 25.51100 31.67600
C  46.75700 25.12700 33.12900
C  46.42100 23.61800 33.04100
C  46.52300 23.35200 31.54200
C  47.20700 22.69400 33.95100
C  45.59300 25.96500 33.78600
C  45.72100 26.65500 35.20400
H  44.55300 26.52300 36.24400
N  46.62000 22.55000 28.51700
C  46.25100 21.71500 29.55300
C  46.04500 20.43100 29.01800
C  46.46800 20.39500 27.67000
C  46.90700 21.79000 27.40500
C  45.55300 19.36300 29.89200
C  46.63500 19.27100 26.74800
O  46.96000 19.46200 25.56100
C  46.52500 17.84700 27.22200
N  47.88400 24.53300 26.56200
C  47.98200 23.42300 25.76800
C  48.63100 23.71500 24.44700
C  48.49800 25.27100 24.37700
C  48.39800 25.59900 25.88300
C  50.18200 23.19200 24.46800
C  47.09900 25.61700 23.57100
C  46.45600 27.05300 23.71400
N  47.89900 26.40200 28.71300
C  48.50000 27.26000 27.71700
C  48.75400 28.48800 28.27600
C  48.38900 28.30800 29.62500
C  47.83100 27.08500 29.87200
C  49.12500 29.78800 27.48200
C  48.45600 29.01800 30.88500
O  48.93300 30.08700 31.16900
C  47.84500 28.03200 31.96800
C  48.90400 27.72000 33.05300
O  49.99600 27.26500 32.77300
O  48.49600 28.06800 34.38200
C  49.35900 27.78600 35.55600
H  46.01100 21.27400 31.61900
H  47.76000 21.49300 25.37300
H  49.13800 27.48100 25.59600
H  47.68700 25.28200 33.67800
H  45.38600 23.34000 33.24200
H  47.88100 22.03300 33.40800
H  46.49400 22.16000 34.58000
H  47.87700 23.24700 34.60900
H  44.67300 25.40200 33.94300
H  45.25800 26.74400 33.10100
H  45.91700 27.70700 34.99700
H  46.58100 26.21200 35.70600
H  44.95600 18.74700 29.21900
H  44.93200 19.62800 30.74800
H  46.44200 18.79100 30.15700
H  47.28500 17.67300 27.98300
H  46.74000 17.24500 26.33800
H  45.50600 17.64700 27.55400
H  48.02000 23.20100 23.70600
H  49.24800 25.79300 23.78300
H  50.64800 23.16200 25.45300
H  50.81100 23.85000 23.86900
H  50.18400 22.16400 24.10500
H  46.33300 24.89900 23.86400
H  47.24500 25.46900 22.50100
H  45.53900 26.91000 24.28600
H  46.15300 27.57900 22.80900
H  47.23300 27.64200 24.20200
H  48.41900 29.97700 26.67300
H  50.03900 29.55000 26.93600
H  49.25200 30.69500 28.07200
H  47.05700 28.59400 32.47000
H  49.92900 26.85700 35.55000
H  48.74100 27.66500 36.44600
H  50.06800 28.61500 35.54200
Mg -0.73000 44.25900 26.33900
C  1.77400 43.64400 28.75300
C  -3.07000 43.81300 28.91100
C  -3.20300 44.64600 24.06300
C  1.69000 44.28700 23.81100
N  -0.64200 43.67900 28.49600
C  0.49500 43.64900 29.30300
C  0.10100 43.51600 30.80000
C  -1.43500 43.30200 30.72900
C  -1.76700 43.59800 29.30600
C  -1.92800 42.05100 31.35600
C  0.50900 44.73900 31.77200
C  0.44600 44.52000 33.27900
H  0.39800 43.12200 33.95700
N  -2.89500 44.23700 26.44800
C  -3.64300 44.07800 27.61200
C  -5.03300 44.35200 27.28800
C  -5.09600 44.64000 25.87700
C  -3.68300 44.43300 25.38900
C  -6.11500 44.32800 28.29500
C  -6.32600 45.03500 25.00400
O  -6.28100 45.02600 23.78400
C  -7.54500 45.57300 25.70000
N  -0.76900 44.28100 24.21700
C  -1.90600 44.60300 23.53300
C  -1.62800 44.81000 22.03100
C  -0.12400 44.90600 22.03300
C  0.32700 44.35000 23.40600
C  -2.20900 43.67600 21.11300
C  0.43400 46.29200 21.78800
C  1.57700 46.32100 20.71200
N  1.37900 44.00300 26.25200
C  2.18700 44.02700 25.13400
C  3.55600 43.80200 25.55800
C  3.45800 43.71700 26.96900
C  2.10500 43.76100 27.34900
C  4.75200 43.97200 24.56300
C  4.20200 43.52800 28.20200
O  5.37200 43.39400 28.35900
C  3.14000 43.46200 29.42800
C  3.29600 42.25900 30.20200
O  3.09400 41.10200 29.79100
O  3.85300 42.51900 31.45900
C  4.18900 41.43700 32.34200
H  -3.85300 43.80800 29.67200
H  -3.88300 44.82800 23.22900
H  2.40400 44.36100 22.98700
H  0.73000 42.66800 31.06800
H  -1.92600 44.10200 31.28400
H  -1.22100 41.63400 32.07300
H  -1.93300 41.30200 30.56400
H  -2.96900 42.10200 31.67700
H  -0.02400 45.63300 31.44900
H  1.53400 44.89800 31.43700
H  -0.31000 45.18800 33.69200
H  1.40200 44.97400 33.54100
H  -7.03700 44.14300 27.74400
H  -6.09200 45.22700 28.91000
H  -5.94400 43.37400 28.79400
H  -8.14300 46.06500 24.93300
H  -7.14500 46.40600 26.27800
H  -8.20000 44.90100 26.25400
H  -1.99100 45.77100 21.66700
H  0.19200 44.11200 21.35600
H  -2.41600 44.00400 20.09400
H  -3.07500 43.12600 21.47900
H  -1.49500 42.85500 21.04600
H  0.92200 46.68700 22.67800
H  -0.28200 47.10600 21.68000
H  1.30900 46.83600 19.79000
H  1.81500 45.28900 20.45700
H  2.46800 46.78000 21.14000
H  4.75300 43.22400 23.77000
H  5.63100 43.85700 25.19800
H  4.74100 44.97300 24.13200
H  3.44600 44.33200 30.00800
H  5.27800 41.43000 32.29400
H  3.79500 40.45300 32.08700
H  3.80900 41.63700 33.34400

