158

Mg 25.45400 1.47600 29.14300
C  27.37800 1.03700 32.14600
C  22.64500 2.03700 31.07600
C  23.73100 1.83600 26.32700
C  28.26000 0.61800 27.25900
N  25.05500 1.50000 31.37800
C  26.04600 1.39600 32.38900
C  25.33300 1.68300 33.72800
C  23.87300 1.80700 33.31400
C  23.88600 1.83900 31.79500
C  22.74200 0.92700 34.03700
C  25.89500 2.88100 34.53700
C  26.58800 2.65700 35.86600
H  26.39500 3.73800 37.00200
N  23.47900 1.90600 28.75200
C  22.48000 1.96500 29.65800
C  21.24300 2.13500 29.03000
C  21.49100 1.92100 27.59300
C  22.93700 1.86000 27.49800
C  19.95500 2.39800 29.81300
C  20.47900 1.74800 26.46400
O  20.87800 1.63500 25.33000
C  19.00800 1.75200 26.70900
N  26.02100 1.42000 27.02500
C  25.11400 1.66000 26.08100
C  25.79000 1.59800 24.66800
C  27.23200 0.99400 24.95300
C  27.19200 0.99600 26.50600
C  25.16500 0.66000 23.59300
C  28.45100 1.68400 24.36200
C  28.58900 3.22800 24.64800
N  27.41500 0.89100 29.53200
C  28.43900 0.58300 28.66800
C  29.62400 0.33900 29.48700
C  29.28400 0.57400 30.80600
C  27.87500 0.85000 30.79200
C  30.89800 -0.23000 28.87100
C  29.81300 0.68700 32.14500
O  30.92900 0.40900 32.58500
C  28.58500 1.06300 32.98200
C  28.40300 0.03400 34.09400
O  27.57800 -0.86900 34.19200
O  29.23000 0.46900 35.13000
C  29.23800 -0.41200 36.33600
H  21.78900 2.30600 31.69800
H  23.09700 2.04100 25.46200
H  29.06400 0.35900 26.56600
H  25.47800 0.78400 34.32700
H  23.52800 2.80500 33.58500
H  22.24100 0.24800 33.34800
H  22.02500 1.53700 34.58500
H  23.27500 0.26100 34.71500
H  25.10300 3.59300 34.77000
H  26.60300 3.35600 33.85800
H  27.65100 2.46500 35.72600
H  26.16000 1.70200 36.17100
H  20.02200 3.44600 30.10500
H  19.81700 1.77800 30.69900
H  19.02700 2.33600 29.24500
H  18.51200 2.69500 26.93700
H  18.73200 0.97000 27.41700
H  18.55500 1.45500 25.76300
H  25.75800 2.63500 24.33400
H  27.37100 -0.04600 24.65700
H  24.80900 1.31300 22.79600
H  24.37000 0.14100 24.12800
H  25.84700 -0.00400 23.06200
H  28.25500 1.65000 23.29100
H  29.39000 1.14100 24.46600
H  28.30200 3.57200 25.64200
H  27.86600 3.76000 24.03100
H  29.60100 3.62500 24.57400
H  30.68000 -0.91100 28.04800
H  31.40900 -0.64800 29.73800
H  31.55800 0.57100 28.53800
H  28.70200 2.04800 33.43400
H  29.10200 -1.44500 36.01600
H  28.67100 -0.15200 37.23000
H  30.25700 -0.40900 36.72300
Mg 41.25800 9.00800 29.30300
C  42.89500 10.48600 32.00700
C  39.07300 7.57900 31.57500
C  39.53000 7.49400 26.70100
C  43.72000 10.00000 27.22400
N  41.13100 8.95700 31.52600
C  41.84500 9.71200 32.46300
C  41.36800 9.53300 33.92500
C  40.14300 8.55000 33.74200
C  40.10600 8.33500 32.16900
C  40.18900 7.16800 34.48700
C  41.05500 10.89900 34.61000
C  39.96100 10.94300 35.71400
H  40.48100 11.38500 37.10500
N  39.55700 7.81100 29.16500
C  38.81900 7.33000 30.21900
C  37.75300 6.47000 29.68400
C  37.74900 6.56300 28.25700
C  38.99400 7.24100 28.00000
C  36.83800 5.70900 30.66900
C  36.68800 6.01800 27.20300
O  36.96500 6.06200 26.02200
C  35.38800 5.40400 27.62900
N  41.61100 8.69300 27.34400
C  40.79000 8.09200 26.41600
C  41.44300 8.12800 24.99400
C  42.70400 8.95000 25.12900
C  42.70500 9.22800 26.66600
C  41.49400 6.84300 24.18100
C  42.83900 10.14300 24.16200
C  42.22100 11.54200 24.51200
N  42.88800 10.06400 29.51600
C  43.89300 10.34400 28.58900
C  45.05100 10.91900 29.22600
C  44.57000 11.10500 30.55100
C  43.35800 10.52600 30.65700
C  46.28400 11.40300 28.55900
C  44.93900 11.74100 31.79300
O  45.89100 12.44800 31.96600
C  43.85600 11.37800 32.81600
C  44.49400 10.68600 33.92800
O  44.85000 9.53400 33.94400
O  44.54700 11.52400 35.00200
C  45.14700 10.87500 36.15700
H  38.41600 7.12500 32.32000
H  39.17800 7.04900 25.76800
H  44.54000 10.33600 26.58500
H  42.15500 9.04800 34.50200
H  39.14900 8.91300 34.00200
H  41.02000 7.20500 35.19200
H  40.54600 6.52000 33.68600
H  39.26000 6.83400 34.95000
H  40.79500 11.59800 33.81500
H  41.93700 11.46100 34.91600
H  39.43000 9.99300 35.77600
H  39.12100 11.54000 35.36100
H  36.06400 6.37900 31.04300
H  37.38200 5.42200 31.56800
H  36.47600 4.79800 30.19200
H  35.49300 4.57800 28.33300
H  34.79300 5.12500 26.75900
H  34.87600 6.22600 28.13000
H  40.71700 8.73900 24.45800
H  43.59700 8.32800 25.08100
H  42.49800 6.84000 23.75800
H  40.80400 6.86900 23.33700
H  41.24900 5.98700 24.81000
H  42.58000 9.90600 23.13000
H  43.91700 10.30000 24.17800
H  41.56000 11.45200 25.37400
H  41.68200 12.02300 23.69600
H  43.09200 12.12800 24.80400
H  46.50300 12.47100 28.57100
H  46.32000 11.09800 27.51300
H  47.14100 10.94300 29.05000
H  43.34900 12.31200 33.05500
H  44.41800 10.21600 36.62900
H  45.33700 11.63600 36.91400
H  46.12100 10.38600 36.15600

