158

Mg 23.75400 -3.90800 45.30100
C  25.84900 -1.38100 44.02200
C  21.29800 -2.91000 43.16300
C  22.43800 -6.92800 45.57200
C  26.73200 -5.22300 46.91100
N  23.66600 -2.35900 43.68400
C  24.62200 -1.45800 43.34900
C  24.17400 -0.58100 42.19700
C  22.56000 -0.75000 42.25100
C  22.49400 -2.15000 43.05100
C  21.61400 0.17100 43.10200
C  24.85600 -1.13400 40.91500
C  25.11600 -0.07700 39.89200
H  25.27000 -0.39000 38.37600
N  22.02300 -4.81300 44.55100
C  21.10100 -4.17300 43.74900
C  20.00100 -5.05400 43.49500
C  20.33800 -6.25900 44.21100
C  21.62200 -6.05300 44.84200
C  18.86400 -4.73800 42.60000
C  19.40900 -7.42400 44.20100
O  18.36900 -7.50600 43.55300
C  19.86200 -8.63100 44.95900
N  24.53800 -5.80700 46.12100
C  23.70900 -6.82500 46.07500
C  24.29000 -7.99400 46.88000
C  25.68100 -7.52300 47.33100
C  25.67500 -6.04800 46.79400
C  23.43600 -8.77300 48.03300
C  26.88500 -8.27900 46.77200
C  27.65900 -9.01200 47.88600
N  25.76500 -3.32400 45.65400
C  26.78000 -3.89000 46.41100
C  27.97200 -3.01500 46.31500
C  27.62600 -2.03500 45.42800
C  26.30200 -2.23900 44.98600
C  29.30500 -3.38300 47.01900
C  28.25500 -0.94100 44.71300
O  29.38400 -0.38200 44.79700
C  27.14300 -0.46200 43.71700
C  26.76400 0.92300 44.08100
O  25.99200 1.20700 44.98300
O  27.50900 1.82000 43.33000
C  27.31700 3.27000 43.47900
H  20.42300 -2.46000 42.68900
H  22.13500 -7.95900 45.77000
H  27.59300 -5.75200 47.32500
H  24.44800 0.43700 42.47200
H  22.21300 -1.07200 41.27000
H  20.76900 0.50900 42.50100
H  22.14200 1.08500 43.37400
H  21.36400 -0.28400 44.06000
H  24.16500 -1.87900 40.52000
H  25.82100 -1.53900 41.22200
H  26.00500 0.48900 40.17000
H  24.27600 0.61400 39.82100
H  19.07100 -5.06000 41.57900
H  18.69400 -3.66200 42.56700
H  17.90900 -5.09600 42.98600
H  19.22600 -9.51600 44.96900
H  19.89400 -8.35100 46.01200
H  20.83800 -8.94000 44.58500
H  24.48800 -8.76400 46.13400
H  25.71200 -7.50300 48.42100
H  22.63100 -8.06500 48.22800
H  23.93100 -8.88700 48.99800
H  23.09300 -9.74900 47.69100
H  27.57500 -7.62500 46.23800
H  26.65300 -9.06400 46.05200
H  27.40700 -10.03900 47.61900
H  27.43000 -8.61700 48.87600
H  28.73200 -8.84600 47.79200
H  29.26700 -4.43200 47.31400
H  29.55800 -2.83100 47.92400
H  30.10700 -3.27800 46.28800
H  27.55100 -0.53200 42.70900
H  26.51600 3.47400 44.19000
H  27.20900 3.75700 42.51000
H  28.13100 3.75400 44.02000
Mg 46.91700 16.94800 28.94000
C  45.43500 16.17300 31.96300
C  49.17700 18.81300 30.72200
C  48.43700 17.69900 25.97300
C  44.32400 15.52500 27.28700
N  47.27200 17.41000 31.17000
C  46.65400 16.89900 32.14800
C  47.19300 17.27900 33.55800
C  48.20100 18.41300 33.16800
C  48.23000 18.22300 31.61600
C  48.04800 19.83600 33.75700
C  47.74300 16.02200 34.38500
C  48.75700 16.19200 35.49400
H  48.47400 17.24200 36.61300
N  48.62300 18.07200 28.41200
C  49.36000 18.76400 29.33200
C  50.41900 19.41100 28.55200
C  50.34600 18.98400 27.18600
C  49.08100 18.19500 27.14600
C  51.36500 20.33600 29.23400
C  51.33400 19.22900 25.97000
O  51.10100 18.84400 24.82100
C  52.56800 19.84200 26.26800
N  46.51000 16.61700 26.87800
C  47.23400 17.09700 25.79500
C  46.58300 16.65500 24.44300
C  45.32800 15.79400 24.91900
C  45.36000 16.01200 26.46900
C  46.19000 17.84800 23.48100
C  45.24700 14.29700 24.56900
C  44.39200 14.01200 23.34000
N  45.20900 16.06800 29.50500
C  44.20000 15.53600 28.69600
C  43.14700 14.89100 29.47800
C  43.61600 15.12700 30.74300
C  44.84500 15.87100 30.74700
C  41.89500 14.17900 29.02500
C  43.26100 14.97100 32.17500
O  42.32500 14.46000 32.73100
C  44.43600 15.64700 32.91900
C  43.89400 16.73400 33.77000
O  43.25900 17.67200 33.31100
O  44.18400 16.55600 35.12500
C  43.67300 17.62500 36.02100
H  49.90500 19.44500 31.23600
H  48.81200 17.96700 24.98300
H  43.55100 14.89100 26.84700
H  46.43800 17.63100 34.26000
H  49.15700 18.02600 33.52000
H  47.00800 19.99500 34.04500
H  48.22400 20.47400 32.89100
H  48.82000 20.05600 34.49400
H  48.08400 15.31500 33.62900
H  46.83000 15.79500 34.93600
H  49.71100 16.42600 35.02100
H  48.91600 15.20800 35.93600
H  50.85000 20.94000 29.98100
H  51.67900 21.17300 28.61000
H  52.27400 19.97100 29.71100
H  53.29800 19.64200 25.48500
H  53.01000 19.44600 27.18300
H  52.42200 20.90200 26.47300
H  47.27200 16.00900 23.89900
H  44.39900 16.30900 24.67300
H  45.29100 17.49100 22.97900
H  46.95200 17.97400 22.71200
H  45.99200 18.75400 24.05300
H  44.97700 13.73000 25.46000
H  46.26600 14.08500 24.24500
H  43.85800 13.07200 23.47700
H  45.12800 13.83300 22.55600
H  43.58100 14.68300 23.05600
H  41.77600 13.22200 29.53400
H  41.94000 14.01400 27.94900
H  40.98600 14.75200 29.20700
H  44.89100 14.88800 33.55400
H  44.37900 17.77700 36.83700
H  42.71700 17.33800 36.45700
H  43.52200 18.60700 35.57100

