158

Mg 40.11400 9.50700 29.07200
C  42.44500 10.85200 31.62700
C  37.97400 8.72300 31.53000
C  38.15900 8.11900 26.74300
C  42.53200 10.10400 26.80700
N  40.34300 9.60000 31.31000
C  41.19900 10.30800 32.13700
C  40.62200 10.38700 33.52400
C  39.28200 9.43800 33.53600
C  39.13700 9.23100 32.03800
C  39.35600 8.22200 34.42200
C  40.24700 11.76700 34.05100
C  39.90500 11.87800 35.56600
H  40.86000 12.44300 36.56400
N  38.27500 8.59300 29.06400
C  37.63400 8.34900 30.23000
C  36.43700 7.55700 29.86000
C  36.37400 7.49300 28.46500
C  37.64100 8.09700 28.03000
C  35.57500 6.91000 30.93200
C  35.32700 6.87100 27.52900
O  35.58500 6.88800 26.32600
C  34.01800 6.30100 27.98100
N  40.30300 9.19300 27.12700
C  39.38600 8.61500 26.29300
C  39.80900 8.54800 24.74800
C  41.21100 9.22900 24.79400
C  41.36100 9.56800 26.34500
C  39.84000 7.10800 24.17800
C  41.49800 10.31200 23.81400
C  41.06300 11.76800 24.10300
N  42.04100 10.41500 29.13500
C  42.91300 10.60000 28.07900
C  44.09800 11.23700 28.52700
C  43.97500 11.35200 29.92000
C  42.74400 10.83500 30.25800
C  45.24400 11.58400 27.66900
C  44.58800 11.85300 31.11400
O  45.58200 12.49400 31.28000
C  43.48900 11.59800 32.33300
C  44.00900 10.79700 33.50500
O  44.27400 9.63400 33.65600
O  44.09700 11.70700 34.51600
C  44.26700 11.07600 35.85600
H  37.19000 8.72700 32.29000
H  37.67000 7.57300 25.93300
H  43.31600 10.28800 26.06900
H  41.39700 9.95900 34.16100
H  38.47700 10.07100 33.90900
H  40.16400 8.27000 35.15200
H  39.51100 7.42200 33.69900
H  38.45500 8.30300 35.03100
H  39.30100 12.03400 33.58000
H  41.09900 12.41600 33.85100
H  39.73700 10.84100 35.85800
H  38.98600 12.43900 35.73300
H  36.18300 6.21200 31.50800
H  34.71200 6.33300 30.60000
H  35.13500 7.65100 31.59900
H  33.76800 7.01200 28.76900
H  34.19700 5.26100 28.25500
H  33.23000 6.49500 27.25400
H  39.21800 9.15100 24.05800
H  42.03500 8.55600 24.55900
H  40.68000 6.83900 23.53700
H  38.85700 7.02300 23.71500
H  39.86800 6.42900 25.03100
H  41.14700 9.97900 22.83700
H  42.57100 10.34000 23.62500
H  40.74900 12.19200 23.14900
H  41.85700 12.41700 24.47400
H  40.22300 11.74900 24.79700
H  45.55300 12.59800 27.92200
H  44.88900 11.47900 26.64400
H  46.10300 10.99200 27.98600
H  43.26000 12.60500 32.68200
H  45.22500 10.56600 35.95700
H  43.46600 10.35900 36.03900
H  44.21400 11.86900 36.60200
Mg 16.98500 53.08600 26.08900
C  19.11900 51.50900 28.46500
C  14.86200 53.87300 28.70800
C  15.03000 54.51900 23.91400
C  19.21300 52.13500 23.58300
N  16.94400 52.60500 28.28800
C  17.99100 52.11900 29.04600
C  17.76700 52.31400 30.55500
C  16.31400 52.88500 30.57900
C  16.00400 53.18500 29.09600
C  15.16800 51.99500 31.24400
C  18.75900 53.25900 31.25500
C  19.12900 53.07400 32.74700
H  18.13600 52.43800 33.71200
N  15.15900 54.01500 26.24000
C  14.52900 54.35900 27.37700
C  13.44000 55.27400 27.07400
C  13.40200 55.42100 25.69100
C  14.57300 54.58500 25.19900
C  12.43700 55.77100 28.13100
C  12.37500 56.19500 24.84100
O  12.44500 56.25800 23.63500
C  11.32800 56.85700 25.52700
N  17.01400 53.15200 23.95700
C  16.11700 53.92800 23.32000
C  16.50600 54.14900 21.84900
C  17.93600 53.42800 21.75400
C  18.05500 52.82100 23.14000
C  15.53500 53.52800 20.84000
C  19.17100 54.34700 21.43200
C  20.31300 53.82600 20.57800
N  18.70900 51.81600 25.96400
C  19.45900 51.54100 24.86000
C  20.56900 50.76100 25.32700
C  20.54300 50.71400 26.75100
C  19.35900 51.40200 27.04400
C  21.77600 50.24500 24.47400
C  21.22400 50.28900 27.92500
O  22.19800 49.61900 28.13100
C  20.22700 50.81000 29.10600
C  19.78200 49.68500 29.94200
O  19.42200 48.60200 29.50500
O  20.10700 49.86200 31.28700
C  19.65500 48.71000 32.11800
H  14.37100 54.38200 29.54000
H  14.39000 55.09500 23.24200
H  19.98100 51.99300 22.82000
H  17.70000 51.32800 31.01500
H  16.31100 53.91400 30.93700
H  14.40300 52.74800 31.43300
H  15.55500 51.52100 32.14700
H  14.86400 51.14100 30.63900
H  18.61100 54.30700 30.99200
H  19.71200 53.04100 30.77300
H  19.36800 54.08100 33.08700
H  20.04400 52.48200 32.72400
H  12.46500 56.86100 28.13400
H  12.77600 55.53800 29.14000
H  11.45800 55.30500 28.23900
H  10.72000 56.14500 26.08600
H  10.66200 57.47300 24.92300
H  11.80300 57.63900 26.11900
H  16.44400 55.20400 21.58000
H  17.85800 52.61600 21.03100
H  14.76100 54.24800 20.57700
H  15.17100 52.58400 21.24600
H  16.08500 53.26800 19.93500
H  19.54400 54.48200 22.44800
H  18.89200 55.31600 21.01900
H  20.33700 54.41100 19.65900
H  20.30100 52.81700 20.16600
H  21.27800 54.03300 21.04200
H  22.70200 50.34500 25.04000
H  21.91200 50.82400 23.56000
H  21.64500 49.19700 24.20400
H  20.89700 51.40200 29.72900
H  20.08600 47.75100 31.83000
H  18.57300 48.74700 31.98800
H  19.77000 48.85600 33.19200

