158

Mg 1.31100 7.98800 25.57700
C  2.15600 9.92000 28.35500
C  1.70600 5.18700 27.29500
C  0.86700 6.25300 22.69900
C  1.45900 10.85300 23.62700
N  1.77900 7.64600 27.57600
C  1.91900 8.57000 28.60700
C  2.17000 7.91300 29.88200
C  2.11700 6.32800 29.61400
C  1.89300 6.40800 28.05200
C  3.42400 5.54200 29.95700
C  1.10900 8.38200 30.98400
C  1.51400 8.60400 32.51900
H  2.76600 7.86400 33.08200
N  1.28700 5.99300 25.09300
C  1.38500 5.00900 25.97200
C  1.25500 3.75200 25.30800
C  0.84600 4.04700 23.99300
C  0.99300 5.43500 23.81300
C  1.31700 2.40600 26.04000
C  0.35900 3.10400 22.89900
O  0.07900 3.54500 21.78400
C  0.44400 1.66800 23.04200
N  1.14100 8.51700 23.44400
C  0.95700 7.60500 22.46300
C  1.16100 8.30000 21.02100
C  1.09200 9.76700 21.38800
C  1.26000 9.73300 22.88200
C  2.53400 7.82600 20.30600
C  -0.18300 10.54200 20.95500
C  -0.04800 11.64100 19.94700
N  1.59000 10.00500 25.91700
C  1.70200 11.01400 25.00100
C  1.94800 12.21000 25.76100
C  2.15400 11.78500 27.05100
C  1.97600 10.44200 27.09700
C  2.06600 13.67700 25.18900
C  2.50600 12.25800 28.38700
O  2.75400 13.39800 28.74900
C  2.27200 11.01500 29.32800
C  3.49800 10.95300 30.25200
O  4.56500 10.40500 30.02500
O  3.16600 11.69900 31.37600
C  4.14700 11.66700 32.53600
H  2.05900 4.36600 27.92200
H  0.81800 5.64700 21.79200
H  1.57100 11.83900 23.17200
H  3.18500 8.17200 30.18300
H  1.32000 5.78400 30.12100
H  4.21300 6.14800 30.40400
H  3.89600 5.01200 29.13000
H  3.20800 4.84000 30.76200
H  0.35000 7.61500 30.83000
H  0.65900 9.34100 30.72900
H  0.65000 8.26900 33.09300
H  1.56900 9.66900 32.74600
H  0.36000 1.92100 25.84800
H  1.53800 2.61800 27.08600
H  2.12400 1.81400 25.60800
H  -0.39900 1.44200 23.69500
H  1.40500 1.32300 23.42500
H  0.28800 1.17000 22.08500
H  0.37400 7.85700 20.41100
H  1.99600 10.27300 21.05100
H  3.11600 8.68000 19.96200
H  2.32100 7.34200 19.35300
H  3.23300 7.19200 20.85100
H  -0.73600 10.91500 21.81700
H  -0.83500 9.85800 20.41200
H  -0.34300 11.30800 18.95200
H  1.01800 11.86400 19.92800
H  -0.53400 12.52700 20.35600
H  2.49000 13.78300 24.19100
H  2.67400 14.23800 25.89800
H  1.07400 14.12800 25.15900
H  1.37100 11.22800 29.90300
H  3.68200 10.99400 33.25600
H  4.35100 12.60100 33.06000
H  5.15800 11.27800 32.41100
Mg 47.36800 34.82700 27.48400
C  45.92700 32.89400 30.05200
C  47.79400 37.29300 29.71700
C  48.47300 36.68400 24.86600
C  46.29500 32.28900 25.24100
N  46.73000 35.14900 29.61700
C  46.26100 34.14000 30.50400
C  46.38600 34.63900 31.92000
C  46.59100 36.16400 31.73900
C  47.07000 36.23900 30.24900
C  45.33900 36.96700 32.01400
C  47.67400 33.99100 32.60000
C  47.62400 33.98900 34.08100
H  46.75100 34.97400 34.83000
N  48.15000 36.67400 27.32600
C  48.27700 37.55500 28.36900
C  48.98300 38.72100 27.93000
C  49.17900 38.62600 26.53300
C  48.64500 37.26400 26.18300
C  49.42600 39.80300 28.79300
C  49.74900 39.57600 25.56300
O  49.66300 39.35400 24.34200
C  50.32400 40.91300 26.06300
N  47.34500 34.52100 25.31900
C  47.93600 35.41500 24.50900
C  47.87600 34.90900 23.09000
C  47.42400 33.41100 23.20200
C  46.97900 33.36400 24.66800
C  47.05400 35.80800 22.13800
C  48.59100 32.40800 22.84600
C  49.67300 32.27400 23.95400
N  46.53900 32.95700 27.56400
C  46.14800 32.05900 26.59900
C  45.59200 30.85100 27.26200
C  45.54600 31.16400 28.62300
C  46.07400 32.48700 28.76300
C  45.00600 29.58400 26.61800
C  45.05500 30.66400 29.81900
O  44.51500 29.64800 30.20600
C  45.00400 31.86900 30.70500
C  45.23200 31.49900 32.09600
O  46.24200 31.04900 32.62200
O  44.03200 31.78000 32.77800
C  44.00100 31.21900 34.10100
H  48.13500 38.04900 30.42700
H  48.91100 37.26300 24.05100
H  46.01700 31.41800 24.64300
H  45.45600 34.31800 32.38800
H  47.36000 36.62100 32.36100
H  45.63800 37.77200 32.68500
H  44.51700 36.38900 32.43400
H  45.02700 37.41100 31.06900
H  48.53400 34.57000 32.26400
H  47.76400 32.96000 32.26000
H  48.59100 34.22700 34.52600
H  47.33700 33.00700 34.45600
H  49.34300 39.59500 29.86000
H  48.76300 40.61000 28.48000
H  50.49300 39.91800 28.60400
H  49.47200 41.32000 26.60800
H  50.45300 41.55500 25.19200
H  51.29400 40.90300 26.55900
H  48.86700 34.75300 22.66300
H  46.56200 33.07900 22.62300
H  47.61400 35.99600 21.22100
H  46.78700 36.77200 22.57200
H  46.10900 35.32800 21.88300
H  49.06000 32.79300 21.94100
H  48.27700 31.39100 22.61500
H  49.44600 31.53000 24.71800
H  49.87400 33.23100 24.43700
H  50.63700 32.13800 23.46300
H  45.13500 28.71800 27.26700
H  45.50600 29.30400 25.69100
H  43.98300 29.83600 26.33700
H  44.03300 32.31800 30.49700
H  43.01900 31.00900 34.52600
H  44.32200 32.06400 34.71100
H  44.74400 30.43300 34.24200

