158

Mg 47.29800 25.02400 29.01000
C  48.23100 27.49600 31.52400
C  46.30800 23.10600 31.59400
C  46.83900 22.65800 26.82400
C  48.61400 27.14400 26.63800
N  47.23400 25.35000 31.37100
C  47.49100 26.45800 32.15200
C  47.19200 26.17300 33.63500
C  46.87800 24.64600 33.58700
C  46.82600 24.30300 32.12200
C  47.76900 23.59400 34.34800
C  46.08600 27.15500 34.13400
C  46.57900 28.09300 35.23600
H  47.07700 27.43100 36.60600
N  46.50400 23.21100 29.18800
C  46.14700 22.53700 30.34400
C  45.69300 21.23500 29.95400
C  45.65000 21.14900 28.53100
C  46.34400 22.41900 28.09000
C  45.25000 20.29800 30.98500
C  45.17500 20.05700 27.64300
O  45.25600 20.14400 26.41300
C  44.64200 18.73300 28.17300
N  47.99500 24.84100 27.14800
C  47.57100 23.77200 26.38500
C  47.93000 23.96500 24.91300
C  48.40100 25.42300 24.81100
C  48.32100 25.85800 26.29900
C  48.94900 22.96700 24.25500
C  47.58400 26.42000 23.88700
C  48.43800 27.33400 23.03200
N  48.31000 26.87400 29.08300
C  48.73400 27.66900 28.02100
C  49.20300 28.87800 28.44400
C  49.04400 28.85000 29.84100
C  48.54500 27.60100 30.17900
C  49.74600 30.04700 27.55600
C  49.14100 29.68800 31.06600
O  49.67800 30.84700 31.10600
C  48.66500 28.74600 32.21800
C  49.80100 28.50600 33.16400
O  50.65600 27.66000 33.06200
O  49.81000 29.47000 34.14000
C  50.80100 29.15500 35.19600
H  45.85600 22.50000 32.38200
H  46.67500 22.01600 25.95700
H  48.83600 27.79000 25.78600
H  48.13400 26.48500 34.08600
H  45.88200 24.47600 33.99500
H  48.19100 22.93800 33.58700
H  47.15500 23.09700 35.09900
H  48.57000 24.15000 34.83500
H  45.24800 26.55000 34.48000
H  45.74400 27.74800 33.28600
H  45.74300 28.76200 35.43900
H  47.50500 28.60400 34.97100
H  44.23300 20.04600 30.68300
H  45.23000 20.67900 32.00600
H  45.76500 19.33800 31.03200
H  45.19200 18.39000 29.04900
H  44.55900 18.02500 27.34900
H  43.66800 19.01300 28.57400
H  46.96300 23.96600 24.41100
H  49.47200 25.36800 24.61600
H  49.95200 23.39500 24.23500
H  48.76600 22.48800 23.29400
H  48.99700 22.16200 24.98800
H  47.05800 27.13100 24.52300
H  46.91900 25.79400 23.29200
H  48.47800 26.98200 22.00100
H  49.42100 27.50200 23.47200
H  48.00300 28.33200 23.09100
H  49.43500 31.05600 27.82800
H  49.53600 29.92800 26.49300
H  50.82800 30.08000 27.68900
H  47.87800 29.28500 32.74600
H  50.50200 28.24900 35.72300
H  50.90500 29.97300 35.90800
H  51.81400 29.03900 34.81200
Mg 6.47200 54.34800 41.59300
C  5.92000 51.04100 41.04200
C  9.74000 53.89600 40.56500
C  6.68500 57.65100 41.20300
C  2.93600 54.83500 41.97300
N  7.57300 52.62700 40.52900
C  7.19000 51.39100 40.61800
C  8.34600 50.39600 40.25500
C  9.68100 51.24000 40.43700
C  8.97900 52.71300 40.54400
C  10.65400 50.98400 41.63200
C  8.21400 49.71500 38.90400
C  7.92800 50.55400 37.60800
H  6.95600 50.04200 36.54800
N  8.03700 55.58100 41.17700
C  9.29400 55.19200 40.74800
C  10.14100 56.34900 40.59400
C  9.31800 57.47000 40.75900
C  7.91600 56.92200 41.05100
C  11.58300 56.26000 40.24000
C  9.73400 58.97000 40.55300
O  10.90200 59.24100 40.26100
C  8.85100 60.09200 40.97100
N  5.02200 56.02100 41.55400
C  5.37400 57.28400 41.47300
C  4.18100 58.29700 41.61500
C  2.97300 57.35300 41.88100
C  3.73200 56.00400 41.95500
C  4.35000 59.22500 42.86800
C  1.82200 57.48900 40.84300
C  0.68200 58.51800 41.11800
N  4.76500 53.19000 41.68800
C  3.43400 53.49500 41.88000
C  2.76500 52.26800 41.98500
C  3.68200 51.24900 41.62100
C  4.86400 51.89800 41.43900
C  1.34500 52.16500 42.32200
C  3.82400 49.87100 41.53000
O  3.01700 48.96700 41.86400
C  5.29900 49.62400 41.05000
C  5.14000 48.92600 39.71900
O  4.82900 49.45700 38.64400
O  5.45500 47.62000 39.97900
C  5.16600 46.69400 38.95200
H  10.77700 53.64900 40.32700
H  6.70800 58.70200 40.90700
H  1.86900 54.86000 42.20300
H  8.21900 49.64800 41.03900
H  10.31900 51.11100 39.56300
H  10.44000 51.83100 42.28300
H  11.66000 50.97500 41.21300
H  10.51500 50.01800 42.11600
H  7.55700 48.85200 39.02100
H  9.20800 49.33900 38.66000
H  8.87200 50.61600 37.06600
H  7.54300 51.54200 37.86000
H  12.09300 57.16800 40.56300
H  11.68600 56.07900 39.17000
H  12.01000 55.47300 40.86100
H  8.29700 60.37200 40.07500
H  9.51800 60.93300 41.15800
H  8.26800 59.89000 41.86900
H  4.23900 58.96600 40.75600
H  2.51200 57.52400 42.85300
H  5.27400 59.79800 42.78900
H  4.38200 58.60700 43.76500
H  3.52100 59.93200 42.86200
H  1.36700 56.55200 40.52100
H  2.24100 57.79900 39.88500
H  -0.28900 58.04300 40.97400
H  0.86400 59.45900 40.59800
H  0.82500 58.86300 42.14200
H  0.69100 52.47000 41.50500
H  1.26800 52.79300 43.20900
H  1.00300 51.16200 42.57700
H  5.74400 48.86500 41.69300
H  5.89700 45.89200 39.05400
H  5.24400 47.06200 37.92900
H  4.28900 46.10800 39.22700

