158

Mg 24.15600 -5.38100 45.25100
C  26.16700 -2.84500 43.79200
C  21.61400 -4.29800 43.11600
C  22.51900 -8.12000 46.00600
C  27.12600 -6.64300 46.63400
N  24.04200 -3.81600 43.55200
C  24.97400 -2.89800 43.14200
C  24.45900 -1.98200 42.10700
C  22.89800 -2.28100 42.15100
C  22.81400 -3.57600 42.93100
C  22.12300 -1.07400 42.74900
C  25.16600 -2.23800 40.74300
C  25.58700 -0.94900 39.86100
H  25.42600 -1.01700 38.28200
N  22.22300 -6.01600 44.73300
C  21.38900 -5.46000 43.85300
C  20.16200 -6.22700 43.92200
C  20.38300 -7.35300 44.71000
C  21.74400 -7.19200 45.22400
C  18.95000 -5.92500 43.05100
C  19.37600 -8.39700 45.14000
O  18.25800 -8.32500 44.66100
C  19.62700 -9.46900 46.30100
N  24.80800 -7.19600 46.10200
C  23.88800 -8.14200 46.39800
C  24.57700 -9.39000 47.05700
C  25.99300 -8.83300 47.42300
C  25.99900 -7.44500 46.74000
C  23.67600 -10.06000 48.21000
C  27.14300 -9.84500 47.02000
C  28.23500 -10.04500 48.07000
N  26.18100 -4.72800 45.44900
C  27.21400 -5.40400 46.00000
C  28.41100 -4.57900 45.95400
C  28.09300 -3.54800 45.12700
C  26.70000 -3.70700 44.76700
C  29.83800 -4.71000 46.59200
C  28.54100 -2.34300 44.49200
O  29.54800 -1.76000 44.56200
C  27.31100 -1.89100 43.51700
C  26.99600 -0.45600 43.85300
O  26.62200 -0.08200 44.92100
O  27.25900 0.41900 42.85800
C  27.13200 1.81200 43.22100
H  20.70300 -4.00600 42.59000
H  22.11000 -9.12300 46.14400
H  28.07300 -7.03600 47.01200
H  24.62100 -0.94500 42.40200
H  22.47900 -2.42600 41.15500
H  21.19600 -1.49600 43.13700
H  21.99200 -0.30400 41.98900
H  22.67800 -0.55900 43.53300
H  24.45400 -2.76600 40.10900
H  25.96700 -2.94100 40.96800
H  26.64200 -0.88900 40.12900
H  25.08400 -0.06200 40.24600
H  19.10200 -6.66000 42.26200
H  18.90900 -4.91600 42.64200
H  18.07900 -6.07000 43.69100
H  19.78100 -8.98700 47.26600
H  20.43900 -10.10500 45.95100
H  18.71800 -10.06700 46.23000
H  24.69000 -10.13300 46.26800
H  25.94400 -8.67700 48.50100
H  22.83000 -9.45800 48.54100
H  24.36200 -10.29900 49.02300
H  23.23700 -10.99300 47.85800
H  27.68600 -9.59600 46.10800
H  26.69600 -10.83000 46.89300
H  29.19300 -9.94700 47.55900
H  28.16700 -11.07600 48.41800
H  28.13000 -9.28600 48.84500
H  29.82500 -4.94400 47.65700
H  30.26500 -3.71300 46.47900
H  30.44600 -5.54200 46.23900
H  27.64800 -1.97400 42.48400
H  27.83600 2.43700 42.67200
H  27.38500 2.00100 44.26400
H  26.12900 2.14700 42.95500
Mg 48.80300 35.30100 27.81700
C  46.60400 33.48400 29.86000
C  48.40700 37.89600 29.82800
C  50.14300 37.25900 25.33000
C  48.29700 32.67700 25.40100
N  47.69400 35.56800 29.64300
C  47.00500 34.70800 30.35100
C  46.91000 35.15000 31.85900
C  47.17900 36.67700 31.77000
C  47.83800 36.74800 30.40300
C  45.91800 37.59300 31.87200
C  48.00500 34.40700 32.78800
C  48.03900 34.92400 34.24500
H  46.86000 35.79500 34.73900
N  49.18300 37.27200 27.59600
C  49.03100 38.18900 28.59000
C  49.47500 39.52100 28.07300
C  50.12400 39.27200 26.81100
C  49.77000 37.90700 26.51700
C  49.43100 40.81600 28.90300
C  51.02600 40.18900 25.99100
O  51.50300 39.92600 24.92700
C  51.31100 41.57400 26.55300
N  49.09200 34.99800 25.64100
C  49.83000 35.99100 24.95100
C  50.30000 35.47900 23.54900
C  49.85200 33.94200 23.65800
C  49.03700 33.79300 24.94000
C  49.87900 36.29100 22.31300
C  51.02600 32.93100 23.68800
C  51.50500 32.46700 22.29900
N  47.86300 33.33400 27.68400
C  47.69300 32.48000 26.65000
C  46.86000 31.36400 27.06600
C  46.39100 31.69900 28.29100
C  47.02300 32.91300 28.59500
C  46.68900 30.01300 26.42300
C  45.49900 31.33400 29.38600
O  44.87000 30.26500 29.45800
C  45.48500 32.55100 30.40900
C  45.86200 32.06000 31.76500
O  46.64400 31.14300 31.96900
O  45.05000 32.61300 32.71500
C  45.11600 31.96500 34.00400
H  48.22800 38.72800 30.51200
H  50.69500 37.88300 24.62400
H  48.19700 31.95400 24.58800
H  45.86500 34.97200 32.11300
H  47.84400 37.00300 32.57000
H  44.97700 37.05600 31.99200
H  45.73600 38.00900 30.88100
H  46.06200 38.37200 32.62100
H  48.96100 34.51300 32.27600
H  47.72800 33.35900 32.89800
H  48.98900 35.43900 34.39200
H  48.02000 34.08500 34.94000
H  48.74900 41.53000 28.44100
H  50.44600 41.20800 28.97000
H  49.01300 40.59800 29.88600
H  51.84300 42.16900 25.81000
H  52.01500 41.57700 27.38400
H  50.35800 42.07100 26.73600
H  51.38600 35.51900 23.46100
H  49.24800 33.62900 22.80600
H  49.05900 35.84100 21.75300
H  50.75100 36.50900 21.69600
H  49.51600 37.24700 22.69000
H  50.74200 32.08100 24.30800
H  51.89800 33.31500 24.21800
H  52.57900 32.28200 22.34400
H  51.49200 33.20700 21.49800
H  51.09800 31.50800 21.97900
H  47.45000 29.80100 25.67200
H  45.73100 30.14500 25.92000
H  46.59400 29.24400 27.18900
H  44.45200 32.89100 30.34100
H  45.96500 32.53200 34.38600
H  45.17700 30.88200 33.89100
H  44.21500 32.20300 34.56900

