158

Mg 47.27300 24.60400 28.66100
C  47.81400 26.93400 31.31200
C  46.36900 22.35900 31.20400
C  47.06500 22.30600 26.42600
C  48.61800 26.94900 26.47600
N  47.15500 24.62100 31.03500
C  47.37700 25.70600 31.85400
C  47.04400 25.37600 33.31300
C  46.77000 23.85700 33.33000
C  46.76500 23.54200 31.80100
C  47.76400 22.96600 34.14600
C  45.83300 26.26700 33.80600
C  46.21600 27.06400 35.04000
H  46.35600 26.24700 36.31200
N  46.64700 22.65200 28.74400
C  46.28000 21.93000 29.85500
C  45.88500 20.59300 29.33900
C  46.09100 20.46300 27.95400
C  46.72900 21.78700 27.66500
C  45.11800 19.59800 30.30900
C  45.61500 19.38900 27.04100
O  45.84500 19.28500 25.80600
C  44.66900 18.41600 27.49300
N  47.75200 24.70800 26.73800
C  47.48100 23.59600 26.00100
C  47.78900 23.85300 24.51500
C  48.17800 25.37600 24.56500
C  48.32300 25.70200 26.00800
C  48.93800 22.93200 24.02300
C  47.13800 26.39200 23.98500
C  45.80900 26.60600 24.86300
N  48.03100 26.58600 28.78800
C  48.54600 27.38700 27.80000
C  48.85000 28.65500 28.32000
C  48.50400 28.56800 29.68600
C  48.12200 27.22800 29.92500
C  49.39900 29.86800 27.52800
C  48.41900 29.34200 30.98600
O  48.73800 30.48900 31.27800
C  47.98800 28.21000 32.06400
C  49.12400 28.20600 33.10500
O  49.93600 27.38700 33.18800
O  48.94400 29.22600 34.02200
C  49.90000 29.34300 35.12100
H  45.98900 21.65600 31.94800
H  46.89400 21.47700 25.73600
H  48.88700 27.66000 25.69200
H  47.98100 25.57400 33.83300
H  45.74700 23.70600 33.67700
H  47.39600 22.58500 35.09800
H  48.58800 23.60800 34.45600
H  48.15000 22.14900 33.53600
H  45.03200 25.61900 34.16100
H  45.39500 26.89400 33.03000
H  45.42900 27.80200 35.19300
H  47.03800 27.76500 34.89700
H  44.07300 19.65400 30.00300
H  45.14300 19.87200 31.36400
H  45.31400 18.52600 30.28700
H  43.80200 18.99100 27.81800
H  44.98300 17.77400 28.31600
H  44.45200 17.68200 26.71600
H  46.88900 23.58300 23.96200
H  49.11100 25.62100 24.05800
H  49.01600 22.09500 24.71700
H  49.76800 23.60900 23.81600
H  48.68800 22.50400 23.05200
H  46.96000 25.96600 22.99700
H  47.58700 27.37800 23.87300
H  45.81400 26.51200 25.94900
H  45.06400 25.86500 24.57200
H  45.35300 27.58300 24.70200
H  48.88100 30.78500 27.80900
H  49.18000 29.86100 26.46100
H  50.48600 29.91000 27.59800
H  47.13300 28.57400 32.63300
H  50.90000 29.06600 34.78700
H  49.63400 28.66400 35.93100
H  49.93900 30.32800 35.58600
Mg 6.89400 54.30300 41.83100
C  6.52700 50.89600 41.50300
C  10.26600 53.96300 40.71000
C  7.20000 57.72100 41.69200
C  3.52400 54.55200 42.89400
N  8.19300 52.56800 41.16900
C  7.87400 51.24000 41.12700
C  9.11800 50.41500 40.66300
C  10.29600 51.45200 40.85900
C  9.51300 52.77300 40.78900
C  10.97000 51.30800 42.25700
C  9.06800 49.86600 39.22000
C  8.47500 50.79700 38.10900
H  8.00500 50.18500 36.86500
N  8.50900 55.62700 41.24400
C  9.77200 55.29600 40.78700
C  10.57700 56.48300 40.62500
C  9.77900 57.57000 41.04900
C  8.44800 57.01900 41.39000
C  12.02600 56.43800 40.09600
C  10.23300 59.00700 41.15200
O  11.39600 59.28900 40.86600
C  9.39500 60.15700 41.73900
N  5.46900 55.89300 41.99600
C  5.85100 57.22700 41.93300
C  4.66600 58.11800 42.28700
C  3.54600 57.14600 42.77100
C  4.18000 55.76100 42.49200
C  4.92000 59.45300 43.12900
C  2.16200 57.32200 41.98100
C  2.09800 56.90300 40.53500
N  5.34300 53.07700 42.22600
C  4.08200 53.22400 42.63400
C  3.43800 51.95300 42.87600
C  4.38000 51.00700 42.47100
C  5.49400 51.74100 41.99800
C  2.18000 51.79900 43.56400
C  4.59200 49.58300 42.35800
O  3.97300 48.62500 42.66900
C  5.92700 49.48500 41.57800
C  5.89200 48.67000 40.31600
O  5.59300 49.05600 39.20900
O  6.16600 47.34600 40.63200
C  6.02100 46.40800 39.50600
H  11.33200 53.77400 40.57000
H  7.23900 58.78300 41.44300
H  2.50700 54.80200 43.20200
H  9.15700 49.53500 41.30500
H  10.99200 51.34800 40.02600
H  10.50300 50.47600 42.78500
H  10.82100 52.30400 42.67400
H  12.02900 51.07400 42.14300
H  8.66600 48.85400 39.26200
H  10.11600 49.79900 38.92700
H  9.37200 51.40500 38.00200
H  7.70900 51.41000 38.58400
H  12.06200 57.23000 39.34800
H  12.38700 55.50600 39.66200
H  12.79300 56.67400 40.83400
H  9.88600 61.12200 41.86600
H  9.05000 59.86900 42.73200
H  8.49900 60.29200 41.13400
H  4.29100 58.60600 41.38700
H  3.35800 57.24000 43.84100
H  4.23000 59.47100 43.97200
H  4.71800 60.31800 42.49700
H  5.97400 59.50900 43.40100
H  1.93500 58.38600 41.90700
H  1.42200 56.69200 42.47400
H  1.44900 56.03200 40.44400
H  3.06300 56.78600 40.04200
H  1.60800 57.74200 40.04100
H  2.37500 51.66800 44.62800
H  1.71600 50.87300 43.22400
H  1.51900 52.64500 43.37400
H  6.68400 48.92700 42.12900
H  6.56900 45.48300 39.68600
H  6.31100 46.89200 38.57300
H  4.94700 46.23200 39.43300

