158

Mg 17.27800 -2.25200 28.28700
C  16.20300 -0.20800 30.83800
C  19.20000 -3.99100 30.40500
C  18.80000 -3.62800 25.64600
C  15.41800 -0.17100 26.00200
N  17.62400 -2.02700 30.37800
C  17.08500 -1.18200 31.25300
C  17.58100 -1.39400 32.71600
C  18.58300 -2.61000 32.47500
C  18.48700 -2.92700 30.98800
C  20.05300 -2.37100 32.90900
C  16.48800 -1.72600 33.76900
C  16.49200 -0.96800 35.07000
H  17.77300 -0.29000 35.60400
N  18.85300 -3.65800 28.09700
C  19.38000 -4.32500 29.09900
C  20.29300 -5.25200 28.58900
C  20.19500 -5.24400 27.18300
C  19.25000 -4.13100 26.86000
C  21.14800 -6.25600 29.40500
C  20.79100 -6.10100 26.07100
O  20.73000 -5.76300 24.88500
C  21.61800 -7.33300 26.44900
N  17.07000 -2.07300 26.13300
C  17.92900 -2.65100 25.26900
C  17.92600 -2.02400 23.84900
C  16.68000 -1.08900 23.98700
C  16.32500 -1.04200 25.49600
C  19.18500 -1.19000 23.33500
C  15.45600 -1.30900 23.00200
C  15.64400 -0.35700 21.75400
N  16.00100 -0.62200 28.37300
C  15.21400 0.02100 27.36000
C  14.48800 1.13100 28.03000
C  14.79500 1.09200 29.41200
C  15.75800 0.03300 29.52500
C  13.55500 1.99700 27.34600
C  14.52900 1.63500 30.76400
O  13.73700 2.51800 31.13100
C  15.52000 0.85800 31.65400
C  16.52400 1.85200 32.14700
O  17.52500 2.17700 31.53800
O  15.99200 2.51800 33.23700
C  16.83100 3.63200 33.63200
H  19.82700 -4.46400 31.16400
H  19.31900 -3.94800 24.74000
H  14.87000 0.42700 25.27000
H  18.11200 -0.50400 33.05200
H  18.19600 -3.50400 32.96400
H  20.65100 -2.30000 32.00100
H  20.25700 -3.20800 33.57800
H  20.18800 -1.51600 33.57100
H  16.48800 -2.79800 33.96600
H  15.49700 -1.59900 33.33400
H  16.18800 -1.53700 35.94900
H  15.78100 -0.15700 34.91000
H  20.69200 -7.19600 29.09400
H  21.03700 -6.14900 30.48400
H  22.18900 -6.23000 29.08300
H  21.05500 -7.93100 27.16500
H  22.44400 -6.89800 27.01100
H  22.07300 -7.82700 25.59000
H  17.65300 -2.88800 23.24300
H  16.95900 -0.07500 23.69900
H  18.96800 -0.18900 22.96300
H  19.55300 -1.69400 22.44100
H  19.92500 -1.22700 24.13400
H  14.51100 -0.99700 23.44600
H  15.32700 -2.33500 22.65700
H  16.54800 0.24800 21.81500
H  14.83100 0.36500 21.67600
H  15.60800 -1.03000 20.89800
H  12.53300 1.71700 27.60300
H  13.53600 1.86100 26.26500
H  13.79400 3.04700 27.51200
H  14.95300 0.41300 32.47200
H  16.62700 4.52500 33.04100
H  17.90000 3.47300 33.77600
H  16.28700 3.77300 34.56500
Mg 26.43800 50.28900 27.14500
C  24.27700 51.27500 29.68200
C  28.53700 49.02400 29.48800
C  28.31600 49.13400 24.68200
C  24.23400 51.76600 24.85800
N  26.37100 50.12800 29.32400
C  25.37000 50.58000 30.19700
C  25.69500 50.26400 31.63600
C  27.13500 49.66600 31.52400
C  27.38400 49.58800 30.03200
C  28.21200 50.42000 32.41700
C  24.67100 49.33500 32.40700
C  24.08200 49.83800 33.73300
H  24.22400 48.82200 34.90600
N  28.19200 49.12400 27.11200
C  28.94700 48.73200 28.18400
C  30.16900 48.10800 27.69300
C  30.06000 48.18900 26.26700
C  28.77300 48.81100 25.98700
C  31.31100 47.51200 28.52400
C  31.10200 47.73300 25.23100
O  30.95200 47.88700 24.00500
C  32.34800 46.97500 25.66000
N  26.34400 50.56600 25.06700
C  27.24600 49.86400 24.25200
C  26.92200 50.15600 22.77100
C  25.45100 50.72000 22.86000
C  25.29600 51.06300 24.34100
C  28.04300 51.11300 22.11800
C  24.32400 49.80800 22.29000
C  23.56200 48.88400 23.25300
N  24.72700 51.43800 27.21300
C  23.86000 51.87500 26.21300
C  22.73700 52.48300 26.77300
C  22.85400 52.19800 28.13200
C  24.07200 51.64100 28.38100
C  21.64000 53.15700 26.06600
C  22.21200 52.36500 29.38000
O  21.07800 52.77600 29.59600
C  23.08600 51.83600 30.48300
C  23.47600 52.90400 31.44900
O  24.27200 53.72800 31.10000
O  22.73700 52.79800 32.58400
C  22.67900 53.94700 33.56200
H  29.22800 48.69400 30.26700
H  28.86100 48.65800 23.86400
H  23.52200 52.15100 24.12400
H  25.74700 51.19000 32.21000
H  27.17500 48.63900 31.88700
H  28.88900 49.76600 32.96600
H  27.79900 50.98200 33.25500
H  28.64600 51.16500 31.75000
H  25.13500 48.37300 32.62500
H  23.96400 48.98400 31.65500
H  23.01100 50.02600 33.65900
H  24.51500 50.81100 33.96400
H  31.18000 46.43500 28.62300
H  31.23300 47.92800 29.52900
H  32.28800 47.81400 28.14700
H  32.78600 46.80300 24.67700
H  32.18000 45.98200 26.07700
H  33.04400 47.41800 26.37200
H  26.95300 49.18700 22.27300
H  25.44400 51.62900 22.25900
H  28.77200 51.44500 22.85800
H  27.65500 52.03800 21.69000
H  28.53100 50.56200 21.31400
H  24.80600 49.16500 21.55400
H  23.61500 50.47000 21.79300
H  24.26800 48.57000 24.02200
H  23.11000 48.08900 22.66000
H  22.67300 49.38900 23.63200
H  21.98100 54.05800 25.55400
H  20.76000 53.48700 26.61900
H  21.19500 52.46600 25.35000
H  22.49100 51.06900 30.97700
H  22.90900 54.89300 33.07400
H  23.41300 53.64700 34.31000
H  21.70000 53.95500 34.04200

