158

Mg 23.43600 -6.36400 45.19300
C  25.72800 -4.15900 43.83800
C  20.94400 -4.84900 43.23700
C  21.38300 -9.14300 45.46800
C  25.99700 -7.97500 46.85900
N  23.33100 -4.45500 43.85700
C  24.47300 -3.81300 43.43500
C  24.07700 -2.79100 42.39000
C  22.47300 -2.84500 42.46400
C  22.25100 -4.15000 43.21500
C  21.85900 -1.67100 43.32900
C  24.63500 -3.26200 41.11100
C  25.48200 -2.23000 40.31200
H  25.08400 -1.94500 38.86500
N  21.46000 -6.91100 44.52400
C  20.64700 -6.14400 43.82000
C  19.32600 -6.78000 43.64900
C  19.56700 -8.10400 43.99900
C  20.86500 -8.15200 44.67200
C  18.17100 -6.08800 42.88800
C  18.51700 -9.19900 43.68300
O  17.31300 -8.92100 43.37800
C  18.82400 -10.62100 44.13300
N  23.69600 -8.28200 45.93200
C  22.64800 -9.17400 46.07300
C  23.15300 -10.43600 46.91200
C  24.58700 -9.99300 47.42000
C  24.79600 -8.69200 46.67500
C  22.32600 -10.82800 48.12000
C  25.74500 -11.01600 47.32500
C  26.62000 -11.26600 48.58600
N  25.48300 -6.06700 45.41000
C  26.38700 -6.80100 46.17900
C  27.73200 -6.29800 45.96700
C  27.50100 -5.27500 45.03700
C  26.15600 -5.18400 44.73000
C  29.03800 -6.83500 46.59900
C  28.14700 -4.17800 44.31400
O  29.32700 -3.90900 44.18200
C  26.97100 -3.45700 43.41400
C  27.05600 -2.01500 43.97000
O  26.63900 -1.55000 45.05000
O  27.85200 -1.27400 43.12800
C  27.94400 0.19300 43.36900
H  20.25200 -4.31300 42.58400
H  20.87000 -10.10600 45.51600
H  26.73900 -8.50100 47.46400
H  24.38900 -1.77100 42.61700
H  21.99400 -2.83000 41.48500
H  22.53800 -0.89200 43.67400
H  21.36600 -2.04100 44.22800
H  21.05600 -1.16700 42.79100
H  23.79700 -3.47300 40.44600
H  25.23400 -4.17000 41.18000
H  26.55000 -2.44900 40.28900
H  25.36900 -1.25300 40.78200
H  17.95100 -6.56600 41.93400
H  18.34100 -5.02700 42.70200
H  17.19400 -6.20800 43.35600
H  18.14500 -11.27900 43.59100
H  18.68600 -10.76400 45.20500
H  19.85400 -10.80000 43.82700
H  23.26700 -11.32600 46.29300
H  24.51500 -9.70000 48.46700
H  21.63000 -10.02400 48.36000
H  22.92800 -11.19000 48.95300
H  21.80500 -11.73300 47.80700
H  26.41100 -10.66400 46.53700
H  25.38600 -12.03100 47.15500
H  26.60300 -12.34900 48.71000
H  26.13200 -10.85800 49.47100
H  27.52700 -10.66400 48.53600
H  29.22300 -7.79400 46.11500
H  28.88300 -7.01000 47.66300
H  29.90800 -6.22400 46.35800
H  27.18900 -3.41500 42.34700
H  27.72500 0.37900 44.42100
H  27.29000 0.62000 42.60900
H  28.93100 0.63700 43.24700
Mg 39.93400 9.72500 30.05600
C  41.78000 10.84300 32.80200
C  37.99200 7.88000 32.25000
C  38.29800 8.59500 27.41900
C  42.44200 11.04400 28.03600
N  40.04900 9.28200 32.25200
C  40.75700 9.97800 33.21500
C  40.36700 9.52200 34.65900
C  39.35000 8.43500 34.35600
C  39.01700 8.54100 32.87700
C  39.84200 6.95900 34.70300
C  39.90600 10.75700 35.55200
C  40.37600 10.72500 36.98200
H  39.32500 11.16900 38.12100
N  38.27900 8.48000 29.89900
C  37.56000 7.90700 30.87600
C  36.43400 7.18400 30.25200
C  36.53300 7.44100 28.88100
C  37.71100 8.19200 28.69000
C  35.44100 6.29700 30.99400
C  35.52000 7.05600 27.76500
O  35.51700 7.69500 26.67600
C  34.38100 6.04700 28.10100
N  40.45200 9.62000 28.09800
C  39.48000 9.27700 27.14100
C  39.96400 9.59800 25.69200
C  41.26500 10.47400 26.02000
C  41.45300 10.26700 27.46400
C  40.23400 8.26600 24.85900
C  41.17900 11.95800 25.57900
C  39.96500 12.76300 26.16500
N  41.77500 10.73700 30.26800
C  42.69400 11.20200 29.34300
C  43.81900 11.83000 30.04800
C  43.41200 11.78100 31.44300
C  42.19200 11.08700 31.52800
C  45.06200 12.27200 29.42200
C  43.78900 12.15000 32.78100
O  44.69200 12.82600 33.14000
C  42.82500 11.51900 33.77400
C  43.55700 10.64100 34.81800
O  43.80300 9.48800 34.68200
O  43.58800 11.30300 35.95600
C  44.28300 10.71600 37.09100
H  37.35000 7.26900 32.88800
H  37.79700 8.46700 26.45700
H  43.19400 11.50600 27.39300
H  41.20200 9.06900 35.19400
H  38.37800 8.60300 34.82000
H  39.93900 6.29300 33.84600
H  39.00400 6.48500 35.21500
H  40.77500 6.78000 35.23800
H  38.82300 10.87300 35.59600
H  40.29000 11.64400 35.04700
H  41.11000 11.52700 37.05800
H  40.71400 9.73800 37.29700
H  35.58300 6.31000 32.07500
H  35.67700 5.30800 30.60200
H  34.43600 6.68600 30.83000
H  33.84100 5.84000 27.17700
H  33.71900 6.46900 28.85600
H  34.72700 5.06700 28.43000
H  39.23400 10.11600 25.07000
H  42.08300 9.93300 25.54500
H  40.03700 8.40300 23.79600
H  39.57600 7.47200 25.21100
H  41.24700 7.86500 24.88600
H  40.96500 11.81700 24.52000
H  42.06700 12.56400 25.76300
H  39.25900 12.16000 26.73500
H  39.49200 13.17000 25.27100
H  40.31500 13.55400 26.82900
H  44.80600 13.15900 28.84300
H  45.49200 11.51800 28.76300
H  45.65200 12.64300 30.26000
H  42.36900 12.34000 34.32700
H  43.53500 10.02300 37.47400
H  44.64300 11.44400 37.81800
H  45.09100 10.09200 36.70900

