158

Mg 24.00900 -4.83300 46.50500
C  26.22700 -2.54100 45.07800
C  21.63700 -3.69900 44.37500
C  22.29700 -7.59700 47.28800
C  26.93100 -6.21000 48.11100
N  23.98700 -3.29900 44.83500
C  24.96600 -2.44700 44.44300
C  24.49900 -1.61000 43.23600
C  22.91000 -1.75900 43.40400
C  22.80500 -2.96100 44.33800
C  22.14100 -0.54300 43.92000
C  25.09100 -2.12600 41.85800
C  26.15100 -1.23900 41.10300
H  26.05000 -1.43800 39.63200
N  22.12500 -5.50100 45.99700
C  21.33700 -4.92500 45.03200
C  20.15000 -5.70500 44.94400
C  20.25900 -6.86600 45.81800
C  21.59600 -6.74600 46.47800
C  18.98000 -5.36800 44.03400
C  19.26400 -7.98900 45.92700
O  18.15800 -7.93500 45.36500
C  19.65500 -9.34300 46.55900
N  24.61200 -6.55400 47.54400
C  23.66900 -7.53500 47.80100
C  24.16900 -8.76600 48.62100
C  25.66000 -8.36400 48.78500
C  25.77200 -6.94900 48.08200
C  23.38600 -9.08600 49.95100
C  26.52900 -9.47000 48.18700
C  27.69100 -9.83900 49.11200
N  26.18600 -4.36200 46.77500
C  27.13200 -4.90600 47.53100
C  28.40800 -4.22000 47.38800
C  28.08100 -3.22500 46.46200
C  26.71200 -3.36200 46.13700
C  29.74800 -4.42900 48.05300
C  28.62200 -2.16500 45.69600
O  29.72500 -1.71900 45.58500
C  27.53900 -1.69000 44.71200
C  27.44300 -0.24000 44.83100
O  26.96300 0.37800 45.75500
O  28.02900 0.36700 43.79500
C  28.04400 1.86400 43.94500
H  20.96600 -3.24700 43.64100
H  21.66900 -8.39200 47.69700
H  27.80000 -6.55800 48.67400
H  24.73100 -0.54600 43.27200
H  22.46400 -2.05800 42.45600
H  22.72200 0.24900 44.39200
H  21.38400 -0.89800 44.61900
H  21.61900 -0.00200 43.13100
H  24.33400 -2.33400 41.10300
H  25.52200 -3.10600 42.06100
H  27.17100 -1.48200 41.40300
H  26.06800 -0.21800 41.47700
H  19.12800 -4.43100 43.49600
H  18.05900 -5.30500 44.61400
H  18.80200 -6.20700 43.36200
H  20.65900 -9.52500 46.17400
H  19.01100 -10.14800 46.20700
H  19.67700 -9.23300 47.64300
H  24.09600 -9.65700 47.99800
H  25.73900 -8.04400 49.82400
H  23.08000 -10.12900 50.03300
H  22.49900 -8.45300 49.92500
H  24.07700 -8.84400 50.75900
H  26.96900 -9.12200 47.25200
H  25.89200 -10.31200 47.91700
H  27.46900 -9.35300 50.06200
H  28.60700 -9.48200 48.63900
H  27.84600 -10.90000 49.30700
H  30.10600 -5.41300 47.75200
H  29.82400 -4.20500 49.11700
H  30.43100 -3.85400 47.42800
H  27.80900 -1.96600 43.69200
H  28.35300 2.31000 43.00000
H  28.86700 2.27500 44.53000
H  27.06600 2.28400 44.18300
Mg -12.96400 16.62300 41.99000
C  -9.60000 15.23700 41.65700
C  -11.57500 19.64400 41.18700
C  -15.99200 17.72300 42.06700
C  -14.08900 13.31800 42.50800
N  -10.79200 17.35400 41.67800
C  -9.62300 16.65100 41.50700
C  -8.45300 17.54800 41.12500
C  -9.02200 18.97000 41.37500
C  -10.52800 18.70500 41.36900
C  -8.55800 19.59300 42.73700
C  -7.98700 17.27000 39.70700
C  -6.45500 16.96100 39.46700
H  -5.76000 17.59000 38.26800
N  -13.71400 18.42500 41.64100
C  -13.02800 19.58200 41.27300
C  -13.96000 20.65000 41.12300
C  -15.21900 20.09100 41.34600
C  -15.05500 18.67700 41.70100
C  -13.47000 22.03300 40.71400
C  -16.52800 20.88000 41.40100
O  -16.41900 22.06800 41.00700
C  -17.90400 20.40800 41.72000
N  -14.78600 15.59100 41.91100
C  -15.92900 16.34100 42.19400
C  -17.11000 15.47800 42.58200
C  -16.51000 14.06700 42.47600
C  -15.04000 14.30400 42.32700
C  -17.68500 15.74100 44.00500
C  -16.98100 13.24800 41.26800
C  -17.89400 12.06900 41.69600
N  -12.08500 14.63500 42.03500
C  -12.64800 13.38900 42.32900
C  -11.62700 12.40500 42.27700
C  -10.49200 13.11300 42.06700
C  -10.75400 14.45500 41.91900
C  -11.83200 10.89000 42.40800
C  -9.00900 12.95500 41.77200
O  -8.30500 11.97900 41.80000
C  -8.37100 14.29900 41.54200
C  -7.35800 14.47100 42.61200
O  -7.42800 13.95400 43.74700
O  -6.23100 15.09900 42.17700
C  -4.99100 15.18700 42.94000
H  -11.24600 20.67800 41.06400
H  -16.98200 18.15600 42.22500
H  -14.55800 12.40000 42.86700
H  -7.67600 17.33400 41.85900
H  -8.69200 19.60400 40.55200
H  -9.21900 20.45000 42.86500
H  -7.59600 20.08500 42.59100
H  -8.57100 18.90600 43.58300
H  -8.16900 18.08600 39.00800
H  -8.61100 16.45500 39.34000
H  -6.37900 15.87700 39.38200
H  -5.87700 17.24700 40.34600
H  -13.40700 22.22800 39.64400
H  -12.50200 22.23400 41.17500
H  -14.09600 22.77800 41.20500
H  -18.17900 19.56400 41.08700
H  -18.55900 21.25800 41.53000
H  -17.92800 20.24900 42.79800
H  -17.78600 15.72900 41.76400
H  -16.75700 13.44000 43.33300
H  -18.53200 15.08100 44.19400
H  -18.00900 16.78200 43.98100
H  -17.04200 15.64400 44.87900
H  -16.27000 12.86600 40.53700
H  -17.61800 13.82400 40.59700
H  -18.95400 12.28500 41.56300
H  -17.70800 11.71200 42.70900
H  -17.65200 11.32200 40.94000
H  -12.38000 10.62900 43.31200
H  -10.82900 10.50600 42.59700
H  -12.29800 10.45200 41.52500
H  -7.90200 14.37700 40.56100
H  -4.87000 14.41000 43.69600
H  -4.99400 16.18900 43.36900
H  -4.05900 15.18700 42.37400

