158

Mg 1.80400 8.20300 26.29200
C  2.36400 10.31800 28.91700
C  2.92200 5.42100 28.41000
C  1.64600 6.15000 23.60700
C  1.63600 10.94800 24.19700
N  2.54400 7.92800 28.36600
C  2.48500 8.91600 29.33000
C  2.65000 8.33200 30.73900
C  3.04100 6.89600 30.51600
C  2.91900 6.75600 29.00000
C  4.35600 6.41700 31.14900
C  1.42600 8.62300 31.66600
C  1.62700 8.68800 33.20000
H  2.86400 7.90600 33.84600
N  2.19100 6.11500 26.00400
C  2.57800 5.15800 27.01900
C  2.63200 3.87800 26.37900
C  2.22200 3.94800 25.01600
C  1.93800 5.40100 24.82300
C  3.15200 2.63900 27.10300
C  2.02000 2.91000 23.99200
O  1.70100 3.14000 22.81500
C  2.17900 1.41800 24.32400
N  1.67100 8.53900 24.22700
C  1.64400 7.54600 23.32500
C  1.66900 8.05600 21.85200
C  1.39800 9.58600 22.12800
C  1.61500 9.72500 23.61500
C  2.98200 7.74600 21.00600
C  -0.00300 10.13700 21.56100
C  0.09400 11.24500 20.55200
N  1.86200 10.18700 26.49300
C  1.86900 11.19600 25.55300
C  1.97400 12.47000 26.14700
C  2.11100 12.18100 27.54800
C  2.16900 10.78900 27.62900
C  2.08900 13.79900 25.52700
C  2.40700 12.71200 28.85300
O  2.58400 13.84800 29.25700
C  2.31300 11.53300 29.77900
C  3.34500 11.60100 30.81900
O  4.57600 11.48700 30.55900
O  2.82000 11.57400 32.09600
C  3.93200 11.47400 33.12500
H  3.15200 4.61200 29.10700
H  1.82500 5.61700 22.67100
H  1.51400 11.71600 23.43000
H  3.46700 8.81300 31.27800
H  2.18600 6.37100 30.94100
H  4.95500 6.03500 30.32200
H  4.18000 5.57100 31.81300
H  4.89400 7.20800 31.67200
H  0.61900 7.92600 31.43700
H  0.90000 9.50100 31.29100
H  0.75600 8.10200 33.49400
H  1.53800 9.67700 33.64900
H  2.29300 2.09500 27.49600
H  3.69500 3.11400 27.92000
H  3.74700 1.97700 26.47500
H  1.52500 1.18000 25.16300
H  3.24000 1.18600 24.41000
H  1.94700 0.82700 23.43800
H  0.87200 7.55400 21.30400
H  2.27600 10.14000 21.79500
H  2.84400 7.29900 20.02100
H  3.61000 7.14600 21.66500
H  3.47200 8.70900 20.86100
H  -0.52900 10.57000 22.41200
H  -0.65600 9.34700 21.18900
H  -0.59500 10.99500 19.74500
H  1.11100 11.51700 20.26800
H  -0.38600 12.13600 20.95600
H  1.99800 13.64200 24.45300
H  3.02000 14.32000 25.74700
H  1.22100 14.34900 25.89300
H  1.35300 11.47400 30.29100
H  4.48100 10.54600 32.96700
H  3.49200 11.47200 34.12200
H  4.58200 12.34900 33.16400
Mg 30.13800 59.39800 40.45200
C  26.96000 58.15900 39.21100
C  31.62400 56.67500 38.90300
C  33.12200 61.02900 40.54100
C  28.47400 62.36800 41.13700
N  29.30500 57.65300 39.11200
C  28.00700 57.25100 38.91600
C  28.01600 55.94400 38.03300
C  29.42300 55.34100 38.37200
C  30.16200 56.63900 38.78700
C  29.41700 54.31000 39.54400
C  27.87100 56.28100 36.49000
C  26.71000 55.58100 35.69900
H  26.96800 54.83000 34.33500
N  32.05100 58.96400 39.93300
C  32.47200 57.70400 39.42000
C  33.99100 57.71900 39.27200
C  34.37400 58.91400 39.83700
C  33.19600 59.69600 40.18200
C  34.84400 56.58700 38.65000
C  35.81900 59.34000 39.91700
O  36.73800 58.60200 39.55100
C  36.25800 60.65800 40.56000
N  30.64600 61.43700 40.79400
C  31.96600 61.87700 40.69100
C  31.95700 63.44700 40.92200
C  30.52100 63.78900 41.49600
C  29.78300 62.51200 41.08500
C  33.06000 64.07000 41.67600
C  29.87600 65.10900 41.01900
C  29.58800 66.14700 42.09100
N  28.17200 60.12400 40.33100
C  27.65100 61.31600 40.64500
C  26.21600 61.29700 40.56600
C  25.86900 60.10900 39.94300
C  27.09900 59.39600 39.81000
C  25.41000 62.42200 41.03200
C  24.76000 59.33200 39.45900
O  23.54200 59.52800 39.60700
C  25.44200 57.98400 38.91900
C  24.83600 56.76400 39.59200
O  24.60900 56.61600 40.78800
O  24.66400 55.76000 38.62600
C  24.03000 54.50800 39.12600
H  32.24600 55.79600 38.72000
H  34.03200 61.63300 40.56800
H  27.81600 63.18900 41.43100
H  27.29400 55.16300 38.27300
H  30.00300 54.86500 37.58100
H  28.42600 54.30400 39.99700
H  30.09700 54.67500 40.31400
H  29.71000 53.32400 39.18400
H  28.81500 56.12600 35.96700
H  27.67100 57.35100 36.43900
H  25.92200 56.30500 35.48800
H  26.14200 54.85400 36.28000
H  35.42900 57.00600 37.83100
H  34.14500 55.82200 38.31200
H  35.46000 56.10400 39.40800
H  35.99400 61.54100 39.97800
H  37.33200 60.51300 40.67400
H  35.87600 60.75700 41.57600
H  32.00700 63.91200 39.93700
H  30.64500 63.85100 42.57700
H  32.72600 65.03300 42.06300
H  33.94500 64.06400 41.04000
H  33.32800 63.43300 42.51900
H  29.01600 64.91800 40.37700
H  30.69600 65.52200 40.43200
H  28.57200 66.54000 42.05500
H  30.12300 67.03500 41.75500
H  29.81100 65.89100 43.12700
H  25.58100 62.43100 42.10800
H  24.35200 62.20700 40.87800
H  25.74600 63.40800 40.70900
H  25.18500 57.89700 37.86300
H  23.00000 54.83900 39.25900
H  24.45000 54.13200 40.05900
H  23.94300 53.74300 38.35500

