158

Mg -1.78600 17.39900 26.25400
C  -1.91100 15.17600 28.97100
C  -2.27900 20.04900 28.56700
C  -2.41300 19.62300 23.69300
C  -2.02100 14.71500 24.17500
N  -1.99200 17.59200 28.53100
C  -2.01400 16.49200 29.37800
C  -2.11300 16.98100 30.83900
C  -2.20700 18.58300 30.76600
C  -2.15500 18.78600 29.21800
C  -3.55500 19.19900 31.41800
C  -1.01400 16.40200 31.82300
C  -0.73200 17.24400 32.95700
H  -0.28700 16.63800 34.30600
N  -2.15900 19.51000 26.13300
C  -2.20900 20.41800 27.20300
C  -2.23100 21.78700 26.66800
C  -2.08100 21.64500 25.28000
C  -2.32800 20.20200 24.94000
C  -2.21500 23.06200 27.53100
C  -1.89100 22.71700 24.26200
O  -2.01300 22.56100 23.03500
C  -1.39200 24.02700 24.76600
N  -2.16300 17.13300 24.27600
C  -2.33900 18.18500 23.39800
C  -2.66400 17.68700 22.00800
C  -2.28500 16.20600 22.04300
C  -2.09500 15.98200 23.60600
C  -4.08000 18.02400 21.58700
C  -0.97100 15.83100 21.22600
C  0.47500 16.03300 21.69200
N  -1.86200 15.34300 26.49000
C  -1.89900 14.32800 25.54000
C  -1.88300 13.04400 26.14400
C  -2.03700 13.35900 27.51900
C  -1.89600 14.74900 27.66700
C  -1.91300 11.72600 25.56800
C  -2.19900 12.70400 28.78000
O  -2.38400 11.50700 29.08000
C  -2.07200 13.84000 29.80300
C  -0.86100 13.47600 30.77400
O  0.26500 13.75700 30.60600
O  -1.36700 12.77000 31.80300
C  -0.50300 12.46000 32.93400
H  -2.41200 20.90100 29.23700
H  -2.48200 20.26100 22.80900
H  -2.10000 13.87800 23.47900
H  -3.05500 16.62900 31.25900
H  -1.40300 19.19600 31.17400
H  -3.35000 20.18100 31.84400
H  -3.93600 18.67600 32.29600
H  -4.32800 19.29900 30.65700
H  -0.10700 16.12700 31.28600
H  -1.41700 15.54800 32.36800
H  -1.52200 17.96700 33.15900
H  0.14800 17.76800 32.58400
H  -2.77000 23.86500 27.04500
H  -1.21600 23.45200 27.72800
H  -2.84600 22.95600 28.41400
H  -1.22100 24.57600 23.84100
H  -0.47600 23.87500 25.33700
H  -2.19100 24.54900 25.29300
H  -2.02200 18.17400 21.27300
H  -3.04400 15.50500 21.69800
H  -4.54300 18.53300 22.43200
H  -4.55500 17.05900 21.41000
H  -3.92000 18.69800 20.74600
H  -1.01800 16.20300 20.20200
H  -0.99000 14.74800 21.10000
H  0.48200 16.32700 22.74200
H  1.16300 16.65600 21.12100
H  1.03800 15.10000 21.66800
H  -1.23100 11.20900 26.24200
H  -1.49700 11.87500 24.57100
H  -2.96800 11.45600 25.59800
H  -2.91200 14.02100 30.47300
H  -0.85200 11.48300 33.26900
H  -0.77800 13.30300 33.56800
H  0.58400 12.44800 32.84500
Mg 41.29600 7.16200 29.48600
C  42.54100 8.70000 32.47100
C  38.65100 6.05200 31.30600
C  40.08100 5.78100 26.65000
C  44.09100 8.37300 27.86400
N  40.77300 7.17600 31.73900
C  41.39000 7.92100 32.74300
C  40.49700 7.92600 34.03200
C  39.32200 7.01100 33.66200
C  39.52000 6.80400 32.10900
C  39.39500 5.57600 34.34000
C  39.99300 9.38400 34.42700
C  40.06300 9.63700 35.95400
H  40.70500 10.93600 36.57300
N  39.58700 6.11300 29.02800
C  38.60000 5.76300 29.95600
C  37.47700 5.16600 29.33200
C  37.79600 5.21800 27.87900
C  39.24600 5.67300 27.78900
C  36.21100 4.66000 30.04600
C  36.99500 4.81400 26.72200
O  37.53400 4.72200 25.60500
C  35.47500 4.47200 26.83900
N  41.96900 7.08400 27.57600
C  41.30800 6.44600 26.54100
C  42.11300 6.58300 25.28800
C  43.38200 7.33600 25.68700
C  43.18100 7.63700 27.16600
C  42.34600 5.35300 24.42400
C  43.80300 8.44700 24.75800
C  42.79500 9.56100 24.49300
N  43.06900 8.27400 30.04300
C  44.09600 8.60200 29.25400
C  45.04600 9.36100 30.08000
C  44.42700 9.49300 31.34700
C  43.23600 8.74500 31.23900
C  46.30400 9.93600 29.64300
C  44.57200 10.00600 32.66100
O  45.55900 10.64500 33.08500
C  43.47100 9.42100 33.47500
C  44.09700 8.61200 34.47900
O  44.43300 7.43500 34.32100
O  44.30600 9.35600 35.66500
C  44.90800 8.66600 36.78700
H  37.86000 5.62400 31.92500
H  39.80400 5.35200 25.68500
H  44.97200 8.76200 27.35000
H  41.12200 7.64800 34.88000
H  38.37300 7.49100 33.89900
H  39.40500 4.81200 33.56300
H  38.57400 5.42800 35.04200
H  40.29700 5.36900 34.91400
H  38.94600 9.54200 34.16700
H  40.65000 10.01100 33.82500
H  40.40300 8.73400 36.46100
H  39.00800 9.78800 36.18000
H  36.34000 4.59800 31.12700
H  36.12400 3.64300 29.66500
H  35.41200 5.33200 29.73300
H  34.95800 5.23200 27.42300
H  35.49300 3.53200 27.39000
H  35.15000 4.33400 25.80700
H  41.49200 7.31500 24.77200
H  44.19900 6.62800 25.54800
H  43.20100 5.54400 23.77600
H  41.53800 5.31200 23.69300
H  42.22900 4.48300 25.07000
H  44.06000 7.94800 23.82400
H  44.80600 8.83100 24.94700
H  41.95400 9.59300 25.18600
H  42.32700 9.52300 23.51000
H  43.10900 10.60300 24.55600
H  46.39100 11.00500 29.83300
H  46.38600 9.69500 28.58300
H  47.08800 9.43400 30.21100
H  43.11900 10.35900 33.90400
H  45.21800 9.52400 37.38200
H  45.64800 7.91300 36.51700
H  44.20600 8.12300 37.42100

