158

Mg 23.14600 -7.70500 45.87600
C  25.67200 -5.37200 44.74800
C  21.10100 -6.20500 43.54100
C  20.94900 -10.21500 46.41600
C  25.67000 -9.67000 47.35100
N  23.43900 -6.07200 44.25900
C  24.46900 -5.15900 44.07600
C  24.06900 -4.05400 43.05000
C  22.58100 -4.29300 42.84700
C  22.33900 -5.59700 43.55200
C  21.74900 -3.06600 43.31900
C  24.92300 -4.12400 41.66200
C  25.76000 -2.85400 41.31600
H  26.38000 -2.80300 39.94200
N  21.19800 -8.13400 45.15400
C  20.56200 -7.36000 44.24500
C  19.30000 -7.98800 44.00900
C  19.26300 -9.10700 44.82900
C  20.46300 -9.18500 45.60900
C  18.29100 -7.38800 43.04800
C  18.12700 -10.04100 44.90700
O  17.16200 -9.83500 44.13200
C  17.97000 -11.04600 46.04300
N  23.24200 -9.57500 47.05700
C  22.19400 -10.43700 47.01400
C  22.61300 -11.81000 47.59000
C  24.06800 -11.54200 48.09300
C  24.36900 -10.24300 47.43200
C  21.63700 -12.51000 48.54700
C  25.10000 -12.68800 47.87400
C  25.16600 -13.63900 48.98000
N  25.16800 -7.58800 46.12800
C  26.06900 -8.46200 46.70000
C  27.38200 -7.88900 46.65400
C  27.29300 -6.69800 45.93500
C  25.94400 -6.55500 45.56700
C  28.66500 -8.58200 47.14700
C  28.01400 -5.56500 45.57600
O  29.17400 -5.26500 45.81100
C  27.02100 -4.58900 44.74600
C  26.95300 -3.28200 45.42300
O  26.77000 -3.15700 46.58000
O  27.25300 -2.25300 44.52800
C  27.48000 -0.89300 45.10300
H  20.49300 -5.69100 42.79500
H  20.37400 -11.14200 46.46500
H  26.46100 -10.21600 47.87100
H  24.20800 -3.04700 43.44500
H  22.44000 -4.38500 41.77100
H  22.33800 -2.29400 43.81600
H  21.04600 -3.40500 44.08000
H  21.22200 -2.65600 42.45800
H  24.35600 -4.42400 40.78100
H  25.69300 -4.89200 41.74000
H  26.50300 -2.71200 42.10000
H  24.98800 -2.08700 41.38200
H  18.02200 -8.14500 42.31100
H  18.64100 -6.54200 42.45700
H  17.41100 -7.07000 43.60600
H  18.17000 -10.61700 47.02500
H  18.44500 -11.97000 45.71300
H  16.90600 -11.25300 46.15800
H  22.77100 -12.43000 46.70800
H  24.15400 -11.33600 49.16000
H  21.68700 -13.58400 48.36700
H  20.65400 -12.08000 48.35400
H  21.94700 -12.42700 49.58800
H  26.07300 -12.24200 47.67100
H  24.88000 -13.26900 46.97900
H  24.13900 -13.88200 49.25200
H  25.73500 -13.31500 49.85200
H  25.64300 -14.56800 48.66700
H  28.61900 -9.04700 48.13200
H  29.47400 -7.85300 47.11500
H  28.98900 -9.32100 46.41500
H  27.56100 -4.46200 43.80700
H  26.62000 -0.46600 45.62000
H  27.45900 -0.21400 44.25100
H  28.44700 -0.77200 45.59200
Mg 17.26400 -2.35900 27.76700
C  15.94900 -0.29100 30.54700
C  19.05100 -4.03000 30.23400
C  18.79100 -3.76400 25.32200
C  15.85000 0.03200 25.60500
N  17.34500 -2.20900 30.10000
C  16.71500 -1.39000 30.96300
C  17.12800 -1.64500 32.42600
C  18.17700 -2.76600 32.31500
C  18.28500 -2.98600 30.77300
C  19.52700 -2.57500 32.98900
C  15.87200 -2.11100 33.26500
C  15.92400 -1.84900 34.79900
H  17.13300 -1.22700 35.56200
N  18.52700 -3.86200 27.74100
C  19.14600 -4.47200 28.84200
C  19.89300 -5.62400 28.33300
C  19.83800 -5.56400 26.91600
C  18.97600 -4.40100 26.57900
C  20.56200 -6.70700 29.17800
C  20.58900 -6.43100 25.92600
O  20.39800 -6.10000 24.77900
C  21.42300 -7.64300 26.26000
N  17.20500 -1.95700 25.70800
C  18.05100 -2.66600 24.92700
C  17.98700 -2.07700 23.37500
C  17.07500 -0.82800 23.53100
C  16.68200 -0.93900 24.98900
C  19.47000 -1.65800 22.85400
C  15.81200 -0.72800 22.50400
C  16.27400 -0.42000 21.11000
N  16.02500 -0.61800 27.93300
C  15.48600 0.24300 27.01700
C  14.64200 1.21200 27.58900
C  14.83800 1.07300 29.00100
C  15.65400 -0.08500 29.19300
C  13.88900 2.25200 26.92100
C  14.56300 1.69400 30.29700
O  13.89900 2.62800 30.52900
C  15.30300 0.77900 31.38800
C  16.19600 1.63300 32.15800
O  17.43600 1.65000 32.08500
O  15.48700 2.30100 33.15900
C  16.26400 2.94500 34.16900
H  19.71100 -4.60900 30.88300
H  19.20600 -4.19900 24.41000
H  15.42300 0.77400 24.92600
H  17.40900 -0.67400 32.83300
H  17.82100 -3.72500 32.69000
H  20.29100 -2.78900 32.24000
H  19.65100 -3.19900 33.87400
H  19.46400 -1.56500 33.39100
H  15.67100 -3.15100 33.00800
H  14.96800 -1.62300 32.90100
H  15.68300 -2.84600 35.16800
H  15.04500 -1.23800 35.00400
H  21.63300 -6.72000 28.97600
H  19.96400 -7.55200 28.83600
H  20.28500 -6.52200 30.21600
H  21.67400 -8.15600 25.33200
H  20.97200 -8.28500 27.01600
H  22.32400 -7.27000 26.74700
H  17.54300 -2.81700 22.70900
H  17.59200 0.12400 23.41100
H  20.21000 -1.89900 23.61700
H  19.55100 -0.63200 22.49600
H  19.69300 -2.28200 21.98800
H  15.13200 0.08800 22.74800
H  15.27100 -1.67300 22.56500
H  17.26900 0.01300 21.21800
H  15.59100 0.12600 20.45900
H  16.50100 -1.38400 20.65600
H  12.82700 2.00500 26.89400
H  14.15600 2.64400 25.93900
H  14.04700 3.07800 27.61300
H  14.42700 0.45800 31.95100
H  16.40200 3.98100 33.86000
H  17.22700 2.50800 34.43200
H  15.60000 2.98400 35.03300

