158

Mg 54.64500 23.64100 44.52200
C  52.33800 26.17200 43.40800
C  52.54000 21.33100 43.39900
C  57.03700 21.58800 45.02800
C  56.93600 26.39000 45.00300
N  52.79100 23.75500 43.30400
C  51.99700 24.85700 43.15100
C  50.67300 24.41300 42.58800
C  50.58700 22.94700 42.90800
C  52.05300 22.65600 43.17400
C  49.73800 22.56400 44.14300
C  50.44700 24.78400 41.04900
C  51.69900 24.67100 40.17300
H  51.50100 25.04100 38.64400
N  54.73400 21.68700 44.39600
C  53.78400 20.82100 43.86400
C  54.24100 19.44300 43.96000
C  55.57100 19.53000 44.48100
C  55.83200 20.97000 44.69500
C  53.40500 18.17100 43.58400
C  56.38900 18.30800 44.82000
O  56.15800 17.14800 44.30900
C  57.57600 18.36600 45.72900
N  56.72500 24.01400 44.84600
C  57.46000 22.92200 45.09900
C  58.97300 23.35300 45.30100
C  58.91900 24.88300 45.20200
C  57.45100 25.10200 45.04900
C  59.67000 22.86900 46.61800
C  59.72100 25.52000 44.04400
C  60.78200 26.64900 44.48600
N  54.62500 25.88500 44.32200
C  55.61100 26.84100 44.57200
C  55.15900 28.16300 44.19700
C  53.82300 27.98800 43.88800
C  53.55800 26.58300 43.89400
C  55.98800 29.34100 44.19400
C  52.58900 28.70100 43.56400
O  52.34600 29.88500 43.46300
C  51.53500 27.47200 43.26200
C  50.92600 27.81100 41.94200
O  51.49100 27.77400 40.86700
O  49.60100 28.20700 42.07900
C  48.84800 28.29700 40.88400
H  51.72700 20.63500 43.18400
H  57.77900 20.78900 45.09300
H  57.60600 27.25100 45.05500
H  49.99400 24.98600 43.22000
H  50.30100 22.38300 42.02000
H  49.38300 23.49100 44.59300
H  50.25100 21.97800 44.90500
H  48.90500 21.95800 43.78600
H  49.89400 25.71500 40.92800
H  49.80800 24.07200 40.52600
H  52.05300 23.64200 40.23600
H  52.50800 25.29900 40.54600
H  52.34300 18.41600 43.61400
H  53.56000 17.32900 44.25800
H  53.53900 17.84100 42.55400
H  57.41000 19.05800 46.55400
H  58.44500 18.65800 45.14000
H  57.76800 17.40500 46.20700
H  59.47200 22.92100 44.43300
H  59.12900 25.48900 46.08400
H  60.73400 22.85600 46.38300
H  59.34000 21.87000 46.90200
H  59.50100 23.54300 47.45800
H  59.09000 26.07100 43.34700
H  60.37300 24.76900 43.59700
H  61.23000 26.29000 45.41200
H  60.35000 27.63900 44.63300
H  61.48300 26.78400 43.66200
H  55.45300 30.09600 43.61900
H  56.93100 29.13200 43.68900
H  56.18600 29.77600 45.17400
H  50.91700 27.60900 44.14900
H  48.99600 27.46000 40.20200
H  49.15900 29.12400 40.24500
H  47.80000 28.09400 41.10400
Mg 16.83000 51.72800 26.25200
C  18.43100 50.20700 28.90800
C  14.60800 53.19000 28.37600
C  15.06300 52.79400 23.59800
C  19.03900 50.09600 24.12100
N  16.49400 51.44000 28.35900
C  17.26200 50.85900 29.29300
C  16.87700 51.28800 30.68500
C  15.49800 52.01300 30.48100
C  15.57100 52.32300 28.96300
C  14.27300 51.18200 30.78700
C  17.88200 52.27800 31.42900
C  17.98200 52.12200 32.91800
H  17.01100 51.20600 33.63900
N  15.03700 52.81700 26.05500
C  14.26900 53.39800 27.07100
C  13.16300 54.23400 26.54500
C  13.32000 54.12700 25.10400
C  14.50200 53.22900 24.89300
C  12.23300 55.04200 27.33800
C  12.46700 54.76000 24.03200
O  12.59200 54.40500 22.79300
C  11.27100 55.71600 24.38300
N  17.00900 51.46800 24.20300
C  16.22200 51.98800 23.31400
C  16.64200 51.66800 21.89400
C  18.12600 51.30100 22.05500
C  18.02600 50.83000 23.52600
C  15.71000 50.54900 21.19500
C  19.10200 52.54400 21.98600
C  20.38900 52.27000 21.19200
N  18.49800 50.37200 26.43800
C  19.33200 49.82000 25.51500
C  20.39800 49.15800 26.15600
C  20.13000 49.28700 27.51800
C  18.89200 49.99700 27.58700
C  21.56000 48.42700 25.49500
C  20.62600 49.06000 28.90700
O  21.68800 48.61800 29.29600
C  19.48500 49.53000 29.84900
C  19.04600 48.41700 30.68200
O  18.72800 47.31400 30.25700
O  19.17900 48.70400 31.99400
C  18.92400 47.59400 32.89400
H  13.95800 53.86300 28.93800
H  14.48200 53.05000 22.70900
H  19.86400 49.83500 23.45600
H  16.63400 50.40800 31.28100
H  15.45000 52.92500 31.07600
H  14.49200 50.37600 31.48800
H  14.00100 50.67900 29.85900
H  13.54500 51.89300 31.17900
H  17.57100 53.30800 31.25500
H  18.86600 52.30000 30.96200
H  17.92900 53.07500 33.44500
H  19.01800 51.84200 33.11400
H  11.26100 54.92900 26.85600
H  12.47200 56.10500 27.32800
H  12.19400 54.66400 28.35900
H  11.57000 56.51900 25.05700
H  10.51900 55.05000 24.80600
H  10.84600 56.25200 23.53500
H  16.62300 52.59000 21.31300
H  18.29100 50.52100 21.31200
H  14.64600 50.64300 21.41600
H  16.12900 49.65200 21.65200
H  15.95000 50.50800 20.13300
H  19.39700 52.89700 22.97400
H  18.50100 53.30500 21.48700
H  20.26100 52.68500 20.19200
H  20.67200 51.22100 21.27900
H  21.16700 52.87200 21.66200
H  21.41600 48.41500 24.41500
H  21.54300 47.38700 25.82200
H  22.55000 48.83600 25.69800
H  19.89300 50.31200 30.48900
H  17.84100 47.47400 32.94500
H  19.24200 48.05900 33.82700
H  19.48700 46.68400 32.68800

