158

Mg -0.36000 7.54100 25.30300
C  0.93400 9.61400 27.77200
C  0.15800 4.84300 27.31400
C  -1.19600 5.46900 22.71000
C  0.16700 10.05800 22.94800
N  0.60700 7.24900 27.26600
C  0.81900 8.26500 28.16100
C  0.95100 7.68600 29.63200
C  0.95400 6.19200 29.38000
C  0.50000 6.07000 27.95300
C  2.26000 5.50300 29.63400
C  -0.09900 8.16100 30.58600
C  0.28100 8.26200 32.10300
H  1.37100 7.39600 32.56200
N  -0.64400 5.40600 25.10300
C  -0.35000 4.51100 26.00900
C  -0.68900 3.15500 25.54400
C  -1.18200 3.33800 24.17800
C  -0.96400 4.77900 23.91800
C  -0.65000 1.88800 26.37400
C  -1.64700 2.26200 23.23800
O  -1.97400 2.50200 22.06200
C  -1.90300 0.80200 23.64000
N  -0.31700 7.64700 23.00400
C  -0.82900 6.73600 22.24200
C  -1.12600 7.17800 20.80900
C  -0.76600 8.75500 20.93100
C  -0.29000 8.86600 22.39900
C  -0.35600 6.52900 19.69000
C  -1.93100 9.72600 20.50900
C  -3.04000 9.98100 21.50500
N  0.38400 9.47900 25.30000
C  0.46300 10.41700 24.28200
C  0.84700 11.69600 24.87800
C  1.05800 11.46100 26.26800
C  0.83000 10.06800 26.41000
C  1.03000 12.95900 24.15200
C  1.38400 12.05500 27.56400
O  1.66200 13.19600 27.94300
C  1.20500 10.82200 28.61000
C  2.32200 10.72000 29.62500
O  3.39600 10.19900 29.43200
O  1.99200 11.38600 30.80500
C  2.86000 11.24100 31.98200
H  0.17800 3.93400 27.92000
H  -1.64200 4.86700 21.91500
H  0.29800 10.84600 22.20300
H  1.95600 8.00200 29.90800
H  0.22400 5.59900 29.93100
H  3.03300 6.17200 30.01400
H  2.68400 4.93100 28.80900
H  2.11200 4.77200 30.42800
H  -0.90300 7.43600 30.46100
H  -0.38200 9.12000 30.15200
H  -0.64900 7.85300 32.49600
H  0.43900 9.25400 32.52600
H  0.23800 1.94200 27.00500
H  -0.57100 0.94700 25.83000
H  -1.45900 1.82200 27.10100
H  -0.97500 0.27500 23.86400
H  -2.37600 0.41600 22.73700
H  -2.64900 0.81700 24.43400
H  -2.16200 6.94300 20.56600
H  0.14600 9.05300 20.41400
H  -1.04200 6.37100 18.85700
H  0.15700 5.60400 19.95300
H  0.32000 7.29200 19.30300
H  -2.34200 9.34800 19.57200
H  -1.48700 10.69100 20.26200
H  -3.98800 9.60200 21.12200
H  -3.27500 11.02700 21.69900
H  -2.87600 9.43700 22.43500
H  1.48200 12.75500 23.18100
H  1.71100 13.62300 24.68300
H  0.10100 13.45500 23.87200
H  0.34000 11.10800 29.20800
H  3.66400 11.97600 31.95400
H  3.34100 10.26500 32.04400
H  2.37900 11.36700 32.95200
Mg 53.77000 24.15200 44.64100
C  51.14800 26.39300 44.01700
C  51.98700 21.67200 43.00500
C  56.41800 22.30500 44.92200
C  55.72500 26.95700 45.69200
N  51.85800 24.10700 43.53900
C  51.04200 25.16600 43.30500
C  49.89500 24.77400 42.32100
C  50.13100 23.25100 42.22800
C  51.33700 22.97400 42.98000
C  48.94700 22.35500 42.48500
C  49.88400 25.55800 40.89200
C  51.26000 26.18200 40.53400
H  52.09400 25.48000 39.49600
N  54.16000 22.21900 43.99400
C  53.23800 21.30900 43.50100
C  53.90400 20.08700 43.38100
C  55.11300 20.16900 44.08600
C  55.32600 21.58900 44.27800
C  53.31700 18.88000 42.71000
C  56.09100 18.97100 44.50000
O  55.75300 17.82400 44.27200
C  57.43800 19.17400 45.17100
N  55.85200 24.62900 45.03300
C  56.71900 23.63800 45.18500
C  58.10200 24.02900 45.78300
C  57.88800 25.54900 45.98500
C  56.38400 25.74200 45.56400
C  58.68100 23.13300 46.97900
C  58.83700 26.45600 45.15600
C  60.25400 26.38400 45.52800
N  53.56000 26.19700 44.82100
C  54.37800 27.17500 45.48600
C  53.61100 28.36100 45.68500
C  52.34000 28.08700 45.30300
C  52.40100 26.75000 44.71500
C  54.02700 29.66200 46.49400
C  50.96000 28.55500 45.24000
O  50.44700 29.59700 45.57700
C  50.18600 27.51600 44.30300
C  49.72700 28.21600 43.05200
O  50.40700 28.83300 42.22600
O  48.33800 28.20500 43.01500
C  47.77300 28.88500 41.86200
H  51.33100 20.93100 42.54500
H  57.20300 21.63000 45.26900
H  56.25800 27.75400 46.21500
H  48.97600 24.96700 42.87500
H  50.27600 22.98000 41.18300
H  49.20400 21.65600 43.28000
H  48.80000 21.69500 41.63000
H  48.12700 22.92700 42.92000
H  49.22700 26.41800 41.02000
H  49.56300 24.94200 40.05200
H  51.96500 26.39900 41.33700
H  50.98000 27.15200 40.12300
H  52.53300 19.15900 42.00600
H  52.76600 18.21000 43.36900
H  53.99200 18.13000 42.29800
H  57.87400 18.18900 45.33300
H  57.11600 19.66400 46.09000
H  58.01500 19.83300 44.52200
H  58.84000 23.93500 44.98700
H  57.90600 25.80900 47.04300
H  59.21400 22.24200 46.64500
H  57.80200 22.91300 47.58400
H  59.34800 23.79100 47.53600
H  58.46100 27.47300 45.04700
H  58.81500 25.99000 44.17000
H  60.17600 25.94500 46.52300
H  60.80600 27.32200 45.47600
H  60.87200 25.65400 45.00500
H  53.68700 30.50200 45.88700
H  55.11500 29.72800 46.48200
H  53.66600 29.56300 47.51800
H  49.28400 27.19400 44.82500
H  48.31300 28.67900 40.93700
H  47.77200 29.96700 42.00000
H  46.72200 28.62600 41.73700

