158

Mg 36.11300 2.46000 30.07400
C  33.51700 2.92600 32.40900
C  38.28100 2.58800 32.66800
C  38.43500 1.51900 27.83200
C  33.69900 2.34300 27.47600
N  35.88400 2.78900 32.28000
C  34.76000 2.93400 33.03000
C  35.06300 3.02900 34.53700
C  36.66500 3.14600 34.54000
C  36.97700 2.74600 33.05800
C  37.06500 4.53600 34.92100
C  34.62400 1.74700 35.36900
C  34.17300 1.91400 36.87800
H  34.75400 3.05200 37.76900
N  38.08700 2.06400 30.18800
C  38.80100 2.23300 31.34700
C  40.14300 1.82300 31.08900
C  40.18400 1.47700 29.70900
C  38.87200 1.67600 29.13900
C  41.17300 1.72600 32.10400
C  41.30700 0.98600 28.86400
O  41.24200 0.83300 27.64700
C  42.63200 0.69400 29.47700
N  36.07800 2.24500 27.88600
C  37.20200 1.86300 27.23300
C  36.95500 1.60700 25.69000
C  35.38000 1.77600 25.51000
C  35.01000 2.15500 27.02700
C  37.74700 2.58200 24.79000
C  34.60300 0.59900 24.78100
C  33.93600 -0.43700 25.69500
N  34.09900 2.60000 29.91000
C  33.22900 2.60400 28.78200
C  31.83800 2.58500 29.24300
C  31.86400 2.78000 30.63100
C  33.26200 2.78900 30.97400
C  30.63600 2.51200 28.29000
C  31.12700 2.90500 31.88900
O  29.91800 2.88900 32.09600
C  32.16900 2.92300 33.06000
C  31.85900 4.19400 33.78900
O  32.16100 5.31700 33.46200
O  31.23900 3.89400 34.96000
C  31.29800 4.93200 36.02300
H  39.08900 2.76300 33.38200
H  39.11800 1.31900 27.00400
H  33.09500 2.19000 26.57900
H  34.47400 3.87600 34.88800
H  37.21400 2.46900 35.19400
H  38.03600 4.48300 35.41500
H  36.35800 5.06000 35.56400
H  37.37900 5.05800 34.01700
H  35.42100 1.00800 35.44800
H  33.78000 1.26100 34.87900
H  34.26900 0.89700 37.25600
H  33.11500 2.15800 36.78200
H  41.03000 2.51100 32.84600
H  42.18900 1.89200 31.74700
H  41.15700 0.77600 32.63800
H  42.49300 0.15400 30.41400
H  43.23800 1.59100 29.60000
H  43.23300 0.06800 28.81800
H  37.19700 0.55400 25.54500
H  34.97500 2.68500 25.06700
H  37.05400 3.03600 24.08200
H  38.59500 2.08300 24.32000
H  38.11700 3.31000 25.51200
H  35.14100 0.00300 24.04300
H  33.81600 0.94600 24.11100
H  34.52800 -0.44200 26.61000
H  33.92000 -1.44200 25.27300
H  32.89100 -0.26500 25.95400
H  30.86100 1.70300 27.59500
H  30.51300 3.48600 27.81800
H  29.76900 2.32000 28.92300
H  31.99800 1.99400 33.60400
H  32.34100 5.24600 35.98000
H  30.98100 4.74400 37.04800
H  30.78000 5.83500 35.70000
Mg 9.17200 49.36600 24.79500
C  7.16100 49.51200 27.54100
C  12.02200 50.07300 26.73200
C  11.25600 48.87200 22.07400
C  6.45500 48.82600 22.70500
N  9.49500 49.94200 26.84700
C  8.54000 49.75700 27.86700
C  9.19500 49.94500 29.18300
C  10.52800 50.57900 28.79100
C  10.74200 50.12900 27.30700
C  10.68600 52.10600 29.10700
C  9.32600 48.68800 30.08700
C  8.74100 48.97200 31.47200
H  8.60300 47.78300 32.44800
N  11.31900 49.51400 24.43300
C  12.32100 49.67100 25.40300
C  13.65800 49.71000 24.68900
C  13.41600 49.47900 23.34000
C  11.94500 49.32800 23.23100
C  14.96600 49.92400 25.43200
C  14.35800 49.41300 22.26300
O  14.01700 49.35900 21.12600
C  15.80700 49.52900 22.47100
N  8.94900 49.20000 22.59900
C  9.92300 48.84000 21.74000
C  9.41000 48.35300 20.40900
C  7.83400 48.27100 20.63700
C  7.72600 48.73400 22.13100
C  9.82300 49.21100 19.19300
C  7.21800 46.95200 20.29200
C  7.53100 45.71700 21.09600
N  7.19400 49.19300 25.01500
C  6.20200 48.98900 24.11300
C  4.87000 48.80300 24.82400
C  5.18600 49.12900 26.19300
C  6.61000 49.29600 26.24200
C  3.60200 48.42000 24.17300
C  4.61600 49.30200 27.54100
O  3.46300 49.20900 27.98400
C  5.88100 49.43300 28.43100
C  5.82900 48.27400 29.42300
O  6.13500 47.10600 29.16500
O  5.06600 48.68500 30.53900
C  4.67300 47.61300 31.44700
H  12.89800 50.28500 27.35000
H  11.83900 48.52000 21.22000
H  5.62100 48.52900 22.06600
H  8.71600 50.72200 29.77800
H  11.37100 50.03900 29.22300
H  11.52000 52.25000 29.79300
H  9.75600 52.45500 29.55800
H  10.95900 52.51800 28.13600
H  10.37700 48.55400 30.34600
H  8.98000 47.75800 29.63600
H  7.73500 49.38100 31.37600
H  9.31800 49.72800 32.00400
H  15.59600 49.03900 25.35600
H  14.79000 49.98800 26.50500
H  15.55200 50.77900 25.09200
H  16.05200 50.46400 22.97400
H  16.25000 49.71200 21.49200
H  16.16100 48.69700 23.07900
H  9.77300 47.35700 20.15500
H  7.37400 49.07500 20.06100
H  10.55300 49.83400 19.71000
H  9.04100 49.64700 18.57100
H  10.40500 48.64000 18.47000
H  7.59000 46.72000 19.29400
H  6.13600 46.99100 20.16700
H  6.64300 45.08500 21.10200
H  8.04900 45.99100 22.01600
H  8.26700 45.13900 20.53700
H  3.66400 47.37200 23.88300
H  3.55400 49.03600 23.27400
H  2.79000 48.64700 24.86500
H  5.79100 50.34300 29.02300
H  4.98700 46.57000 31.40800
H  3.59100 47.54600 31.33300
H  4.90400 47.98000 32.44700

