158

Mg 26.15700 0.51300 29.71400
C  27.83200 -0.01200 32.82400
C  23.16900 0.74300 31.51500
C  24.57800 0.56900 26.80600
C  29.11600 -0.32300 28.01200
N  25.66000 0.48500 31.92700
C  26.48900 0.39800 33.00800
C  25.79400 0.57800 34.35700
C  24.33400 0.68900 33.88700
C  24.34600 0.65800 32.36200
C  23.31300 -0.33500 34.59900
C  26.33600 1.88400 34.95000
C  25.52100 2.37100 36.19700
H  26.17700 2.53100 37.55800
N  24.15600 0.55500 29.26400
C  23.07500 0.78100 30.08000
C  21.84900 0.89900 29.32400
C  22.19900 0.77800 27.93300
C  23.66600 0.61300 27.92900
C  20.50100 1.20100 29.90800
C  21.30700 0.80100 26.63200
O  21.77700 0.62100 25.55100
C  19.81800 1.10500 26.73700
N  26.73500 0.13700 27.73400
C  25.94000 0.39800 26.63300
C  26.64300 0.30800 25.28800
C  28.10500 0.34600 25.83100
C  27.99300 0.06600 27.31800
C  26.20000 -0.95100 24.48100
C  28.82600 1.67800 25.50100
C  28.16000 2.99300 25.97000
N  28.10800 -0.08800 30.26000
C  29.19700 -0.44700 29.44300
C  30.32300 -0.76900 30.30400
C  29.83600 -0.57600 31.62900
C  28.47700 -0.28600 31.51100
C  31.66000 -1.18500 29.85000
C  30.26900 -0.54600 32.96800
O  31.40300 -0.72900 33.45300
C  28.92700 -0.14900 33.83700
C  28.79200 -1.11900 34.95300
O  28.98100 -2.32500 34.91300
O  28.87900 -0.37300 36.08900
C  29.49800 -0.94700 37.24900
H  22.22500 0.75800 32.06400
H  24.05200 0.52900 25.85000
H  30.06500 -0.45500 27.48700
H  25.99700 -0.26600 35.01700
H  23.87700 1.67200 34.00000
H  22.80300 0.21400 35.39000
H  23.95100 -1.13100 34.98200
H  22.60000 -0.67200 33.84700
H  26.36300 2.69800 34.22600
H  27.38100 1.70000 35.19900
H  24.63400 1.73700 36.17800
H  25.27800 3.40300 35.94500
H  19.77900 0.38600 29.96300
H  20.06800 2.04700 29.37400
H  20.57700 1.43700 30.96900
H  19.52900 1.84900 27.48000
H  19.30200 0.18100 27.00000
H  19.43400 1.47300 25.78500
H  26.47400 1.20800 24.69800
H  28.64100 -0.44300 25.30300
H  27.05000 -1.62600 24.38000
H  25.92100 -0.73100 23.45100
H  25.30100 -1.45700 24.83300
H  29.25600 1.67300 24.49900
H  29.71100 1.73800 26.13400
H  28.78800 3.19000 26.83900
H  27.10700 2.90200 26.23400
H  28.36000 3.80900 25.27500
H  31.99000 -0.48900 29.07900
H  31.66200 -2.21600 29.49700
H  32.38000 -1.09000 30.66200
H  29.17000 0.84900 34.20300
H  29.30500 -2.00000 37.45400
H  29.12900 -0.50600 38.17500
H  30.57400 -0.80200 37.16000
Mg 48.05600 44.67900 42.42800
C  44.53800 44.07300 42.28500
C  48.43800 41.20800 42.40600
C  51.32400 45.21100 42.04700
C  47.27500 48.16100 42.07700
N  46.67000 42.85600 42.35500
C  45.29300 42.90700 42.35500
C  44.65100 41.50900 42.22200
C  45.87900 40.52500 42.42400
C  47.05300 41.54000 42.41100
C  45.73000 39.64500 43.65400
C  43.83500 41.14300 40.88300
C  43.98200 42.06100 39.58000
H  43.58500 41.54700 38.18000
N  49.64900 43.43000 42.19800
C  49.55900 42.04600 42.27300
C  50.86900 41.57100 42.28200
C  51.78300 42.67000 42.26300
C  50.93000 43.86000 42.12600
C  51.19500 40.07500 42.19100
C  53.21900 42.50900 42.33500
O  53.65900 41.40000 42.59300
C  54.21100 43.60800 42.21700
N  49.10000 46.47600 41.93700
C  50.47800 46.40000 41.97400
C  51.03600 47.77400 41.62100
C  49.78900 48.70300 41.83000
C  48.61600 47.76400 41.98500
C  52.21400 48.25800 42.49500
C  49.64700 49.94100 40.78900
C  49.27600 51.24100 41.53100
N  46.30600 45.90100 42.24500
C  46.15900 47.25000 42.14400
C  44.71400 47.65200 42.15600
C  44.01000 46.45600 42.19400
C  45.03400 45.38900 42.20300
C  44.16900 48.97300 42.10500
C  42.69700 45.85700 42.25400
O  41.54500 46.29200 42.29300
C  43.04100 44.29200 42.43100
C  42.52100 43.84600 43.75600
O  41.57300 43.10300 43.88800
O  43.19500 44.36800 44.80600
C  42.61000 44.18200 46.12700
H  48.65100 40.13800 42.38500
H  52.39400 45.35200 41.88300
H  46.99800 49.21700 42.07900
H  43.86900 41.40900 42.97500
H  45.95700 39.88500 41.54500
H  46.34600 40.04700 44.45800
H  45.99400 38.63300 43.34800
H  44.70100 39.54000 43.99800
H  42.77000 41.23600 41.09200
H  43.95700 40.11000 40.55500
H  45.02300 42.38400 39.56400
H  43.48900 43.01500 39.76600
H  52.12300 39.90500 41.64500
H  50.44700 39.61500 41.54600
H  51.07200 39.62100 43.17400
H  54.12800 44.14700 41.27300
H  55.19500 43.30700 42.57600
H  53.91400 44.39700 42.90800
H  51.25900 47.83000 40.55500
H  49.95200 49.17700 42.79800
H  53.09800 47.94600 41.93900
H  52.18700 47.69900 43.43000
H  52.08800 49.33900 42.56500
H  48.85100 49.59000 40.13300
H  50.57800 50.11900 40.25000
H  50.15200 51.88100 41.42200
H  49.16400 51.18700 42.61400
H  48.33800 51.59300 41.10000
H  43.10900 48.79600 41.91900
H  44.53200 49.49500 41.21900
H  44.24800 49.65200 42.95400
H  42.48600 43.78300 41.64300
H  41.62300 44.58200 46.35900
H  43.44300 44.35600 46.80800
H  42.52500 43.10200 46.24200

