158

Mg 53.24800 23.54700 44.50700
C  50.67100 25.86000 43.66400
C  51.12900 20.95000 43.54100
C  55.99200 21.54700 44.39900
C  55.38300 26.30300 44.99900
N  51.19300 23.51100 43.44700
C  50.32500 24.50300 43.37600
C  48.98900 23.98500 42.84800
C  49.00100 22.47800 43.21800
C  50.57800 22.23200 43.43400
C  48.27100 21.99500 44.51500
C  48.58700 24.28400 41.33500
C  49.70300 24.00500 40.33500
H  49.43900 24.22000 38.82300
N  53.47800 21.44100 44.25700
C  52.49100 20.61600 43.85700
C  53.08500 19.25500 43.79600
C  54.48400 19.39100 44.06100
C  54.75500 20.81200 44.23500
C  52.13800 18.12200 43.54200
C  55.42200 18.18000 43.95500
O  55.05200 17.11200 43.37900
C  56.89800 18.37100 44.37600
N  55.43600 23.91800 44.55900
C  56.24100 22.87800 44.63900
C  57.72500 23.35300 44.93600
C  57.48600 24.86000 45.35700
C  56.06400 25.10000 44.87100
C  58.48400 22.50500 46.06200
C  58.49500 25.83400 44.65400
C  59.98500 25.49000 44.72500
N  53.13300 25.61100 44.33600
C  54.08700 26.63800 44.60200
C  53.46700 27.91600 44.50000
C  52.14200 27.68700 44.19100
C  51.95900 26.27700 44.04300
C  54.09900 29.19200 44.94100
C  50.91100 28.31600 43.88100
O  50.71000 29.51500 43.75700
C  49.81700 27.17800 43.52500
C  49.38300 27.41000 42.11000
O  50.12800 27.58300 41.16700
O  48.03400 27.49900 42.00400
C  47.45000 27.91000 40.70900
H  50.47800 20.12700 43.23600
H  56.87800 20.91000 44.37600
H  56.04200 27.14500 45.22000
H  48.28500 24.46500 43.52800
H  48.63400 21.83700 42.41700
H  48.91700 21.33800 45.09800
H  47.40300 21.42800 44.17900
H  48.11000 22.93200 45.04700
H  48.13100 25.26900 41.23200
H  47.73900 23.70800 40.96400
H  49.87700 22.92900 40.33800
H  50.66600 24.46300 40.55900
H  52.68100 17.21100 43.29200
H  51.39200 18.38000 42.79000
H  51.61500 17.93700 44.48100
H  57.41300 19.07900 43.72700
H  57.25800 17.34300 44.42600
H  56.88500 18.73500 45.40300
H  58.26000 23.23900 43.99300
H  57.61800 24.90600 46.43800
H  57.76700 21.71100 46.27000
H  58.80900 23.07500 46.93200
H  59.24000 21.94300 45.51200
H  58.27900 26.83500 45.02500
H  58.19100 25.70300 43.61500
H  60.19300 24.58800 45.30000
H  60.41400 26.38100 45.18500
H  60.48100 25.38600 43.76000
H  53.41300 30.03800 44.95800
H  54.95000 29.50600 44.33700
H  54.44400 29.09300 45.97000
H  49.00500 27.17300 44.25200
H  46.82100 28.77300 40.92900
H  46.90400 27.16500 40.13100
H  48.17500 28.20200 39.94900
Mg 47.21500 35.02400 28.03300
C  45.48200 32.98800 30.22800
C  47.34900 37.52900 30.47900
C  48.21600 37.12900 25.63900
C  46.46100 32.67400 25.39400
N  46.54400 35.25900 30.07300
C  46.05300 34.16400 30.79500
C  46.24200 34.43600 32.31700
C  46.31400 36.01100 32.31100
C  46.68700 36.35300 30.85100
C  45.18700 36.87900 32.88900
C  47.50500 33.66900 32.82600
C  47.63000 33.52500 34.31700
H  46.67500 34.34100 35.23900
N  47.90600 36.95300 28.09100
C  47.82400 37.80200 29.21300
C  48.56900 39.06900 28.83400
C  48.76700 39.05400 27.42000
C  48.27100 37.69700 26.98700
C  49.08500 40.28300 29.84800
C  49.28300 40.10300 26.47500
O  49.31700 39.90800 25.28000
C  49.57900 41.53700 26.86400
N  47.41000 34.84200 25.82800
C  47.87000 35.86900 25.09200
C  47.85600 35.54700 23.62000
C  47.63800 34.03800 23.59600
C  47.01700 33.87200 24.98300
C  46.78100 36.37800 22.90500
C  48.88000 33.12200 23.43500
C  48.58900 31.75000 22.87300
N  46.09000 33.27200 27.81900
C  45.98500 32.41600 26.75000
C  45.42200 31.12300 27.22600
C  45.12600 31.33600 28.58200
C  45.51300 32.65300 28.85900
C  45.17200 29.84200 26.40300
C  44.51300 30.80200 29.78700
O  44.13000 29.65700 30.00700
C  44.49400 31.87200 30.80600
C  45.09300 31.31900 32.02600
O  46.13100 30.71600 32.12100
O  44.28800 31.65300 33.08800
C  44.67800 31.07400 34.44200
H  47.47300 38.32100 31.22100
H  48.45800 37.93600 24.94400
H  46.25100 31.94100 24.61200
H  45.34600 34.09700 32.83500
H  47.15600 36.23900 32.96300
H  44.35200 36.23800 33.17200
H  44.88000 37.53500 32.07500
H  45.56400 37.51400 33.69100
H  48.45700 34.07100 32.48000
H  47.60300 32.65800 32.43200
H  48.62600 33.80500 34.65800
H  47.71300 32.49100 34.65200
H  50.15800 40.47100 29.81600
H  48.97700 39.90700 30.86600
H  48.44900 41.12400 29.57400
H  50.35600 41.61800 27.62400
H  48.59100 41.87500 27.17500
H  49.92200 42.13000 26.01600
H  48.81100 35.77300 23.14600
H  46.90000 33.85800 22.81400
H  47.27700 36.84100 22.05200
H  46.40200 37.30100 23.34300
H  45.94300 35.83600 22.46500
H  49.36500 32.99400 24.40300
H  49.50200 33.58600 22.67000
H  47.56100 31.38700 22.87600
H  49.05000 30.96100 23.46700
H  48.98600 31.64900 21.86300
H  45.66000 29.89200 25.43000
H  44.10800 29.62100 26.31700
H  45.60300 28.98900 26.92800
H  43.49500 32.22900 31.05700
H  44.16000 31.57700 35.25900
H  45.75500 31.18500 34.57300
H  44.40900 30.03100 34.60800

