158

Mg 0.24700 8.38600 27.71900
C  0.88400 10.45800 30.52800
C  -0.15700 5.75300 29.73000
C  -0.08000 6.58000 24.88600
C  1.04100 11.23000 25.64200
N  0.57200 8.11300 29.88600
C  0.67800 9.05200 30.82900
C  0.28500 8.53700 32.23900
C  0.32500 6.96100 31.96000
C  0.26500 6.90700 30.48300
C  1.49100 6.16500 32.56400
C  -0.99300 9.04400 32.80500
C  -1.00300 9.32200 34.29600
H  -0.02000 8.49800 35.17300
N  -0.12900 6.46700 27.38500
C  -0.34400 5.54200 28.31700
C  -0.87800 4.34000 27.78300
C  -0.83600 4.54900 26.37400
C  -0.29200 5.91700 26.11200
C  -1.29200 3.12400 28.62000
C  -1.34900 3.60500 25.23500
O  -1.20900 3.82900 23.99200
C  -2.08600 2.41600 25.68000
N  0.38400 8.76800 25.66200
C  0.29900 7.86300 24.68100
C  0.75700 8.38500 23.34700
C  0.76300 9.94100 23.55800
C  0.74700 9.99100 25.06000
C  2.06300 7.75700 22.71300
C  -0.42200 10.66200 22.98700
C  -1.84100 10.27000 23.50800
N  0.90700 10.46300 27.97900
C  1.10300 11.43800 27.06000
C  1.31800 12.72900 27.77000
C  1.14900 12.39500 29.13400
C  1.00400 11.01900 29.16300
C  1.58500 14.10000 27.21700
C  1.14100 12.89100 30.43800
O  1.23300 14.00000 30.90500
C  0.85000 11.66900 31.33700
C  1.82000 11.64800 32.46700
O  3.04500 11.41500 32.29900
O  1.25400 12.14800 33.68400
C  2.07100 12.06000 34.88800
H  -0.47600 4.96900 30.42100
H  -0.05300 6.01700 23.95100
H  1.23100 12.12200 25.04100
H  1.12100 8.61800 32.93300
H  -0.59200 6.56000 32.39200
H  2.10400 5.74900 31.76500
H  1.08200 5.28000 33.05200
H  2.14800 6.76600 33.19400
H  -1.81500 8.33900 32.67700
H  -1.16300 9.97600 32.26600
H  -2.02700 9.20000 34.64900
H  -0.67500 10.31100 34.61500
H  -0.71200 2.32500 28.15900
H  -2.36900 2.98500 28.52400
H  -1.00300 3.14900 29.67100
H  -1.54000 1.60400 26.16000
H  -2.67300 2.06400 24.83200
H  -2.85800 2.67100 26.40600
H  -0.09300 8.28800 22.67200
H  1.68100 10.40600 23.19800
H  3.01400 8.28700 22.76300
H  1.74300 7.41300 21.72900
H  2.28600 6.88500 23.32800
H  -0.38400 10.64000 21.89800
H  -0.24900 11.71100 23.23000
H  -2.36300 11.15300 23.87600
H  -1.93400 9.59200 24.35600
H  -2.45800 9.86700 22.70500
H  2.51000 14.15800 26.64300
H  1.57500 14.78000 28.06900
H  0.81700 14.38700 26.49900
H  -0.09700 11.65000 31.87800
H  2.33400 12.98200 35.40700
H  3.06800 11.65300 34.71800
H  1.48400 11.56400 35.66100
Mg -12.41200 17.38900 41.49500
C  -9.25800 15.65400 40.82800
C  -10.91400 20.15400 40.12700
C  -15.45700 18.76200 41.58300
C  -13.78700 14.25100 42.23000
N  -10.22400 17.79000 40.65400
C  -9.17500 17.01500 40.53200
C  -8.02300 17.83400 39.84800
C  -8.52200 19.28500 39.92700
C  -9.96200 19.08800 40.20200
C  -7.90700 20.06700 41.09400
C  -7.79000 17.36000 38.36000
C  -6.38600 17.00400 37.88400
H  -6.31500 15.73800 37.08200
N  -13.08800 19.29100 41.03600
C  -12.30900 20.28700 40.42000
C  -13.16700 21.48200 40.33600
C  -14.52600 21.14900 40.67700
C  -14.42300 19.71700 41.14200
C  -12.59500 22.87500 39.89100
C  -15.73000 21.91800 40.57500
O  -15.71600 23.08600 40.22100
C  -17.20900 21.33800 40.92600
N  -14.38900 16.54900 41.63100
C  -15.52200 17.34100 41.74000
C  -16.74400 16.55300 42.14500
C  -16.13100 15.19700 42.52400
C  -14.67300 15.36500 42.15300
C  -17.55600 17.17000 43.28700
C  -16.76500 14.10100 41.62100
C  -17.12000 12.86400 42.37300
N  -11.66900 15.38000 41.48300
C  -12.34200 14.27200 41.94400
C  -11.53000 13.10000 41.81000
C  -10.28300 13.61700 41.48400
C  -10.42600 14.96800 41.25200
C  -11.97500 11.72300 42.16100
C  -8.87400 13.24900 41.28000
O  -8.18000 12.22700 41.33100
C  -8.14700 14.59600 40.85200
C  -7.15600 14.93200 41.91200
O  -7.48900 15.27100 43.00700
O  -5.90300 14.79000 41.47600
C  -4.88300 15.24000 42.45400
H  -10.48900 21.14400 39.95100
H  -16.51300 19.04100 41.57300
H  -14.35600 13.36400 42.51900
H  -7.05600 17.61800 40.30100
H  -8.29400 19.80700 38.99800
H  -6.94300 19.69800 41.44500
H  -8.68700 20.04600 41.85400
H  -7.83300 21.13700 40.90000
H  -8.14400 18.03400 37.58000
H  -8.49400 16.52800 38.38400
H  -5.62400 16.90600 38.65700
H  -6.03100 17.84800 37.29200
H  -11.92400 22.73100 39.04400
H  -11.79200 22.98800 40.61900
H  -13.34300 23.66800 39.88200
H  -17.28000 20.49400 40.24000
H  -17.99000 22.03600 40.62400
H  -17.22400 21.10800 41.99100
H  -17.16200 16.48900 41.14000
H  -16.20400 14.97800 43.59000
H  -17.65600 16.61700 44.22100
H  -18.59300 17.16700 42.95000
H  -17.35800 18.23400 43.41700
H  -15.96700 13.75600 40.96400
H  -17.68100 14.37300 41.09700
H  -17.02100 13.03600 43.44500
H  -16.41200 12.07600 42.11700
H  -18.14400 12.53900 42.18800
H  -12.62900 11.35400 41.37100
H  -12.52800 11.71900 43.10100
H  -11.23600 10.92600 42.23800
H  -7.61300 14.57500 39.90200
H  -4.06100 14.52600 42.40300
H  -5.26600 15.39100 43.46400
H  -4.59100 16.24200 42.14200

