158

Mg -1.30800 17.71500 25.98100
C  -1.92500 15.73400 28.60800
C  -2.03500 20.44700 28.05500
C  -0.76200 19.82300 23.41900
C  -1.40300 15.02700 23.87100
N  -1.79900 18.00400 28.12800
C  -1.89000 17.03900 29.03900
C  -2.18000 17.58000 30.43300
C  -2.57900 19.11600 30.14900
C  -2.14200 19.19800 28.68000
C  -4.09200 19.40200 30.22900
C  -1.09000 17.41600 31.41700
C  -1.50300 16.81400 32.76400
H  -0.23000 16.31300 33.51300
N  -1.17700 19.76400 25.81600
C  -1.55800 20.70900 26.76000
C  -1.36000 22.03100 26.20300
C  -0.82100 21.91600 24.90400
C  -0.82700 20.44300 24.66700
C  -1.61900 23.33400 26.94700
C  -0.44200 22.98300 23.92600
O  0.03600 22.75900 22.82600
C  -0.56900 24.39900 24.27300
N  -1.26100 17.44300 23.88900
C  -0.98100 18.45800 23.06500
C  -0.85200 17.89700 21.55900
C  -0.71600 16.34900 21.78900
C  -1.14500 16.23800 23.28700
C  -1.95300 18.36300 20.57400
C  0.62900 15.68200 21.35900
C  1.72000 15.70200 22.42200
N  -1.61000 15.76300 26.15400
C  -1.65700 14.77900 25.19600
C  -1.85800 13.52400 25.87200
C  -1.92200 13.84700 27.21800
C  -1.86400 15.20400 27.29700
C  -1.96300 12.22200 25.19500
C  -2.07000 13.31200 28.47000
O  -2.17500 12.07500 28.72600
C  -2.31300 14.50400 29.40600
C  -1.64700 14.12200 30.63500
O  -0.47400 14.19600 30.90000
O  -2.63200 13.50800 31.43300
C  -2.19100 12.95200 32.69300
H  -2.29900 21.29000 28.69600
H  -0.72400 20.52100 22.58000
H  -1.22100 14.16300 23.22900
H  -2.98300 16.95300 30.82000
H  -2.11000 19.81400 30.84200
H  -4.38400 20.25500 29.61600
H  -4.40100 19.61700 31.25200
H  -4.62700 18.56000 29.79000
H  -0.66300 18.38400 31.67600
H  -0.26800 16.84100 30.99100
H  -2.28000 16.07200 32.58400
H  -1.89900 17.66500 33.31900
H  -0.70700 23.89300 27.16100
H  -2.14900 23.17500 27.88600
H  -2.29800 23.95600 26.36400
H  0.03400 24.46200 25.17800
H  -1.59600 24.74500 24.38300
H  -0.15200 25.04400 23.50000
H  0.14400 18.16000 21.20200
H  -1.51400 15.78500 21.30500
H  -2.57000 18.95400 21.25100
H  -2.60600 17.58800 20.17100
H  -1.54500 19.04600 19.82900
H  1.16400 16.05600 20.48600
H  0.44900 14.65400 21.04500
H  1.56900 16.42600 23.22200
H  2.67100 15.94100 21.94600
H  1.80800 14.69500 22.83200
H  -1.66800 11.41600 25.86700
H  -1.32400 12.32700 24.31800
H  -2.98800 12.06900 24.85500
H  -3.38400 14.62200 29.57500
H  -3.05300 12.45000 33.13400
H  -1.86100 13.82200 33.26100
H  -1.29600 12.33100 32.66000
Mg 45.56000 5.09500 48.24900
C  43.41700 7.75100 47.46600
C  42.96000 2.89900 47.92600
C  47.84500 2.69900 48.49900
C  48.28100 7.44400 47.87000
N  43.41900 5.27400 47.77400
C  42.75700 6.52000 47.52100
C  41.24800 6.22900 47.40600
C  41.07800 4.74200 47.86600
C  42.57300 4.26500 47.85700
C  40.36100 4.50000 49.24900
C  40.51600 6.56900 46.06400
C  39.49300 7.71600 46.13600
H  38.68700 7.86400 44.85400
N  45.43700 3.00900 48.15000
C  44.24800 2.29200 48.05200
C  44.55100 0.91100 48.28300
C  45.95100 0.79200 48.35900
C  46.49100 2.19700 48.35000
C  43.46900 -0.15300 48.33400
C  46.68200 -0.53800 48.49000
O  46.17600 -1.67500 48.56000
C  48.13600 -0.55500 48.58900
N  47.80200 5.12100 48.01300
C  48.43500 3.96000 48.33900
C  49.96200 4.13200 48.40900
C  50.13500 5.64600 48.19700
C  48.67100 6.14100 48.01800
C  50.43700 3.58500 49.80000
C  51.08000 6.04800 46.96500
C  52.41800 6.72500 47.30200
N  45.84400 7.16000 47.89100
C  46.97100 7.93700 47.82700
C  46.57900 9.27800 47.42200
C  45.21000 9.28100 47.40100
C  44.79000 7.93600 47.60700
C  47.53100 10.43400 47.28200
C  44.00800 10.05700 47.13600
O  43.90000 11.26000 46.88900
C  42.78000 9.09100 47.14900
C  41.89700 9.58500 48.25200
O  41.76000 9.10500 49.38600
O  41.05900 10.54800 47.72100
C  39.98100 11.10900 48.66800
H  42.06900 2.27500 47.83100
H  48.60700 1.93400 48.65800
H  49.20600 8.00000 48.04000
H  40.81700 6.78800 48.23700
H  40.49900 4.19900 47.11800
H  39.91100 5.39000 49.68800
H  41.14200 4.20800 49.95000
H  39.64200 3.68900 49.13200
H  40.16500 5.69300 45.51900
H  41.20400 7.06700 45.38000
H  39.90900 8.67800 46.43500
H  38.71700 7.34700 46.80700
H  43.56100 -0.84700 47.49900
H  42.46400 0.26000 48.42100
H  43.63400 -0.70900 49.25700
H  48.45600 -0.13200 47.63700
H  48.34400 -1.62300 48.52200
H  48.58200 -0.06800 49.45600
H  50.37500 3.50300 47.62000
H  50.56700 6.13100 49.07200
H  50.51300 2.49700 49.77900
H  49.74800 3.81900 50.61100
H  51.39900 4.02500 50.06200
H  50.55200 6.78400 46.35800
H  51.22600 5.19500 46.30200
H  52.64000 6.68100 48.36900
H  52.33900 7.76800 46.99600
H  53.23300 6.20500 46.80000
H  48.32400 10.22400 46.56500
H  47.94100 10.55300 48.28500
H  46.79200 11.19600 47.03400
H  42.24000 9.00200 46.20600
H  39.86000 12.17700 48.49000
H  40.28600 11.01500 49.71000
H  39.02800 10.58100 48.63400

