158

Mg 49.71100 44.50900 42.96600
C  46.18100 44.93600 42.14600
C  49.24900 41.13600 42.17900
C  52.97000 44.37100 42.50800
C  49.87900 47.88400 43.61500
N  47.93100 43.23800 42.05200
C  46.61000 43.60500 41.94600
C  45.77600 42.46700 41.27500
C  46.71800 41.20000 41.82300
C  48.05400 41.86400 42.07000
C  46.09300 40.59400 43.05500
C  45.74800 42.63600 39.72200
C  44.33800 42.49000 39.07300
H  44.01600 43.64000 38.12300
N  50.95800 42.95300 42.58400
C  50.56500 41.65900 42.18000
C  51.80700 40.92800 41.83200
C  52.93100 41.80600 41.99500
C  52.32300 43.08700 42.46500
C  51.76300 39.56000 41.25500
C  54.41100 41.43900 41.70300
O  54.72400 40.33500 41.23800
C  55.60900 42.47600 41.87200
N  51.25400 45.95600 43.35500
C  52.52900 45.64200 42.90700
C  53.40100 46.87800 42.95900
C  52.45000 48.00000 43.37700
C  51.11800 47.26500 43.38600
C  54.65000 46.55900 43.86700
C  52.39700 49.35000 42.56500
C  52.21800 50.62400 43.39700
N  48.32400 46.04000 43.01500
C  48.57900 47.39100 43.37800
C  47.29100 48.12300 43.34700
C  46.34900 47.21700 42.78300
C  47.03700 45.93000 42.63400
C  47.04600 49.58900 43.68100
C  44.96300 47.05000 42.40200
O  44.02600 47.83600 42.32400
C  44.80900 45.60400 41.83600
C  43.62200 44.96800 42.32800
O  42.66900 44.62800 41.60000
O  43.66500 44.86700 43.69500
C  42.46100 44.35100 44.36700
H  49.16800 40.04700 42.15900
H  54.02100 44.40300 42.21400
H  49.72200 48.94500 43.82200
H  44.79500 42.57300 41.73700
H  46.68400 40.39000 41.09400
H  45.55400 39.65800 42.91100
H  45.27900 41.23700 43.39200
H  46.83500 40.50700 43.84800
H  46.36600 41.86700 39.25800
H  46.23700 43.59700 39.56700
H  43.57800 42.59700 39.84700
H  44.25500 41.52500 38.57400
H  52.14800 39.69400 40.24400
H  50.73300 39.20400 41.27800
H  52.37800 38.88300 41.84900
H  55.53100 43.30000 41.16300
H  56.58200 42.01400 41.70500
H  55.58500 42.87100 42.88700
H  53.75800 47.05800 41.94500
H  52.70300 48.35000 44.37800
H  54.55300 45.57400 44.32200
H  54.78500 47.22700 44.71700
H  55.52400 46.43900 43.22700
H  51.52100 49.28900 41.91800
H  53.26400 49.34500 41.90500
H  51.30000 51.14200 43.11700
H  53.00000 51.37000 43.25400
H  52.15500 50.50000 44.47800
H  47.42100 49.76000 44.69000
H  46.01000 49.92500 43.69600
H  47.66900 50.24500 43.07300
H  44.76700 45.54800 40.74900
H  42.62100 43.72000 45.24100
H  41.74000 43.83600 43.73200
H  41.93200 45.20700 44.78600
Mg 47.58900 33.85300 27.02700
C  46.17300 32.62600 29.88400
C  48.19400 36.94000 28.69500
C  48.86000 35.24900 24.06400
C  46.61500 31.09100 25.27300
N  47.29600 34.67900 29.07200
C  46.71400 33.93100 30.13200
C  47.02600 34.64500 31.47400
C  47.28600 36.05500 30.99000
C  47.71700 35.87300 29.53700
C  46.17100 37.12200 31.21500
C  48.16300 33.89100 32.14700
C  48.17800 33.92900 33.71600
H  47.23700 34.93300 34.35700
N  48.35700 35.75600 26.45800
C  48.49000 36.88800 27.28500
C  49.01000 37.98700 26.52800
C  49.20400 37.55000 25.23000
C  48.82200 36.13100 25.18000
C  49.44800 39.30900 27.17200
C  49.91700 38.24000 24.12400
O  50.26800 37.76500 23.05800
C  50.21100 39.69600 24.31400
N  47.74900 33.26300 24.97600
C  48.41500 33.93900 23.99400
C  48.37600 33.14600 22.65500
C  47.78700 31.72200 23.08500
C  47.26900 32.04200 24.51700
C  47.67600 33.87500 21.50900
C  48.80600 30.52000 23.02900
C  50.10000 30.63900 23.89400
N  46.59200 32.10100 27.45200
C  46.28900 31.02400 26.69700
C  45.58300 30.06700 27.47100
C  45.39700 30.68600 28.69800
C  46.10300 31.88300 28.69100
C  44.99800 28.78400 27.04300
C  44.83300 30.58400 30.02200
O  44.14000 29.67700 30.48700
C  45.20900 31.86900 30.76500
C  45.69900 31.57900 32.09400
O  46.58600 30.81800 32.43100
O  44.86800 32.15500 32.98300
C  44.90000 31.69100 34.38900
H  48.28300 37.83000 29.32200
H  49.39100 35.56100 23.16200
H  46.33200 30.27600 24.60400
H  46.16800 34.59800 32.14500
H  48.23500 36.44400 31.35900
H  45.27200 36.59000 31.52500
H  45.84100 37.58500 30.28500
H  46.44100 37.81500 32.01200
H  49.10000 34.32800 31.80100
H  48.18500 32.83400 31.87900
H  49.18600 34.15900 34.06200
H  48.05300 32.92700 34.12600
H  48.68000 40.08100 27.13600
H  50.42800 39.62800 26.81800
H  49.62700 39.15400 28.23600
H  49.38500 40.21200 24.80200
H  50.43000 40.09300 23.32300
H  51.16800 39.67400 24.83400
H  49.37800 32.96500 22.26900
H  46.90800 31.52000 22.47300
H  47.52000 34.95300 21.55400
H  46.67000 33.48800 21.34700
H  48.29800 33.67100 20.63800
H  49.08300 30.45300 21.97700
H  48.31900 29.56100 23.20300
H  50.33000 29.76000 24.49600
H  50.17500 31.59600 24.41000
H  50.92300 30.74300 23.18800
H  43.96700 28.73800 27.39500
H  45.54300 27.88900 27.34400
H  44.95900 28.60200 25.96900
H  44.32000 32.49500 30.84300
H  44.27300 32.31300 35.02800
H  45.94900 31.69500 34.68400
H  44.57800 30.65300 34.47100

