158

Mg 7.77700 2.93200 26.89700
C  9.21700 1.68800 29.99500
C  5.55800 4.59700 28.86600
C  6.33500 3.91100 24.06300
C  9.60700 0.48900 25.22800
N  7.54600 3.21500 29.16300
C  8.20300 2.62200 30.23100
C  7.63300 3.04700 31.57100
C  6.29900 3.84400 31.18400
C  6.42900 3.83500 29.61300
C  4.96300 3.08700 31.64600
C  8.62400 3.80700 32.38700
C  8.54200 3.51500 33.92100
H  9.37800 4.45000 34.85400
N  6.36500 4.32500 26.51900
C  5.55300 4.86400 27.45200
C  4.68700 5.85100 26.81500
C  4.94100 5.72800 25.39100
C  5.92100 4.62400 25.21400
C  3.65700 6.72700 27.50300
C  4.49700 6.64700 24.17600
O  4.75300 6.35200 23.02000
C  3.66400 7.91600 24.54400
N  8.00300 2.30400 24.94000
C  7.20000 2.80600 23.91100
C  7.49100 2.09600 22.57600
C  8.68600 1.13100 22.95700
C  8.82200 1.32900 24.45200
C  6.26100 1.32300 22.14300
C  10.06100 1.51700 22.21200
C  10.71100 0.23000 21.66300
N  9.18700 1.49600 27.42000
C  9.78700 0.57000 26.61500
C  10.69600 -0.20600 27.39100
C  10.53400 0.21600 28.74100
C  9.58900 1.26200 28.67100
C  11.62300 -1.32000 26.90200
C  11.02200 0.01300 30.07600
O  11.92600 -0.68200 30.60600
C  10.03900 0.93200 30.95200
C  9.32400 0.01200 31.96300
O  8.23800 -0.55700 31.69500
O  9.98800 -0.02500 33.22100
C  9.16300 -0.67400 34.27800
H  4.93700 5.25200 29.48200
H  5.96400 4.32200 23.12100
H  10.19400 -0.28500 24.73000
H  7.43000 2.13900 32.13800
H  6.32100 4.86600 31.56200
H  5.16100 2.21000 32.26200
H  4.32200 2.85700 30.79500
H  4.37900 3.71200 32.32200
H  8.59100 4.89000 32.26500
H  9.64200 3.54700 32.09600
H  9.01200 2.54000 34.04800
H  7.51800 3.46800 34.29200
H  2.70300 6.44700 27.05600
H  3.68600 7.81500 27.44900
H  3.48100 6.43400 28.53800
H  4.32500 8.65300 24.99800
H  2.80800 7.73400 25.19400
H  3.16500 8.21200 23.62100
H  7.64900 2.89600 21.85200
H  8.43800 0.08700 22.76900
H  5.38800 1.50900 22.77000
H  6.34200 0.25600 21.93500
H  5.90800 1.55800 21.13900
H  10.68900 2.08300 22.90000
H  9.80600 2.20700 21.40900
H  11.41100 0.60500 20.91500
H  10.02400 -0.47200 21.19100
H  11.18700 -0.41600 22.40100
H  11.10500 -1.67400 26.01000
H  11.53100 -2.15900 27.59200
H  12.60500 -0.93100 26.63300
H  10.64900 1.56900 31.59300
H  8.51300 0.11900 34.64700
H  9.85000 -0.87400 35.10100
H  8.57600 -1.56600 34.06000
Mg 47.46200 16.19200 29.11700
C  45.76500 16.01700 32.24400
C  49.89300 18.09200 30.58300
C  48.83700 16.79900 26.08800
C  44.57800 14.88500 27.61900
N  47.68500 17.09600 31.13500
C  46.98600 16.70500 32.27400
C  47.76700 17.08400 33.46400
C  48.87000 17.94100 32.99100
C  48.85700 17.66000 31.48700
C  48.84300 19.44600 33.31600
C  48.32000 15.77400 34.25200
C  48.38700 15.81500 35.86000
H  47.74200 17.00700 36.68100
N  49.17800 17.22500 28.43700
C  50.09500 17.89100 29.22500
C  51.11300 18.47000 28.43200
C  50.86600 18.05200 27.10900
C  49.56300 17.36400 27.14900
C  52.25900 19.27400 28.91200
C  51.71000 18.13700 25.91200
O  51.33700 17.72100 24.77800
C  53.12200 18.83600 25.98500
N  46.76100 15.91500 27.19200
C  47.59200 16.15600 26.06300
C  46.90000 15.69800 24.78400
C  45.62200 14.94400 25.30700
C  45.62500 15.32100 26.75700
C  46.57700 16.84100 23.73000
C  45.57800 13.40000 25.03100
C  44.86100 13.01500 23.71700
N  45.54100 15.50600 29.74400
C  44.44900 15.02500 29.00800
C  43.33700 14.65300 29.92300
C  43.90300 14.94500 31.19700
C  45.16200 15.48800 31.02000
C  42.04400 13.93000 29.59600
C  43.66200 14.72400 32.64500
O  42.67600 14.23900 33.27400
C  44.89700 15.50700 33.34600
C  44.22400 16.62800 34.00300
O  43.78700 17.61400 33.40500
O  44.06200 16.41300 35.38300
C  43.17100 17.33300 36.15800
H  50.78200 18.47600 31.08800
H  49.10500 16.90700 25.03500
H  43.77000 14.39800 27.06900
H  47.28300 17.74000 34.18800
H  49.87800 17.67900 33.30900
H  48.50000 19.49500 34.34900
H  48.17800 20.01200 32.66400
H  49.88200 19.77000 33.26000
H  49.30400 15.50100 33.87000
H  47.68300 14.92400 34.00900
H  49.44800 15.82300 36.11000
H  47.80400 14.96400 36.21200
H  53.17000 18.67700 28.95800
H  52.18300 19.51800 29.97200
H  52.28500 20.21100 28.35600
H  52.88500 19.89600 26.07600
H  53.59700 18.64500 25.02200
H  53.79600 18.39500 26.72000
H  47.50000 14.97300 24.23400
H  44.75900 15.36900 24.79400
H  45.52000 16.71800 23.49300
H  47.08200 16.75500 22.76800
H  46.75000 17.83300 24.14800
H  45.07000 12.83600 25.81300
H  46.61700 13.09700 24.89800
H  44.80000 13.95700 23.17300
H  43.86900 12.59400 23.88300
H  45.45100 12.41100 23.02700
H  41.77900 13.97200 28.53900
H  41.30300 14.54000 30.11300
H  42.05500 12.90300 29.96000
H  45.36200 14.93500 34.14900
H  43.10200 18.34600 35.76200
H  43.48200 17.37600 37.20200
H  42.11900 17.06400 36.25800

