158

Mg 25.82000 -6.70000 47.54500
C  26.85500 -3.53400 46.33700
C  22.75000 -6.08400 46.15100
C  25.09300 -9.75000 48.52000
C  29.24100 -7.43100 48.29000
N  24.95400 -5.04600 46.24300
C  25.50100 -3.84500 45.98800
C  24.53100 -2.91400 45.19100
C  23.13300 -3.66500 45.44200
C  23.62300 -5.05400 45.93700
C  22.31900 -3.07300 46.61300
C  24.89500 -2.76800 43.65100
C  24.83000 -1.31700 43.05400
H  25.93900 -0.92400 42.11300
N  24.13300 -7.79900 47.33500
C  23.00000 -7.34200 46.70700
C  22.07500 -8.47400 46.78100
C  22.69800 -9.52100 47.47400
C  24.02200 -9.11100 47.71700
C  20.75600 -8.45100 46.07700
C  22.06400 -10.94100 47.77800
O  20.91100 -11.10800 47.62800
C  22.77800 -12.13700 48.38400
N  27.00000 -8.35200 48.22100
C  26.40700 -9.39100 48.78800
C  27.36800 -10.20400 49.59000
C  28.75000 -9.78800 49.15500
C  28.34600 -8.45800 48.54500
C  27.05200 -10.25600 51.13100
C  29.47100 -10.80400 48.22200
C  30.95400 -11.22500 48.48800
N  27.72300 -5.74000 47.29600
C  28.96500 -6.17100 47.70600
C  29.90800 -5.13800 47.43300
C  29.16800 -4.01900 46.87300
C  27.83100 -4.46900 46.84300
C  31.36300 -5.15800 47.93900
C  29.15400 -2.69500 46.41800
O  30.06300 -1.89300 46.24100
C  27.66100 -2.38600 45.91800
C  27.32500 -1.11200 46.63200
O  27.23600 -0.99000 47.85800
O  26.95800 -0.09200 45.79100
C  26.61100 1.17000 46.47200
H  21.73500 -5.83300 45.83700
H  24.87900 -10.80700 48.69600
H  30.27000 -7.60800 48.61100
H  24.51800 -1.93000 45.65900
H  22.48800 -3.70900 44.56400
H  22.42200 -3.63500 47.54100
H  21.28800 -3.19000 46.27900
H  22.43600 -2.01100 46.82800
H  24.18300 -3.36500 43.08100
H  25.86200 -3.25700 43.52800
H  24.65300 -0.54400 43.80200
H  23.92400 -1.32600 42.44900
H  20.67100 -7.70100 45.29100
H  20.06600 -8.04800 46.81800
H  20.45500 -9.43300 45.71100
H  23.56600 -12.40500 47.68000
H  22.13900 -13.01300 48.49400
H  23.19700 -11.93200 49.36900
H  27.23100 -11.23300 49.25600
H  29.40400 -9.61100 50.00900
H  26.50200 -9.37800 51.46900
H  27.94500 -10.36200 51.74800
H  26.27600 -11.01700 51.20900
H  29.35700 -10.57500 47.16300
H  28.94900 -11.75100 48.35600
H  30.94800 -12.09400 49.14600
H  31.30800 -10.34200 49.02200
H  31.45700 -11.43800 47.54500
H  32.06100 -4.77400 47.19600
H  31.67300 -6.17800 48.16700
H  31.56900 -4.54500 48.81700
H  27.64700 -2.30400 44.83100
H  25.58300 1.12300 46.83100
H  26.55100 1.93200 45.69400
H  27.31900 1.37400 47.27500
Mg 6.81800 53.99000 40.93100
C  6.21400 50.64000 40.41200
C  10.04200 53.59100 40.09600
C  7.19000 57.38000 40.94500
C  3.29400 54.39300 41.64000
N  7.89700 52.31800 40.14600
C  7.56000 51.04000 40.18900
C  8.72500 50.12700 39.95200
C  9.90500 51.02400 40.13400
C  9.24200 52.38100 40.21900
C  10.93700 50.74700 41.28200
C  8.73900 49.44600 38.46900
C  8.50100 50.41600 37.29600
H  7.35000 50.26800 36.39200
N  8.37800 55.26500 40.63100
C  9.69500 54.91400 40.26800
C  10.44700 56.11600 40.05000
C  9.61500 57.24500 40.35100
C  8.34600 56.62400 40.70800
C  11.89300 55.99000 39.63000
C  10.10900 58.68700 40.37000
O  11.20600 58.99800 39.92100
C  9.27500 59.83200 40.90600
N  5.33700 55.73000 41.06800
C  5.80300 56.99500 41.09700
C  4.69100 58.05400 41.32700
C  3.44700 57.05800 41.56900
C  4.04400 55.65100 41.51300
C  4.87100 59.13400 42.46700
C  2.14200 57.25800 40.72500
C  0.79400 57.56000 41.55900
N  5.06400 52.84000 41.03000
C  3.75600 53.10600 41.42700
C  3.02900 51.86100 41.44000
C  3.93200 50.88100 41.02800
C  5.12600 51.49200 40.87000
C  1.54000 51.70800 41.77400
C  4.11700 49.46400 40.76000
O  3.23900 48.56200 40.85500
C  5.62700 49.22500 40.33600
C  5.41200 48.58200 39.02400
O  4.70200 48.98800 38.17100
O  5.91400 47.31100 39.11300
C  5.62500 46.43200 38.01800
H  11.09700 53.33600 39.97800
H  7.31300 58.46100 41.03500
H  2.21800 54.44700 41.81400
H  8.83000 49.30400 40.65800
H  10.48500 51.08700 39.21400
H  11.91200 50.69900 40.79900
H  10.72200 49.82800 41.82800
H  10.86300 51.60200 41.95400
H  8.13200 48.54100 38.45700
H  9.75900 49.10200 38.29600
H  9.36600 50.36700 36.63500
H  8.45500 51.39300 37.77700
H  12.49500 55.43300 40.34800
H  12.39400 56.95800 39.65700
H  11.93800 55.55900 38.63000
H  9.93600 60.68700 41.04600
H  8.99300 59.49100 41.90200
H  8.40500 60.09500 40.30400
H  4.73200 58.66800 40.42700
H  3.21100 57.19100 42.62500
H  5.66200 58.83400 43.15300
H  4.01300 59.28400 43.12300
H  5.13900 60.03000 41.90500
H  1.90600 56.38800 40.11300
H  2.35700 58.11400 40.08600
H  0.63300 58.63000 41.42600
H  0.92800 57.34600 42.61900
H  -0.12300 57.11100 41.17700
H  1.41700 51.55600 42.84700
H  1.21700 50.80500 41.25700
H  1.09100 52.62500 41.39000
H  6.17200 48.52000 40.96400
H  5.71400 47.02400 37.10700
H  4.57300 46.16600 38.12900
H  6.38200 45.66200 37.86500

