158

Mg 34.67900 3.21600 30.35300
C  32.33300 4.19900 32.58300
C  36.98500 2.85700 32.67700
C  36.93600 2.52700 27.86400
C  32.11300 3.54900 27.85000
N  34.71000 3.75400 32.33000
C  33.67100 4.08100 33.03000
C  34.02000 3.93600 34.54700
C  35.55000 3.94800 34.56900
C  35.79200 3.45100 33.10700
C  36.28600 5.23900 34.91300
C  33.35000 2.62200 35.27500
C  32.93200 2.83400 36.74600
H  33.61900 3.94300 37.59600
N  36.70200 2.88600 30.26300
C  37.41200 2.61500 31.37400
C  38.76200 2.29600 31.04700
C  38.83900 2.23500 29.59500
C  37.40800 2.53800 29.18100
C  39.77500 2.11600 32.09500
C  39.97900 2.05800 28.67800
O  39.85300 2.04200 27.42900
C  41.28100 1.63600 29.27300
N  34.56700 3.09400 28.15500
C  35.59800 2.68600 27.40600
C  35.21800 2.48100 25.94700
C  33.67000 2.77100 26.01300
C  33.40900 3.12100 27.41900
C  36.04500 3.38300 24.94800
C  32.89500 1.65300 25.42900
C  32.70400 0.43600 26.24300
N  32.63900 3.70400 30.19100
C  31.73000 3.93500 29.15900
C  30.43900 4.33200 29.65300
C  30.60400 4.48800 31.03000
C  31.94400 4.12800 31.28900
C  29.14800 4.58600 28.93000
C  30.02500 4.88200 32.29400
O  28.86600 5.20000 32.51300
C  31.09200 4.68000 33.33900
C  31.27300 5.99000 34.07100
O  31.50600 7.01500 33.55700
O  30.98500 5.75000 35.39400
C  30.85600 7.03000 36.21700
H  37.63700 2.60500 33.51600
H  37.60300 2.14500 27.08800
H  31.43200 3.56900 26.99600
H  33.75200 4.87100 35.03800
H  35.81000 3.20300 35.32000
H  35.70100 6.10300 34.59800
H  37.16200 5.33900 34.27300
H  36.75500 5.23700 35.89700
H  33.97000 1.72800 35.21000
H  32.37300 2.47400 34.81500
H  33.06900 1.91700 37.31900
H  31.85900 3.02400 36.79000
H  39.61700 1.16000 32.59400
H  39.63800 2.82200 32.91300
H  40.82100 2.30000 31.84800
H  41.37300 0.62800 29.67800
H  41.69200 2.44100 29.88100
H  42.02700 1.49800 28.49000
H  35.44400 1.41600 25.89100
H  33.42400 3.57000 25.31300
H  36.93600 3.82500 25.39400
H  35.50100 4.24600 24.56600
H  36.43600 2.83300 24.09200
H  33.47400 1.22900 24.60800
H  32.03800 2.13700 24.96000
H  33.19700 -0.46000 25.86800
H  31.71200 0.01600 26.07800
H  32.95700 0.58200 27.29300
H  28.85400 5.60900 29.16800
H  28.43900 3.80800 29.21300
H  29.22900 4.56600 27.84300
H  30.71900 3.90700 34.01100
H  30.24900 7.75200 35.67100
H  31.79900 7.50800 36.48100
H  30.21900 6.78200 37.06600
Mg 40.63600 10.04700 30.18900
C  42.76100 11.23400 32.74800
C  38.64700 8.70300 32.54900
C  38.89000 8.67000 27.71900
C  43.07900 11.04600 27.85300
N  40.78800 10.03200 32.48400
C  41.64800 10.54500 33.34700
C  41.23500 10.18900 34.79600
C  40.01800 9.14700 34.58900
C  39.73500 9.31300 33.12000
C  40.26400 7.65500 34.80100
C  40.91100 11.45000 35.64100
C  40.26600 11.23600 37.10100
H  40.79100 12.11100 38.20300
N  38.90000 8.98200 30.15400
C  38.22200 8.49400 31.22700
C  37.12500 7.62500 30.75900
C  37.16300 7.64100 29.30400
C  38.38000 8.44400 29.00400
C  36.34400 6.85300 31.70400
C  36.16200 7.02200 28.37300
O  36.40900 6.79600 27.17500
C  34.88900 6.50100 28.87700
N  40.91800 9.82600 28.16400
C  40.00900 9.29600 27.34800
C  40.35500 9.47700 25.92400
C  41.67600 10.21500 25.92400
C  41.90100 10.39400 27.40100
C  40.24000 8.14500 25.08000
C  41.55300 11.53800 25.19700
C  41.02200 12.80800 25.93800
N  42.49200 11.08300 30.20600
C  43.39700 11.36600 29.17500
C  44.59200 11.98500 29.83200
C  44.32200 12.07100 31.22300
C  43.11200 11.38100 31.38400
C  45.79300 12.40200 29.17700
C  44.87200 12.47800 32.48500
O  45.94600 12.98400 32.78600
C  43.80100 12.04500 33.54100
C  44.50900 11.29600 34.57300
O  44.92000 10.16100 34.49900
O  44.44100 12.02600 35.76700
C  44.65500 11.25500 37.02800
H  37.95400 8.21900 33.24000
H  38.23600 8.37900 26.89400
H  43.88000 11.31700 27.16300
H  42.15000 9.74900 35.19100
H  39.13600 9.47200 35.14100
H  41.30900 7.68500 35.10900
H  40.17000 7.06700 33.88700
H  39.50100 7.18500 35.42100
H  40.30200 12.20700 35.14800
H  41.90400 11.85200 35.84000
H  40.40300 10.17300 37.30100
H  39.17900 11.30100 37.05100
H  36.56000 5.80000 31.52300
H  35.27800 7.06900 31.63600
H  36.43800 7.09900 32.76200
H  35.12900 5.59700 29.43700
H  34.24800 6.29100 28.02100
H  34.43200 7.18400 29.59300
H  39.60500 10.15000 25.50900
H  42.44300 9.59500 25.46100
H  41.18100 7.96800 24.55800
H  39.59700 8.48800 24.26900
H  39.89800 7.22900 25.56100
H  40.84200 11.36700 24.38900
H  42.45900 11.80700 24.65400
H  41.91400 13.42600 26.04000
H  40.53800 12.45200 26.84700
H  40.22600 13.28300 25.36400
H  46.46700 12.71400 29.97500
H  45.53400 13.17700 28.45600
H  46.34900 11.62700 28.64900
H  43.34200 12.95000 33.94000
H  44.36000 10.20600 37.06900
H  44.19400 11.69900 37.91000
H  45.72900 11.30400 37.21200

