158

Mg 1.09100 7.39700 25.21000
C  1.96000 9.67600 27.94300
C  1.25400 4.94900 27.34100
C  0.49100 5.51800 22.61100
C  1.32100 10.36000 23.04900
N  1.68600 7.32700 27.36800
C  1.90000 8.29300 28.28900
C  1.91000 7.70300 29.72700
C  1.93500 6.19700 29.41000
C  1.57100 6.12600 27.95100
C  3.11900 5.40000 29.91700
C  0.60400 8.08100 30.49100
C  0.63600 8.38900 31.96000
H  1.71400 7.68100 32.86200
N  0.84900 5.49600 25.01300
C  0.96700 4.60900 25.97400
C  0.57500 3.32300 25.41700
C  0.35700 3.40100 24.02100
C  0.48600 4.88000 23.83800
C  0.57500 2.06700 26.25100
C  0.14200 2.29500 23.01000
O  -0.12300 2.53500 21.85100
C  0.04200 0.80900 23.58900
N  0.96100 7.82500 23.09700
C  0.65200 6.87200 22.25300
C  0.59700 7.38400 20.77600
C  0.61200 8.93100 21.01900
C  1.03500 9.08200 22.48800
C  1.71900 6.90800 19.73800
C  -0.80500 9.64100 20.92200
C  -0.95800 11.00500 20.09500
N  1.50900 9.60500 25.38600
C  1.51400 10.66500 24.43800
C  1.75600 11.97900 25.07300
C  1.91200 11.62800 26.45300
C  1.75600 10.18300 26.57600
C  1.81800 13.31700 24.36700
C  2.18800 12.17300 27.78400
O  2.35800 13.31500 28.17900
C  2.00400 10.87100 28.82800
C  3.09100 10.79700 29.88000
O  4.28000 10.40000 29.67900
O  2.57400 11.33000 31.00600
C  3.50200 11.21700 32.12100
H  1.18400 4.09700 28.02000
H  0.27100 4.83000 21.79200
H  1.35900 11.24100 22.40500
H  2.72400 8.15100 30.29700
H  1.11200 5.67300 29.89600
H  3.54900 4.94500 29.02500
H  2.90100 4.68900 30.71400
H  3.88500 6.04200 30.35400
H  -0.10700 7.26200 30.38300
H  0.06700 8.83300 29.91300
H  -0.33700 8.09400 32.35300
H  0.77400 9.46500 32.07000
H  0.50900 2.22700 27.32700
H  1.56200 1.62700 26.10700
H  -0.18700 1.33200 25.99000
H  -0.16400 0.20500 22.70500
H  -0.91300 0.84700 24.11300
H  0.95600 0.45300 24.06300
H  -0.31300 7.03400 20.29000
H  1.21900 9.30500 20.19400
H  1.39400 6.10300 19.07900
H  2.59100 6.63000 20.32900
H  1.93000 7.65100 18.96800
H  -1.12100 9.86700 21.94000
H  -1.44800 8.89200 20.45900
H  -1.86900 10.98600 19.49700
H  0.01800 11.18000 19.64300
H  -1.06400 11.80000 20.83400
H  2.64000 13.22900 23.65700
H  2.01400 14.15300 25.03800
H  0.81100 13.39800 23.95700
H  1.06700 11.04600 29.35600
H  4.42900 10.64400 32.10500
H  2.91300 10.73600 32.90200
H  3.64200 12.24300 32.46200
Mg 47.83200 15.29900 27.61100
C  45.68500 15.20200 30.28600
C  49.81400 17.53600 29.21100
C  49.64100 15.37500 24.85500
C  45.24800 13.40900 25.86600
N  47.73000 16.31500 29.38300
C  46.86500 15.92100 30.47300
C  47.29300 16.57000 31.84300
C  48.46700 17.54300 31.31700
C  48.66300 17.21400 29.87500
C  48.17700 19.05700 31.61700
C  47.80000 15.41900 32.83400
C  47.50200 15.67100 34.34200
H  48.82900 16.07000 35.08000
N  49.50800 16.26800 27.12900
C  50.23400 17.08000 27.95700
C  51.49600 17.24300 27.31300
C  51.51900 16.55200 26.08600
C  50.20100 16.02800 25.97700
C  52.68800 18.09800 27.95100
C  52.54700 16.39100 25.06200
O  52.41400 15.76000 24.02900
C  53.91400 17.02900 25.30400
N  47.47900 14.58500 25.66700
C  48.39100 14.76100 24.69800
C  47.85000 14.41900 23.34800
C  46.71200 13.39300 23.74400
C  46.40400 13.76500 25.23100
C  47.34900 15.59400 22.56100
C  47.05000 11.89800 23.48100
C  47.35000 11.10100 24.70400
N  45.79700 14.43800 27.93000
C  44.92000 13.69800 27.18000
C  43.85200 13.28600 27.98100
C  44.06000 13.82100 29.30400
C  45.27300 14.53200 29.15000
C  42.67400 12.46700 27.50500
C  43.62300 13.99500 30.66700
O  42.63200 13.52300 31.18600
C  44.61100 14.92900 31.37800
C  43.80000 16.05900 31.94600
O  43.72500 17.20200 31.41900
O  43.21400 15.69000 33.17800
C  42.71600 16.83600 33.99700
H  50.54300 18.12500 29.77100
H  50.18900 15.38700 23.91100
H  44.58400 12.73200 25.32400
H  46.45200 17.07900 32.31500
H  49.34600 17.26100 31.89600
H  48.34700 19.73100 30.77800
H  48.80700 19.33600 32.46100
H  47.17100 19.30200 31.95800
H  48.88300 15.29800 32.84600
H  47.42200 14.44800 32.51400
H  47.14600 14.76500 34.83400
H  46.80800 16.50700 34.42500
H  53.63600 17.58700 27.78200
H  52.62600 18.28100 29.02400
H  52.75800 19.10800 27.54800
H  53.81600 18.08400 25.56300
H  54.62700 16.90800 24.48900
H  54.27500 16.41600 26.12900
H  48.54700 13.82000 22.76400
H  45.87200 13.66400 23.10500
H  46.29200 15.75100 22.77200
H  47.40600 15.51700 21.47600
H  47.86700 16.51100 22.84400
H  47.77800 11.77700 22.67900
H  46.17400 11.41400 23.04800
H  47.71000 10.10900 24.43200
H  46.48500 11.08000 25.36700
H  48.12600 11.67600 25.20800
H  42.12100 12.01700 28.33000
H  42.91200 11.73300 26.73600
H  42.11800 13.28100 27.04000
H  45.00300 14.32500 32.19700
H  41.62800 16.78000 34.02900
H  43.00700 17.83900 33.68500
H  43.09500 16.66500 35.00500

