158

Mg 55.16400 23.56400 44.51900
C  52.48900 25.59100 43.41300
C  53.37000 20.81900 43.37100
C  57.95700 21.77300 44.75800
C  56.82300 26.40400 45.71600
N  53.25100 23.28700 43.36200
C  52.26400 24.26100 43.11200
C  50.98700 23.59400 42.71600
C  51.16100 22.03200 42.89500
C  52.64000 21.99300 43.27400
C  50.18100 21.34900 43.95800
C  50.58400 23.90900 41.24200
C  49.06500 23.90200 41.09500
H  48.41000 23.63400 39.72700
N  55.62300 21.57900 44.07100
C  54.76300 20.58200 43.64200
C  55.49500 19.37000 43.50400
C  56.89000 19.62700 43.70600
C  56.90200 21.00300 44.25600
C  54.90500 18.05000 43.00600
C  57.98900 18.68800 43.47700
O  57.70100 17.53300 43.23000
C  59.38200 19.01100 43.62600
N  57.14600 24.09200 45.25100
C  58.11200 23.12400 45.19300
C  59.45300 23.73800 45.63700
C  59.16200 25.22800 46.03600
C  57.65200 25.26000 45.70900
C  60.30000 22.97900 46.65100
C  60.02200 26.25600 45.25400
C  60.72000 27.36300 45.86800
N  54.78400 25.55700 44.53700
C  55.53400 26.59100 45.12700
C  54.80500 27.79100 44.95600
C  53.61700 27.39300 44.35400
C  53.66200 26.05700 44.05800
C  55.21500 29.13600 45.36500
C  52.40400 27.98400 43.89900
O  52.06600 29.16700 43.99200
C  51.61400 26.84500 43.19500
C  51.44900 27.26200 41.76000
O  52.38300 27.45600 41.00600
O  50.05300 27.20300 41.39400
C  49.77700 27.30300 39.96700
H  52.73800 19.93100 43.30400
H  58.88300 21.19500 44.76200
H  57.25900 27.37200 45.96800
H  50.10300 23.87800 43.28600
H  50.98400 21.44900 41.99100
H  50.67200 21.00500 44.86900
H  49.77700 20.44400 43.50600
H  49.51900 22.13800 44.31700
H  51.04700 23.18400 40.57300
H  50.90900 24.89500 40.90900
H  48.80900 24.92300 41.37900
H  48.58800 23.29000 41.86000
H  55.34200 17.86400 42.02500
H  53.87100 18.08300 42.66300
H  55.07100 17.21700 43.69000
H  59.75100 19.80600 42.97800
H  60.04300 18.16000 43.46200
H  59.50300 19.26400 44.67900
H  60.16100 23.60500 44.81900
H  59.28200 25.45800 47.09400
H  60.66600 23.51700 47.52500
H  61.22500 22.62500 46.19700
H  59.64900 22.21000 47.06900
H  59.34200 26.59300 44.47100
H  60.77700 25.77700 44.63200
H  61.78400 27.15700 45.75300
H  60.50400 27.40500 46.93500
H  60.48200 28.31600 45.39600
H  56.12500 29.37600 44.81600
H  55.31700 29.20800 46.44800
H  54.49700 29.93600 45.18400
H  50.61700 26.68200 43.60500
H  48.75200 26.97100 39.79800
H  50.57000 26.77900 39.43400
H  49.74300 28.36000 39.70300
Mg 8.51100 48.98400 26.00800
C  6.23000 49.26200 28.68000
C  10.91100 50.34500 28.11000
C  10.64100 48.66800 23.55300
C  5.77400 48.42900 23.75800
N  8.50600 49.62700 28.12000
C  7.53400 49.58400 29.07500
C  8.11500 49.79400 30.50700
C  9.51800 50.38500 30.24100
C  9.62400 50.16500 28.69000
C  9.70800 51.81300 30.75100
C  8.09100 48.53700 31.34500
C  7.69500 48.68200 32.85300
H  7.83500 47.46200 33.77100
N  10.51000 49.47700 25.82200
C  11.32000 49.95000 26.83200
C  12.68200 49.93300 26.35600
C  12.66900 49.36600 24.99200
C  11.22200 49.17200 24.74800
C  13.83100 50.57500 27.07000
C  13.85900 49.15700 23.94700
O  13.63500 49.04900 22.73900
C  15.24900 49.22500 24.40300
N  8.22400 48.67300 23.91600
C  9.35700 48.50900 23.17600
C  8.98900 48.04400 21.74500
C  7.44700 47.93000 21.82600
C  7.08100 48.35300 23.24900
C  9.49200 48.89600 20.56500
C  6.88900 46.48200 21.47000
C  5.65300 46.36700 20.49500
N  6.40400 48.82500 26.14700
C  5.42000 48.68600 25.15000
C  4.10200 48.76500 25.77700
C  4.36500 48.98400 27.15200
C  5.80100 49.04000 27.37100
C  2.69300 48.52300 25.23800
C  3.75700 49.13300 28.41400
O  2.61400 49.13000 28.77800
C  4.89900 49.46800 29.43900
C  4.64200 48.74900 30.69100
O  4.87300 47.55500 30.86900
O  4.14700 49.62800 31.66500
C  3.78700 49.14200 33.00100
H  11.68400 50.66300 28.81200
H  11.33600 48.45900 22.73600
H  4.86200 48.26500 23.18000
H  7.53600 50.47900 31.12600
H  10.24800 49.74000 30.73000
H  8.85700 52.04000 31.39300
H  9.74500 52.59900 29.99600
H  10.72000 51.88400 31.15000
H  9.04200 48.01500 31.23800
H  7.50400 47.73100 30.90400
H  6.63000 48.90600 32.80600
H  8.21700 49.59500 33.14000
H  14.14900 51.30400 26.32500
H  14.68100 49.91700 27.24800
H  13.53500 51.01000 28.02500
H  15.94300 48.78500 23.68700
H  15.46500 48.63500 25.29400
H  15.56700 50.24600 24.61500
H  9.35400 47.03400 21.55600
H  6.90000 48.53300 21.10200
H  10.36400 49.49400 20.83200
H  8.79900 49.64400 20.18100
H  9.72100 48.44900 19.59800
H  6.71500 45.77000 22.27800
H  7.57500 45.78800 20.98400
H  6.10900 46.05600 19.55600
H  5.15600 47.32100 20.32300
H  5.02700 45.53100 20.81000
H  2.03400 49.39100 25.24500
H  2.06400 47.86600 25.83800
H  2.76000 48.19300 24.20100
H  4.86600 50.51300 29.74800
H  2.79800 49.57000 33.16600
H  4.39400 49.51200 33.82800
H  3.92000 48.07000 33.14700

