158

Mg 35.78300 2.32400 31.01800
C  33.00400 3.32300 33.00800
C  37.70900 2.66700 33.83100
C  38.34700 1.72800 29.07000
C  33.58600 2.33700 28.17800
N  35.34100 2.87100 33.13900
C  34.18000 3.11600 33.78100
C  34.24500 3.30500 35.34200
C  35.77700 3.39300 35.48800
C  36.32900 2.99900 34.02100
C  36.28200 4.80900 35.80300
C  33.66900 2.13600 36.15200
C  33.02000 2.59300 37.48300
H  33.58200 3.74200 38.29400
N  37.76500 2.15900 31.37700
C  38.37000 2.29700 32.58500
C  39.79000 2.04900 32.41600
C  39.98200 1.70900 31.05500
C  38.69200 1.91100 30.41900
C  40.80200 2.22700 33.57400
C  41.24700 1.28300 30.33700
O  41.35900 1.13100 29.08900
C  42.52000 1.00800 31.18600
N  35.91400 2.20300 28.87900
C  37.13100 1.77900 28.37600
C  36.95800 1.26800 26.94800
C  35.42800 1.41400 26.65300
C  34.93000 1.95700 27.95000
C  37.80200 2.02100 25.90200
C  34.68800 0.07100 26.20100
C  33.59300 0.37200 25.05400
N  33.69400 2.70000 30.60800
C  32.95600 2.75100 29.44200
C  31.62700 3.25300 29.70500
C  31.60700 3.58300 31.13600
C  32.86700 3.22600 31.57600
C  30.43800 3.41800 28.81800
C  30.84400 4.18200 32.20700
O  29.70100 4.62200 32.21200
C  31.68900 3.95000 33.54400
C  31.97700 5.33600 34.03600
O  32.63800 6.14200 33.43800
O  31.20600 5.58600 35.15900
C  31.15500 6.99500 35.59400
H  38.30600 2.72500 34.74400
H  39.16800 1.35200 28.45500
H  32.80500 2.22700 27.42300
H  33.78500 4.26300 35.58300
H  36.30200 2.66300 36.10300
H  36.13200 5.46600 34.94700
H  37.33500 4.61200 36.00300
H  35.74400 5.26200 36.63600
H  34.42400 1.37400 36.34700
H  32.87900 1.64300 35.58500
H  32.91500 1.67900 38.06700
H  31.97100 2.80300 37.27100
H  40.98700 1.28300 34.08700
H  40.35700 2.89200 34.31400
H  41.72200 2.73200 33.28100
H  43.29300 0.70600 30.48000
H  42.30200 0.29900 31.98400
H  42.92500 1.98400 31.45400
H  37.13300 0.19200 26.96400
H  35.34200 2.21800 25.92200
H  37.30300 2.29200 24.97100
H  38.77800 1.60800 25.64700
H  38.11500 2.94100 26.39500
H  34.19800 -0.29600 27.10200
H  35.47200 -0.61100 25.87200
H  33.96400 0.12900 24.05800
H  33.33200 1.42800 25.12900
H  32.71600 -0.24200 25.25800
H  30.57100 3.16200 27.76700
H  30.07500 4.44400 28.76900
H  29.66700 2.77600 29.24300
H  31.03100 3.37000 34.19200
H  30.11800 7.32400 35.51600
H  31.69700 7.67900 34.94200
H  31.58800 7.01200 36.59400
Mg 16.34600 52.50100 26.52200
C  18.10400 50.90300 29.17600
C  13.80500 53.12100 28.67900
C  14.60800 53.71500 23.86900
C  18.68400 51.00800 24.31700
N  16.09000 52.02600 28.66800
C  16.96300 51.58100 29.55400
C  16.45900 51.78900 31.01400
C  14.91600 52.15000 30.84200
C  14.91400 52.47600 29.27100
C  13.79500 51.10900 31.23100
C  17.29800 52.97700 31.70700
C  17.15900 53.19500 33.26300
H  16.40400 52.20900 34.19600
N  14.43400 53.26800 26.29200
C  13.50400 53.46700 27.30100
C  12.30400 54.10100 26.73700
C  12.57500 54.32900 25.37800
C  13.95300 53.77000 25.13400
C  11.11300 54.32300 27.67900
C  11.78800 55.10700 24.42300
O  12.07300 55.23800 23.22300
C  10.58500 55.91600 24.91300
N  16.54300 52.19500 24.31700
C  15.78800 53.00300 23.50800
C  16.37400 52.98400 22.02000
C  17.82200 52.35200 22.31600
C  17.72300 51.81400 23.69200
C  15.41600 52.04600 21.18100
C  19.04800 53.37800 22.22400
C  20.26200 52.88500 21.44400
N  18.12100 51.26500 26.67500
C  18.93300 50.77600 25.67400
C  19.87600 49.85300 26.29700
C  19.72000 49.99900 27.66900
C  18.55500 50.78400 27.86100
C  20.99300 49.22100 25.59600
C  20.26000 49.51800 28.98700
O  21.25100 48.85200 29.31700
C  19.23700 50.23900 30.00700
C  18.75100 49.22300 30.94900
O  18.15300 48.23700 30.57100
O  19.09300 49.45600 32.23500
C  18.69600 48.50000 33.35600
H  13.09000 53.42700 29.44500
H  14.28200 54.23600 22.96700
H  19.46500 50.77400 23.59000
H  16.56200 50.88300 31.61100
H  14.67300 53.06800 31.37800
H  13.05700 51.01500 30.43500
H  13.35900 51.39800 32.18800
H  14.31600 50.16200 31.37100
H  17.04200 53.90100 31.18800
H  18.33500 52.82000 31.41000
H  16.71000 54.18100 33.37800
H  18.15400 53.42400 33.64400
H  10.11100 54.22400 27.26200
H  11.17900 55.32900 28.09400
H  11.25000 53.52800 28.41100
H  10.31500 56.68900 24.19400
H  10.78400 56.40400 25.86700
H  9.66600 55.33100 24.94300
H  16.39600 54.01300 21.66000
H  17.99900 51.46600 21.70700
H  15.93400 51.16100 20.81100
H  14.89000 52.63800 20.43100
H  14.57200 51.74400 21.80000
H  19.40900 53.72100 23.19400
H  18.65700 54.22300 21.65700
H  20.41800 53.58800 20.62600
H  20.18300 51.85700 21.09000
H  21.09500 52.95100 22.14400
H  20.94800 48.13300 25.55300
H  21.84500 49.56800 26.18000
H  21.17100 49.61400 24.59400
H  19.82200 50.95100 30.59000
H  18.19900 47.61700 32.95300
H  17.89700 48.89600 33.98200
H  19.50200 48.18400 34.01900

