158

Mg 2.38500 -1.41200 43.81700
C  5.85900 -0.82800 43.27000
C  1.75500 1.06900 41.64000
C  -0.79200 -2.50500 43.74000
C  3.35300 -4.44300 45.52600
N  3.73700 -0.14000 42.52000
C  5.09800 0.02400 42.53500
C  5.53900 1.04300 41.52300
C  4.13500 1.63500 41.08000
C  3.07500 0.86900 41.87400
C  4.01200 3.12600 41.26600
C  6.34200 0.43400 40.36400
C  7.71700 1.17300 40.22900
H  8.16200 1.64000 38.80900
N  0.67700 -0.73800 42.89800
C  0.61000 0.40500 42.07500
C  -0.78600 0.67800 41.80300
C  -1.58400 -0.37500 42.39200
C  -0.57800 -1.29400 43.05000
C  -1.24100 1.82900 41.06400
C  -3.08300 -0.48200 42.35100
O  -3.81800 0.30300 41.78700
C  -3.86300 -1.64500 43.07700
N  1.48600 -3.28100 44.39900
C  0.12700 -3.35200 44.35500
C  -0.34800 -4.59600 45.15300
C  0.90300 -5.40100 45.48800
C  2.00500 -4.31100 45.17000
C  -1.26900 -4.09300 46.38000
C  1.06100 -6.69800 44.70800
C  0.95000 -8.01200 45.46300
N  4.21100 -2.42400 44.35500
C  4.39200 -3.56300 45.06900
C  5.81500 -3.77600 45.36000
C  6.41900 -2.63800 44.66200
C  5.40500 -1.90000 44.05200
C  6.46500 -4.93600 46.09300
C  7.63500 -1.97200 44.49500
O  8.72000 -2.20400 44.98000
C  7.41200 -0.77200 43.52200
C  7.97900 0.40200 44.15100
O  7.63400 0.86700 45.24800
O  8.90100 0.91900 43.33500
C  9.37600 2.27300 43.62700
H  1.47400 1.87700 40.96200
H  -1.84500 -2.78200 43.82000
H  3.62600 -5.37100 46.03100
H  6.14100 1.65000 42.20000
H  4.08300 1.50100 39.99900
H  4.98500 3.61000 41.34900
H  3.56400 3.35600 42.23200
H  3.47300 3.61100 40.45200
H  5.73900 0.42600 39.45600
H  6.69600 -0.57400 40.57800
H  8.54600 0.53000 40.52400
H  7.81400 2.06500 40.84800
H  -2.03800 2.34600 41.59900
H  -1.70300 1.48400 40.13900
H  -0.49500 2.60200 40.88100
H  -4.87000 -1.23300 43.13400
H  -3.51200 -1.63700 44.10900
H  -3.77900 -2.63900 42.63800
H  -1.01000 -5.17100 44.50600
H  1.00900 -5.50100 46.56800
H  -1.73400 -3.14500 46.10800
H  -0.65500 -3.92900 47.26600
H  -2.06300 -4.81700 46.55800
H  1.95600 -6.68200 44.08600
H  0.24000 -6.69500 43.99200
H  1.74900 -8.67700 45.13500
H  -0.02800 -8.43400 45.23200
H  0.92000 -7.79400 46.53000
H  6.36400 -4.68800 47.15000
H  7.46800 -5.04800 45.67900
H  5.93400 -5.88100 45.97900
H  7.93800 -1.05600 42.61100
H  10.19500 2.19400 44.34100
H  8.58400 2.88100 44.06400
H  9.65700 2.77400 42.70100
Mg 36.56000 49.23600 25.78500
C  36.42000 47.14500 28.61900
C  35.50100 51.81400 27.73700
C  35.99300 50.99200 23.04700
C  36.91300 46.26100 23.88000
N  35.89100 49.41300 27.90900
C  36.01800 48.45700 28.87200
C  35.86600 49.09800 30.33200
C  35.34700 50.52800 29.96500
C  35.67100 50.65500 28.45600
C  33.83900 50.79600 30.22400
C  37.23300 49.04400 31.09900
C  37.11000 48.72300 32.63900
H  35.67200 48.64100 33.26900
N  35.96100 51.18900 25.45800
C  35.52000 52.04000 26.38400
C  35.00800 53.22000 25.78800
C  35.13500 53.02100 24.38700
C  35.73300 51.72200 24.22000
C  34.39500 54.37000 26.59800
C  34.71500 53.93400 23.27200
O  35.03300 53.64100 22.12900
C  33.92900 55.23900 23.64500
N  36.53200 48.73900 23.80400
C  36.41400 49.67200 22.85000
C  36.58700 49.04400 21.49200
C  36.89200 47.57600 21.76500
C  36.84400 47.54400 23.22800
C  35.36000 49.15600 20.52900
C  38.13600 46.96900 21.11200
C  39.45100 46.84500 21.86500
N  36.83400 47.11400 26.10300
C  36.92400 45.99600 25.24200
C  37.11100 44.79500 26.02300
C  36.96800 45.24900 27.33700
C  36.72300 46.63100 27.34900
C  37.12100 43.42500 25.56800
C  36.80800 44.74400 28.71800
O  36.85400 43.64400 29.20100
C  36.42200 45.98700 29.61800
C  35.11200 45.63300 30.16400
O  34.02600 45.80800 29.66500
O  35.35300 45.07300 31.40300
C  34.21400 44.65400 32.23700
H  35.29700 52.59100 28.47700
H  35.78900 51.51700 22.11200
H  36.92000 45.42200 23.18100
H  35.02200 48.57900 30.78600
H  35.99200 51.29700 30.38900
H  33.49100 49.93400 30.79400
H  33.34400 50.87400 29.25600
H  33.85800 51.69400 30.84200
H  37.71700 50.01700 31.02600
H  37.97300 48.38800 30.64000
H  37.69400 49.37200 33.29100
H  37.60100 47.76700 32.82100
H  34.42600 54.12200 27.65900
H  33.33700 54.49800 26.36900
H  35.00300 55.21600 26.27900
H  33.05500 55.03000 24.26300
H  33.71900 55.74000 22.70000
H  34.66900 55.94700 24.01900
H  37.44900 49.53300 21.03900
H  36.03500 46.92200 21.60500
H  35.67300 49.82100 19.72400
H  34.52300 49.58600 21.07800
H  35.19300 48.15500 20.13200
H  38.26600 47.52300 20.18200
H  37.84400 45.93400 20.93400
H  39.97600 47.68800 21.41700
H  39.98700 45.93200 21.60500
H  39.34900 46.94100 22.94600
H  36.83900 43.27800 24.52500
H  36.49300 42.83400 26.23500
H  38.16800 43.12600 25.62500
H  37.18700 46.02100 30.39400
H  34.58500 44.64400 33.26100
H  33.83400 43.67600 31.94300
H  33.43000 45.39800 32.09100

