158

Mg 47.83500 34.19500 26.65500
C  46.04300 32.52100 29.20100
C  48.07600 36.95600 28.70700
C  49.37700 35.82600 24.20900
C  47.41500 31.43200 24.66300
N  47.14100 34.68500 28.70700
C  46.55000 33.78300 29.64800
C  46.45500 34.40300 31.07400
C  47.03700 35.85700 30.78100
C  47.45900 35.86500 29.33000
C  46.06900 37.08800 31.09000
C  47.29700 33.59800 32.11800
C  48.21800 34.37800 33.11600
H  47.37800 35.34300 33.96000
N  48.67100 36.14500 26.46000
C  48.61800 37.10200 27.44500
C  49.12800 38.31400 26.85000
C  49.63500 37.98100 25.58800
C  49.24300 36.58500 25.37000
C  49.18700 39.65400 27.52100
C  50.30000 38.88300 24.54400
O  50.55500 38.52100 23.37500
C  50.59600 40.29900 24.93200
N  48.12000 33.75600 24.57600
C  49.02200 34.50900 23.87100
C  49.38100 33.84300 22.53100
C  48.74800 32.42700 22.70300
C  48.00500 32.54200 24.06200
C  48.93600 34.60900 21.27100
C  49.73800 31.21500 22.65600
C  49.39400 29.94800 21.83900
N  46.74400 32.40000 26.77900
C  46.75200 31.34700 25.83500
C  46.05600 30.27000 26.40700
C  45.69100 30.70400 27.67600
C  46.22600 31.93200 27.90200
C  45.71200 28.93400 25.66000
C  44.98500 30.32100 28.85000
O  44.25200 29.34500 29.11000
C  45.17900 31.50500 29.99800
C  45.92100 30.80900 31.09400
O  47.08600 30.45400 31.19900
O  45.08200 30.72400 32.20900
C  45.59900 29.93700 33.27800
H  48.10400 37.78300 29.41900
H  49.85800 36.30300 23.35300
H  47.42400 30.51000 24.07900
H  45.42500 34.50500 31.41700
H  47.93200 36.03300 31.37700
H  46.45300 37.64900 31.94200
H  45.03500 36.86600 31.35400
H  45.92700 37.71100 30.20700
H  47.73900 32.85100 31.46000
H  46.64600 33.05800 32.80600
H  49.05200 34.80700 32.56000
H  48.57000 33.66500 33.86200
H  48.75900 39.74000 28.51900
H  48.80200 40.44800 26.88100
H  50.17900 39.84400 27.93100
H  49.72600 40.95400 24.97200
H  51.13900 40.75200 24.10200
H  51.13700 40.34600 25.87700
H  50.46200 33.70200 22.49800
H  47.98000 32.21700 21.95900
H  49.77800 34.66700 20.58200
H  48.65600 35.63200 21.52400
H  48.05100 34.13800 20.84300
H  49.98600 30.89300 23.66800
H  50.72200 31.56600 22.34700
H  48.34700 30.00500 21.54200
H  49.35800 29.04100 22.44200
H  49.97500 29.74700 20.93900
H  45.07000 28.99500 24.78100
H  45.43300 28.15000 26.36400
H  46.69300 28.79600 25.20500
H  44.20700 31.83300 30.36700
H  46.49900 30.53500 33.42000
H  45.85400 28.92700 32.96000
H  45.05900 30.03100 34.22100
Mg -2.42500 35.23000 27.33300
C  -4.27000 33.27600 29.63800
C  -1.83000 37.53700 29.86400
C  -0.57300 36.98100 25.13000
C  -3.60000 33.18200 24.72700
N  -3.07700 35.39500 29.40300
C  -3.63400 34.37500 30.19500
C  -3.74500 34.82600 31.68400
C  -3.10300 36.27800 31.73900
C  -2.70600 36.46000 30.23100
C  -3.96200 37.34000 32.43400
C  -3.01800 33.87400 32.68500
C  -2.85000 34.34700 34.17900
H  -2.60400 33.47700 35.37400
N  -1.21800 36.90700 27.52500
C  -1.11600 37.71100 28.67900
C  -0.19700 38.73800 28.32400
C  0.06800 38.71900 26.94500
C  -0.65400 37.57400 26.44100
C  0.36400 39.71600 29.29100
C  0.74800 39.72300 25.96600
O  0.74800 39.73800 24.71400
C  1.43600 40.98600 26.41500
N  -2.18000 35.16500 25.20400
C  -1.24800 35.92000 24.52600
C  -1.07900 35.41700 23.07500
C  -1.93000 34.13300 22.97900
C  -2.61400 34.16200 24.37100
C  -1.37700 36.53100 22.03900
C  -1.09100 32.77500 22.79800
C  -1.47800 31.66800 21.83900
N  -3.81700 33.67100 27.14300
C  -4.13000 32.86300 26.02900
C  -4.88100 31.71400 26.44000
C  -5.06700 31.90400 27.82500
C  -4.30100 32.99100 28.23300
C  -5.41200 30.64300 25.43600
C  -5.63100 31.35700 29.07900
O  -6.28100 30.36100 29.21800
C  -5.16100 32.30200 30.24300
C  -6.31200 32.79900 30.97200
O  -6.96400 33.77300 30.68600
O  -6.55600 32.07200 32.11400
C  -7.60400 32.70900 32.93100
H  -1.77000 38.32400 30.61800
H  -0.02300 37.57500 24.39700
H  -3.92500 32.54500 23.90100
H  -4.80500 34.81400 31.93500
H  -2.18300 36.28400 32.32300
H  -4.90700 36.91400 32.76900
H  -4.23200 38.14400 31.74800
H  -3.33400 37.62900 33.27600
H  -2.03800 33.76600 32.21900
H  -3.58300 32.94200 32.71000
H  -3.64500 35.00100 34.53800
H  -1.99900 35.02800 34.18700
H  0.23500 39.19000 30.23700
H  -0.07300 40.71100 29.37900
H  1.45200 39.69400 29.22600
H  1.60800 41.70800 25.61700
H  2.34800 40.72200 26.95000
H  0.76400 41.41300 27.16000
H  -0.01100 35.23800 22.95000
H  -2.63000 34.26000 22.15300
H  -0.46100 36.82300 21.52400
H  -1.86600 37.40600 22.46600
H  -2.06400 36.25700 21.23900
H  -1.29600 32.29800 23.75700
H  -0.02700 32.94600 22.63300
H  -0.57500 31.45700 21.26600
H  -2.21000 32.00200 21.10400
H  -1.95800 30.89600 22.44000
H  -4.72200 30.45200 24.61400
H  -6.33700 30.96600 24.96000
H  -5.59600 29.72600 25.99700
H  -4.56100 31.64400 30.87100
H  -7.73000 32.07100 33.80600
H  -8.58700 32.77600 32.46500
H  -7.30900 33.66900 33.35200

