158

Mg 16.55500 -1.33800 27.93200
C  15.27700 0.54300 30.73600
C  18.61900 -3.02800 29.95400
C  17.60100 -2.81000 25.17500
C  14.53000 0.83800 25.95000
N  16.98100 -1.10100 30.10700
C  16.31200 -0.41100 31.04500
C  16.85100 -0.68900 32.45300
C  17.94100 -1.76800 32.21700
C  17.88500 -1.99900 30.67000
C  19.37900 -1.33800 32.63800
C  15.62000 -1.28500 33.36500
C  15.30900 -0.70400 34.75000
H  16.32500 0.15600 35.46400
N  17.75400 -2.77000 27.64300
C  18.57600 -3.36700 28.56400
C  19.38800 -4.42500 27.97800
C  19.13500 -4.35700 26.60200
C  18.14500 -3.27600 26.42100
C  20.24100 -5.37800 28.83200
C  19.94700 -5.01200 25.46500
O  19.68400 -4.80200 24.29400
C  20.93100 -6.06000 25.85700
N  16.16300 -0.88000 25.84400
C  16.71000 -1.75500 24.95700
C  16.37000 -1.24800 23.53100
C  15.06500 -0.34100 23.79400
C  15.26300 -0.07800 25.26500
C  17.50900 -0.48700 22.79300
C  13.71700 -1.09200 23.51100
C  12.67400 -0.11500 22.91200
N  15.33100 0.45800 28.21400
C  14.55800 1.14500 27.31900
C  13.64000 2.02800 27.98600
C  13.87700 1.86900 29.33500
C  14.92800 0.90300 29.44700
C  12.69400 3.06900 27.40500
C  13.55500 2.30400 30.67400
O  12.82800 3.17500 31.03400
C  14.45400 1.41800 31.63800
C  15.32800 2.42000 32.23700
O  16.43900 2.80900 31.82800
O  14.80300 2.90200 33.39700
C  15.66600 3.88800 34.02900
H  19.22100 -3.65500 30.61500
H  17.86800 -3.42300 24.31100
H  13.84100 1.49500 25.41600
H  17.23100 0.21900 32.92100
H  17.74700 -2.74900 32.65000
H  19.98600 -1.45400 31.74100
H  19.66600 -1.92700 33.50900
H  19.52300 -0.28300 32.87200
H  15.62500 -2.36900 33.48300
H  14.76000 -1.32200 32.69600
H  15.08100 -1.60300 35.32200
H  14.38900 -0.12100 34.80400
H  19.85100 -6.39600 28.84400
H  20.34100 -5.23500 29.90800
H  21.28600 -5.37700 28.52100
H  21.78200 -5.60800 26.36800
H  21.30900 -6.38900 24.88900
H  20.44900 -6.86600 26.41000
H  16.17300 -2.15000 22.95200
H  15.21200 0.54800 23.18100
H  17.06900 0.45100 22.45300
H  17.77100 -1.14200 21.96200
H  18.38700 -0.32100 23.41700
H  13.32200 -1.77600 24.26100
H  13.87300 -1.81400 22.70900
H  11.91400 -0.84900 22.64600
H  12.97400 0.54700 22.09900
H  12.26800 0.47400 23.73500
H  11.86600 2.93300 28.10100
H  12.30400 2.73300 26.44500
H  13.19900 4.03500 27.37000
H  13.82600 0.95500 32.39800
H  16.13400 4.57400 33.32200
H  16.45800 3.39800 34.59400
H  15.05300 4.35300 34.80100
Mg 36.79600 49.16400 25.30900
C  36.65700 47.19800 28.18100
C  35.05500 51.60600 27.18300
C  36.05600 51.05900 22.40100
C  38.08900 46.63600 23.50300
N  35.81100 49.24800 27.37300
C  36.18800 48.45100 28.40100
C  35.96400 49.11400 29.80300
C  35.43500 50.50300 29.38900
C  35.37700 50.45900 27.91300
C  34.12100 50.86000 30.07600
C  37.17500 49.17700 30.75600
C  36.92900 48.52400 32.16100
H  36.97100 49.51900 33.32500
N  35.85300 51.12400 24.91100
C  35.22100 51.92800 25.83800
C  34.88300 53.18600 25.21000
C  35.17400 53.01000 23.81900
C  35.67000 51.65700 23.65900
C  34.39100 54.42000 26.03800
C  34.90700 54.07500 22.72000
O  35.27600 53.92700 21.54600
C  34.08400 55.34700 23.03500
N  36.95600 48.90600 23.29000
C  36.68900 49.80500 22.27000
C  36.78000 49.05600 20.89900
C  37.69600 47.82600 21.25800
C  37.58700 47.75900 22.81900
C  35.35200 48.75600 20.38100
C  39.15500 48.00900 20.85300
C  39.68800 46.91400 19.86500
N  37.33700 47.33200 25.71400
C  37.92300 46.39000 24.87700
C  38.05200 45.11200 25.53800
C  37.63900 45.41500 26.85000
C  37.11700 46.73800 26.88200
C  38.52800 43.75600 25.03500
C  37.47200 44.86900 28.25500
O  37.76400 43.76600 28.69700
C  36.78300 45.99400 29.05300
C  35.62400 45.42900 29.66000
O  34.69000 44.92900 29.03100
O  35.76600 45.41800 31.06400
C  34.71100 44.76900 31.84700
H  34.54900 52.39800 27.73800
H  35.82700 51.68500 21.53700
H  38.63900 45.89700 22.91600
H  35.16500 48.49000 30.20300
H  36.12100 51.29700 29.68200
H  33.24900 50.67000 29.45000
H  34.08000 51.94400 30.17300
H  34.03300 50.40500 31.06300
H  37.43100 50.23100 30.86200
H  38.00300 48.76000 30.18400
H  37.84400 47.95400 32.32600
H  35.99000 47.97300 32.21100
H  34.29900 54.23200 27.10800
H  33.40600 54.78200 25.74400
H  35.21500 55.12600 25.94200
H  33.13900 55.29400 23.57500
H  33.76700 55.72500 22.06300
H  34.70800 55.95900 23.68500
H  37.12200 49.73000 20.11300
H  37.21500 46.92800 20.87200
H  34.60500 49.10200 21.09600
H  35.31200 47.71400 20.06400
H  35.21700 49.32100 19.45800
H  39.77900 48.08800 21.74400
H  39.27400 48.96400 20.34200
H  39.89900 47.41800 18.92200
H  39.00500 46.06600 19.83400
H  40.67400 46.69700 20.27800
H  39.61700 43.70300 25.05100
H  38.29400 43.71700 23.97100
H  37.96600 42.97800 25.55200
H  37.48200 46.27300 29.84200
H  35.14600 43.96000 32.43400
H  33.80200 44.40700 31.36700
H  34.41500 45.37500 32.70400

