158

Mg 45.18200 4.11100 46.29400
C  43.43000 7.12200 46.28500
C  42.06100 2.50400 45.80200
C  46.69100 1.23600 45.48900
C  48.18000 5.90600 46.06900
N  42.99500 4.74800 45.95700
C  42.56000 6.06600 45.94500
C  41.03900 6.09400 45.81800
C  40.60600 4.60400 46.08900
C  41.92300 3.87600 45.97500
C  40.00000 4.35500 47.51300
C  40.50500 6.48100 44.48300
C  39.76800 7.81400 44.28900
H  40.29000 8.77000 43.22800
N  44.52000 2.15900 45.83700
C  43.19500 1.72100 45.66200
C  43.08000 0.24400 45.38100
C  44.44100 -0.15900 45.38100
C  45.33500 1.06700 45.56200
C  41.81600 -0.55200 45.07300
C  44.96200 -1.48600 45.04000
O  44.22100 -2.40500 44.68000
C  46.40600 -1.85500 44.91700
N  47.12600 3.69400 45.84500
C  47.51000 2.41100 45.65100
C  49.09400 2.29700 45.47200
C  49.55700 3.78900 45.57900
C  48.18300 4.53600 45.79800
C  49.84100 1.36800 46.51000
C  50.36700 4.41200 44.38200
C  51.61600 5.19300 44.75900
N  45.73000 6.12500 46.27100
C  46.98900 6.70700 46.22300
C  46.83600 8.14700 46.36900
C  45.44300 8.36900 46.43400
C  44.81400 7.10800 46.37500
C  47.87600 9.21800 46.41900
C  44.42100 9.40000 46.50400
O  44.47000 10.63100 46.59600
C  43.09500 8.59900 46.38500
C  42.35400 8.85700 47.63800
O  42.27400 8.07800 48.56200
O  41.62500 9.98800 47.45800
C  40.57000 10.31100 48.40700
H  41.11700 1.95600 45.75800
H  47.38400 0.43900 45.20900
H  49.19900 6.29600 46.01100
H  40.60600 6.73700 46.58400
H  39.83900 4.30700 45.37500
H  40.31200 5.17200 48.16300
H  40.30200 3.40600 47.95700
H  38.91300 4.27700 47.49000
H  39.89600 5.76900 43.92600
H  41.39400 6.73700 43.90800
H  39.81000 8.40400 45.20400
H  38.71200 7.57600 44.15900
H  40.95600 0.09500 45.25000
H  41.78200 -1.39200 45.76700
H  41.88300 -0.86800 44.03200
H  46.56500 -1.33600 43.97200
H  46.50800 -2.94000 44.94000
H  47.04700 -1.50300 45.72500
H  49.27800 1.96800 44.44900
H  50.10100 4.03100 46.49200
H  50.36600 0.61600 45.92200
H  49.10400 0.96600 47.20500
H  50.58400 2.00300 46.99300
H  49.65800 5.07300 43.88400
H  50.58500 3.67600 43.60900
H  51.87900 5.26600 45.81500
H  51.37400 6.11200 44.22500
H  52.52600 4.79300 44.31200
H  47.62400 10.21200 46.78800
H  48.38700 9.28100 45.45800
H  48.64000 8.86400 47.11100
H  42.52200 9.00400 45.55100
H  40.60200 9.92000 49.42400
H  39.73300 9.82800 47.90200
H  40.31500 11.35700 48.57100
Mg 47.97900 24.85800 27.77500
C  49.24100 27.12900 30.31300
C  47.20000 22.75600 30.35300
C  47.40900 22.64000 25.49200
C  49.15600 27.22500 25.46300
N  48.23700 24.94400 30.14000
C  48.63600 25.96700 30.92300
C  48.42700 25.62700 32.37500
C  47.79600 24.16300 32.31000
C  47.81600 23.89600 30.85200
C  48.42400 23.07000 33.13100
C  47.39800 26.68100 32.88700
C  46.78000 26.30600 34.25700
H  46.82400 27.32700 35.39900
N  47.31200 22.96900 27.89500
C  46.95800 22.24900 29.03200
C  46.37000 20.97100 28.59500
C  46.57600 20.87300 27.21500
C  47.15700 22.16600 26.78100
C  45.93800 19.95500 29.59300
C  46.46000 19.56900 26.32100
O  46.60800 19.60500 25.12200
C  45.93300 18.32100 26.86000
N  48.43700 24.81400 25.82900
C  47.96900 23.79200 25.02600
C  48.10500 24.11300 23.58900
C  48.56900 25.60700 23.57800
C  48.72400 25.93000 25.05700
C  49.12600 23.13300 22.83900
C  47.67300 26.56100 22.70100
C  48.45400 27.72300 22.04700
N  48.97600 26.83500 27.84500
C  49.37200 27.64700 26.77800
C  50.19800 28.70800 27.24400
C  50.05800 28.62000 28.59900
C  49.34700 27.40300 28.98300
C  50.97300 29.74800 26.44700
C  50.37500 29.26900 29.86600
O  50.99700 30.29000 30.05900
C  49.73100 28.35900 31.01200
C  50.80100 28.01200 31.93500
O  51.82500 27.42500 31.64100
O  50.51700 28.51000 33.21600
C  51.38200 28.00000 34.31700
H  46.80100 22.05800 31.09100
H  47.15000 21.91900 24.71400
H  49.29800 28.06100 24.77400
H  49.29600 25.72500 33.02600
H  46.74400 24.22200 32.58800
H  49.03500 23.45800 33.94700
H  49.14100 22.50300 32.53800
H  47.62500 22.42900 33.50300
H  46.51500 26.76000 32.25400
H  47.77200 27.70400 32.92500
H  47.30000 25.40500 34.58300
H  45.72100 26.14600 34.05000
H  44.89000 19.83500 29.31800
H  45.97300 20.34000 30.61200
H  46.42200 18.98000 29.52700
H  45.68900 17.52600 26.15500
H  44.95300 18.57300 27.26500
H  46.64500 18.00700 27.62300
H  47.13300 24.12200 23.09600
H  49.61200 25.64600 23.26200
H  49.53800 22.37200 23.50200
H  49.88700 23.80100 22.43500
H  48.71300 22.57600 21.99800
H  46.91100 26.92300 23.39200
H  47.10300 26.08900 21.90100
H  48.13000 27.83400 21.01300
H  49.54400 27.71200 22.01600
H  48.03200 28.63900 22.46000
H  50.17300 30.26600 25.91700
H  51.70100 29.34800 25.74200
H  51.52100 30.36800 27.15600
H  49.03800 29.03100 31.51700
H  50.68000 28.05000 35.14900
H  52.27400 28.57400 34.56900
H  51.65200 26.95300 34.18600

