158

Mg 49.32000 46.35000 43.19100
C  45.98900 46.53200 42.16200
C  49.34600 43.15200 41.96800
C  52.67300 46.56700 43.17800
C  49.21200 49.95300 43.58200
N  47.75800 45.01900 42.17000
C  46.49700 45.30400 41.76400
C  45.88300 44.14400 41.02000
C  46.90200 42.99300 41.33100
C  48.07600 43.71400 41.92800
C  46.34900 41.87300 42.31100
C  45.64600 44.42000 39.48600
C  44.27100 44.00400 38.89700
H  44.25900 43.42000 37.50300
N  50.84100 44.96800 42.74900
C  50.62600 43.65700 42.39000
C  51.89800 43.10900 42.17100
C  52.97000 44.02800 42.55200
C  52.22100 45.21300 42.82700
C  52.05300 41.64400 41.69400
C  54.45500 43.74800 42.57700
O  54.88800 42.61900 42.41200
C  55.36000 44.85900 42.82300
N  50.70400 47.98400 43.43400
C  52.06500 47.74900 43.50300
C  52.81000 48.93000 44.16500
C  51.67700 49.99200 44.27000
C  50.46600 49.30200 43.70700
C  53.64200 48.87100 45.50100
C  51.85900 51.24800 43.44900
C  51.58600 52.61700 44.03600
N  47.82600 47.90400 43.12600
C  47.97800 49.31900 43.30500
C  46.60300 49.89200 43.15600
C  45.79900 48.76700 42.71200
C  46.63500 47.63000 42.66400
C  46.20800 51.27900 43.31500
C  44.47500 48.40500 42.27300
O  43.57000 49.14200 42.04800
C  44.54500 46.89700 41.90500
C  43.55800 46.14600 42.81400
O  43.74400 45.91300 43.99500
O  42.36700 45.87400 42.14400
C  41.31300 45.17800 42.89500
H  49.24100 42.12400 41.61700
H  53.73700 46.73800 43.35700
H  49.09600 51.02400 43.75500
H  44.94500 43.96900 41.54800
H  47.20300 42.37800 40.48300
H  46.80600 41.83200 43.30000
H  46.58300 40.87200 41.94700
H  45.26800 41.94300 42.43200
H  46.41300 43.88100 38.92900
H  45.74100 45.50400 39.42700
H  43.56700 44.83600 38.90700
H  43.84200 43.27000 39.57900
H  51.06700 41.18900 41.60100
H  52.75000 41.06500 42.29900
H  52.43300 41.65900 40.67200
H  55.08300 45.17700 43.82900
H  55.17000 45.71900 42.18100
H  56.36800 44.44500 42.78100
H  53.44000 49.18600 43.31300
H  51.41900 50.30000 45.28300
H  53.60700 47.86400 45.91700
H  53.32500 49.50200 46.33100
H  54.66800 49.13500 45.24500
H  51.41800 51.11600 42.46100
H  52.93000 51.30400 43.25100
H  51.57100 53.32700 43.21000
H  52.34000 52.87500 44.78000
H  50.60500 52.66600 44.50800
H  46.29700 51.85000 42.39000
H  46.76500 51.84700 44.06000
H  45.21500 51.55400 43.66800
H  44.28400 46.74700 40.85700
H  40.77500 44.38700 42.37200
H  40.68900 46.05100 43.08800
H  41.74200 44.65500 43.75000
Mg 0.84100 43.00300 24.82400
C  2.98200 42.39400 27.65700
C  -1.89300 42.24200 26.92300
C  -1.26800 42.90500 22.21200
C  3.57400 43.21500 22.88500
N  0.67400 42.40500 27.05300
C  1.61500 42.40000 28.02200
C  0.93600 42.25500 29.43700
C  -0.56500 42.04100 29.09400
C  -0.62900 42.28000 27.55400
C  -1.05200 40.57800 29.45500
C  1.28400 43.46400 30.39400
C  1.82700 43.07200 31.84300
H  0.84600 43.03800 33.01600
N  -1.33500 42.81400 24.65200
C  -2.18500 42.35900 25.59100
C  -3.47900 42.01600 24.95000
C  -3.36800 42.36700 23.59100
C  -1.96300 42.71600 23.44700
C  -4.58400 41.39400 25.71900
C  -4.44200 42.22200 22.50300
O  -4.23800 42.46900 21.32200
C  -5.87700 41.82600 22.86700
N  1.09200 43.07700 22.83700
C  0.13100 43.08200 21.92900
C  0.75100 43.11600 20.49400
C  2.19300 43.58800 20.79900
C  2.31700 43.28600 22.27400
C  0.63300 41.87700 19.57200
C  2.56000 44.99200 20.36600
C  2.85100 45.10400 18.90900
N  2.82800 42.82800 25.14500
C  3.84800 42.97200 24.26700
C  5.20300 42.80000 24.90000
C  4.87600 42.57100 26.27600
C  3.48700 42.62400 26.34800
C  6.45100 42.77900 24.19400
C  5.52800 42.27800 27.58500
O  6.69900 42.28100 27.94900
C  4.25000 42.15200 28.57200
C  4.25200 40.98500 29.39300
O  3.85000 39.93500 28.96000
O  4.57100 41.23200 30.73400
C  4.36800 40.00500 31.58500
H  -2.79200 42.19900 27.54100
H  -1.87000 42.71000 21.32100
H  4.41500 43.38100 22.20900
H  1.37800 41.35000 29.85400
H  -1.21800 42.74100 29.61500
H  -1.36000 39.97800 28.59900
H  -1.98000 40.66000 30.02000
H  -0.26100 40.06300 30.00100
H  0.35900 44.01600 30.55900
H  1.86900 44.19600 29.83700
H  2.44200 43.91600 32.15400
H  2.42200 42.15900 31.80700
H  -4.25400 41.05800 26.70200
H  -5.07800 40.50800 25.32200
H  -5.36600 42.12800 25.91500
H  -5.86000 40.78200 23.18000
H  -6.48800 41.94300 21.97200
H  -6.32900 42.50800 23.58700
H  0.32900 43.98300 19.98600
H  2.83800 42.93300 20.21300
H  -0.39500 41.61600 19.31700
H  1.04600 41.01800 20.09900
H  1.20900 42.08800 18.67100
H  3.45600 45.17000 20.96000
H  1.75300 45.67800 20.62500
H  3.86800 45.33600 18.59300
H  2.18200 45.91200 18.61100
H  2.48300 44.30500 18.26500
H  7.28800 43.20600 24.74600
H  6.37300 43.36900 23.28100
H  6.66600 41.75600 23.88500
H  4.30800 43.02700 29.22000
H  4.53100 40.39000 32.59200
H  5.10100 39.25400 31.29100
H  3.31100 39.75800 31.48500

