158

Mg 47.08200 35.55800 28.45200
C  45.47300 33.70500 30.92400
C  47.30500 38.13100 30.73200
C  48.00600 37.59700 25.99500
C  46.32800 33.02100 26.15400
N  46.55400 35.83800 30.56400
C  45.97100 34.90300 31.41200
C  46.03800 35.42800 32.88500
C  46.12800 36.94800 32.71700
C  46.65000 36.99600 31.25700
C  44.84500 37.76700 33.01600
C  47.32100 34.80400 33.58200
C  46.99700 34.40700 35.03700
H  47.45500 35.47600 36.09300
N  47.80300 37.50800 28.45100
C  47.86800 38.37500 29.49600
C  48.50000 39.59900 28.92900
C  48.74200 39.39600 27.52600
C  48.18900 38.14000 27.27300
C  48.77400 40.73700 29.82100
C  49.45400 40.33300 26.50600
O  49.79600 40.04200 25.35600
C  49.79300 41.68300 26.89600
N  47.20500 35.38700 26.41700
C  47.55700 36.37300 25.57200
C  47.46300 35.82000 24.08600
C  47.00500 34.37800 24.18500
C  46.73800 34.25100 25.71400
C  46.69700 36.79800 23.08100
C  47.97100 33.36000 23.55600
C  47.35900 32.44600 22.54000
N  46.15500 33.68200 28.47200
C  46.01000 32.65800 27.51800
C  45.53000 31.44900 28.08800
C  45.24700 31.83700 29.40300
C  45.66500 33.19100 29.58000
C  45.20600 30.13600 27.42500
C  44.64200 31.37900 30.65600
O  44.16900 30.23900 30.92300
C  44.59700 32.66200 31.56800
C  45.03800 32.29500 32.98700
O  46.17900 31.82800 33.22300
O  43.92700 32.50200 33.81600
C  43.96800 31.90100 35.11800
H  47.39600 38.93500 31.46600
H  48.38100 38.23800 25.19300
H  46.23100 32.17400 25.47200
H  45.10800 35.15800 33.38500
H  46.79100 37.31400 33.50100
H  44.73400 38.51500 32.23100
H  44.97600 38.28100 33.96800
H  43.98300 37.10700 33.11700
H  48.00200 35.65200 33.50600
H  47.78400 33.96700 33.06000
H  47.56000 33.50300 35.26800
H  45.95000 34.14400 35.18900
H  49.86200 40.67900 29.85000
H  48.41500 40.59400 30.84000
H  48.56800 41.70000 29.35400
H  48.91600 42.14000 27.35500
H  50.11400 42.25700 26.02700
H  50.66200 41.73400 27.55100
H  48.47800 35.66200 23.72000
H  46.03700 34.26900 23.69700
H  46.08500 37.57300 23.54200
H  45.97400 36.23100 22.49400
H  47.40300 37.28900 22.41200
H  48.45600 32.75000 24.31800
H  48.75200 33.83500 22.96200
H  48.18000 32.25200 21.85000
H  46.45200 32.80300 22.05100
H  47.01900 31.53400 23.03000
H  44.33100 30.36400 26.81600
H  45.14500 29.35300 28.18000
H  46.04100 29.98600 26.74100
H  43.57200 33.00900 31.70400
H  43.68700 32.66500 35.84400
H  44.94500 31.46300 35.31900
H  43.18700 31.14100 35.10200
Mg -0.58000 42.74800 24.81100
C  1.94800 42.16900 27.26500
C  -2.88400 42.19400 27.30000
C  -2.89800 42.75100 22.45800
C  1.95800 42.98500 22.45200
N  -0.48900 42.26900 27.00100
C  0.60400 42.13400 27.80400
C  0.24400 41.99000 29.35400
C  -1.33900 41.62200 29.16600
C  -1.63000 42.03300 27.75000
C  -1.62600 40.06800 29.38200
C  0.66400 43.20800 30.25600
C  0.03200 43.38800 31.68200
H  -0.45400 42.11100 32.38300
N  -2.66900 42.54900 24.83400
C  -3.41700 42.32900 25.95300
C  -4.87700 42.26400 25.60200
C  -4.82900 42.31100 24.22400
C  -3.45100 42.54000 23.79000
C  -6.07100 42.02600 26.57500
C  -5.93200 42.17400 23.12600
O  -5.77000 42.14900 21.93100
C  -7.31400 42.12700 23.61600
N  -0.47000 42.82700 22.69200
C  -1.58300 42.79900 21.87900
C  -1.14000 42.98200 20.38600
C  0.41000 43.29200 20.53300
C  0.68000 43.09900 21.98900
C  -1.57500 41.77700 19.58500
C  0.89700 44.66800 19.91700
C  0.74400 45.94700 20.81200
N  1.54400 42.70000 24.85100
C  2.39000 42.91700 23.82600
C  3.79000 42.72500 24.32200
C  3.61100 42.62300 25.71100
C  2.28200 42.46000 25.93400
C  5.02200 42.83300 23.46900
C  4.31600 42.42800 26.94800
O  5.49300 42.35200 27.15200
C  3.21800 42.32000 28.03500
C  3.50400 41.22400 28.92400
O  3.43500 40.02200 28.70500
O  3.98600 41.75500 30.05600
C  4.31200 40.75100 31.08400
H  -3.64700 42.18500 28.08200
H  -3.61100 42.51300 21.66600
H  2.67200 43.30300 21.68800
H  0.83700 41.20200 29.81800
H  -1.97200 42.25000 29.79300
H  -2.40200 39.91800 30.13300
H  -0.70200 39.59300 29.71000
H  -1.78800 39.60500 28.40900
H  0.69400 44.16900 29.74300
H  1.71800 43.05100 30.48300
H  -0.87500 43.94400 31.44700
H  0.66200 43.94100 32.38000
H  -5.78900 41.90500 27.62100
H  -6.64900 41.12500 26.36800
H  -6.77100 42.85700 26.49000
H  -7.36000 42.96500 24.31000
H  -7.45900 41.20000 24.17100
H  -8.04300 42.23300 22.81200
H  -1.71800 43.86200 20.10400
H  0.95800 42.51900 19.99300
H  -0.68400 41.27400 19.21000
H  -2.43400 41.91100 18.92700
H  -1.92500 41.03000 20.29700
H  0.41800 44.93500 18.97600
H  1.94800 44.63300 19.63000
H  1.74700 46.36200 20.91500
H  0.25700 45.68900 21.75200
H  0.20100 46.79200 20.38800
H  4.88500 42.00600 22.77200
H  5.99400 42.63900 23.92200
H  5.09200 43.82900 23.03200
H  3.26100 43.28400 28.54100
H  3.52200 40.02100 31.26000
H  4.49000 41.26300 32.02900
H  5.28200 40.38900 30.74300

