158

Mg 0.07700 42.52900 25.89800
C  2.51100 42.24200 28.33600
C  -2.31700 41.62900 28.21400
C  -2.25400 42.68100 23.39300
C  2.64800 42.86900 23.49200
N  0.18500 41.89000 27.98400
C  1.20900 42.04000 28.85200
C  0.85100 41.64500 30.35100
C  -0.71400 41.33400 30.19100
C  -0.96700 41.56200 28.64300
C  -1.22200 39.99300 30.78800
C  1.23200 42.77100 31.35800
C  1.53000 42.17200 32.74500
H  0.79700 40.85000 33.21800
N  -1.98300 42.14900 25.76200
C  -2.79400 41.83000 26.85400
C  -4.14200 41.60100 26.42600
C  -4.15300 41.98600 25.01100
C  -2.77900 42.33200 24.64800
C  -5.34800 41.24500 27.20800
C  -5.28800 41.95800 24.07100
O  -5.21200 42.39700 22.92900
C  -6.66100 41.53700 24.49100
N  0.20700 42.89000 23.80900
C  -0.94500 42.91500 23.01600
C  -0.55500 43.13600 21.52900
C  1.00800 43.52100 21.59200
C  1.34800 43.12700 23.04500
C  -0.92200 42.03100 20.58300
C  1.39200 45.03500 21.31300
C  0.52500 46.19900 21.85500
N  2.16000 42.53300 25.86700
C  3.03200 42.64600 24.85400
C  4.42400 42.56300 25.46500
C  4.22500 42.51400 26.76200
C  2.83400 42.43100 26.97900
C  5.74000 42.46500 24.70500
C  4.91300 42.40100 28.02800
O  6.12500 42.35600 28.34000
C  3.81600 42.18800 29.03600
C  4.08300 40.97400 29.84300
O  4.01500 39.85900 29.37100
O  4.42600 41.22500 31.15500
C  4.64500 40.02600 31.94200
H  -3.12600 41.27700 28.85800
H  -2.82200 42.79100 22.46700
H  3.40100 43.16300 22.75900
H  1.50100 40.79700 30.56900
H  -1.31200 42.08200 30.71200
H  -0.37100 39.39200 31.10700
H  -1.74700 39.34600 30.08600
H  -1.95800 40.11500 31.58300
H  0.47100 43.54400 31.46800
H  2.16300 43.29100 31.13200
H  1.25600 42.91600 33.49300
H  2.60100 42.02000 32.88100
H  -6.02100 42.09500 27.32100
H  -5.00200 40.89500 28.18100
H  -5.90300 40.39400 26.81300
H  -6.74500 40.46700 24.67700
H  -7.33500 41.72400 23.65500
H  -6.92700 42.23400 25.28600
H  -1.09700 44.03600 21.23800
H  1.64300 42.89900 20.96000
H  -1.41700 41.18600 21.06200
H  -0.02700 41.70300 20.05600
H  -1.64500 42.53200 19.93900
H  1.65900 45.22100 20.27300
H  2.35700 45.18200 21.79800
H  0.30500 46.95500 21.10200
H  1.00300 46.61800 22.74000
H  -0.40600 45.75900 22.21300
H  6.63400 42.50300 25.32700
H  5.81900 43.39400 24.14100
H  5.92100 41.52800 24.17900
H  3.91700 43.08800 29.64300
H  3.64100 39.63600 32.10700
H  5.18200 40.45700 32.78700
H  5.31400 39.27600 31.51900
Mg -10.14400 17.54500 42.65300
C  -6.72300 16.53400 42.24600
C  -9.22600 20.65300 41.89100
C  -13.36800 18.00700 41.99900
C  -10.86900 13.95100 42.76000
N  -8.13500 18.44500 41.93500
C  -6.89100 17.90700 41.99300
C  -5.79000 19.10800 41.85700
C  -6.66100 20.33400 41.98000
C  -8.09000 19.78600 41.96200
C  -6.52500 21.40500 43.13600
C  -4.97800 19.04500 40.55400
C  -5.72000 18.52700 39.32000
H  -5.38700 19.01500 37.88900
N  -11.15900 19.14200 42.04700
C  -10.62700 20.36100 41.76800
C  -11.64700 21.26500 41.37200
C  -12.87700 20.50600 41.39800
C  -12.51300 19.18500 41.85600
C  -11.34900 22.69000 40.97900
C  -14.14400 21.12400 40.95800
O  -14.16400 22.25500 40.55700
C  -15.52200 20.44000 40.90600
N  -11.88700 16.17500 42.63000
C  -13.10500 16.69900 42.34000
C  -14.18800 15.59600 42.30200
C  -13.27600 14.33000 42.17700
C  -11.90200 14.86100 42.59800
C  -15.13700 15.46200 43.52000
C  -13.13700 13.71100 40.69900
C  -14.36900 12.89800 40.28000
N  -9.06200 15.62200 42.74500
C  -9.50900 14.30500 42.80600
C  -8.33600 13.49400 42.99900
C  -7.23500 14.34200 42.88200
C  -7.72800 15.63600 42.63700
C  -8.29900 12.07000 43.21000
C  -5.72300 14.42600 42.88500
O  -4.93100 13.55000 43.03200
C  -5.40300 15.88400 42.61400
C  -4.82600 16.51200 43.81100
O  -5.37800 16.76600 44.89800
O  -3.52200 16.89600 43.60100
C  -2.81800 17.50400 44.73200
H  -8.86500 21.66400 41.69600
H  -14.43600 18.12100 41.80000
H  -11.15100 12.89800 42.82900
H  -5.18300 19.06800 42.76200
H  -6.51300 20.96700 41.10500
H  -5.60100 21.16300 43.66200
H  -7.36600 21.34600 43.82700
H  -6.46100 22.43000 42.77000
H  -4.07400 18.46300 40.73300
H  -4.77400 20.09200 40.33100
H  -6.79600 18.51800 39.49400
H  -5.38000 17.50900 39.12700
H  -11.35600 22.79800 39.89400
H  -10.35500 23.02300 41.27800
H  -12.05800 23.42600 41.35800
H  -15.95500 20.46600 41.90600
H  -15.28400 19.48000 40.44900
H  -16.12300 20.98300 40.17700
H  -14.79100 15.68900 41.39900
H  -13.59700 13.54700 42.86400
H  -15.00200 14.52700 44.06400
H  -16.19700 15.55700 43.28700
H  -14.88500 16.31600 44.14900
H  -12.18100 13.21100 40.54600
H  -13.25900 14.53100 39.99100
H  -14.87400 13.54100 39.55800
H  -15.03700 12.63100 41.09900
H  -14.03600 11.93300 39.90000
H  -7.32000 11.59500 43.15000
H  -8.93500 11.63600 42.43900
H  -8.62400 11.83900 44.22400
H  -4.71400 15.97300 41.77400
H  -2.51000 18.39700 44.18900
H  -2.08300 16.75100 45.01700
H  -3.41500 17.76800 45.60500

