158

Mg 1.39400 -0.30500 44.31100
C  4.78000 0.15700 43.65600
C  0.80100 2.52800 42.55800
C  -1.80100 -1.20900 44.31800
C  2.17900 -3.45000 45.69300
N  2.71300 1.13400 43.18100
C  4.02200 1.17500 43.11300
C  4.49600 2.52200 42.41700
C  3.17300 3.38500 42.41400
C  2.16600 2.28600 42.71400
C  3.16800 4.54800 43.40400
C  4.98400 2.19000 40.90900
C  6.44100 2.62400 40.57000
H  6.47600 3.53200 39.30200
N  -0.28800 0.49800 43.44000
C  -0.37300 1.73500 42.82300
C  -1.77700 2.00500 42.57200
C  -2.47400 0.79800 42.87700
C  -1.48900 -0.10700 43.56100
C  -2.30900 3.29800 42.05000
C  -3.89000 0.48500 42.48800
O  -4.65500 1.34100 42.04500
C  -4.33000 -0.92200 42.42700
N  0.29600 -1.99800 45.21200
C  -1.04200 -2.13600 45.04100
C  -1.59600 -3.53000 45.53000
C  -0.22400 -4.22200 45.92000
C  0.82800 -3.14600 45.67500
C  -2.66600 -3.35600 46.64900
C  0.13100 -5.60400 45.15100
C  0.34600 -6.75200 46.16600
N  3.11600 -1.37400 44.76800
C  3.30600 -2.66900 45.22700
C  4.72400 -2.99200 45.26400
C  5.34200 -1.87300 44.71600
C  4.32500 -0.97500 44.33800
C  5.22900 -4.28500 45.84500
C  6.65000 -1.38500 44.38200
O  7.80500 -1.85400 44.49200
C  6.32000 0.05600 43.79900
C  6.93800 1.12100 44.63600
O  6.32100 1.83100 45.41500
O  8.32200 1.14600 44.43000
C  8.98300 2.24900 45.16600
H  0.69900 3.54100 42.16400
H  -2.83600 -1.52400 44.47000
H  2.39100 -4.47500 46.00400
H  5.35200 2.94800 42.94000
H  2.94700 3.81800 41.44000
H  2.93400 5.45600 42.84900
H  4.13100 4.70600 43.89000
H  2.54500 4.53200 44.29800
H  4.33800 2.68900 40.18700
H  4.98200 1.13300 40.64500
H  7.03300 1.71800 40.43700
H  7.01300 3.15200 41.33400
H  -1.56100 4.05800 42.27500
H  -3.20100 3.50200 42.64300
H  -2.48400 3.23500 40.97600
H  -5.25400 -0.93300 41.84900
H  -4.50400 -1.17300 43.47400
H  -3.52200 -1.51400 41.99800
H  -2.17900 -4.03700 44.76100
H  -0.11500 -4.37800 46.99300
H  -2.34800 -3.91800 47.52700
H  -3.67400 -3.72200 46.45200
H  -2.78300 -2.36400 47.08500
H  1.04200 -5.64000 44.55400
H  -0.64400 -5.85200 44.42600
H  -0.34500 -6.60600 46.99600
H  1.39100 -6.84400 46.46200
H  -0.09200 -7.67700 45.79100
H  6.31400 -4.29700 45.94100
H  4.78400 -5.06600 45.22800
H  4.85800 -4.26400 46.87000
H  6.80700 0.12800 42.82600
H  8.85200 2.13100 46.24100
H  8.67100 3.23400 44.81700
H  10.04600 2.05900 45.01600
Mg 41.58400 7.30900 29.32800
C  43.16100 9.13500 31.97200
C  38.95300 6.68500 31.45300
C  40.14500 5.47200 26.95600
C  44.33600 7.93000 27.40700
N  41.19700 7.83500 31.45800
C  41.92800 8.58900 32.33900
C  41.28500 8.58900 33.77000
C  40.01300 7.64300 33.59000
C  40.08500 7.34600 32.03700
C  40.02900 6.32200 34.34100
C  40.94800 10.02500 34.12500
C  39.90800 10.22200 35.33600
H  40.27500 11.01000 36.60900
N  39.78400 6.25400 29.23600
C  38.85600 6.15600 30.15400
C  37.71400 5.41600 29.59600
C  37.98700 5.11800 28.21500
C  39.37100 5.58800 28.11700
C  36.49600 5.03400 30.51200
C  37.19400 4.38200 27.13900
O  37.63700 4.07100 26.04400
C  35.79100 3.98300 27.46000
N  42.08500 6.87700 27.50200
C  41.38400 5.98200 26.70800
C  42.16800 5.59800 25.39800
C  43.34600 6.67000 25.48200
C  43.24700 7.21300 26.89900
C  42.55900 4.07200 25.42300
C  43.25000 7.72600 24.40700
C  42.14300 8.78600 24.53100
N  43.46300 8.29800 29.63600
C  44.42800 8.42100 28.69700
C  45.48700 9.21100 29.28800
C  45.02600 9.51900 30.62600
C  43.74600 8.97600 30.71700
C  46.74000 9.62700 28.64200
C  45.35600 10.23300 31.88800
O  46.34200 10.98200 32.10600
C  44.15300 9.88100 32.86000
C  44.74400 9.06800 34.01600
O  45.38200 8.07000 33.87400
O  44.32100 9.54100 35.20900
C  44.44000 8.56200 36.33300
H  38.22100 6.49300 32.24100
H  39.74800 4.84500 26.15400
H  45.15500 7.94700 26.68400
H  41.91800 8.17800 34.55800
H  39.02800 8.06700 33.78700
H  39.12500 6.22400 34.94200
H  40.78000 6.27200 35.12900
H  40.10600 5.49400 33.63600
H  40.49600 10.46500 33.23600
H  41.85700 10.54400 34.42600
H  39.67900 9.21300 35.67800
H  38.98300 10.66700 34.97100
H  35.58200 5.28100 29.97300
H  36.49500 5.38800 31.54300
H  36.41400 3.94900 30.57700
H  35.93900 3.19400 28.19700
H  35.08600 3.67000 26.69000
H  35.33400 4.80900 28.00500
H  41.50000 5.70900 24.54300
H  44.30900 6.23300 25.22000
H  42.19900 3.52500 26.29500
H  43.63800 3.95500 25.52400
H  42.20600 3.54100 24.53900
H  42.95200 7.20900 23.49400
H  44.25100 8.12500 24.24400
H  41.58000 8.94000 23.61100
H  42.65700 9.71200 24.78900
H  41.37200 8.51300 25.25100
H  47.18600 8.69300 28.29900
H  47.45300 10.00600 29.37400
H  46.57600 10.35900 27.85100
H  43.71000 10.72700 33.38500
H  45.48400 8.60500 36.64200
H  44.15200 7.54700 36.05800
H  43.76500 8.91500 37.11200

