158

Mg -10.01800 16.96600 40.44500
C  -6.60900 16.84400 40.54400
C  -9.76700 20.35800 39.57300
C  -13.40000 17.04400 39.95900
C  -10.05800 13.48900 40.44500
N  -8.35200 18.34600 39.96100
C  -7.07600 18.05000 40.10500
C  -6.26500 19.22300 39.53500
C  -7.17000 20.43900 39.74400
C  -8.50400 19.71300 39.75300
C  -6.95000 21.30900 40.98700
C  -5.79100 18.94200 38.07100
C  -4.37800 18.61500 37.66000
H  -4.14500 17.22900 37.01400
N  -11.38200 18.53400 39.92200
C  -11.08300 19.86600 39.54600
C  -12.30800 20.56900 39.28300
C  -13.37600 19.61400 39.44900
C  -12.72100 18.33200 39.82200
C  -12.27700 22.02200 38.99900
C  -14.79100 19.91200 39.36000
O  -15.10400 21.08400 39.13600
C  -15.87000 18.96200 39.59200
N  -11.47900 15.49300 40.18700
C  -12.85600 15.76700 40.06300
C  -13.68500 14.47500 39.98300
C  -12.51000 13.33500 39.95300
C  -11.25600 14.16500 40.19800
C  -14.67100 14.23600 41.10800
C  -12.33000 12.57000 38.58200
C  -12.39500 11.00400 38.63600
N  -8.67500 15.36900 40.57100
C  -8.82700 14.09400 40.64100
C  -7.46200 13.46200 40.98600
C  -6.58300 14.54100 41.06600
C  -7.37000 15.63200 40.70800
C  -7.30300 11.99400 41.20600
C  -5.20900 14.94900 41.25600
O  -4.25700 14.26300 41.66500
C  -5.10900 16.42700 40.82400
C  -4.62600 17.36500 41.93400
O  -5.30200 18.17500 42.53600
O  -3.32900 17.10800 42.24300
C  -2.73800 18.01100 43.24000
H  -9.60500 21.38900 39.25100
H  -14.44700 17.01300 39.65100
H  -10.18500 12.40500 40.47200
H  -5.38000 19.24900 40.17100
H  -7.25700 21.17200 38.94200
H  -6.04800 21.00600 41.51800
H  -7.80200 21.18000 41.65500
H  -6.75600 22.34300 40.70500
H  -6.02300 19.79500 37.43400
H  -6.41600 18.16000 37.64000
H  -3.75500 18.72000 38.54800
H  -4.14500 19.32500 36.86700
H  -12.25200 22.59300 39.92700
H  -13.03100 22.25300 38.24700
H  -11.32800 22.28300 38.52900
H  -15.70100 18.51800 40.57300
H  -15.86100 18.20200 38.81000
H  -16.84600 19.44500 39.56600
H  -14.27800 14.46100 39.06800
H  -12.67200 12.64200 40.77900
H  -14.47300 14.93900 41.91700
H  -14.55400 13.20300 41.43400
H  -15.71100 14.48300 40.89200
H  -11.34200 12.78700 38.17400
H  -13.00900 12.91400 37.80200
H  -12.00800 10.70800 39.61100
H  -11.63900 10.58200 37.97300
H  -13.39800 10.62300 38.44500
H  -6.47100 11.66100 41.82700
H  -7.15100 11.46600 40.26500
H  -8.12200 11.51300 41.74100
H  -4.53100 16.53800 39.90700
H  -2.80400 18.98600 42.75700
H  -1.69400 17.91700 43.54100
H  -3.36100 17.99200 44.13400
Mg -4.89400 25.57400 26.29800
C  -4.23900 27.20600 29.34700
C  -6.56300 23.15800 28.07800
C  -5.88300 24.29200 23.42200
C  -3.01100 27.95000 24.69700
N  -5.22900 25.17500 28.51400
C  -5.00800 26.03300 29.54300
C  -5.62500 25.62200 30.83600
C  -6.19600 24.21200 30.43900
C  -5.91000 24.04900 28.93200
C  -5.63400 22.93500 31.20200
C  -6.72200 26.64800 31.38500
C  -6.83600 26.72900 32.92400
H  -6.09400 25.68700 33.77900
N  -5.97000 23.96500 25.86100
C  -6.59700 23.06200 26.69300
C  -7.45000 22.14500 26.00400
C  -7.39200 22.53600 24.62700
C  -6.45100 23.62500 24.52700
C  -8.26500 21.10600 26.70900
C  -8.14000 21.91200 23.57700
O  -8.06500 22.35400 22.45500
C  -8.89700 20.67300 23.72700
N  -4.22300 25.93900 24.34300
C  -4.89900 25.32500 23.31800
C  -4.32600 25.85300 21.97700
C  -3.66600 27.23800 22.37900
C  -3.71100 27.05100 23.91500
C  -3.40000 24.80000 21.35500
C  -4.25600 28.55800 21.77900
C  -3.62700 29.15700 20.52800
N  -3.81800 27.23200 26.85600
C  -3.08300 28.11800 26.08900
C  -2.49400 29.15600 26.90400
C  -2.93500 28.82300 28.14100
C  -3.78200 27.66300 28.09200
C  -1.63800 30.27800 26.56000
C  -2.88000 29.25900 29.60200
O  -2.34600 30.19200 30.17600
C  -3.79300 28.19800 30.41200
C  -2.83900 27.57900 31.39400
O  -2.25700 26.51400 31.26100
O  -2.75600 28.36400 32.46200
C  -1.92600 27.77500 33.51400
H  -7.04900 22.42300 28.72400
H  -6.13700 23.82500 22.46800
H  -2.50900 28.75300 24.15300
H  -4.83600 25.45600 31.57000
H  -7.26400 24.27700 30.64800
H  -6.42300 22.66700 31.90400
H  -4.79200 23.21700 31.83400
H  -5.25300 22.17100 30.52500
H  -7.73100 26.46400 31.01700
H  -6.50700 27.66100 31.04400
H  -7.87400 26.80200 33.24900
H  -6.47800 27.72100 33.19700
H  -7.79100 20.14700 26.49600
H  -9.27100 21.02400 26.29700
H  -8.48900 21.22100 27.76900
H  -9.11500 20.21300 22.76300
H  -9.87400 20.87300 24.16700
H  -8.24300 20.01200 24.29500
H  -5.10000 26.00100 21.22500
H  -2.60800 27.25000 22.12100
H  -2.38100 25.18300 21.41100
H  -3.55600 24.58100 20.29800
H  -3.28800 23.96500 22.04700
H  -4.09000 29.23200 22.62000
H  -5.33400 28.41700 21.70600
H  -3.17500 30.12700 20.73500
H  -4.27000 29.37400 19.67500
H  -2.85500 28.46300 20.19700
H  -1.63300 30.36000 25.47300
H  -0.67300 30.04000 27.00800
H  -2.08700 31.16400 27.00900
H  -4.64600 28.71600 30.84900
H  -1.77000 28.59000 34.22000
H  -0.92300 27.55500 33.15000
H  -2.46000 26.89300 33.86800

