158

Mg -2.41000 17.16800 26.39200
C  -2.97500 14.82400 28.95700
C  -2.81300 19.76100 28.51800
C  -2.20500 19.21100 23.79500
C  -2.73400 14.40400 24.12100
N  -2.89600 17.25400 28.53900
C  -3.15000 16.13900 29.37900
C  -3.30100 16.68500 30.83700
C  -3.48900 18.20800 30.56600
C  -3.05700 18.45800 29.12000
C  -4.90300 18.81300 31.07700
C  -2.16400 16.28500 31.71700
C  -1.85600 17.15900 32.98900
H  -1.34000 16.47100 34.29100
N  -2.37900 19.21200 26.18100
C  -2.52500 20.10900 27.21300
C  -2.39600 21.42100 26.65800
C  -2.23200 21.25500 25.27000
C  -2.21800 19.82400 25.01100
C  -2.49700 22.68600 27.45000
C  -2.03700 22.38300 24.22400
O  -2.10100 22.16500 22.98400
C  -1.91200 23.80500 24.66000
N  -2.42500 16.84900 24.22900
C  -2.27400 17.89800 23.34500
C  -2.33300 17.42400 21.86300
C  -2.84300 15.98700 22.01800
C  -2.61100 15.66800 23.50700
C  -3.09900 18.40300 20.99800
C  -2.21300 14.93700 21.08500
C  -3.14300 14.33600 20.01400
N  -2.64600 15.02800 26.43900
C  -2.60800 14.04900 25.41700
C  -2.56700 12.76400 26.05000
C  -2.63800 13.02700 27.42800
C  -2.77300 14.40600 27.63800
C  -2.46300 11.41000 25.25900
C  -2.65300 12.34400 28.69500
O  -2.43300 11.14900 28.96200
C  -2.82900 13.48100 29.76300
C  -1.56800 13.47400 30.59800
O  -0.50300 13.96700 30.31000
O  -1.74900 12.61100 31.70500
C  -0.51300 12.47900 32.50500
H  -3.02700 20.51900 29.27500
H  -1.92700 19.83000 22.93900
H  -2.87700 13.51000 23.51000
H  -4.13400 16.15100 31.29500
H  -2.75100 18.79700 31.11000
H  -4.69400 19.41100 31.96300
H  -5.52500 17.93600 31.25600
H  -5.43100 19.43900 30.35700
H  -1.22500 16.23900 31.16500
H  -2.35400 15.24700 31.98900
H  -2.67400 17.77600 33.36200
H  -1.17100 17.96300 32.71900
H  -1.54400 23.21200 27.49500
H  -2.68300 22.40400 28.48600
H  -3.31500 23.30300 27.07900
H  -2.82700 24.11000 25.16600
H  -1.74300 24.45000 23.79800
H  -1.00400 23.85800 25.26100
H  -1.30700 17.39500 21.49700
H  -3.92500 16.00500 21.88500
H  -3.91600 17.84300 20.54200
H  -2.48600 18.84500 20.21300
H  -3.60600 19.26900 21.42400
H  -1.88100 14.14400 21.75500
H  -1.27500 15.24700 20.62600
H  -2.88600 14.79800 19.06100
H  -4.17600 14.46300 20.33800
H  -3.04600 13.25800 19.88800
H  -1.84000 11.75800 24.43500
H  -3.42800 11.06500 24.88800
H  -2.03700 10.62600 25.88500
H  -3.68700 13.30200 30.41000
H  -0.87100 12.24500 33.50800
H  -0.01400 13.44700 32.55700
H  0.02800 11.71700 31.94500
Mg 26.06900 0.58300 30.10700
C  28.12000 0.73200 33.02000
C  23.29600 1.08700 32.22200
C  24.02800 0.05900 27.59900
C  28.85000 -0.19600 28.16800
N  25.74300 0.72900 32.42500
C  26.69900 0.85700 33.37100
C  26.12000 1.32900 34.75400
C  24.64500 1.35500 34.40400
C  24.54600 0.99800 32.94200
C  23.71500 0.46200 35.33300
C  26.70300 2.69700 35.19200
C  27.64100 2.62200 36.38200
H  27.08000 3.08600 37.73900
N  23.93300 0.64200 29.94900
C  23.01900 0.90700 30.89800
C  21.71000 0.85300 30.28500
C  21.83800 0.64400 28.91600
C  23.30400 0.42400 28.73800
C  20.40900 1.08100 31.06900
C  20.77200 0.58400 27.81400
O  21.06100 0.35700 26.61700
C  19.35300 0.60100 28.13800
N  26.41400 0.18200 28.12000
C  25.36800 -0.04400 27.29400
C  25.82200 -0.40700 25.89500
C  27.36900 0.01800 25.96400
C  27.62000 -0.07800 27.45000
C  25.52900 -1.83400 25.54300
C  27.88700 1.38900 25.36200
C  28.59400 1.27500 24.02400
N  28.07900 0.27800 30.45800
C  29.09600 -0.04600 29.56400
C  30.38400 -0.03800 30.26700
C  30.02500 0.24600 31.62800
C  28.60900 0.42400 31.69900
C  31.71700 -0.37600 29.75200
C  30.50600 0.41400 32.94900
O  31.67800 0.47600 33.32800
C  29.29700 0.66800 33.89300
C  29.27100 -0.57600 34.64000
O  28.45500 -1.50400 34.50500
O  30.23100 -0.54800 35.65000
C  30.08800 -1.50000 36.70600
H  22.53900 1.30000 32.98000
H  23.37000 -0.15300 26.75300
H  29.76300 -0.46700 27.63400
H  26.33500 0.61500 35.54900
H  24.18700 2.34300 34.44500
H  23.24500 -0.34500 34.77100
H  22.85600 1.08000 35.59300
H  24.20800 0.05100 36.21400
H  25.91200 3.40000 35.45100
H  27.26200 3.21300 34.41100
H  28.46900 3.30300 36.18500
H  28.02500 1.62800 36.61100
H  19.65500 0.37600 30.71900
H  20.12400 2.12500 30.93900
H  20.51100 0.81900 32.12200
H  18.70200 0.60100 27.26400
H  19.15100 1.48300 28.74500
H  19.12500 -0.24800 28.78300
H  25.27100 0.20700 25.18300
H  27.96400 -0.79000 25.53900
H  25.01000 -2.35000 26.35000
H  26.46400 -2.33000 25.28200
H  24.98800 -1.90400 24.59900
H  28.51800 1.96800 26.03700
H  26.95600 1.94100 25.23600
H  27.89600 1.34100 23.19000
H  29.13500 0.32900 24.00400
H  29.45500 1.93900 24.10200
H  31.83300 -0.81700 28.76200
H  31.99400 -1.16800 30.44800
H  32.30700 0.53600 29.66600
H  29.44800 1.65600 34.32800
H  29.88800 -2.51000 36.34900
H  29.16400 -1.23400 37.22000
H  30.95600 -1.50100 37.36500

