158

Mg 8.28100 3.85300 27.72600
C  9.59400 2.41400 30.52400
C  6.01800 5.63900 29.81500
C  6.93100 5.31600 24.99000
C  10.02400 1.60000 25.65500
N  7.77000 3.91100 30.01400
C  8.61600 3.35400 30.91100
C  8.26600 3.95900 32.29300
C  6.99400 4.89400 32.04000
C  6.84600 4.75800 30.52000
C  5.63100 4.43100 32.76700
C  9.52900 4.47300 33.15300
C  9.12600 5.25800 34.37000
H  9.30100 4.73700 35.83300
N  6.72600 5.31300 27.41200
C  5.94000 5.86100 28.41300
C  5.05300 6.79400 27.79700
C  5.38200 6.84400 26.41400
C  6.41900 5.79900 26.22000
C  3.92900 7.51700 28.57700
C  4.84500 7.75300 25.31300
O  5.08200 7.48800 24.15900
C  4.04800 8.94000 25.76800
N  8.40700 3.45500 25.57400
C  7.71000 4.19300 24.68900
C  7.94200 3.64000 23.27600
C  8.99400 2.43800 23.49200
C  9.15800 2.45200 24.99200
C  6.73900 3.21000 22.42600
C  10.28300 2.54900 22.66400
C  10.55600 1.33000 21.80600
N  9.52100 2.27500 27.97500
C  10.23500 1.50000 27.07200
C  10.85600 0.44400 27.78600
C  10.80000 0.82500 29.13500
C  9.89200 1.90300 29.23000
C  11.49200 -0.81600 27.18600
C  11.29000 0.52100 30.49100
O  12.09100 -0.32200 30.90100
C  10.57900 1.59500 31.45700
C  9.97100 0.75400 32.43900
O  9.02000 0.01800 32.17000
O  10.54200 0.97700 33.63700
C  9.82300 0.35800 34.72600
H  5.58700 6.31100 30.56000
H  6.70000 5.94200 24.12500
H  10.53100 0.86000 25.03200
H  7.91500 3.13400 32.91200
H  7.14800 5.91800 32.37900
H  4.88000 4.03900 32.08100
H  5.07200 5.25500 33.21000
H  5.82400 3.68400 33.53700
H  10.20700 4.95600 32.44900
H  9.88400 3.52000 33.54700
H  8.08600 5.58000 34.39200
H  9.61500 6.23100 34.39700
H  3.80100 7.08200 29.56800
H  2.97200 7.49600 28.05500
H  4.19300 8.56500 28.72000
H  4.44200 9.42700 26.66000
H  3.11800 8.39900 25.94100
H  3.99600 9.61700 24.91500
H  8.44300 4.47300 22.78200
H  8.56800 1.44700 23.33600
H  5.90200 3.59100 23.01000
H  6.67000 2.19900 22.02500
H  6.79500 3.89200 21.57700
H  11.15400 2.53900 23.32000
H  10.31800 3.47500 22.09000
H  9.63200 0.91100 21.41000
H  11.19600 0.70500 22.42900
H  11.18300 1.57900 20.95000
H  11.82700 -0.65300 26.16200
H  10.80700 -1.66200 27.22900
H  12.41400 -1.04500 27.72200
H  11.22500 2.31000 31.96700
H  9.06000 -0.34000 34.38300
H  9.35500 1.06900 35.40700
H  10.62300 -0.21100 35.20000
Mg 35.64300 2.92000 29.78100
C  33.33600 3.74600 32.23400
C  38.03200 2.63600 32.38700
C  37.80500 2.00400 27.50900
C  33.02400 2.85700 27.39000
N  35.67700 3.07100 32.03600
C  34.57700 3.42200 32.77100
C  34.95700 3.51600 34.27700
C  36.50200 3.36300 34.30800
C  36.74400 2.86300 32.88900
C  37.35000 4.64400 34.61200
C  34.28800 2.38100 35.13100
C  33.51000 2.72600 36.48100
H  34.13600 3.81000 37.46000
N  37.62900 2.54900 29.91100
C  38.42700 2.41400 31.02400
C  39.80800 2.12500 30.59300
C  39.81200 2.04100 29.12400
C  38.41100 2.22900 28.78500
C  40.90200 1.93300 31.52600
C  40.96300 1.74500 28.14100
O  40.77800 1.94500 26.98300
C  42.27700 1.19200 28.68800
N  35.41100 2.32300 27.76500
C  36.46100 2.00700 27.07400
C  36.14000 1.59300 25.59800
C  34.53900 1.69700 25.64100
C  34.26500 2.33800 26.99000
C  36.91600 2.27400 24.44400
C  33.64300 0.34300 25.47000
C  32.38500 0.36900 24.66800
N  33.67200 3.41000 29.71200
C  32.68400 3.35700 28.66700
C  31.36500 3.70900 29.20800
C  31.54800 3.96200 30.55800
C  32.97300 3.62200 30.84700
C  30.10100 3.77600 28.45300
C  31.02600 4.39800 31.78300
O  29.90200 4.76900 32.04100
C  32.06300 4.22600 32.91800
C  32.07500 5.43500 33.80700
O  32.66900 6.51700 33.58200
O  31.29800 5.19700 34.95000
C  31.38000 6.28200 35.98200
H  38.83000 2.52300 33.12400
H  38.44500 1.63700 26.70500
H  32.25700 2.70300 26.62800
H  34.57200 4.48200 34.60400
H  36.94700 2.64100 34.99400
H  38.07800 4.89400 33.84100
H  37.75800 4.64900 35.62300
H  36.69400 5.50600 34.49700
H  34.99500 1.59100 35.38300
H  33.63400 1.86400 34.42900
H  33.15000 1.83200 36.99200
H  32.61900 3.18300 36.05100
H  40.66300 1.05500 32.12700
H  40.91100 2.67500 32.32400
H  41.88700 1.88600 31.06100
H  42.85700 1.99600 29.14200
H  42.95800 0.67700 28.01100
H  41.94100 0.37500 29.32700
H  36.29800 0.52300 25.46200
H  34.16400 2.47900 24.98100
H  37.46500 3.05600 24.96800
H  36.20200 2.75900 23.77800
H  37.57200 1.54300 23.97200
H  33.34300 -0.02600 26.45000
H  34.33000 -0.31500 24.93700
H  32.53800 -0.20500 23.75500
H  32.10600 1.35700 24.30100
H  31.54800 0.04100 25.28600
H  29.31100 3.14400 28.85700
H  30.28800 3.55700 27.40200
H  29.66400 4.76900 28.34700
H  31.64600 3.50600 33.62200
H  30.73400 7.05300 35.56300
H  32.42400 6.53400 36.16600
H  30.94600 5.93500 36.92000

