158

Mg -1.83700 17.14900 26.39800
C  -1.86500 14.92000 29.00300
C  -2.94200 19.63400 28.51600
C  -1.90600 19.21500 23.68900
C  -1.23900 14.41000 24.14100
N  -2.52700 17.20700 28.41100
C  -2.27100 16.26700 29.33200
C  -2.62000 16.73500 30.76000
C  -3.34900 18.12100 30.49000
C  -2.89200 18.35900 29.10500
C  -4.85100 18.06000 30.64900
C  -1.39500 16.80300 31.76800
C  -1.60600 17.67700 33.04300
H  -1.27000 16.98500 34.40800
N  -2.29200 19.07400 26.19900
C  -2.79500 19.96200 27.16100
C  -2.86100 21.31400 26.63000
C  -2.43900 21.17700 25.25100
C  -2.20300 19.80500 24.96700
C  -3.28400 22.47100 27.47400
C  -2.31700 22.30800 24.17000
O  -2.18000 22.07900 22.94300
C  -2.33200 23.80300 24.54500
N  -1.64900 16.83500 24.30200
C  -1.75100 17.83600 23.39500
C  -1.31700 17.34600 22.03400
C  -0.81000 15.95500 22.24500
C  -1.28100 15.68900 23.68500
C  -2.41000 17.55600 20.90500
C  0.66300 15.59100 22.00000
C  1.65500 16.35000 22.73700
N  -1.62000 15.06400 26.45800
C  -1.38400 14.12800 25.46800
C  -1.25400 12.84100 26.15900
C  -1.37300 13.11600 27.56100
C  -1.66400 14.47100 27.67300
C  -1.03900 11.51300 25.54500
C  -1.25200 12.55400 28.82800
O  -1.03500 11.42300 29.26400
C  -1.79300 13.61400 29.79000
C  -1.01500 13.55400 31.13000
O  0.12900 13.98400 31.23500
O  -1.60600 12.71000 32.03300
C  -0.79700 12.33600 33.22200
H  -3.39100 20.43200 29.11200
H  -1.73600 19.81400 22.79200
H  -0.90900 13.66600 23.41300
H  -3.28000 15.96000 31.14900
H  -3.00600 18.88400 31.18800
H  -5.37400 18.94800 31.00400
H  -5.13800 17.41900 31.48200
H  -5.22500 17.58500 29.74200
H  -0.58800 17.23600 31.17800
H  -1.13400 15.81000 32.13600
H  -2.55200 18.21700 33.04000
H  -0.84700 18.45900 33.04000
H  -4.02200 22.29400 28.25700
H  -3.74000 23.29000 26.91800
H  -2.38300 22.82400 27.97600
H  -1.92700 23.88200 25.55400
H  -3.38800 24.07100 24.58800
H  -1.80400 24.38100 23.78700
H  -0.38000 17.82200 21.74400
H  -1.32800 15.22600 21.62100
H  -2.13100 18.43300 20.32000
H  -3.42700 17.72200 21.26000
H  -2.52200 16.75500 20.17400
H  0.80400 16.00500 21.00100
H  0.72000 14.50400 21.95700
H  1.13000 16.75400 23.60200
H  2.00100 17.17300 22.11100
H  2.46500 15.71600 23.09700
H  -0.91200 11.64600 24.47000
H  -2.02300 11.06100 25.66300
H  -0.37700 10.79700 26.03400
H  -2.77100 13.18200 30.00000
H  0.20700 11.97800 32.99500
H  -1.45300 11.64700 33.75500
H  -0.56500 13.25500 33.75900
Mg 47.10300 34.57000 27.74300
C  45.37000 32.91900 30.15400
C  47.59800 37.24000 29.93100
C  48.32800 36.45200 25.24400
C  46.41700 32.06400 25.50000
N  46.59100 35.02400 29.81000
C  45.86700 34.11500 30.61500
C  46.02700 34.57100 32.14300
C  46.23500 36.11300 31.90000
C  46.82500 36.17300 30.44400
C  44.91800 36.97200 32.04800
C  47.17200 33.81900 32.82200
C  47.02500 33.68200 34.35500
H  46.02800 34.54300 35.13900
N  47.91100 36.57600 27.59100
C  48.05600 37.45700 28.63400
C  48.66600 38.65900 28.06900
C  48.81100 38.42700 26.70600
C  48.30700 37.17200 26.45800
C  49.02400 39.78000 28.97900
C  49.40300 39.31500 25.67900
O  49.28200 39.17300 24.47700
C  49.94800 40.59300 26.17700
N  47.22600 34.35300 25.63800
C  47.86400 35.20300 24.86800
C  48.15200 34.68700 23.46100
C  47.72800 33.19600 23.64300
C  47.06800 33.15600 25.02900
C  47.43500 35.46600 22.38500
C  48.79100 32.13900 23.68800
C  48.67300 30.90500 22.72800
N  46.03100 32.82200 27.73100
C  45.84100 31.84300 26.75500
C  45.24800 30.69400 27.32400
C  44.91700 31.15600 28.64900
C  45.45400 32.38900 28.89100
C  45.04700 29.35600 26.72500
C  44.33800 30.70800 29.84700
O  43.73900 29.67600 30.17500
C  44.44200 31.89400 30.83000
C  44.77900 31.40100 32.21500
O  45.68400 30.57200 32.47700
O  43.94600 31.85000 33.09900
C  44.15600 31.46500 34.46700
H  47.65800 38.02100 30.69200
H  48.67500 36.93000 24.32600
H  46.33500 31.23200 24.79800
H  45.09100 34.53000 32.70000
H  47.00200 36.45300 32.59600
H  43.94300 36.49300 31.97100
H  44.88300 37.72800 31.26300
H  45.00100 37.58900 32.94300
H  48.11000 34.32500 32.59600
H  47.24900 32.82400 32.38500
H  48.00400 34.01500 34.69900
H  46.90600 32.63200 34.62500
H  50.05800 40.12200 28.91900
H  48.68900 39.68800 30.01200
H  48.42300 40.67600 28.82700
H  49.21200 41.11400 26.78800
H  50.02200 41.19700 25.27300
H  50.93300 40.57400 26.64500
H  49.23300 34.68900 23.32100
H  47.05200 32.91600 22.83400
H  46.83500 36.23700 22.86900
H  46.71400 34.89200 21.80200
H  48.11600 35.71000 21.57000
H  48.99600 31.64300 24.63700
H  49.69000 32.65900 23.35600
H  47.74000 30.87500 22.16500
H  48.70800 29.92400 23.20200
H  49.49000 31.02100 22.01700
H  45.67800 29.08200 25.87900
H  44.01800 29.26000 26.38000
H  45.23400 28.73400 27.60100
H  43.47000 32.38800 30.83400
H  44.14600 30.41700 34.76800
H  43.41000 31.96800 35.08200
H  45.15400 31.76800 34.78500

