158

Mg 6.01900 53.60000 40.70300
C  4.87400 50.26600 40.39100
C  9.14400 52.66100 39.60700
C  6.84800 56.79700 40.70800
C  2.66700 54.47700 41.11600
N  6.88600 51.70800 40.10300
C  6.23700 50.48700 40.05900
C  7.27400 49.45000 39.71700
C  8.66300 50.19300 39.94200
C  8.18600 51.62300 39.81800
C  9.47700 49.75200 41.21000
C  7.18400 48.82900 38.29100
C  7.00100 49.74600 37.10100
H  6.14200 49.17600 35.96600
N  7.79100 54.65700 40.21500
C  8.94300 54.05700 39.77100
C  9.89100 55.14000 39.49500
C  9.36100 56.34900 40.03300
C  7.95000 55.97100 40.34100
C  11.25300 54.81500 38.97600
C  10.08900 57.70100 40.20700
O  11.24200 57.81600 39.83300
C  9.50400 58.76400 41.08300
N  4.94100 55.34500 40.68900
C  5.53600 56.49900 40.88200
C  4.51700 57.61700 40.94300
C  3.13600 56.94600 41.06900
C  3.63200 55.47400 40.99300
C  4.75100 58.64800 42.06700
C  2.03200 57.28700 40.01700
C  0.65800 57.59800 40.61600
N  4.14800 52.62700 40.75300
C  2.86000 53.07600 40.96400
C  1.93300 52.01300 41.18500
C  2.72400 50.86100 40.92300
C  4.02500 51.31900 40.67100
C  0.47400 52.07600 41.51600
C  2.68100 49.40800 40.83800
O  1.79400 48.67800 41.22900
C  4.08300 48.98100 40.46100
C  3.95400 48.17400 39.28900
O  3.51400 48.54700 38.21500
O  4.20100 46.86500 39.57300
C  3.84300 45.90500 38.48000
H  10.11500 52.26700 39.29800
H  7.04800 57.84700 40.48600
H  1.65700 54.71000 41.46100
H  7.14600 48.72900 40.52500
H  9.33500 50.11200 39.08700
H  9.39500 50.53500 41.96500
H  10.52500 49.64000 40.93200
H  9.15200 48.79800 41.62500
H  6.48800 47.99500 38.37700
H  8.10600 48.28400 38.08900
H  8.06600 49.86700 36.90100
H  6.66400 50.73200 37.42100
H  11.16200 54.13000 38.13400
H  11.87000 54.48700 39.81300
H  11.69200 55.74000 38.60300
H  10.13900 59.39000 41.71100
H  8.76400 58.27400 41.71400
H  8.96800 59.27100 40.28100
H  4.59200 58.07600 39.95800
H  2.80200 57.23100 42.06700
H  3.79200 59.13500 42.24300
H  5.41900 59.47800 41.83600
H  5.14000 58.18000 42.97200
H  2.03600 56.54700 39.21600
H  2.24800 58.27300 39.60500
H  0.44100 58.65500 40.46100
H  0.66000 57.34000 41.67500
H  -0.08600 57.01300 40.07600
H  0.60100 52.17500 42.59500
H  -0.13200 51.22100 41.21600
H  0.02800 52.98500 41.11300
H  4.52400 48.39000 41.26300
H  2.80400 45.98500 38.16000
H  4.27700 44.97100 38.83500
H  4.56300 46.17200 37.70600
Mg 9.74200 47.29400 24.80600
C  7.78400 47.38500 27.68300
C  12.32900 48.87100 26.63200
C  11.52400 47.28300 22.06600
C  6.95200 46.15000 22.98900
N  10.07700 47.91500 27.00100
C  9.11900 47.81800 27.98100
C  9.69800 48.44100 29.25700
C  10.95600 49.31300 28.80700
C  11.17400 48.66300 27.40000
C  10.86500 50.86400 28.74000
C  10.02300 47.30700 30.24700
C  9.89200 47.58300 31.78400
H  9.67200 46.37900 32.71700
N  11.70400 47.93200 24.45400
C  12.55600 48.53600 25.31300
C  13.79300 48.73000 24.52200
C  13.62400 48.23100 23.22900
C  12.24500 47.74800 23.17200
C  15.05900 49.20600 25.17900
C  14.66000 48.24900 22.09000
O  14.49000 47.74900 20.93100
C  15.90700 49.04400 22.22600
N  9.26700 46.75600 22.78200
C  10.25000 46.83500 21.83100
C  9.77900 46.27700 20.50000
C  8.21000 46.02300 20.72900
C  8.08000 46.37500 22.23200
C  10.22300 47.13100 19.19900
C  7.81500 44.63000 20.46300
C  8.35500 43.59000 21.50600
N  7.78400 46.83500 25.18300
C  6.78500 46.43600 24.36800
C  5.52900 46.28800 25.14500
C  5.85000 46.66300 26.45600
C  7.23400 46.99000 26.41500
C  4.20200 46.06200 24.69500
C  5.36000 46.83900 27.79300
O  4.24900 46.60600 28.28900
C  6.66000 47.16400 28.65000
C  6.87800 46.01700 29.60300
O  7.34200 44.97000 29.33500
O  6.49900 46.22900 30.84000
C  6.41000 45.10500 31.78400
H  13.19800 49.29400 27.14100
H  12.22900 47.04900 21.26500
H  6.15900 45.66500 22.41500
H  8.94600 49.06000 29.74600
H  11.77400 49.04800 29.47800
H  11.22300 51.16200 27.75500
H  11.43400 51.38500 29.50900
H  9.78200 50.97300 28.79800
H  11.03800 46.99300 30.00000
H  9.36900 46.44700 30.10600
H  9.15500 48.36400 31.97100
H  10.86900 47.88900 32.16000
H  15.88500 48.66300 24.71900
H  15.01500 49.25600 26.26700
H  15.16200 50.28300 25.04500
H  16.26100 49.37800 21.25100
H  16.64800 48.39900 22.69800
H  15.73300 49.88800 22.89400
H  10.23100 45.28600 20.45100
H  7.57200 46.66500 20.12200
H  9.53900 47.97000 19.06700
H  10.15600 46.49500 18.31700
H  11.21200 47.56500 19.34600
H  8.18600 44.30100 19.49200
H  6.72900 44.59500 20.38200
H  8.70400 42.70600 20.97100
H  7.54300 43.35800 22.19600
H  9.19700 43.90000 22.12400
H  4.06800 46.90900 24.02300
H  3.49900 46.05800 25.52800
H  4.11500 45.09300 24.20200
H  6.56700 48.08600 29.22400
H  7.25400 44.43200 31.63500
H  5.45400 44.61200 31.60300
H  6.48300 45.42600 32.82300

