158

Mg 7.83400 2.97000 28.16400
C  9.62700 1.56200 30.95300
C  6.38100 5.09100 30.18300
C  6.47800 4.24300 25.42000
C  9.93600 0.90600 26.09600
N  7.80000 3.04700 30.40700
C  8.68400 2.51500 31.35000
C  8.47300 3.12400 32.68400
C  7.35200 4.11400 32.49100
C  7.07600 4.10100 30.93800
C  6.06700 3.84400 33.30200
C  9.76400 3.77000 33.40800
C  9.59700 4.91000 34.44400
H  10.36200 4.66800 35.75100
N  6.52400 4.40400 27.85800
C  6.09000 5.25400 28.79000
C  5.35000 6.40000 28.21000
C  5.32300 6.08300 26.77400
C  6.12600 4.85400 26.63500
C  4.60000 7.44100 29.02700
C  4.70900 6.87300 25.61200
O  4.87200 6.66900 24.42300
C  3.77600 7.96800 25.88200
N  8.19300 2.60400 26.07300
C  7.37100 3.14800 25.12900
C  7.78600 2.74700 23.66600
C  9.07700 1.85900 23.91800
C  9.00100 1.71700 25.43000
C  6.64100 2.07100 22.92200
C  10.34400 2.35300 23.24600
C  11.45000 3.01900 24.14400
N  9.35500 1.47000 28.37400
C  10.09300 0.83400 27.42100
C  11.11200 0.04700 28.05900
C  10.96200 0.24200 29.47500
C  9.90500 1.15500 29.59800
C  12.07800 -0.83700 27.32600
C  11.42900 -0.06700 30.79600
O  12.36700 -0.80000 31.10400
C  10.48300 0.70400 31.80200
C  9.68400 -0.11100 32.74800
O  8.82200 -0.94200 32.46200
O  10.14700 0.02800 34.00300
C  9.40900 -0.67300 35.05000
H  6.10000 5.86500 30.90100
H  6.15300 4.68700 24.47700
H  10.63400 0.38800 25.43500
H  8.31300 2.17900 33.20300
H  7.72000 5.11100 32.73400
H  5.37300 4.67600 33.42000
H  6.39000 3.34900 34.21800
H  5.38700 3.20900 32.73500
H  10.47200 4.10200 32.64900
H  10.31600 3.01600 33.97000
H  8.57700 5.18000 34.71700
H  10.06000 5.79500 34.00600
H  5.07200 8.41000 28.86100
H  4.82000 7.17700 30.06100
H  3.55300 7.63500 28.79300
H  3.05100 7.54000 26.57500
H  3.17500 8.25600 25.01900
H  4.34200 8.80600 26.28800
H  8.04000 3.65900 23.12400
H  8.87100 0.81900 23.66300
H  5.74300 2.00200 23.53600
H  6.95300 1.10200 22.53400
H  6.24000 2.61000 22.06300
H  10.16600 2.88900 22.31300
H  10.77400 1.39200 22.96500
H  11.07500 3.28000 25.13400
H  11.92800 3.86600 23.65300
H  12.21200 2.27200 24.36500
H  12.52100 -0.43000 26.41600
H  11.71100 -1.83800 27.10000
H  12.95400 -0.90100 27.97100
H  11.15500 1.40900 32.29200
H  8.46100 -1.16500 34.83400
H  9.21800 0.08900 35.80600
H  10.19400 -1.30000 35.47300
Mg 45.69200 4.36300 47.48300
C  43.38400 6.99300 46.73800
C  42.98200 2.16300 46.96100
C  47.80900 1.82800 47.65600
C  48.18200 6.66200 47.27000
N  43.35700 4.59100 46.69200
C  42.67400 5.74600 46.61700
C  41.19600 5.45700 46.46200
C  41.06000 3.93700 46.73200
C  42.57200 3.55300 46.82500
C  40.13900 3.52200 47.86200
C  40.69200 6.05100 45.13000
C  39.25000 6.53600 45.21300
H  38.55400 6.68600 43.88400
N  45.43100 2.27300 47.30600
C  44.26700 1.59700 47.16200
C  44.54800 0.21000 47.18600
C  45.97800 0.04600 47.41200
C  46.46000 1.40900 47.56400
C  43.45800 -0.83500 47.05100
C  46.64200 -1.24100 47.56100
O  46.08600 -2.28600 47.27200
C  48.07500 -1.31600 48.01500
N  47.70700 4.22500 47.30600
C  48.36300 3.11100 47.61900
C  49.82800 3.37700 48.01800
C  49.98900 4.88000 47.62100
C  48.49800 5.32500 47.42100
C  50.04100 2.94200 49.49800
C  50.89000 5.15400 46.40600
C  51.83200 6.39600 46.43300
N  45.85400 6.45300 47.15100
C  46.96300 7.25000 47.14000
C  46.52600 8.62000 46.99900
C  45.13300 8.50300 46.95200
C  44.77800 7.21300 46.90500
C  47.41800 9.84400 46.98200
C  43.92700 9.27000 46.87000
O  43.78700 10.47100 46.87600
C  42.80500 8.32100 46.73000
C  41.84300 8.54700 47.85700
O  41.92200 7.93400 48.90300
O  40.88600 9.56100 47.53800
C  39.92100 9.95900 48.65800
H  42.20200 1.43900 46.71700
H  48.62800 1.12000 47.79800
H  49.11500 7.19600 47.45700
H  40.57300 5.95300 47.20600
H  40.68200 3.46200 45.82700
H  39.72600 4.33500 48.45900
H  40.74400 2.85600 48.47800
H  39.32100 2.95500 47.41900
H  41.00200 5.32900 44.37500
H  41.35000 6.88800 44.90000
H  39.25600 7.56000 45.58800
H  38.69100 5.87100 45.87100
H  43.02200 -0.78300 46.05300
H  42.62600 -0.56200 47.70000
H  43.67800 -1.86800 47.31800
H  48.76100 -0.91900 47.26700
H  48.30500 -2.33200 48.33500
H  48.10200 -0.69600 48.91100
H  50.47300 2.73300 47.42100
H  50.45600 5.42200 48.44300
H  50.87400 2.24800 49.61000
H  49.10300 2.52700 49.86500
H  50.32400 3.81800 50.08400
H  50.25600 5.16600 45.52000
H  51.58700 4.33200 46.24400
H  52.79600 6.07500 46.82700
H  51.51800 7.22100 47.07300
H  51.75800 6.66300 45.37900
H  47.82500 9.99700 45.98300
H  48.15700 9.63700 47.75700
H  46.96600 10.79600 47.26100
H  42.27100 8.52900 45.80200
H  39.53900 10.92700 48.33500
H  40.32200 10.09000 49.66300
H  39.02500 9.34500 48.75600

