158

Mg 35.14300 3.15100 30.30100
C  32.91400 3.91700 32.73100
C  37.67500 2.87200 32.80100
C  37.56800 2.65700 27.93700
C  32.77100 3.61900 27.81600
N  35.20400 3.38800 32.48800
C  34.12500 3.72900 33.26400
C  34.53000 3.84100 34.76700
C  36.13100 3.92400 34.64200
C  36.37100 3.35500 33.22100
C  36.64200 5.37500 34.90600
C  34.02600 2.62800 35.50800
C  33.65400 2.85700 36.93500
H  34.29300 4.03800 37.80200
N  37.29500 2.71300 30.39000
C  38.08700 2.56000 31.53400
C  39.35600 2.12700 31.08700
C  39.43800 2.15300 29.71700
C  38.05900 2.51100 29.25800
C  40.31900 1.60700 32.18800
C  40.62700 1.73800 28.76300
O  40.52400 1.89500 27.58200
C  41.89900 1.23500 29.50900
N  35.26800 3.28100 28.20200
C  36.26100 2.88000 27.44900
C  35.93300 2.93500 25.92700
C  34.36400 2.86700 25.92300
C  34.09100 3.25900 27.38800
C  36.63400 4.03800 25.16500
C  33.92900 1.35700 25.82500
C  33.60000 0.94500 24.38100
N  33.24900 3.55400 30.18500
C  32.35200 3.75700 29.10400
C  31.01600 4.15000 29.61100
C  31.14500 4.09000 31.00400
C  32.55100 3.82000 31.34300
C  29.89700 4.42100 28.69900
C  30.42900 4.39300 32.21800
O  29.24300 4.53400 32.42600
C  31.54200 4.30500 33.36900
C  31.50800 5.64300 33.86700
O  31.63700 6.70000 33.25700
O  31.09700 5.71100 35.18200
C  30.85600 7.00600 35.90300
H  38.40100 2.73900 33.60600
H  38.26700 2.48400 27.11500
H  31.99300 3.44000 27.07100
H  34.09600 4.73700 35.21100
H  36.67000 3.27900 35.33600
H  35.77600 6.01400 34.73800
H  37.44200 5.68600 34.23400
H  36.98100 5.54100 35.92900
H  34.67200 1.79600 35.22600
H  33.01200 2.44800 35.15100
H  34.08000 2.04000 37.51700
H  32.56900 2.90700 37.02800
H  41.12700 0.99600 31.78500
H  39.80100 0.98200 32.91600
H  40.85300 2.39900 32.71300
H  42.29100 1.92500 30.25600
H  42.65500 1.19600 28.72500
H  41.66600 0.22400 29.84300
H  36.43400 2.03300 25.57500
H  33.81800 3.46000 25.19000
H  35.92000 4.52200 24.50000
H  37.43000 3.55700 24.59600
H  37.18700 4.78600 25.73400
H  32.96200 1.24900 26.31600
H  34.60600 0.59100 26.20400
H  33.91500 1.76500 23.73500
H  32.56700 0.67500 24.16300
H  34.23200 0.07900 24.18300
H  29.02800 4.61800 29.32700
H  29.73000 3.52000 28.11000
H  30.07900 5.35900 28.17500
H  31.39100 3.59500 34.18200
H  29.86100 7.09800 36.33800
H  31.09100 7.90900 35.34000
H  31.54500 7.07000 36.74600
Mg -0.21600 42.91900 25.96400
C  1.91300 42.95800 28.69400
C  -2.92400 42.51400 28.11500
C  -2.19000 42.66700 23.27100
C  2.57800 43.09300 23.92000
N  -0.38700 42.89600 28.11100
C  0.55600 42.90800 29.09900
C  0.01700 42.96900 30.49200
C  -1.55300 42.70300 30.22900
C  -1.60800 42.56900 28.68600
C  -2.18000 41.38500 30.79400
C  0.36500 44.39900 31.14800
C  0.90700 44.35800 32.54700
H  0.64400 43.15400 33.41500
N  -2.24300 42.57000 25.72200
C  -3.20100 42.46700 26.73000
C  -4.52300 42.46900 26.08600
C  -4.22400 42.26600 24.72000
C  -2.84200 42.44400 24.53100
C  -5.79000 42.43600 26.90600
C  -5.24800 41.85200 23.71400
O  -4.91100 41.70700 22.58300
C  -6.71400 41.62100 24.15300
N  0.17000 42.84500 23.94800
C  -0.79600 42.67800 23.01700
C  -0.24200 42.73600 21.53500
C  1.27200 43.00000 21.79600
C  1.36500 42.89500 23.26800
C  -0.50600 41.53200 20.57700
C  1.74600 44.42900 21.33500
C  3.06300 44.47800 20.65300
N  1.87000 42.92500 26.17300
C  2.85800 43.04600 25.28200
C  4.15600 43.00900 25.93300
C  3.83500 43.05400 27.25300
C  2.40600 43.01700 27.36200
C  5.53900 42.96900 25.20900
C  4.44300 43.17400 28.51000
O  5.60200 43.34400 28.82500
C  3.20300 43.02100 29.50600
C  3.33300 41.77800 30.37000
O  3.09600 40.56900 30.09800
O  4.00200 42.13100 31.54200
C  4.41900 40.99500 32.32700
H  -3.74100 42.46100 28.83800
H  -2.81700 42.82600 22.39100
H  3.49900 43.03600 23.33600
H  0.44600 42.09900 30.99000
H  -2.18200 43.52000 30.58200
H  -2.60800 40.78400 29.99200
H  -2.97500 41.62600 31.49900
H  -1.55900 40.81100 31.48100
H  -0.44900 45.12200 31.09300
H  1.11100 44.78300 30.45300
H  0.39800 45.15200 33.09400
H  1.99500 44.39800 32.60300
H  -6.60400 43.12400 26.67700
H  -5.47500 42.49600 27.94800
H  -6.13600 41.41200 26.76600
H  -6.84300 40.69300 24.71000
H  -7.17600 41.60300 23.16600
H  -7.25400 42.41100 24.67400
H  -0.71100 43.62600 21.11400
H  1.87500 42.22700 21.32000
H  -0.87000 40.62200 21.05400
H  0.44800 41.22700 20.14600
H  -1.09200 41.78300 19.69300
H  1.75100 45.10400 22.19100
H  1.03400 44.85800 20.63000
H  3.82000 43.71400 20.82900
H  3.55600 45.43700 20.81200
H  2.72200 44.51300 19.61800
H  6.12100 42.08000 25.45000
H  6.01000 43.92300 25.44800
H  5.40800 42.93500 24.12700
H  3.27600 43.81000 30.25400
H  4.68500 41.33400 33.32800
H  5.38400 40.66800 31.94000
H  3.75400 40.14800 32.49300

