158

Mg -12.76400 38.97000 42.37400
C  -10.83500 35.99300 41.57600
C  -10.68900 40.70800 40.18500
C  -14.69800 41.59000 42.77400
C  -15.16000 36.80500 43.72400
N  -10.92000 38.39700 41.07400
C  -10.25600 37.18800 41.03600
C  -8.96000 37.36800 40.26300
C  -8.95900 38.92400 39.90700
C  -10.31000 39.34800 40.35800
C  -7.75200 39.75800 40.46100
C  -8.83100 36.41100 38.99500
C  -7.57400 35.52700 39.00000
H  -6.65500 35.56300 37.65800
N  -12.66100 40.94400 41.65000
C  -11.74300 41.46600 40.76300
C  -12.13500 42.85000 40.34200
C  -13.34400 43.14100 41.14400
C  -13.63300 41.89700 41.89500
C  -11.73200 43.71200 39.16700
C  -14.12900 44.42100 41.05200
O  -13.75600 45.45700 40.50300
C  -15.42100 44.62300 41.76200
N  -14.64300 39.21800 43.16200
C  -15.21500 40.43800 43.30800
C  -16.63100 40.30600 43.92200
C  -16.78400 38.77800 44.18300
C  -15.48600 38.20000 43.57800
C  -16.86400 41.19200 45.19100
C  -18.10600 38.15600 43.81200
C  -18.78900 37.07100 44.68800
N  -12.87800 36.78500 42.75800
C  -13.95800 36.09700 43.35500
C  -13.70300 34.74500 43.36500
C  -12.46800 34.63800 42.78200
C  -11.97200 35.95700 42.38500
C  -14.65100 33.67500 43.81000
C  -11.47400 33.64700 42.30900
O  -11.40200 32.46400 42.43500
C  -10.40000 34.46100 41.44800
C  -9.05400 34.28600 42.06300
O  -8.26500 33.43600 41.70200
O  -8.73400 35.25000 42.94100
C  -7.42300 35.13700 43.60000
H  -10.03500 41.40400 39.65600
H  -15.49900 42.30200 42.98600
H  -15.86300 36.02200 44.01500
H  -8.15000 37.17800 40.96700
H  -8.85100 39.05300 38.83000
H  -7.00200 39.68000 39.67400
H  -7.31400 39.23600 41.31200
H  -8.01300 40.79600 40.66800
H  -8.80600 36.96300 38.05600
H  -9.69600 35.75300 38.91900
H  -7.93600 34.50300 39.09200
H  -6.99400 35.66700 39.91200
H  -12.58300 43.65400 38.48700
H  -10.78300 43.39600 38.73400
H  -11.50600 44.75500 39.39100
H  -16.08000 43.85200 41.36300
H  -15.79500 45.57300 41.38000
H  -15.37400 44.59700 42.85100
H  -17.41600 40.64300 43.24500
H  -16.66600 38.44300 45.21300
H  -17.43500 42.05900 44.85900
H  -15.91100 41.50400 45.61800
H  -17.29500 40.67200 46.04700
H  -17.98800 37.73900 42.81200
H  -18.92500 38.87100 43.74400
H  -18.84800 36.10200 44.19300
H  -19.80300 37.32600 44.99800
H  -18.23500 36.86900 45.60500
H  -14.67500 33.68300 44.89900
H  -14.32500 32.73700 43.36100
H  -15.58700 33.81200 43.26900
H  -10.25900 34.19600 40.40000
H  -6.89700 36.09200 43.58700
H  -6.78000 34.33400 43.23900
H  -7.46800 34.82600 44.64300
Mg 0.56000 41.73600 25.74400
C  1.55500 41.96800 29.10300
C  -2.54500 40.64300 26.88700
C  -0.42900 41.51300 22.64300
C  3.86400 42.50700 24.77400
N  -0.39200 41.40100 27.75000
C  0.19400 41.70400 28.97200
C  -0.82400 41.51000 30.18800
C  -1.98900 40.67600 29.41200
C  -1.63600 40.83300 27.88300
C  -2.17100 39.18700 29.89800
C  -1.18300 42.80400 31.00300
C  -0.72800 42.74900 32.43300
H  -1.27200 41.55900 33.31600
N  -1.23000 41.27000 24.92600
C  -2.40900 40.77700 25.49000
C  -3.39100 40.32100 24.47900
C  -2.77600 40.74200 23.22000
C  -1.40200 41.22700 23.54500
C  -4.64100 39.49500 24.82700
C  -3.49200 40.81400 21.83100
O  -2.94400 41.21300 20.75900
C  -4.87500 40.34700 21.74900
N  1.54200 41.89800 23.98700
C  0.92000 41.85200 22.76600
C  1.88200 41.87500 21.63900
C  3.20700 42.47300 22.33100
C  2.87600 42.20800 23.78500
C  2.11800 40.53500 20.88900
C  3.53000 43.91100 22.06600
C  3.93600 44.24700 20.63200
N  2.44800 41.99900 26.69200
C  3.68100 42.36400 26.15200
C  4.61900 42.50700 27.27800
C  3.78800 42.45400 28.40900
C  2.52600 42.10400 28.05200
C  6.03700 42.94100 27.10600
C  3.73600 42.58000 29.88100
O  4.61400 42.91600 30.65900
C  2.34200 42.20600 30.39000
C  2.44800 41.01400 31.17800
O  2.64200 39.86800 30.76500
O  2.28700 41.33000 32.51700
C  2.34800 40.20200 33.50800
H  -3.51000 40.38500 27.32900
H  -0.80400 41.29500 21.64100
H  4.85200 42.89700 24.52300
H  -0.26700 40.82500 30.82800
H  -2.91300 41.21100 29.63600
H  -1.89000 38.53500 29.07100
H  -3.13300 38.91600 30.33400
H  -1.38000 38.98400 30.62000
H  -2.24900 43.01800 31.08000
H  -0.73300 43.63000 30.45300
H  -1.00800 43.72000 32.84100
H  0.36100 42.76700 32.45500
H  -5.41600 40.05800 24.30600
H  -4.72300 39.53400 25.91300
H  -4.61600 38.53600 24.31000
H  -4.95900 39.31600 22.09300
H  -5.07700 40.36000 20.67800
H  -5.45400 41.15700 22.19200
H  1.60600 42.50800 20.79500
H  4.08600 41.87600 22.08600
H  1.86100 39.68100 21.51400
H  3.17000 40.40600 20.63500
H  1.56400 40.44100 19.95500
H  4.30300 44.40800 22.65200
H  2.67500 44.54400 22.30600
H  3.10300 44.69500 20.09000
H  4.16100 43.32500 20.09600
H  4.75500 44.96500 20.66600
H  6.12400 43.64000 26.27400
H  6.73100 42.11300 26.95900
H  6.45200 43.42600 27.98900
H  2.14400 43.12400 30.94400
H  2.13700 40.78200 34.40700
H  3.27900 39.67900 33.72400
H  1.63900 39.40800 33.27400

