158

Mg -0.31900 6.82600 26.46200
C  0.58200 8.96700 29.16700
C  -0.13400 4.08000 28.41700
C  -0.29100 4.99800 23.55200
C  0.22600 9.78000 24.34700
N  0.16800 6.62100 28.52700
C  0.26400 7.63600 29.47200
C  0.18600 7.00800 30.87800
C  0.09300 5.52000 30.62000
C  -0.00800 5.38800 29.09000
C  1.25800 4.57600 31.06700
C  -1.00200 7.57500 31.74200
C  -0.90100 7.59300 33.30200
H  0.30900 7.06800 33.98100
N  -0.28100 4.83700 26.05500
C  -0.25200 3.83000 27.05200
C  -0.28000 2.55400 26.39700
C  -0.26400 2.78500 24.99600
C  -0.24500 4.26000 24.76700
C  -0.38100 1.27200 27.17100
C  -0.38500 1.75500 23.90000
O  -0.31000 2.10100 22.72100
C  -0.70300 0.34500 24.10200
N  -0.14000 7.32100 24.26600
C  -0.22700 6.37400 23.31200
C  -0.28000 6.97800 21.83600
C  -0.07300 8.47200 22.10000
C  0.05600 8.53600 23.68400
C  0.91700 6.48400 20.94500
C  -1.17700 9.47800 21.58400
C  -2.53800 9.50500 22.38900
N  0.23700 8.98000 26.66800
C  0.44000 10.00900 25.74900
C  0.81400 11.22100 26.44800
C  0.74900 10.83200 27.77400
C  0.42300 9.51400 27.87500
C  1.11200 12.49700 25.87700
C  1.09800 11.33900 29.11400
O  1.50400 12.42500 29.51100
C  0.84500 10.14400 30.07900
C  2.03000 9.90900 31.00100
O  3.05500 9.25500 30.73700
O  1.64600 10.62000 32.15600
C  2.62400 10.65700 33.20500
H  -0.28500 3.21800 29.07000
H  -0.24500 4.49700 22.58300
H  0.31700 10.63300 23.67100
H  1.14600 7.18900 31.36200
H  -0.79300 5.08500 31.08100
H  2.07300 5.09300 31.57200
H  1.69600 4.19100 30.14600
H  0.92200 3.72500 31.65900
H  -1.82200 6.97400 31.34800
H  -1.17300 8.57100 31.33400
H  -1.77900 7.14000 33.76200
H  -0.97100 8.66200 33.50700
H  -1.34000 0.83600 26.89200
H  -0.32500 1.32100 28.25800
H  0.33300 0.53900 26.79400
H  -1.65500 0.35600 24.63300
H  0.18300 -0.13900 24.51200
H  -0.91700 -0.23600 23.20600
H  -1.20600 6.54800 21.45500
H  0.86900 8.79400 21.65500
H  1.48100 7.29600 20.48600
H  0.50100 5.80500 20.20100
H  1.56200 5.98300 21.66700
H  -1.30900 9.21600 20.53400
H  -0.62200 10.41100 21.68700
H  -2.44300 10.20200 23.22100
H  -2.79800 8.53600 22.81500
H  -3.31200 9.87200 21.71500
H  0.26400 12.88300 25.31100
H  2.00200 12.32900 25.27100
H  1.53500 13.16400 26.62900
H  -0.04700 10.42300 30.64100
H  2.76600 11.67800 33.55700
H  3.59600 10.23900 32.94300
H  2.26900 10.04200 34.03200
Mg 1.51800 42.28300 25.90300
C  3.87900 42.01100 28.54100
C  -0.96100 41.54300 28.20100
C  -0.50900 41.80900 23.38100
C  4.22400 42.89500 23.74000
N  1.53500 41.88400 28.03000
C  2.52700 41.88700 28.92700
C  2.04400 41.90100 30.33700
C  0.54600 41.57400 30.27400
C  0.36200 41.69500 28.73600
C  0.24500 40.16300 30.93900
C  2.27400 43.31400 30.96000
C  2.58000 43.41500 32.44000
H  2.10000 42.22000 33.38200
N  -0.48100 41.79900 25.80300
C  -1.27200 41.38000 26.85100
C  -2.58800 40.92700 26.33400
C  -2.59100 41.08000 24.97200
C  -1.18600 41.58300 24.67800
C  -3.65000 40.35000 27.34400
C  -3.67400 40.86200 23.90400
O  -3.50100 41.11100 22.71700
C  -5.04600 40.27900 24.45700
N  1.84500 42.22200 23.86200
C  0.81200 42.22800 23.01100
C  1.27700 42.35300 21.52100
C  2.73400 43.02700 21.74200
C  2.92800 42.74800 23.25300
C  1.44200 41.00000 20.78400
C  2.70900 44.56600 21.43700
C  3.35800 45.09500 20.07600
N  3.65500 42.48100 26.02800
C  4.64900 42.73700 25.11600
C  5.89100 42.77500 25.78000
C  5.62100 42.51600 27.12700
C  4.27500 42.27900 27.21200
C  7.23100 43.14200 25.23300
C  6.29500 42.33800 28.44300
O  7.43800 42.35700 28.81700
C  5.08700 42.19700 29.40800
C  5.36500 41.12200 30.48200
O  5.08400 39.96100 30.32400
O  6.04800 41.64000 31.55500
C  6.23800 40.78900 32.68400
H  -1.75100 41.35900 28.93200
H  -1.25100 41.62000 22.60200
H  4.94200 43.29600 23.02200
H  2.64000 41.22400 30.95100
H  -0.03800 42.33100 30.79800
H  -0.01400 39.45300 30.15300
H  -0.63300 40.28600 31.57200
H  1.01300 39.82100 31.63300
H  1.37800 43.90400 30.76800
H  3.06300 43.84000 30.42200
H  1.99900 44.20800 32.91000
H  3.66200 43.49200 32.53800
H  -4.73400 40.35600 27.22900
H  -3.60200 40.92900 28.26700
H  -3.41200 39.31300 27.58100
H  -4.77300 39.37700 25.00500
H  -5.64000 40.05200 23.57200
H  -5.51500 41.03600 25.08600
H  0.58400 43.05100 21.05100
H  3.44900 42.46600 21.13900
H  2.43100 40.81500 20.36300
H  0.84700 41.15100 19.88300
H  0.94100 40.14200 21.23000
H  3.16300 45.11800 22.26000
H  1.65100 44.82100 21.50300
H  2.73700 45.90500 19.69500
H  3.38300 44.30500 19.32500
H  4.31000 45.58900 20.26900
H  7.46600 44.18800 25.42900
H  7.16600 43.14200 24.14500
H  8.09500 42.59600 25.60900
H  5.06800 43.15900 29.92000
H  7.27000 40.44000 32.65100
H  5.60700 39.90100 32.71200
H  6.27400 41.40400 33.58300

