158

Mg 26.12000 1.56100 29.22900
C  28.04900 1.22200 32.14400
C  23.42800 2.25000 31.30300
C  24.21600 1.40100 26.64100
C  28.84700 0.27800 27.39000
N  25.86700 1.77700 31.51900
C  26.74600 1.53200 32.47400
C  26.24200 1.95800 33.85000
C  24.71600 2.19800 33.63100
C  24.64300 2.00600 32.02800
C  23.78700 1.25300 34.55200
C  26.88800 3.20500 34.39600
C  27.19400 3.07100 35.91900
H  26.77200 4.16400 36.97400
N  24.11800 1.87600 28.98900
C  23.16100 2.21000 29.92800
C  21.83000 2.32200 29.33900
C  22.01800 2.00200 27.99400
C  23.49800 1.80900 27.82500
C  20.48000 2.63800 30.04600
C  21.05800 1.98000 26.85500
O  21.36000 1.76900 25.69600
C  19.66100 2.39000 27.14700
N  26.51500 0.85800 27.27600
C  25.50300 0.93900 26.40200
C  25.99100 0.74100 24.95300
C  27.55200 0.66000 25.16700
C  27.64800 0.55300 26.65500
C  25.25500 -0.37100 24.11700
C  28.40000 1.89700 24.68100
C  29.58500 1.48800 23.74300
N  28.09400 0.80900 29.60500
C  29.11900 0.42300 28.77100
C  30.34700 0.29600 29.53300
C  30.02700 0.54400 30.89700
C  28.59500 0.84700 30.89300
C  31.60000 -0.14300 28.84500
C  30.49000 0.58400 32.24700
O  31.56200 0.41400 32.81700
C  29.26800 1.00900 33.08600
C  28.94000 -0.07600 34.16300
O  28.36800 -1.07500 33.94500
O  29.28500 0.35600 35.43900
C  29.15000 -0.58900 36.47200
H  22.52900 2.35800 31.91400
H  23.64500 1.42900 25.71000
H  29.68400 0.05900 26.72400
H  26.19300 1.18000 34.61200
H  24.41400 3.22200 33.85500
H  22.83300 1.02600 34.07600
H  23.70600 1.79100 35.49600
H  24.14700 0.24700 34.77200
H  26.33400 4.12400 34.20700
H  27.86100 3.45800 33.97500
H  28.28400 3.09600 35.90700
H  26.76200 2.12000 36.23000
H  20.60400 2.95100 31.08300
H  19.77400 1.81100 30.10700
H  19.95100 3.37200 29.43800
H  19.25700 1.77500 27.95100
H  19.07800 2.20200 26.24600
H  19.50500 3.46700 27.20900
H  25.69200 1.66500 24.46000
H  28.00300 -0.28000 24.84800
H  24.80400 0.04100 23.21400
H  24.42500 -0.76900 24.70100
H  25.95100 -1.15400 23.81600
H  28.81000 2.42300 25.54300
H  27.80800 2.60100 24.09600
H  30.58100 1.60800 24.16900
H  29.52800 2.04600 22.80800
H  29.48600 0.45800 23.40200
H  32.17800 0.63900 28.35200
H  31.41300 -0.85800 28.04400
H  32.23300 -0.72200 29.51700
H  29.51600 1.88400 33.68600
H  30.12000 -0.65300 36.96500
H  28.87600 -1.62000 36.24900
H  28.42700 -0.38000 37.26100
Mg 9.04300 48.16200 25.56700
C  6.87000 48.79000 28.19800
C  11.67600 48.64800 27.65100
C  10.94200 47.64100 23.02000
C  6.13700 47.97900 23.54900
N  9.23000 48.77200 27.66100
C  8.24100 48.88700 28.59900
C  8.82500 48.99900 30.03900
C  10.31800 49.33800 29.72300
C  10.43300 48.94500 28.24900
C  10.72300 50.82000 29.97600
C  8.66100 47.70100 30.92200
C  9.46300 47.58200 32.20300
H  8.71700 46.75100 33.33800
N  11.04800 48.20000 25.31600
C  12.01400 48.33000 26.34700
C  13.34000 48.18600 25.80400
C  13.11900 47.71400 24.47800
C  11.68800 47.93800 24.17000
C  14.60500 48.35200 26.57800
C  14.12400 47.13200 23.48800
O  13.72900 46.63400 22.43400
C  15.60700 47.00200 23.67000
N  8.60400 48.09700 23.51900
C  9.63100 47.81100 22.65000
C  9.01200 47.39500 21.34000
C  7.46900 47.81600 21.47200
C  7.35100 47.94400 22.94000
C  9.73700 47.99500 20.11500
C  6.46200 46.86700 20.84900
C  5.35800 47.49300 20.06700
N  6.93800 48.27700 25.84600
C  5.93000 48.13100 24.92800
C  4.59900 48.38200 25.57900
C  4.98000 48.52100 26.90900
C  6.35900 48.52800 26.96100
C  3.21000 48.15600 24.93500
C  4.40900 48.73000 28.21900
O  3.24500 48.73500 28.59300
C  5.65400 48.75500 29.13000
C  5.52000 47.48900 29.88700
O  5.70000 46.34500 29.46800
O  5.13900 47.79600 31.18900
C  4.91500 46.68500 32.18800
H  12.41500 48.79100 28.44200
H  11.53100 47.17400 22.22800
H  5.15500 47.92900 23.07300
H  8.32100 49.82300 30.54400
H  11.00200 48.83300 30.40600
H  10.24500 51.41400 29.19700
H  11.79700 51.00400 29.93300
H  10.32500 51.20400 30.91500
H  8.69200 46.83400 30.26200
H  7.62400 47.68100 31.25900
H  9.69100 48.56100 32.62400
H  10.41100 47.09300 31.97600
H  15.23700 47.47200 26.69500
H  14.30700 48.58900 27.59900
H  15.18200 49.23900 26.31600
H  16.05000 47.28700 22.71600
H  15.91100 46.02600 24.04700
H  15.89500 47.79300 24.36300
H  9.08600 46.30800 21.35200
H  7.36500 48.80100 21.01700
H  10.40300 48.76700 20.50000
H  9.09200 48.38200 19.32600
H  10.34200 47.19800 19.68400
H  5.94500 46.26400 21.59500
H  7.01400 46.16600 20.22300
H  5.29900 48.56300 20.26500
H  4.39300 47.00200 20.18800
H  5.59500 47.36300 19.01100
H  2.90500 47.14600 25.20800
H  3.23400 48.05300 23.85000
H  2.45300 48.91800 25.11900
H  5.60800 49.58000 29.84100
H  3.83500 46.55000 32.24900
H  5.26900 46.98100 33.17600
H  5.36500 45.73600 31.89800

