158

Mg 49.24100 16.19800 28.38500
C  47.07100 15.79300 31.00400
C  51.26700 18.15800 30.31500
C  51.21700 16.51000 25.78300
C  46.81700 14.68200 26.34500
N  49.07000 16.96500 30.35800
C  48.24800 16.49000 31.33900
C  48.53100 17.11300 32.68400
C  49.73400 18.11900 32.38500
C  50.06900 17.73200 30.93500
C  49.42000 19.62700 32.61800
C  48.71100 16.08800 33.77200
C  48.10900 16.41000 35.17200
H  48.05900 17.85400 35.68800
N  51.06000 17.15100 28.13900
C  51.80800 17.86100 29.01100
C  53.08900 18.21700 28.46000
C  53.08900 17.75500 27.15200
C  51.73500 17.08000 26.94300
C  54.03500 19.06000 29.18000
C  54.12700 17.76200 26.09200
O  54.02900 17.19900 25.02800
C  55.40500 18.50800 26.27200
N  49.15400 15.51500 26.38600
C  50.06900 15.83100 25.51500
C  49.64100 15.33800 24.07000
C  48.29800 14.55300 24.36000
C  48.08400 14.92000 25.80300
C  49.52000 16.57500 23.14600
C  48.50700 13.03500 24.18100
C  47.47400 12.29700 23.30900
N  47.28800 15.40100 28.52600
C  46.47400 14.77200 27.67000
C  45.24600 14.31400 28.35900
C  45.47500 14.63400 29.68400
C  46.69600 15.34000 29.72000
C  44.06900 13.55900 27.68400
C  44.91900 14.56400 31.07100
O  43.88800 14.09600 31.48200
C  45.89800 15.44500 31.93300
C  45.01300 16.51100 32.42500
O  44.57800 17.53000 31.84200
O  44.86000 16.19100 33.76600
C  43.97700 16.99500 34.61400
H  51.93300 18.82800 30.86300
H  51.75500 16.49000 24.83300
H  46.16000 14.07400 25.71900
H  47.61300 17.67000 32.87200
H  50.62300 17.79300 32.92400
H  48.46400 19.89600 33.06800
H  49.26800 20.11600 31.65600
H  50.19100 19.94900 33.31800
H  49.76400 15.94700 34.01800
H  48.36300 15.09500 33.48800
H  48.77200 15.87600 35.85300
H  47.07100 16.08000 35.21600
H  55.09400 18.81100 29.11500
H  53.82600 19.10500 30.24900
H  54.08300 20.04500 28.71400
H  56.08300 18.18700 27.06300
H  55.14700 19.56500 26.33700
H  55.95200 18.54000 25.33000
H  50.44800 14.74300 23.64400
H  47.47600 14.97700 23.78400
H  50.36200 16.54800 22.45300
H  49.38200 17.59500 23.50400
H  48.64900 16.30300 22.54900
H  48.50600 12.60500 25.18200
H  49.47300 12.72600 23.78100
H  46.75900 12.01100 24.08000
H  47.83900 11.42400 22.76800
H  47.08000 13.07600 22.65700
H  44.10300 12.47100 27.74700
H  44.01600 13.89500 26.64800
H  43.12200 13.95500 28.04900
H  46.26400 14.84200 32.76400
H  42.98400 16.54800 34.65300
H  43.80500 18.06900 34.53800
H  44.45200 16.81400 35.57800
Mg 0.29400 43.85700 26.16500
C  2.73500 43.35500 28.72800
C  -2.17300 43.53400 28.43500
C  -1.71100 43.15300 23.60000
C  3.11100 43.79300 23.92000
N  0.36800 43.43600 28.29600
C  1.41600 43.40300 29.17300
C  0.91900 43.50100 30.66300
C  -0.62300 43.38200 30.56800
C  -0.88600 43.47500 28.97700
C  -1.32400 42.15200 31.18800
C  1.29600 44.83700 31.37000
C  1.51400 44.97800 32.86100
H  1.12600 43.70600 33.67300
N  -1.71400 43.51300 26.03000
C  -2.57400 43.43900 27.06400
C  -3.84600 43.27900 26.56600
C  -3.70900 43.07000 25.14100
C  -2.35300 43.17800 24.88600
C  -5.08300 43.27700 27.33700
C  -4.86900 42.75400 24.11100
O  -4.58900 42.72100 22.89100
C  -6.24000 42.39900 24.59600
N  0.67300 43.29200 24.03800
C  -0.39600 43.34300 23.22700
C  -0.13200 43.52800 21.73900
C  1.39000 44.06300 21.89200
C  1.81200 43.71000 23.34000
C  -0.35800 42.38700 20.67600
C  1.66600 45.56300 21.61300
C  2.95000 45.85700 20.80700
N  2.43200 43.66500 26.24900
C  3.37500 43.69500 25.32200
C  4.67200 43.61000 25.83000
C  4.53000 43.50500 27.16700
C  3.07600 43.54900 27.37100
C  5.95100 43.73800 25.06200
C  5.17700 43.37000 28.52700
O  6.34900 43.23000 28.82800
C  4.00000 43.41600 29.51200
C  4.11100 42.47200 30.68000
O  3.83700 41.31800 30.68400
O  4.69200 43.15500 31.72800
C  5.20200 42.26800 32.75500
H  -3.03500 43.55200 29.10600
H  -2.37900 43.08100 22.73900
H  3.91000 43.94900 23.19300
H  1.23500 42.72800 31.36400
H  -1.08600 44.20300 31.11500
H  -1.76200 42.48400 32.12900
H  -0.57300 41.48000 31.60200
H  -1.99500 41.68200 30.47000
H  0.45000 45.48100 31.12900
H  2.20200 45.24700 30.92300
H  1.01800 45.87900 33.22200
H  2.58400 45.11200 33.01800
H  -5.89900 43.83100 26.87400
H  -4.87600 43.89400 28.21200
H  -5.32100 42.23200 27.53500
H  -6.20300 41.55900 25.29000
H  -6.91100 42.20200 23.76000
H  -6.56200 43.32100 25.08200
H  -0.75400 44.36700 21.42700
H  1.96300 43.41800 21.22600
H  0.22700 42.65100 19.79500
H  -1.42300 42.41300 20.44600
H  -0.10200 41.47100 21.21000
H  1.83800 46.04200 22.57700
H  0.76300 45.99400 21.18100
H  2.55700 46.07500 19.81400
H  3.59700 44.98000 20.83100
H  3.33400 46.68500 21.40200
H  5.85600 44.28600 24.12500
H  6.42500 42.85700 24.63000
H  6.69700 44.20800 25.70200
H  4.17500 44.42000 29.90100
H  4.34900 41.84200 33.28500
H  5.97000 42.70500 33.39400
H  5.74600 41.39000 32.40500

