158

Mg 26.78400 50.49200 27.16800
C  25.18200 51.81700 30.04000
C  29.22900 49.42900 29.24900
C  28.59000 49.58000 24.50900
C  24.42700 51.99000 25.17700
N  27.15800 50.78900 29.41900
C  26.32600 51.17000 30.38700
C  26.80300 50.68900 31.72600
C  28.24500 50.20400 31.44700
C  28.25500 50.17800 29.95200
C  29.35900 50.99700 32.13600
C  25.78900 49.61500 32.35200
C  24.87000 50.16100 33.52300
H  24.87800 49.34000 34.80900
N  28.76600 49.73100 26.90200
C  29.60600 49.28300 27.88100
C  30.71300 48.46800 27.27100
C  30.61500 48.65400 25.89100
C  29.31500 49.32700 25.70500
C  31.77400 47.74700 28.21100
C  31.55600 48.15000 24.80100
O  31.27300 48.32200 23.59300
C  32.89300 47.53900 25.19000
N  26.66100 50.84400 25.08800
C  27.37700 50.22500 24.18700
C  26.89500 50.58300 22.78500
C  25.42900 51.11000 23.01500
C  25.56000 51.34700 24.55100
C  27.83800 51.50700 21.93700
C  24.27900 50.12200 22.60400
C  24.46700 48.68100 22.97200
N  25.16600 51.60700 27.44100
C  24.28400 52.14900 26.56300
C  23.17000 52.75300 27.28900
C  23.52700 52.64500 28.60200
C  24.73500 51.97400 28.66400
C  21.97800 53.30700 26.62200
C  23.07500 52.99000 29.91500
O  22.03600 53.59700 30.26000
C  24.09300 52.29800 30.92600
C  24.59000 53.35100 31.86200
O  25.57900 53.98300 31.76400
O  23.70600 53.51900 32.90500
C  23.73300 54.76900 33.62000
H  29.98400 49.03700 29.93300
H  29.05300 49.16000 23.61400
H  23.54700 52.22100 24.57400
H  26.89200 51.55900 32.37700
H  28.43200 49.21200 31.85800
H  30.15000 51.27100 31.43800
H  29.87800 50.41600 32.89800
H  28.83200 51.88500 32.48400
H  26.36500 48.72900 32.61700
H  25.23600 49.27200 31.47700
H  23.85000 50.03400 33.16000
H  25.12300 51.18600 33.79500
H  31.66600 46.66200 28.21200
H  31.54900 48.12200 29.20900
H  32.80300 48.06100 28.03100
H  33.40300 47.26100 24.26800
H  32.65800 46.64800 25.77200
H  33.52100 48.19200 25.79600
H  26.90000 49.67700 22.17800
H  25.35800 52.00100 22.39100
H  28.70700 51.76900 22.54000
H  27.35500 52.34700 21.43900
H  28.22200 50.85200 21.15400
H  24.18900 50.11300 21.51700
H  23.36300 50.48800 23.06600
H  23.48800 48.43000 23.37800
H  25.22700 48.41000 23.70500
H  24.70900 48.17400 22.03800
H  22.26300 54.03300 25.86000
H  21.47400 53.83800 27.43000
H  21.31500 52.59100 26.13600
H  23.57600 51.45100 31.37700
H  22.69700 55.03700 33.82700
H  24.16000 55.58400 33.03600
H  24.34000 54.53000 34.49400
Mg 16.79400 51.97700 26.66800
C  18.56400 50.54000 29.23600
C  14.30000 52.94200 28.94900
C  15.19100 53.51900 24.15000
C  19.17500 50.69200 24.41000
N  16.49000 51.74600 28.74100
C  17.38200 51.19500 29.60600
C  16.88600 51.37900 31.02600
C  15.35200 51.82100 30.93500
C  15.35200 52.18700 29.47400
C  14.29400 50.75800 31.37600
C  17.74800 52.33400 31.84500
C  17.76200 52.16900 33.36900
H  16.61600 51.32100 33.97600
N  15.04800 53.11000 26.59400
C  14.20100 53.37700 27.62700
C  13.18100 54.34000 27.13500
C  13.42700 54.57900 25.77000
C  14.56400 53.69600 25.45800
C  12.02300 54.79200 27.98300
C  12.73800 55.48300 24.70600
O  13.11200 55.56900 23.55300
C  11.56200 56.34100 25.13700
N  17.08900 52.00300 24.63800
C  16.24500 52.72700 23.75500
C  16.70400 52.50900 22.27800
C  18.15700 51.99100 22.45700
C  18.13500 51.48000 23.90400
C  15.77900 51.54800 21.47200
C  19.33400 52.98400 22.25600
C  20.18400 52.71800 21.04400
N  18.49700 50.78600 26.76000
C  19.46700 50.40900 25.78000
C  20.61700 49.71900 26.41400
C  20.30700 49.78000 27.74800
C  19.02400 50.36100 27.94000
C  21.86200 49.18700 25.72000
C  20.81000 49.43700 29.07100
O  21.86900 48.94100 29.37600
C  19.71300 49.99400 30.09500
C  19.33800 48.84900 31.02600
O  18.70000 47.83700 30.80700
O  19.85900 49.13900 32.27500
C  19.40700 48.18700 33.25800
H  13.52900 53.27800 29.64600
H  14.55900 53.79800 23.30500
H  20.05900 50.38600 23.84800
H  16.90000 50.36600 31.42800
H  15.19400 52.70800 31.55000
H  13.47300 50.69800 30.66100
H  13.87100 51.17300 32.29100
H  14.80100 49.80600 31.53300
H  17.41400 53.33500 31.57500
H  18.78300 52.25300 31.51100
H  17.69000 53.17300 33.78600
H  18.71400 51.80900 33.76000
H  12.25800 55.83600 28.19300
H  11.82400 54.28500 28.92700
H  11.11400 54.85300 27.38500
H  10.72500 55.64800 25.21700
H  11.31500 57.10500 24.40000
H  11.69300 56.82800 26.10400
H  16.69900 53.46200 21.74900
H  18.25600 51.20700 21.70600
H  15.53600 52.10000 20.56400
H  14.84000 51.36300 21.99400
H  16.30000 50.62800 21.20700
H  19.97600 52.93600 23.13600
H  18.94500 53.98700 22.08500
H  21.18800 52.37300 21.29100
H  20.21700 53.58900 20.38900
H  19.77000 51.86400 20.50800
H  21.52800 48.64100 24.83800
H  22.24400 48.47500 26.45200
H  22.51700 50.03200 25.50500
H  20.06500 50.79800 30.74100
H  19.65700 47.13100 33.15200
H  18.32000 48.24100 33.21000
H  19.76400 48.48300 34.24400

