158

Mg 25.99800 -0.38000 28.99100
C  27.82900 -0.75100 31.96500
C  23.26700 0.20400 30.82200
C  24.35800 -0.25300 26.11500
C  28.95100 -1.60400 27.22600
N  25.61800 -0.31400 31.17400
C  26.49800 -0.49500 32.25900
C  25.82400 -0.14900 33.65700
C  24.38200 0.12300 33.17600
C  24.39000 -0.02700 31.62100
C  23.42700 -0.89600 33.82100
C  26.43700 1.08300 34.39600
C  25.93600 1.34000 35.82500
H  26.52600 2.52800 36.68500
N  24.03100 -0.10900 28.54700
C  23.03200 0.11400 29.39700
C  21.82500 0.47400 28.69100
C  22.17700 0.38300 27.30200
C  23.60900 0.07100 27.22500
C  20.45300 0.71400 29.34300
C  21.30700 0.54800 26.14500
O  21.71500 0.59300 24.99600
C  19.74600 0.78400 26.22600
N  26.52600 -1.01900 26.99800
C  25.62300 -0.87200 25.94700
C  26.35100 -0.89300 24.67100
C  27.69700 -1.53900 24.97300
C  27.75300 -1.38600 26.49500
C  25.61600 -1.57000 23.48900
C  28.96000 -1.00200 24.27100
C  29.11900 0.53700 24.19800
N  28.03200 -0.93200 29.45800
C  29.13400 -1.36700 28.64800
C  30.28700 -1.44300 29.45800
C  29.85800 -1.19000 30.78800
C  28.48600 -0.96700 30.76600
C  31.65000 -1.71700 28.89700
C  30.30800 -1.12700 32.15200
O  31.43700 -1.34100 32.61600
C  28.99100 -0.69100 32.92400
C  28.74600 -1.50700 34.10200
O  28.33000 -2.67600 34.16400
O  29.05000 -0.77600 35.18500
C  28.97700 -1.46200 36.49200
H  22.41400 0.45700 31.45500
H  23.90200 0.05400 25.17200
H  29.91200 -1.81700 26.75300
H  25.94000 -1.05700 34.24700
H  24.11100 1.14000 33.45900
H  24.09900 -1.66100 34.21000
H  22.83500 -1.37600 33.04100
H  22.70700 -0.51200 34.54400
H  26.13700 1.97500 33.84600
H  27.52500 1.08700 34.46000
H  26.31900 0.47300 36.36200
H  24.85000 1.41200 35.89200
H  19.71800 1.34900 28.84700
H  20.66800 1.32700 30.21900
H  20.04700 -0.23800 29.68400
H  19.33500 0.95600 25.23100
H  19.47300 1.64100 26.84200
H  19.28300 -0.13400 26.58600
H  26.46800 0.13800 24.33500
H  27.60100 -2.62000 24.87300
H  24.56900 -1.76700 23.71700
H  26.07500 -2.53100 23.25600
H  25.68300 -1.04700 22.53500
H  28.87100 -1.28500 23.22200
H  29.79700 -1.56600 24.68200
H  28.49700 1.16300 24.83800
H  28.99300 0.76200 23.13900
H  30.15000 0.57900 24.54900
H  31.63900 -1.24000 27.91700
H  31.77200 -2.77800 28.68000
H  32.41000 -1.22500 29.50400
H  29.10900 0.35100 33.22100
H  28.51400 -0.67200 37.08400
H  29.95000 -1.62700 36.95400
H  28.30800 -2.32200 36.52000
Mg 46.81400 24.77800 28.40200
C  47.23900 26.68900 31.29500
C  46.00000 22.08200 30.47400
C  47.04600 22.80900 25.79100
C  47.88100 27.40800 26.47300
N  46.61600 24.41000 30.65300
C  46.80000 25.39200 31.54500
C  46.37200 24.84300 32.97900
C  46.04300 23.37600 32.69800
C  46.17500 23.26700 31.20100
C  46.98000 22.31500 33.45500
C  45.20200 25.62800 33.59700
C  45.49800 26.24800 34.96100
H  44.37800 26.43400 35.98600
N  46.52700 22.74500 28.18600
C  46.20500 21.78800 29.08500
C  46.04400 20.41100 28.42900
C  46.17700 20.68500 27.03000
C  46.64000 22.13100 26.96800
C  45.66800 19.11300 29.14200
C  45.95400 19.83200 25.87000
O  46.20900 20.20600 24.71300
C  45.74300 18.39600 26.14100
N  47.40600 25.10300 26.43000
C  47.37100 24.13900 25.52800
C  47.70900 24.63400 24.09000
C  47.55100 26.15600 24.32600
C  47.57100 26.26000 25.79100
C  49.09400 24.32800 23.56800
C  46.31600 26.89000 23.70700
C  46.54700 28.15700 22.77500
N  47.46500 26.60700 28.76600
C  47.81000 27.61300 27.89400
C  48.35800 28.77300 28.65600
C  48.12400 28.42700 29.94200
C  47.59500 27.10600 29.98700
C  48.65300 30.11400 28.22200
C  48.27500 28.94000 31.34700
O  48.77400 29.97500 31.75400
C  47.72500 27.80300 32.24300
C  48.84600 27.33400 33.15800
O  49.77900 26.65200 32.81700
O  48.61600 27.83200 34.46400
C  49.56000 27.69200 35.51200
H  45.75100 21.20300 31.07200
H  47.25800 22.18200 24.92300
H  48.20300 28.31400 25.95600
H  47.27200 24.70000 33.57600
H  44.98000 23.22000 32.88100
H  46.84200 22.51800 34.51700
H  47.98200 22.49400 33.06500
H  46.61700 21.30100 33.28900
H  44.30300 25.03600 33.77200
H  44.84300 26.40700 32.92400
H  46.06800 27.16200 34.79700
H  46.17000 25.54400 35.45200
H  44.67500 18.88300 28.75500
H  45.54300 19.19800 30.22200
H  46.45600 18.38600 28.94400
H  44.75500 18.27100 26.58400
H  46.57400 17.91500 26.65700
H  45.68200 17.87800 25.18300
H  47.02600 24.31600 23.30200
H  48.31100 26.66200 23.73100
H  48.90800 23.52500 22.85500
H  49.64900 23.85200 24.37700
H  49.61800 25.15800 23.09400
H  45.71100 27.23900 24.54400
H  45.78800 26.13700 23.12300
H  47.62300 28.28100 22.66100
H  46.02800 29.02200 23.18900
H  46.03800 27.90800 21.84400
H  48.85500 30.04600 27.15300
H  49.57300 30.14200 28.80600
H  47.84900 30.80400 28.47900
H  46.87200 28.20100 32.79300
H  49.81300 28.69700 35.85100
H  50.54000 27.27700 35.27600
H  49.27000 27.18100 36.43000

