158

Mg 47.13000 16.27100 27.05100
C  45.05000 15.88300 29.84900
C  49.43600 17.87000 29.10400
C  48.86900 17.13600 24.30300
C  44.72700 14.85600 24.98800
N  47.21300 16.85300 29.26600
C  46.26200 16.51200 30.22200
C  46.78300 16.90100 31.63500
C  48.09500 17.68100 31.29800
C  48.33000 17.40700 29.81000
C  47.98200 19.17100 31.63700
C  46.93300 15.66400 32.60100
C  46.15400 15.71900 33.92800
H  45.98900 17.15200 34.53200
N  48.97400 17.18700 26.75200
C  49.85400 17.68600 27.72700
C  51.07200 18.11800 27.11300
C  50.92800 17.87400 25.75000
C  49.51600 17.36700 25.49900
C  52.25100 18.67500 27.84700
C  51.91000 18.20700 24.61400
O  51.69600 17.90800 23.46300
C  53.09700 19.01300 24.81000
N  46.79200 16.09600 24.97600
C  47.64200 16.56700 24.09400
C  47.13600 16.35300 22.70900
C  46.06400 15.35600 22.87400
C  45.82200 15.39800 24.35100
C  46.80600 17.69100 21.91900
C  46.13700 13.90500 22.23600
C  44.76600 13.21900 21.94500
N  45.32100 15.50100 27.34000
C  44.49000 14.86600 26.37800
C  43.28900 14.31000 27.09200
C  43.50700 14.79300 28.43500
C  44.73600 15.43100 28.55800
C  41.91800 13.66600 26.66000
C  42.87400 14.66200 29.75000
O  41.75900 14.27000 30.13500
C  43.86900 15.40200 30.73900
C  43.05500 16.43000 31.43400
O  42.49900 17.39400 30.97500
O  43.10400 16.20700 32.82900
C  42.14900 17.05500 33.49700
H  50.16600 18.30300 29.79000
H  49.30700 17.46000 23.35700
H  44.00700 14.33000 24.35800
H  45.89800 17.45100 31.95400
H  48.87800 17.24800 31.92000
H  47.11700 19.20400 32.30000
H  47.90700 19.78800 30.74300
H  48.82100 19.38400 32.29900
H  47.95800 15.34700 32.79500
H  46.51800 14.74100 32.19800
H  46.79200 15.14300 34.59800
H  45.17900 15.24200 33.83300
H  52.44500 19.59700 27.29800
H  53.10600 18.00000 27.88300
H  51.88900 18.99200 28.82500
H  52.90900 20.00000 25.23300
H  53.52800 19.07200 23.81000
H  53.89600 18.55700 25.39400
H  47.90400 15.84700 22.12500
H  45.12700 15.75600 22.48300
H  45.78900 17.74800 21.53100
H  47.41300 17.75900 21.01700
H  46.99600 18.57000 22.53500
H  46.63100 13.28600 22.98500
H  46.83500 13.96100 21.40100
H  44.85100 12.94000 20.89500
H  43.94100 13.87600 22.22000
H  44.69300 12.28500 22.50200
H  42.01700 12.58200 26.59300
H  41.65400 13.97600 25.64900
H  41.22700 14.00200 27.43200
H  44.20900 14.76000 31.55200
H  41.17300 16.57500 33.43600
H  41.95700 18.08500 33.19600
H  42.38400 17.06900 34.56100
Mg 0.30800 43.09200 26.53100
C  2.60700 43.09400 29.06300
C  -2.20400 42.51000 28.65200
C  -1.73400 42.33400 23.94600
C  3.02500 43.31500 24.22100
N  0.30300 42.75100 28.59800
C  1.30000 42.91800 29.53300
C  0.78100 42.89300 30.97100
C  -0.64500 42.36100 30.76600
C  -0.90800 42.47000 29.23300
C  -0.79400 40.89300 31.42700
C  0.75000 44.33100 31.61700
C  1.22100 44.26500 33.03800
H  0.87300 42.97100 33.77400
N  -1.70700 42.59400 26.30500
C  -2.61800 42.59300 27.33600
C  -3.93500 42.51000 26.75900
C  -3.80300 42.44100 25.37100
C  -2.34500 42.40000 25.14500
C  -5.20700 42.34500 27.53500
C  -4.81000 42.44200 24.22200
O  -4.52000 42.39500 23.01900
C  -6.23800 42.57300 24.51000
N  0.64300 42.56600 24.35300
C  -0.41100 42.31800 23.54900
C  0.04800 42.17900 22.13600
C  1.57500 42.65500 22.15500
C  1.77500 42.84400 23.65900
C  -0.07100 40.67200 21.62700
C  1.81800 44.06500 21.46800
C  1.26300 45.31100 22.20000
N  2.37400 43.32900 26.57600
C  3.38300 43.38100 25.57400
C  4.67200 43.54600 26.20900
C  4.39900 43.42900 27.62100
C  3.00600 43.34500 27.74600
C  5.96700 43.69200 25.53000
C  5.02000 43.36300 28.94900
O  6.19300 43.44000 29.26800
C  3.87700 43.26700 29.95300
C  4.10500 42.03300 30.81700
O  4.21700 40.90000 30.45600
O  4.05200 42.40000 32.16200
C  4.38700 41.36000 33.08400
H  -3.05700 42.26900 29.29000
H  -2.37100 41.91100 23.16600
H  3.90100 43.35800 23.57000
H  1.37400 42.14700 31.49900
H  -1.40200 43.03300 31.17100
H  -1.19800 40.19900 30.69000
H  -1.57900 41.05500 32.16500
H  0.10500 40.37100 31.75600
H  -0.27800 44.69000 31.66800
H  1.33500 45.03300 31.02200
H  0.77300 45.06300 33.63000
H  2.31000 44.30000 33.03700
H  -5.65200 41.36700 27.35500
H  -5.96400 43.06700 27.23000
H  -5.01200 42.35000 28.60800
H  -6.58900 42.06500 25.40900
H  -6.93400 42.25400 23.73400
H  -6.49400 43.62100 24.66400
H  -0.49700 42.70400 21.35200
H  2.26400 41.93600 21.71200
H  0.89500 40.24900 21.90300
H  -0.07500 40.83200 20.54900
H  -0.95600 40.17000 22.01800
H  1.32300 44.07100 20.49700
H  2.87200 44.31500 21.34800
H  0.95300 46.14400 21.56800
H  2.05300 45.56900 22.90500
H  0.49700 44.86900 22.83800
H  5.96300 43.55700 24.44800
H  6.69100 43.02600 25.99800
H  6.34300 44.70900 25.64600
H  3.82500 44.10800 30.64400
H  3.84000 40.41700 33.07200
H  4.27800 41.77600 34.08600
H  5.46400 41.30500 32.92400

