158

Mg -10.08800 38.68100 40.88200
C  -8.53200 35.58900 40.07300
C  -7.41700 40.24300 39.09500
C  -11.94200 41.42600 40.58500
C  -12.94100 36.84300 41.80200
N  -8.14400 38.01900 39.82900
C  -7.76000 36.69200 39.64400
C  -6.39400 36.58400 38.82600
C  -6.00200 38.10100 38.64100
C  -7.29100 38.85400 39.16100
C  -4.69600 38.62400 39.42600
C  -6.45000 35.87500 37.49800
C  -7.73900 35.97600 36.55000
H  -7.48300 36.37500 35.15100
N  -9.62400 40.65100 40.25000
C  -8.52700 41.06600 39.52900
C  -8.69100 42.41900 39.22000
C  -10.07200 42.77600 39.55900
C  -10.61300 41.58000 40.12900
C  -7.58900 43.16700 38.54700
C  -10.70600 44.13500 39.26100
O  -10.05200 44.94000 38.73200
C  -12.22000 44.38300 39.53900
N  -12.28200 39.04000 41.04300
C  -12.66100 40.31100 41.04100
C  -14.18000 40.52900 41.31600
C  -14.58900 39.02600 41.81200
C  -13.17500 38.25900 41.58000
C  -14.48800 41.57200 42.44700
C  -15.73200 38.47400 40.86300
C  -16.87200 37.74800 41.54400
N  -10.59300 36.73200 41.11300
C  -11.81200 36.13100 41.48900
C  -11.62100 34.68200 41.54300
C  -10.39800 34.45400 40.90700
C  -9.77700 35.71400 40.75300
C  -12.63100 33.53300 42.00100
C  -9.51700 33.36800 40.36500
O  -9.74900 32.14800 40.32400
C  -8.30200 34.11300 39.76700
C  -7.02600 33.68800 40.45800
O  -6.82400 33.85300 41.64300
O  -6.28500 32.98000 39.63300
C  -5.05000 32.27200 40.08900
H  -6.59900 40.83400 38.68000
H  -12.48800 42.36600 40.68400
H  -13.82500 36.22000 41.95400
H  -5.68100 36.14400 39.52300
H  -5.93100 38.33300 37.57800
H  -4.42300 37.87800 40.17200
H  -4.96800 39.52000 39.98400
H  -3.85600 38.84700 38.76700
H  -6.43200 34.80000 37.67500
H  -5.47900 36.10500 37.05700
H  -8.34000 36.77500 36.98300
H  -8.27000 35.02400 36.52500
H  -7.58700 44.23800 38.74900
H  -7.46300 42.92500 37.49200
H  -6.61900 42.93900 38.98900
H  -12.48500 44.60400 40.57300
H  -12.80100 43.55500 39.13300
H  -12.53600 45.24500 38.95000
H  -14.71400 40.73200 40.38800
H  -14.88300 38.92400 42.85700
H  -14.63200 42.51100 41.91300
H  -13.53800 41.79300 42.93300
H  -15.21000 41.39000 43.24300
H  -15.35300 37.71500 40.17800
H  -16.25600 39.24500 40.29800
H  -17.55700 37.50200 40.73200
H  -17.30500 38.34200 42.35000
H  -16.52100 36.80100 41.95400
H  -12.79000 33.57400 43.07800
H  -12.34900 32.50600 41.76600
H  -13.65800 33.66600 41.66200
H  -8.20000 33.93100 38.69800
H  -5.10200 31.67700 41.00000
H  -4.26300 32.99000 40.32100
H  -4.71000 31.64100 39.26800
Mg 1.02600 43.83200 26.04500
C  2.73800 43.75100 29.10900
C  -1.83000 42.94300 27.84900
C  -0.43100 43.17300 23.22800
C  4.08900 44.04500 24.47700
N  0.42100 43.53800 28.33900
C  1.30900 43.58900 29.36500
C  0.65100 43.30000 30.75900
C  -0.78300 42.90100 30.29600
C  -0.80400 43.20900 28.72900
C  -1.22200 41.42200 30.64000
C  0.68000 44.55200 31.68300
C  1.25800 44.22700 33.05000
H  0.75000 43.07600 33.82900
N  -0.87200 43.15700 25.61800
C  -1.93900 42.98400 26.44100
C  -3.16900 42.74900 25.69700
C  -2.80400 42.81900 24.35200
C  -1.35000 42.99000 24.35600
C  -4.57700 42.65100 26.38500
C  -3.79100 42.66600 23.13700
O  -3.37900 42.51700 22.00700
C  -5.29200 42.58000 23.36300
N  1.73300 43.60800 24.16500
C  0.92600 43.36200 23.14400
C  1.79800 43.22600 21.82300
C  3.14100 43.82400 22.18500
C  2.97700 43.81200 23.75800
C  1.72500 41.74600 21.42100
C  3.43400 45.19000 21.58900
C  3.06800 46.45800 22.34200
N  3.03800 44.01900 26.58200
C  4.18700 44.08800 25.83100
C  5.35100 43.96500 26.68100
C  4.78500 43.89400 27.97600
C  3.40300 43.91300 27.83400
C  6.82600 44.06800 26.19300
C  5.17000 43.81700 29.38000
O  6.27100 43.86300 29.94600
C  3.89300 43.66700 30.17900
C  3.95000 42.38800 30.83400
O  3.61200 41.32800 30.27700
O  4.61700 42.49100 32.08200
C  4.78900 41.08200 32.67200
H  -2.64300 42.49400 28.42400
H  -0.96600 43.02000 22.28800
H  5.00900 44.12300 23.89400
H  1.20300 42.46400 31.18900
H  -1.58400 43.49500 30.73600
H  -1.44800 40.95800 29.68000
H  -2.00800 41.43800 31.39500
H  -0.33100 40.92400 31.02300
H  -0.36900 44.81400 31.81800
H  1.24400 45.34900 31.19900
H  1.23000 45.16300 33.60800
H  2.29100 44.01700 32.77300
H  -4.27400 42.60700 27.43100
H  -5.05700 41.71300 26.10600
H  -5.13900 43.53400 26.08100
H  -5.74000 42.51200 22.37100
H  -5.68300 43.47900 23.84000
H  -5.50600 41.62200 23.83500
H  1.35200 43.68800 20.94300
H  3.90900 43.20600 21.72100
H  1.07700 41.48700 20.58300
H  1.31800 41.02900 22.13400
H  2.75400 41.46000 21.19900
H  3.09200 45.27900 20.55800
H  4.50200 45.18800 21.37500
H  3.77500 46.67600 23.14300
H  2.19200 46.31500 22.97600
H  2.97000 47.31900 21.68100
H  6.97000 44.95500 25.57700
H  7.01300 43.15000 25.63500
H  7.52600 44.17900 27.02100
H  3.82700 44.41400 30.97000
H  5.38500 41.21800 33.57400
H  5.45100 40.59900 31.95400
H  3.84600 40.63600 32.99100

