158

Mg 36.24200 49.06400 25.44600
C  36.42500 47.13500 28.34300
C  34.85800 51.55300 27.11200
C  36.13600 50.63800 22.46100
C  37.65000 46.20000 23.71700
N  35.74500 49.33100 27.51300
C  36.04000 48.45400 28.55300
C  35.85700 49.19800 29.90400
C  35.12400 50.55500 29.53200
C  35.27300 50.51800 27.94700
C  33.63400 50.61900 30.01400
C  37.14900 49.20500 30.74300
C  37.12300 48.82900 32.26500
H  35.70900 48.76600 32.95600
N  35.46400 50.85300 24.79200
C  34.90100 51.76900 25.69100
C  34.39900 52.88300 24.88000
C  34.83600 52.68000 23.57000
C  35.54500 51.38200 23.58600
C  33.80900 54.12000 25.46100
C  34.68200 53.59400 22.41900
O  35.29200 53.38600 21.37300
C  33.85900 54.88600 22.51900
N  36.77100 48.50000 23.39400
C  36.69600 49.38600 22.39700
C  37.16900 48.81500 21.08500
C  37.80800 47.42900 21.45100
C  37.34900 47.31900 22.89600
C  36.14200 48.65000 19.92600
C  39.40400 47.47700 21.26200
C  40.11200 46.17400 21.58900
N  36.85800 47.02300 25.86400
C  37.43500 46.02900 25.06400
C  37.79400 44.88700 25.92400
C  37.39400 45.27200 27.25100
C  36.80100 46.52300 27.09800
C  38.60000 43.69700 25.53300
C  37.25200 44.84300 28.67900
O  37.50200 43.78700 29.18500
C  36.67400 46.12400 29.42100
C  35.43100 45.63300 30.08800
O  34.31600 45.77900 29.64300
O  35.69000 45.14000 31.34200
C  34.60100 44.51900 32.08200
H  34.49700 52.48000 27.56400
H  36.12700 51.02800 21.44100
H  38.09500 45.30700 23.27200
H  35.14400 48.66700 30.53500
H  35.53800 51.47600 29.94200
H  33.42900 49.95800 30.85600
H  32.96700 50.22000 29.25000
H  33.29000 51.64000 30.18500
H  37.67400 50.16000 30.72500
H  37.86500 48.46300 30.38900
H  37.73700 49.46700 32.90100
H  37.49100 47.83900 32.53200
H  34.44400 54.91500 25.06800
H  33.89800 54.18000 26.54500
H  32.77500 54.25800 25.14600
H  32.96100 54.77900 23.12700
H  33.68000 55.20000 21.49100
H  34.52500 55.65400 22.91000
H  37.98900 49.44200 20.73500
H  37.43600 46.57700 20.88200
H  35.57500 49.57500 19.82600
H  35.47500 47.85300 20.25500
H  36.44100 48.36400 18.91800
H  39.81400 48.15800 22.00700
H  39.68600 47.94200 20.31700
H  40.86900 46.02700 20.81900
H  39.39200 45.35500 21.58800
H  40.58700 46.28400 22.56400
H  39.37600 44.04900 24.85400
H  38.05100 42.91600 25.00700
H  39.09700 43.29600 26.41700
H  37.43600 46.41300 30.14400
H  34.44100 43.63700 31.46200
H  33.71600 45.15200 32.15100
H  34.93900 44.34500 33.10300
Mg -6.51600 24.92400 25.06300
C  -4.62400 26.22500 27.58100
C  -8.31300 23.00500 27.39500
C  -8.22300 23.48800 22.43300
C  -4.36200 26.47000 22.72300
N  -6.33500 24.60500 27.24500
C  -5.48600 25.25900 28.06900
C  -5.79800 24.93000 29.50100
C  -6.75200 23.64600 29.37300
C  -7.19200 23.73900 27.90000
C  -6.23400 22.24700 29.81200
C  -6.47500 26.11100 30.26100
C  -5.98600 26.31000 31.71600
H  -5.41300 25.07800 32.47900
N  -8.14600 23.48900 24.91100
C  -8.75300 22.86800 26.03600
C  -9.84700 22.14100 25.47700
C  -9.89100 22.30700 24.00000
C  -8.70100 23.09900 23.73100
C  -10.74800 21.51100 26.45900
C  -10.98000 21.90700 23.02200
O  -11.01500 22.37100 21.87300
C  -11.96500 20.87300 23.30200
N  -6.17000 24.85400 22.83800
C  -7.18600 24.36800 21.98100
C  -6.68300 24.62100 20.48700
C  -5.76500 25.82200 20.75200
C  -5.34000 25.65700 22.16400
C  -6.06800 23.39500 19.86600
C  -6.40800 27.21700 20.51600
C  -5.73500 28.02800 19.32900
N  -4.87500 26.13900 25.04800
C  -4.10700 26.69900 24.08500
C  -3.10900 27.61800 24.71900
C  -3.27000 27.43900 26.08000
C  -4.38200 26.58900 26.21900
C  -2.20100 28.46400 23.93100
C  -2.85400 27.87000 27.33300
O  -2.07100 28.76200 27.66400
C  -3.55400 26.95100 28.34800
C  -2.56000 26.08000 29.01500
O  -2.33800 24.91400 28.71400
O  -2.09000 26.68000 30.17000
C  -1.32600 25.90600 31.19200
H  -8.87700 22.48600 28.17300
H  -8.70100 22.94100 21.61800
H  -3.71400 26.82700 21.91900
H  -4.81100 24.74500 29.92500
H  -7.59700 23.80200 30.04300
H  -6.01300 21.73100 28.87700
H  -7.06100 21.67800 30.23600
H  -5.35900 22.25300 30.46200
H  -7.56400 26.10700 30.20600
H  -6.11100 26.97600 29.70700
H  -6.65400 26.77900 32.43800
H  -5.18600 27.04400 31.61700
H  -11.04800 20.58000 25.97900
H  -11.64600 22.12900 26.46800
H  -10.45500 21.20800 27.46400
H  -12.83300 21.38200 23.72000
H  -11.51400 20.14800 23.98000
H  -12.38500 20.37200 22.43000
H  -7.47300 25.05400 19.87400
H  -4.96300 25.70600 20.02300
H  -6.11600 22.48300 20.46100
H  -5.03400 23.57200 19.56900
H  -6.59500 23.20200 18.93200
H  -6.34900 27.92400 21.34300
H  -7.47300 27.06100 20.34100
H  -5.88400 29.10500 19.24900
H  -6.18300 27.56900 18.44800
H  -4.64900 27.93500 19.32000
H  -2.21700 28.42800 22.84100
H  -1.26500 28.10000 24.35400
H  -2.32500 29.51100 24.20700
H  -3.94500 27.67000 29.06800
H  -1.67200 24.87400 31.12600
H  -1.54000 26.35900 32.16100
H  -0.30400 25.90600 30.81600

