158

Mg 47.22100 24.86900 28.66800
C  47.67700 27.09100 31.35300
C  46.26700 22.48200 31.08900
C  47.00900 22.67000 26.13500
C  48.21700 27.29100 26.32800
N  47.02100 24.74100 30.99400
C  47.18800 25.86800 31.84000
C  46.85700 25.45600 33.29000
C  46.49500 23.98600 33.25700
C  46.59800 23.70100 31.71700
C  47.33100 23.07600 34.22600
C  45.69800 26.42900 33.68500
C  45.98800 27.31000 34.98300
H  44.96100 27.36000 36.05900
N  46.65700 22.89400 28.58500
C  46.29800 22.07900 29.69100
C  45.96700 20.80000 29.13300
C  46.06500 20.82200 27.70600
C  46.61200 22.19800 27.38700
C  45.44500 19.69600 29.95400
C  45.68400 19.86900 26.58600
O  45.79100 20.12800 25.41000
C  45.26800 18.45000 26.95300
N  47.65200 24.94600 26.57000
C  47.54700 23.86300 25.76200
C  47.68100 24.17000 24.29500
C  47.82900 25.76200 24.31500
C  47.91500 26.02100 25.81400
C  48.90500 23.48000 23.53800
C  46.68700 26.45800 23.62200
C  45.29100 26.28300 24.22100
N  47.80600 26.76800 28.73900
C  48.19600 27.64500 27.70200
C  48.53500 28.97500 28.31700
C  48.35700 28.76000 29.71200
C  47.97400 27.41100 29.94600
C  48.95600 30.18300 27.59900
C  48.51600 29.35800 31.03300
O  48.94400 30.49000 31.34400
C  47.98600 28.34500 32.07300
C  49.06800 28.07800 33.06400
O  50.00500 27.33700 32.87900
O  48.94400 28.90600 34.15600
C  49.84500 28.77500 35.26100
H  45.78000 21.78800 31.77700
H  46.95700 22.04200 25.24300
H  48.49000 27.98900 25.53300
H  47.75300 25.72300 33.85000
H  45.50700 23.94400 33.71600
H  47.98700 23.51100 34.98000
H  47.94700 22.30600 33.76200
H  46.55000 22.49200 34.71400
H  44.75600 25.91900 33.88300
H  45.41200 27.17200 32.94000
H  46.15800 28.35600 34.72800
H  46.95800 26.96500 35.34200
H  44.45300 19.38300 29.62700
H  45.31800 19.86000 31.02400
H  46.11500 18.84300 29.84200
H  44.75300 18.13200 26.04600
H  44.56900 18.47300 27.78900
H  46.18800 17.89000 27.12000
H  46.74900 23.84700 23.83000
H  48.78800 26.07300 23.90200
H  49.47800 22.83000 24.19800
H  49.52600 24.23400 23.05300
H  48.50800 22.73400 22.85000
H  46.73500 26.24100 22.55500
H  46.91000 27.52000 23.72600
H  45.33600 25.86300 25.22600
H  44.72200 25.50600 23.71100
H  44.73600 27.22100 24.24400
H  48.93000 31.08900 28.20300
H  48.48600 30.30300 26.62300
H  50.02500 30.00600 27.47400
H  47.17100 28.84000 32.60100
H  49.50400 28.03900 35.98800
H  49.91500 29.66600 35.88400
H  50.82700 28.41000 34.96000
Mg 26.41800 50.77400 26.41700
C  24.03400 51.72500 28.97700
C  28.44200 49.72000 29.04600
C  28.80800 50.24600 24.21500
C  24.37200 52.29900 24.16700
N  26.18700 50.62500 28.69900
C  25.11600 51.06200 29.54100
C  25.43500 50.80700 31.07100
C  26.91300 50.22100 31.04900
C  27.17700 50.07300 29.54700
C  27.89500 51.17100 31.83500
C  24.45300 49.82300 31.68800
C  24.04700 50.07000 33.20700
H  24.99000 50.75800 34.22800
N  28.38200 50.12400 26.56300
C  28.96900 49.67600 27.71300
C  30.22900 48.99700 27.38200
C  30.43900 49.33600 26.01400
C  29.18100 49.94200 25.54000
C  31.04800 48.16900 28.34500
C  31.70900 49.09300 25.14100
O  31.86800 49.43800 24.00200
C  32.90200 48.36600 25.81700
N  26.56200 51.35700 24.53900
C  27.57300 50.80600 23.76100
C  27.24500 51.02500 22.26000
C  25.71400 51.38600 22.26900
C  25.53600 51.72000 23.72300
C  28.09500 52.15600 21.59700
C  24.65900 50.36800 21.86200
C  23.58600 50.65900 20.82000
N  24.58800 51.80000 26.48000
C  23.89400 52.31700 25.48400
C  22.61000 52.91600 25.91700
C  22.61300 52.67100 27.30200
C  23.84900 51.97800 27.59100
C  21.54900 53.62000 25.05000
C  21.90700 52.91000 28.50700
O  20.86800 53.51000 28.69800
C  22.81000 52.32300 29.62400
C  23.27800 53.50100 30.45800
O  24.10700 54.32600 30.13600
O  22.75300 53.35500 31.76900
C  23.00200 54.55000 32.61100
H  29.05100 49.35500 29.87600
H  29.40600 49.97000 23.34400
H  23.61200 52.53700 23.41900
H  25.36200 51.80600 31.50200
H  26.95300 49.25700 31.55500
H  28.76100 51.50200 31.26200
H  28.13100 50.54200 32.69300
H  27.36500 52.02600 32.25400
H  24.83100 48.80400 31.76200
H  23.59100 49.73900 31.02700
H  23.70800 49.11700 33.61300
H  23.14100 50.67500 33.16700
H  30.63700 48.23400 29.35200
H  32.04600 48.59800 28.43400
H  31.12200 47.13300 28.01600
H  33.75600 48.31800 25.14100
H  32.69600 47.30900 25.98400
H  33.20900 48.85900 26.73900
H  27.34600 50.11400 21.66900
H  25.52500 52.34300 21.78300
H  28.98700 52.38100 22.18000
H  27.53500 53.09000 21.53700
H  28.40400 51.84100 20.60000
H  24.14000 49.90700 22.70200
H  25.32300 49.58200 21.50200
H  23.77600 50.26200 19.82300
H  23.46200 51.74100 20.79900
H  22.73200 50.08200 21.17800
H  20.64100 53.04900 25.24500
H  21.90400 53.73300 24.02500
H  21.44300 54.65600 25.37100
H  22.28400 51.59300 30.23900
H  23.10900 55.47000 32.03500
H  23.84100 54.43300 33.29800
H  22.08100 54.62200 33.19000

