158

Mg 44.21800 3.70500 47.02500
C  41.76400 6.29200 46.74700
C  41.70200 1.40100 47.07200
C  46.56600 1.46700 46.80300
C  46.58200 6.38200 46.54300
N  42.04000 3.83200 46.75800
C  41.23700 4.96000 46.82400
C  39.72800 4.56900 46.68700
C  39.78400 3.14000 47.25400
C  41.26300 2.72800 47.06700
C  39.25800 2.92000 48.65300
C  39.24200 4.45900 45.19700
C  38.38000 5.58800 44.57300
H  38.97500 6.33300 43.36100
N  44.17300 1.64000 46.82900
C  43.05600 0.93100 46.95700
C  43.39100 -0.44600 47.11000
C  44.83100 -0.54400 47.08300
C  45.29200 0.84700 46.89600
C  42.49700 -1.51400 47.38000
C  45.65200 -1.74100 47.19900
O  45.16200 -2.83400 47.35900
C  47.17600 -1.79100 47.16500
N  46.24700 3.89600 46.65100
C  47.09800 2.80300 46.75000
C  48.54900 3.24300 46.84700
C  48.44500 4.71000 46.25000
C  47.03300 5.06000 46.56300
C  49.19000 3.07400 48.25100
C  48.71600 4.92600 44.75200
C  50.22800 4.65400 44.49900
N  44.25100 5.93900 46.81900
C  45.29100 6.84800 46.66600
C  44.76700 8.20800 46.65400
C  43.34600 8.04000 46.65300
C  43.14700 6.62600 46.74200
C  45.55400 9.48900 46.51200
C  42.03700 8.67600 46.52700
O  41.68000 9.84200 46.34800
C  41.02000 7.64700 46.67800
C  40.12800 7.73300 47.92100
O  40.51800 7.48100 49.04400
O  38.87200 8.08800 47.54300
C  37.91000 8.15200 48.61500
H  40.87900 0.69200 47.18600
H  47.40300 0.76600 46.81700
H  47.40900 7.09200 46.46600
H  39.09100 5.36600 47.07000
H  39.20700 2.34500 46.78200
H  38.72400 3.84000 48.88800
H  40.17800 2.73400 49.20800
H  38.52800 2.11000 48.64700
H  38.65900 3.54300 45.10800
H  40.12700 4.39200 44.56400
H  38.05200 6.41300 45.20400
H  37.49800 5.16400 44.09400
H  42.89000 -2.41800 46.91600
H  41.45500 -1.38800 47.08300
H  42.46300 -1.67000 48.45900
H  47.60600 -1.20400 47.97600
H  47.47600 -1.49000 46.16100
H  47.57300 -2.78700 47.36100
H  49.10400 2.57800 46.18600
H  49.05700 5.44300 46.77700
H  49.62500 4.03600 48.52100
H  50.03300 2.40400 48.08100
H  48.41700 2.73700 48.94100
H  48.73900 5.98900 44.50900
H  48.00800 4.45300 44.07100
H  50.85400 5.51800 44.72100
H  50.41400 4.34200 43.47200
H  50.60800 3.81500 45.08200
H  45.11300 10.34500 46.00200
H  46.61800 9.34000 46.33400
H  45.49600 9.80300 47.55500
H  40.34300 7.70200 45.82500
H  37.16000 7.41800 48.32100
H  37.40200 9.11700 48.61900
H  38.08700 7.93900 49.66900
Mg 0.08800 42.84900 24.84500
C  2.33300 42.38300 27.50700
C  -2.24300 41.07200 26.71600
C  -2.01200 43.18100 22.34900
C  2.81100 43.74800 22.87900
N  0.10400 41.64900 26.81200
C  1.06200 41.91200 27.80300
C  0.49000 41.65100 29.25300
C  -0.92400 41.02100 28.91200
C  -1.07600 41.26400 27.42200
C  -1.21100 39.55000 29.44100
C  0.52200 42.96300 30.12700
C  0.88800 42.78600 31.62100
H  0.70900 41.35600 32.16400
N  -1.86300 42.23600 24.60500
C  -2.65200 41.56000 25.48000
C  -4.03400 41.44000 24.89800
C  -3.93200 42.06300 23.61200
C  -2.49700 42.57100 23.47200
C  -5.14900 40.71900 25.51600
C  -5.07800 42.22300 22.73000
O  -4.87800 42.75700 21.59400
C  -6.40700 41.89300 22.98300
N  0.33500 43.25200 22.88600
C  -0.72900 43.51200 22.06600
C  -0.30800 44.33500 20.81300
C  1.22900 44.42200 20.91100
C  1.49100 43.83800 22.35200
C  -0.93400 43.74500 19.43200
C  1.85400 45.77300 20.78300
C  1.41800 46.92500 21.66700
N  2.16900 43.04600 25.09500
C  3.14300 43.40400 24.20900
C  4.42300 43.37000 24.79000
C  4.15900 43.08700 26.19800
C  2.76100 42.84000 26.26500
C  5.80100 43.59200 24.20900
C  4.67100 43.00400 27.52400
O  5.83400 43.16000 27.89100
C  3.49600 42.58400 28.44600
C  3.99100 41.25800 28.94100
O  4.15000 40.24400 28.23200
O  4.31100 41.28700 30.27000
C  4.78800 40.03000 30.84900
H  -3.04500 40.72000 27.36800
H  -2.71200 43.49500 21.57200
H  3.56200 43.96500 22.11600
H  1.23000 40.93500 29.61100
H  -1.66500 41.65800 29.39500
H  -0.51600 39.23500 30.21900
H  -1.28000 38.80200 28.65100
H  -2.19200 39.61000 29.91100
H  -0.47200 43.41000 30.09700
H  1.20100 43.68800 29.68100
H  0.31800 43.52300 32.18700
H  1.93700 43.07600 31.67700
H  -5.76800 41.42100 26.07500
H  -4.89900 39.97100 26.26800
H  -5.69100 40.06800 24.83000
H  -6.68700 40.84900 22.84600
H  -6.99700 42.40100 22.21900
H  -6.77700 42.02800 23.99900
H  -0.62800 45.36000 21.00100
H  1.62600 43.64600 20.25700
H  -1.56700 44.56700 19.09600
H  -1.48500 42.81700 19.57800
H  -0.12200 43.63100 18.71400
H  1.56700 46.05200 19.76900
H  2.94100 45.84100 20.83400
H  1.19700 47.78100 21.03000
H  2.22700 47.23400 22.33000
H  0.64800 46.68000 22.39800
H  5.92200 44.20200 23.31500
H  6.13700 42.58200 23.97100
H  6.38600 43.99000 25.03800
H  3.30400 43.25300 29.28500
H  3.90900 39.38900 30.91300
H  4.97000 40.13100 31.91900
H  5.59400 39.50200 30.34000

