158

Mg 48.47000 46.30800 42.79900
C  45.03000 46.45000 42.20000
C  48.54100 43.12300 41.47300
C  51.82700 46.55900 42.52200
C  48.29900 49.59700 43.75200
N  46.94300 44.96500 41.84400
C  45.61700 45.23000 41.74600
C  44.97800 44.11300 41.01100
C  45.95600 42.91700 41.26100
C  47.25300 43.68400 41.52900
C  45.60500 41.87800 42.36100
C  44.62800 44.40300 39.52100
C  43.16900 44.07400 39.15300
H  42.96900 43.88400 37.69100
N  50.02200 44.99400 42.08100
C  49.83000 43.66600 41.71400
C  51.17400 43.07000 41.65000
C  52.15800 44.10200 41.81100
C  51.39400 45.26100 42.23000
C  51.37400 41.58900 41.26900
C  53.68200 43.90100 41.71600
O  54.01600 42.90400 41.21500
C  54.67500 44.93900 42.16800
N  49.83600 47.94100 42.71400
C  51.18800 47.77100 42.84700
C  51.87500 49.06600 43.25200
C  50.75200 50.05100 43.67600
C  49.54300 49.08500 43.36400
C  53.06400 48.87900 44.32300
C  50.73400 51.45500 42.94200
C  50.52200 52.71900 43.85100
N  46.96700 47.73000 43.19700
C  47.04300 48.97100 43.68400
C  45.68300 49.57900 43.84900
C  44.85800 48.61200 43.19000
C  45.69500 47.57500 42.79700
C  45.34000 50.90200 44.45800
C  43.48700 48.29500 42.82700
O  42.52100 48.92300 43.14600
C  43.50100 46.82100 42.11900
C  42.51300 45.90400 42.75000
O  41.95000 45.00500 42.12300
O  42.41700 46.06500 44.11900
C  41.38900 45.25400 44.79700
H  48.56600 42.06200 41.21700
H  52.90100 46.75000 42.49400
H  48.38400 50.65500 44.01100
H  44.08900 43.83200 41.57500
H  46.18800 42.37100 40.34600
H  44.58900 41.97000 42.74500
H  46.46100 41.91200 43.03500
H  45.61600 40.92300 41.83700
H  45.31000 43.81700 38.90500
H  44.87100 45.44500 39.31100
H  42.49100 44.84400 39.52100
H  42.88900 43.13400 39.62700
H  51.71000 41.46200 40.24000
H  50.46400 40.99000 41.32100
H  52.08200 41.04600 41.89400
H  54.58900 45.79400 41.49800
H  55.68900 44.54100 42.14400
H  54.38400 45.16400 43.19400
H  52.23700 49.34400 42.26200
H  50.75000 50.19900 44.75600
H  53.94800 49.45200 44.04500
H  53.33000 47.82700 44.41900
H  52.81200 49.29000 45.30000
H  49.91100 51.49800 42.22900
H  51.67400 51.58800 42.40800
H  51.41100 53.34700 43.91200
H  50.24500 52.33200 44.83100
H  49.75600 53.40800 43.49200
H  45.76900 51.65000 43.79100
H  45.80100 51.04000 45.43600
H  44.27000 50.97000 44.65500
H  43.32000 46.90000 41.04700
H  40.39200 45.66400 44.63400
H  41.73300 45.26100 45.83100
H  41.42100 44.21900 44.45600
Mg 47.81000 34.82000 26.75500
C  45.99700 33.66300 29.42400
C  48.74400 37.57300 28.59400
C  48.96700 36.23800 23.87700
C  46.53800 32.12700 24.83600
N  47.55600 35.46800 28.87600
C  46.71000 34.84600 29.75000
C  46.80800 35.51800 31.14500
C  47.37400 36.97500 30.72900
C  47.89300 36.73500 29.25100
C  46.38500 38.05700 30.67400
C  47.77500 34.79000 32.09900
C  47.52700 34.96000 33.63500
H  46.68400 36.12900 34.11400
N  48.82300 36.67000 26.37700
C  49.21600 37.58300 27.28000
C  49.99900 38.58200 26.60600
C  50.11900 38.25600 25.20000
C  49.27100 37.01600 25.11700
C  50.50400 39.84900 27.32900
C  50.87400 38.89200 23.99400
O  50.93900 38.50800 22.82000
C  51.56900 40.20300 24.33500
N  47.71200 34.35800 24.67000
C  48.34200 35.03200 23.66700
C  48.23800 34.38100 22.26000
C  47.56300 33.00400 22.61900
C  47.26500 33.09900 24.18000
C  47.32700 35.14600 21.29200
C  48.36400 31.71700 22.20800
C  49.39600 31.19800 23.24800
N  46.58100 33.09800 27.02700
C  46.27600 32.07900 26.22800
C  45.58600 31.09500 27.05800
C  45.35300 31.76000 28.30100
C  46.02400 32.90800 28.21200
C  45.09700 29.80900 26.59300
C  44.72400 31.66600 29.51800
O  44.03200 30.78300 29.94400
C  44.90700 33.00100 30.29000
C  45.16200 32.65200 31.72700
O  46.05500 31.88100 32.11200
O  44.20600 33.07900 32.56200
C  44.30200 32.78200 34.00200
H  49.04000 38.41000 29.23000
H  49.33000 36.55800 22.89800
H  46.41600 31.25200 24.19400
H  45.80700 35.49900 31.57700
H  48.15600 37.36400 31.38100
H  45.70400 38.14600 31.52000
H  45.85400 38.16600 29.72900
H  46.95200 38.98400 30.58200
H  48.82400 35.02500 31.91900
H  47.70500 33.72200 31.89100
H  48.44300 35.05400 34.22000
H  47.09400 34.09000 34.12800
H  51.59400 39.87700 27.31500
H  50.02600 39.92400 28.30600
H  50.06600 40.64300 26.72400
H  52.49600 40.00300 24.87200
H  50.98400 40.97700 24.83400
H  51.83900 40.77800 23.45000
H  49.19800 34.34400 21.74500
H  46.61100 32.91300 22.09600
H  46.27000 34.99300 21.51100
H  47.45700 34.67800 20.31600
H  47.54900 36.21200 21.34100
H  48.82900 31.92600 21.24400
H  47.69900 30.86300 22.07700
H  49.19800 30.18400 23.59400
H  49.66200 31.81100 24.10900
H  50.36700 31.10700 22.76100
H  45.98600 29.25500 26.29400
H  44.49900 29.89200 25.68600
H  44.59600 29.21100 27.35400
H  43.99000 33.58900 30.26700
H  43.33100 32.61600 34.46700
H  44.67200 33.66100 34.52900
H  44.97800 31.93400 34.12000

