158

Mg 0.08400 7.88200 26.02000
C  0.50900 9.99100 28.88400
C  0.14600 5.24500 28.11700
C  -0.65600 5.95200 23.34700
C  0.31800 10.68400 24.03200
N  0.30800 7.75000 28.26000
C  0.27500 8.67000 29.21100
C  0.36100 8.00100 30.66200
C  0.63600 6.50300 30.32200
C  0.38200 6.47600 28.79300
C  1.98700 5.98800 30.70900
C  -0.97400 8.35600 31.40000
C  -1.12200 7.93900 32.87900
H  0.04300 7.11600 33.47200
N  -0.32300 5.86600 25.73500
C  -0.24900 4.92500 26.72700
C  -0.41600 3.57900 26.20700
C  -0.64600 3.76200 24.85700
C  -0.54700 5.23100 24.56200
C  -0.34400 2.33300 26.94300
C  -0.94800 2.80100 23.75800
O  -1.19200 3.14500 22.63700
C  -0.75800 1.34200 24.05400
N  -0.07800 8.25200 24.03000
C  -0.51900 7.31200 23.10100
C  -0.77100 7.91000 21.71200
C  -0.67000 9.48800 21.98800
C  -0.09900 9.48900 23.41900
C  0.16700 7.29900 20.66200
C  -2.04900 10.16800 21.96400
C  -2.13400 11.57700 21.60100
N  0.47800 9.94900 26.29500
C  0.56900 10.93000 25.39000
C  0.77400 12.21500 26.01200
C  0.84300 11.83100 27.40000
C  0.54000 10.53600 27.52300
C  0.94600 13.60800 25.37200
C  1.02400 12.34900 28.75400
O  1.23500 13.48800 29.12300
C  0.67700 11.14300 29.75900
C  1.91200 11.02300 30.59800
O  3.07200 10.98800 30.23100
O  1.63800 10.86600 31.89700
C  2.70900 10.77800 32.85000
H  0.21500 4.40600 28.81300
H  -0.95700 5.35200 22.48600
H  0.21500 11.59100 23.43200
H  1.21000 8.48500 31.14600
H  -0.11400 5.99000 30.92400
H  2.28100 5.16600 30.05600
H  2.05300 5.35200 31.59300
H  2.80200 6.70100 30.58700
H  -1.80600 7.93100 30.83700
H  -1.09100 9.43900 31.39000
H  -2.04700 7.36900 32.96000
H  -1.23100 8.85600 33.45900
H  -1.27000 1.78100 26.77900
H  -0.22500 2.32500 28.02700
H  0.48300 1.69900 26.62200
H  -0.74500 0.74800 23.14000
H  -1.56400 1.01400 24.71100
H  0.25700 1.22700 24.43500
H  -1.79100 7.61300 21.47000
H  0.01400 9.98900 21.30300
H  -0.32500 6.45700 20.17400
H  1.16900 7.09900 21.04000
H  0.34800 8.04200 19.88500
H  -2.53200 10.01200 22.92900
H  -2.73600 9.68200 21.27100
H  -2.53800 11.73200 20.60100
H  -1.16300 12.07200 21.62400
H  -2.80800 12.07400 22.29800
H  2.01500 13.77600 25.23700
H  0.67200 14.27300 26.19100
H  0.38100 13.88700 24.48300
H  -0.25200 11.24800 30.31900
H  2.60800 11.58500 33.57500
H  3.69900 10.79200 32.39500
H  2.67600 9.90400 33.50100
Mg 35.45100 2.17500 29.17800
C  33.56500 3.40000 31.96400
C  38.10100 1.83100 31.28400
C  37.26700 1.20700 26.61900
C  32.85400 3.22000 27.09000
N  35.76800 2.56600 31.39200
C  34.87300 3.06500 32.30100
C  35.51100 3.03100 33.69200
C  37.05300 2.99800 33.27300
C  36.99900 2.46700 31.88200
C  37.62000 4.40400 33.34900
C  35.10600 1.79600 34.61800
C  34.66000 2.09500 36.07400
H  35.22400 3.34500 36.69900
N  37.37100 1.38300 28.96800
C  38.25900 1.34000 30.01300
C  39.52100 0.73100 29.48200
C  39.35100 0.58300 28.07900
C  37.96000 1.04500 27.78500
C  40.74700 0.42000 30.36600
C  40.28400 -0.07200 27.13000
O  39.92900 -0.31800 25.96800
C  41.62600 -0.63900 27.47000
N  35.08400 2.22800 27.14000
C  35.97600 1.66500 26.26000
C  35.54700 1.76000 24.81100
C  34.02200 2.21500 24.99000
C  33.93300 2.48800 26.51000
C  36.44300 2.51600 23.77200
C  32.90700 1.36500 24.43300
C  32.69300 -0.12700 24.88500
N  33.64500 3.05900 29.42900
C  32.69300 3.43900 28.44700
C  31.51500 3.94200 29.09400
C  31.74100 3.95000 30.45600
C  33.09000 3.44300 30.60700
C  30.20700 4.36700 28.58400
C  31.26200 4.17600 31.79600
O  30.18100 4.57800 32.19000
C  32.45800 3.92800 32.85600
C  32.78900 5.23700 33.56200
O  33.64000 5.98600 33.17900
O  31.86900 5.44000 34.59800
C  31.98200 6.74100 35.21200
H  38.91000 1.85100 32.01800
H  37.86800 0.87800 25.76900
H  32.00800 3.44200 26.43700
H  35.14200 3.88800 34.25500
H  37.57600 2.42200 34.03700
H  38.15000 4.65000 32.42900
H  38.34800 4.44400 34.15900
H  36.86000 5.14700 33.59000
H  35.86800 1.02200 34.70900
H  34.19000 1.38400 34.19700
H  35.14700 1.27200 36.59600
H  33.57300 2.10100 36.15500
H  40.81100 0.84200 31.36900
H  41.64300 0.75100 29.84100
H  40.92100 -0.65200 30.45300
H  41.61700 -1.45000 28.19800
H  42.11600 0.26800 27.82500
H  42.13000 -1.01300 26.57900
H  35.44300 0.75700 24.39500
H  33.90500 3.25100 24.67100
H  37.40300 2.82200 24.18800
H  35.95400 3.43700 23.45700
H  36.63200 1.91000 22.88600
H  32.87000 1.44300 23.34600
H  31.94500 1.76900 24.74600
H  32.46900 -0.70300 23.98700
H  31.82400 -0.18800 25.54000
H  33.64500 -0.46200 25.29600
H  29.97800 5.43000 28.51100
H  29.40100 3.83400 29.08800
H  30.13600 4.03500 27.54800
H  32.08500 3.12600 33.49400
H  31.76800 7.39200 34.36400
H  32.97200 6.85200 35.65200
H  31.17900 6.88700 35.93500

