158

Mg 8.87000 4.31900 27.11600
C  9.89400 2.76900 29.95600
C  6.55000 6.05300 29.06000
C  7.66900 5.70100 24.21300
C  10.38600 1.80900 25.17100
N  8.25400 4.31500 29.19200
C  8.97100 3.72500 30.21700
C  8.47700 4.08000 31.58600
C  7.15900 4.85900 31.29100
C  7.32400 5.10100 29.77500
C  5.90300 3.99900 31.62900
C  9.43000 4.92700 32.43000
C  9.30300 4.65100 33.94000
H  10.57100 4.41100 34.80600
N  7.41500 5.80500 26.72400
C  6.56100 6.40000 27.62600
C  5.86000 7.41600 27.00400
C  6.16200 7.32500 25.57300
C  7.16700 6.29200 25.42600
C  4.87000 8.26000 27.78500
C  5.46700 8.03000 24.47400
O  5.74300 7.89900 23.29100
C  4.42200 9.14400 24.80900
N  9.08900 3.88500 24.94700
C  8.50200 4.63100 23.96200
C  8.77000 4.00800 22.53100
C  9.71300 2.83500 22.92400
C  9.72000 2.75900 24.42000
C  7.50700 3.63200 21.83600
C  11.15000 3.09200 22.40700
C  11.97300 1.96200 21.77400
N  10.06500 2.68300 27.42000
C  10.60700 1.77500 26.54000
C  11.32800 0.80400 27.31800
C  11.15400 1.20900 28.71100
C  10.32700 2.32300 28.65400
C  12.20200 -0.28300 26.91300
C  11.44700 0.86500 30.14000
O  12.14400 0.03200 30.64300
C  10.79800 2.04500 31.05600
C  10.15400 1.36900 32.20000
O  9.21500 0.57600 32.11300
O  10.89600 1.53600 33.34300
C  10.20200 0.92400 34.50800
H  5.90300 6.64200 29.71400
H  7.19100 5.99400 23.27600
H  10.86000 0.95200 24.68800
H  8.26500 3.08600 31.98000
H  6.97400 5.74800 31.89400
H  5.49100 4.42200 32.54500
H  6.12100 2.96600 31.89900
H  5.19500 3.94500 30.80200
H  9.14700 5.97800 32.35900
H  10.45100 4.90100 32.05000
H  8.64800 3.78000 33.92900
H  8.64300 5.38500 34.40200
H  3.91100 8.00600 27.33300
H  5.09100 9.32500 27.84500
H  4.91400 8.06300 28.85700
H  4.59100 9.66800 25.74900
H  3.46900 8.61900 24.88300
H  4.24200 9.88600 24.03100
H  9.19900 4.88900 22.05400
H  9.39500 1.92700 22.41000
H  7.53500 2.68100 21.30300
H  7.08700 4.43800 21.23500
H  6.77200 3.61000 22.64000
H  11.68600 3.53500 23.24600
H  11.24700 3.81200 21.59500
H  11.38700 1.17900 21.29300
H  12.56900 1.52700 22.57600
H  12.60300 2.39400 20.99700
H  12.69800 0.04200 25.99800
H  11.66800 -1.19700 26.64800
H  12.96700 -0.41900 27.67700
H  11.66900 2.53700 31.48800
H  10.22800 -0.16500 34.53600
H  9.16300 1.24500 34.57800
H  10.80500 1.26400 35.35100
Mg 48.17100 15.72200 28.94900
C  46.02300 15.62800 31.61400
C  50.24800 17.76500 30.65700
C  50.07600 16.08700 26.17100
C  45.70400 14.14300 26.95800
N  48.16500 16.51300 30.89900
C  47.22000 16.38400 31.85600
C  47.74600 16.84100 33.25900
C  49.02100 17.76300 32.86900
C  49.16000 17.37100 31.35400
C  48.79000 19.31500 32.93500
C  48.08900 15.61100 34.14400
C  47.89200 15.73500 35.69100
H  47.33500 17.05700 36.16700
N  49.95900 16.72400 28.54700
C  50.73300 17.40000 29.41800
C  51.98600 17.66700 28.84200
C  51.95500 17.29900 27.49700
C  50.54800 16.73700 27.32300
C  53.10800 18.19500 29.62700
C  53.10500 17.35900 26.45300
O  52.93700 16.85800 25.32700
C  54.36900 18.04800 26.71500
N  47.96600 15.19800 26.90600
C  48.84700 15.59200 25.91800
C  48.43500 15.05600 24.51300
C  47.13000 14.23000 24.86700
C  46.87400 14.53000 26.37200
C  48.31600 16.20500 23.53600
C  47.30200 12.70700 24.74500
C  46.53300 12.15000 23.52000
N  46.29500 15.09500 29.21500
C  45.43300 14.45900 28.30100
C  44.18700 14.20600 29.00300
C  44.38500 14.60600 30.34200
C  45.69600 15.10900 30.40700
C  43.01100 13.68000 28.31800
C  43.74100 14.56300 31.64200
O  42.65900 14.02700 31.96600
C  44.88300 15.24900 32.61800
C  44.23800 16.36600 33.38100
O  44.32700 17.56700 33.11100
O  43.60500 15.86100 34.50300
C  42.88900 16.85400 35.27300
H  50.85900 18.38400 31.31700
H  50.69100 16.18200 25.27300
H  44.96200 13.60400 26.36500
H  47.03300 17.55900 33.66700
H  49.91500 17.35400 33.34100
H  49.30400 19.87800 33.71300
H  47.74900 19.33500 33.25800
H  48.85200 19.78300 31.95200
H  49.15500 15.39300 34.08000
H  47.45900 14.78300 33.82000
H  48.85400 15.47400 36.13200
H  47.18800 14.93800 35.93100
H  53.95900 17.51400 29.64700
H  52.83800 18.42500 30.65700
H  53.37100 19.22600 29.38600
H  54.17100 19.08000 27.00500
H  54.87400 18.20200 25.76100
H  55.04300 17.55900 27.41800
H  49.31100 14.45200 24.27600
H  46.28300 14.60000 24.28900
H  47.32000 16.33400 23.11200
H  48.90600 15.88900 22.67600
H  48.65900 17.17700 23.88900
H  46.85800 12.17900 25.58900
H  48.34700 12.42600 24.61900
H  46.90400 11.13100 23.40200
H  46.53700 12.84500 22.68000
H  45.50600 11.90400 23.79100
H  43.13500 12.63900 28.02000
H  42.85100 14.24600 27.40000
H  42.08400 13.91000 28.84300
H  45.26000 14.57700 33.38900
H  41.93700 17.02300 34.77000
H  43.35600 17.83900 35.27500
H  42.80400 16.48700 36.29600

