158

Mg 40.56700 9.37500 29.40100
C  42.53800 10.78600 31.90700
C  38.64700 7.99700 31.99000
C  38.78600 7.53300 27.08600
C  42.75500 10.40800 27.02100
N  40.62300 9.44600 31.65500
C  41.50100 10.18400 32.42700
C  40.97900 10.23600 33.95900
C  39.65200 9.37400 33.85600
C  39.60000 8.94300 32.40700
C  39.63700 8.18100 34.87500
C  40.59500 11.57900 34.64700
C  39.75400 11.59700 35.99200
H  40.19900 12.60300 37.11500
N  38.90000 7.92800 29.57300
C  38.25100 7.48400 30.70300
C  37.13500 6.56100 30.36200
C  37.22400 6.39200 28.95400
C  38.34300 7.30800 28.48100
C  36.09100 6.00800 31.35500
C  36.38100 5.48100 28.06900
O  36.33500 5.60000 26.85900
C  35.55500 4.40000 28.65800
N  40.78400 8.96900 27.33400
C  39.85400 8.27900 26.59300
C  40.18200 8.36900 25.08100
C  41.42700 9.39200 25.09300
C  41.68300 9.61200 26.57000
C  40.33900 7.05200 24.33100
C  41.21200 10.72800 24.31400
C  40.34400 11.80300 25.03300
N  42.28000 10.33600 29.42800
C  43.13300 10.63700 28.33700
C  44.32300 11.35100 28.92500
C  44.09000 11.37000 30.33400
C  42.83500 10.84300 30.56500
C  45.52300 11.79000 28.06400
C  44.69000 11.81100 31.62600
O  45.73800 12.29800 31.87500
C  43.55200 11.55700 32.67300
C  44.17700 10.77700 33.74800
O  44.64000 9.61300 33.59400
O  44.22700 11.48200 34.94400
C  44.68800 10.67100 36.04200
H  37.87600 7.75400 32.72500
H  38.21900 7.05000 26.28800
H  43.42600 10.65600 26.19500
H  41.66300 9.78300 34.67600
H  38.76400 9.98900 34.00500
H  40.64200 7.78400 35.01700
H  39.03500 7.32300 34.57600
H  39.16300 8.44800 35.82000
H  39.92400 12.05800 33.93400
H  41.47100 12.18000 34.89000
H  39.58100 10.60600 36.41200
H  38.77400 12.02800 35.78800
H  36.10200 4.91800 31.37900
H  35.04200 6.21500 31.14800
H  36.39600 6.36900 32.33700
H  35.02500 3.83500 27.89100
H  34.90700 4.98000 29.31500
H  36.28300 3.82100 29.22500
H  39.23200 8.84200 24.83000
H  42.30400 8.86800 24.71400
H  41.34900 6.64100 24.34200
H  40.11200 7.29900 23.29400
H  39.65300 6.24800 24.59900
H  40.67300 10.38900 23.42900
H  42.12500 11.24200 24.01300
H  39.33000 11.79200 24.63300
H  40.61400 12.82900 24.78300
H  40.29100 11.70000 26.11700
H  46.24900 10.97700 28.04900
H  45.95200 12.59100 28.66600
H  45.20500 12.11200 27.07200
H  43.25900 12.50200 33.12900
H  45.76200 10.79100 36.18500
H  44.30400 9.65600 35.94200
H  44.22000 11.20200 36.87100
Mg -5.89900 25.51800 25.92000
C  -4.39100 26.86200 28.58000
C  -7.11300 23.00500 28.10900
C  -7.29300 23.85800 23.35600
C  -4.33400 27.62300 23.77000
N  -5.80000 25.03800 28.09000
C  -5.27100 25.85000 29.04000
C  -5.73400 25.46000 30.48400
C  -6.25900 24.04600 30.25600
C  -6.40300 23.98600 28.74500
C  -5.44400 22.93200 30.81200
C  -6.77500 26.43300 31.06400
C  -6.63800 26.75100 32.52400
H  -7.62200 26.09800 33.48900
N  -7.11800 23.76900 25.75200
C  -7.47700 22.88800 26.78400
C  -8.38700 21.81500 26.20100
C  -8.52500 22.12300 24.82100
C  -7.67000 23.29900 24.54600
C  -8.84600 20.57800 26.93900
C  -9.30400 21.32600 23.69500
O  -9.15300 21.49400 22.48800
C  -10.29400 20.22800 24.10600
N  -5.64700 25.51600 23.81600
C  -6.36800 24.84400 22.99200
C  -6.13200 25.24100 21.49000
C  -5.28800 26.53300 21.67800
C  -5.02900 26.54200 23.16500
C  -5.45000 24.30900 20.54700
C  -6.02600 27.77800 21.19500
C  -5.17200 28.64300 20.33700
N  -4.59700 26.95200 26.05600
C  -4.07700 27.87100 25.12900
C  -3.20500 28.77700 25.79800
C  -3.23900 28.42100 27.13500
C  -4.13200 27.29400 27.27300
C  -2.40200 29.94300 25.14900
C  -2.79100 28.78400 28.46300
O  -1.94200 29.55600 28.94100
C  -3.63300 27.80100 29.43600
C  -2.71000 27.09800 30.34200
O  -1.83500 26.26700 30.03100
O  -2.97900 27.46100 31.64500
C  -1.93000 27.00800 32.63900
H  -7.58100 22.26700 28.76300
H  -7.69300 23.51300 22.40000
H  -3.96300 28.32300 23.01900
H  -4.89900 25.31300 31.16900
H  -7.23700 23.99000 30.73400
H  -5.64300 22.71200 31.86100
H  -4.41400 23.27900 30.88400
H  -5.53700 22.03200 30.20400
H  -7.81100 26.15600 30.86500
H  -6.66000 27.38200 30.54200
H  -6.80000 27.81600 32.68800
H  -5.66400 26.44600 32.90700
H  -9.93300 20.57500 26.85400
H  -8.59800 20.68900 27.99500
H  -8.44200 19.65100 26.53300
H  -9.73200 19.35000 24.42500
H  -10.80100 19.95700 23.18000
H  -11.08900 20.61700 24.74300
H  -7.03900 25.49800 20.94400
H  -4.25500 26.42700 21.34500
H  -4.85400 23.60100 21.12300
H  -4.64600 24.63400 19.88700
H  -6.18600 23.68800 20.03800
H  -6.48100 28.30800 22.03100
H  -6.89400 27.48900 20.60300
H  -5.35200 28.84200 19.28100
H  -4.13800 28.31200 20.44000
H  -5.21700 29.65200 20.74600
H  -2.93400 30.53400 24.40300
H  -1.47100 29.60200 24.69500
H  -2.17700 30.63500 25.96100
H  -4.36800 28.33000 30.04300
H  -2.24400 26.02900 33.00000
H  -2.07800 27.55600 33.56900
H  -0.89500 27.13500 32.32100

