158

Mg 1.28300 -2.83000 44.01800
C  4.55800 -2.30000 43.27200
C  0.35500 -0.13800 42.04100
C  -1.93300 -3.62700 44.41800
C  2.28100 -5.76600 45.71500
N  2.33100 -1.46200 42.75900
C  3.67100 -1.38900 42.72200
C  4.13500 -0.29700 41.75700
C  2.76500 0.54400 41.52500
C  1.74600 -0.42300 42.09400
C  2.77100 1.88900 42.30100
C  4.75500 -0.82400 40.44000
C  5.91500 0.04900 39.97400
H  5.80400 0.59100 38.52500
N  -0.59100 -2.01300 43.19800
C  -0.76400 -0.86900 42.46900
C  -2.16300 -0.60400 42.23400
C  -2.89400 -1.62200 42.96400
C  -1.83000 -2.52300 43.51500
C  -2.64800 0.60400 41.58300
C  -4.44400 -1.65500 43.17100
O  -5.20600 -0.79700 42.72000
C  -5.20300 -2.72000 43.96600
N  0.33200 -4.51300 44.95900
C  -1.02000 -4.53800 44.98000
C  -1.52000 -5.85200 45.66900
C  -0.13300 -6.51100 46.18800
C  0.92700 -5.60300 45.64200
C  -2.82700 -5.75900 46.63200
C  0.10300 -7.92200 45.62800
C  0.84500 -8.92500 46.56400
N  3.08200 -3.79200 44.55800
C  3.33300 -4.97400 45.28300
C  4.74500 -5.23800 45.31800
C  5.26300 -4.14700 44.60200
C  4.22000 -3.34300 44.11700
C  5.38300 -6.40700 46.03000
C  6.49000 -3.54100 44.25300
O  7.65300 -3.79900 44.64100
C  6.12100 -2.36200 43.24900
C  6.75200 -1.02600 43.66400
O  7.40500 -0.31500 42.85100
O  6.49500 -0.64500 44.98900
C  6.84000 0.70900 45.31800
H  0.00800 0.67800 41.40400
H  -2.98700 -3.90600 44.47500
H  2.53100 -6.68800 46.24500
H  4.86900 0.37600 42.20000
H  2.52600 0.81300 40.49600
H  3.72800 2.03700 42.80100
H  1.94700 1.84700 43.01200
H  2.67500 2.71700 41.59800
H  3.96500 -0.77400 39.69100
H  5.15600 -1.82300 40.61200
H  6.82400 -0.55000 40.03000
H  6.10900 0.90900 40.61500
H  -3.72100 0.77700 41.49600
H  -2.10000 0.65200 40.64200
H  -2.25400 1.48800 42.08400
H  -4.80900 -3.04300 44.92900
H  -5.16300 -3.61500 43.34500
H  -6.26600 -2.50400 44.07800
H  -2.02200 -6.36900 44.85100
H  -0.05500 -6.38100 47.26700
H  -2.49000 -6.23700 47.55200
H  -3.71600 -6.19400 46.17600
H  -2.92500 -4.70000 46.87200
H  0.72300 -7.78200 44.74200
H  -0.89900 -8.29800 45.41800
H  0.18600 -9.65600 47.03200
H  1.09200 -8.34500 47.45400
H  1.72900 -9.38800 46.12500
H  6.24900 -6.04200 46.58300
H  5.61500 -7.25700 45.38800
H  4.74700 -6.67900 46.87200
H  6.47100 -2.63700 42.25400
H  6.03100 0.86600 46.03200
H  6.65100 1.41800 44.51300
H  7.80700 0.72700 45.82100
Mg 17.13300 -1.70200 27.58500
C  15.86000 0.20100 30.17700
C  19.36500 -3.19500 29.71700
C  18.21300 -3.52300 24.91500
C  15.10800 0.09000 25.41200
N  17.54000 -1.49400 29.72000
C  16.93900 -0.63200 30.59700
C  17.44100 -0.92300 31.97600
C  18.62200 -1.89900 31.76200
C  18.60100 -2.19500 30.30200
C  20.02800 -1.36300 32.07600
C  16.27200 -1.52200 32.90100
C  16.11500 -0.97500 34.37500
H  17.40300 -0.23100 34.88400
N  18.54200 -3.21400 27.36700
C  19.31300 -3.74900 28.41700
C  20.01500 -4.91900 27.87400
C  19.83000 -4.85700 26.45400
C  18.82300 -3.83000 26.17800
C  20.92700 -5.68800 28.79100
C  20.43300 -5.75000 25.39700
O  20.16000 -5.76200 24.17400
C  21.55200 -6.70900 25.76100
N  16.79700 -1.69200 25.41800
C  17.29800 -2.55400 24.52700
C  16.94400 -2.16400 23.08900
C  15.81500 -1.09000 23.29300
C  15.87800 -0.85300 24.79500
C  18.17200 -1.66700 22.28200
C  14.43600 -1.56700 22.75300
C  13.70300 -2.53300 23.70900
N  15.64000 -0.28100 27.74200
C  14.85400 0.32500 26.74200
C  13.99100 1.33600 27.38100
C  14.35500 1.28400 28.73000
C  15.34100 0.34500 28.89000
C  13.07300 2.28400 26.71000
C  14.03900 1.85900 30.03300
O  13.26000 2.70800 30.43700
C  14.92000 1.10300 31.08400
C  15.58800 2.00700 32.06500
O  16.73600 2.39900 32.07400
O  14.61300 2.55500 32.82300
C  15.00900 3.45600 33.93200
H  20.09900 -3.75100 30.30300
H  18.54200 -4.07600 24.03300
H  14.45600 0.53700 24.65900
H  17.86300 -0.02600 32.43000
H  18.46400 -2.85100 32.26900
H  19.95600 -0.32700 32.40900
H  20.60000 -1.39500 31.14900
H  20.41000 -2.04300 32.83800
H  16.33700 -2.60900 32.87600
H  15.34800 -1.34900 32.34900
H  15.85200 -1.74800 35.09700
H  15.28400 -0.27400 34.28900
H  21.93000 -5.27100 28.69400
H  20.91700 -6.75800 28.58500
H  20.70700 -5.52800 29.84700
H  21.03500 -7.64900 25.95100
H  22.18800 -6.50700 26.62300
H  22.21300 -6.71900 24.89400
H  16.51300 -3.05700 22.63500
H  16.05600 -0.18600 22.73500
H  18.08000 -0.66700 21.85700
H  18.41500 -2.46600 21.58100
H  19.05800 -1.59300 22.91200
H  14.53600 -2.12800 21.82400
H  13.78000 -0.72900 22.51600
H  13.21700 -1.92500 24.47200
H  14.40300 -3.22500 24.17800
H  12.90900 -2.93300 23.08000
H  12.44100 2.77100 27.45300
H  12.45600 1.70600 26.02100
H  13.74200 2.97700 26.20100
H  14.25200 0.43600 31.62900
H  14.25300 3.34200 34.70800
H  15.04600 4.49700 33.61100
H  15.98700 3.28200 34.37800

