158

Mg 40.98400 9.35400 30.07100
C  43.06300 10.42600 32.48100
C  38.67900 8.24200 32.48600
C  39.00800 7.95300 27.69700
C  43.54700 9.68100 27.70100
N  40.98500 9.19900 32.32600
C  41.89700 9.91500 33.02300
C  41.43300 9.93400 34.45000
C  40.13900 8.97000 34.43700
C  39.85800 8.91600 32.99800
C  40.23200 7.58200 35.12400
C  41.08700 11.37000 34.97200
C  40.64000 11.36900 36.40500
H  41.30800 12.37500 37.45600
N  39.02800 8.39500 30.10600
C  38.28200 7.99600 31.17200
C  36.97000 7.56900 30.73300
C  37.03900 7.43500 29.31700
C  38.39700 7.88600 28.98500
C  35.86700 7.15900 31.67200
C  35.97800 7.05900 28.29000
O  36.09300 7.10700 27.00900
C  34.71400 6.45400 28.81000
N  41.27700 8.70300 28.00000
C  40.32800 8.25200 27.24100
C  40.82900 8.12700 25.75400
C  42.15300 8.84600 25.79200
C  42.37600 9.08600 27.25900
C  40.85000 6.71300 25.19700
C  42.15400 10.25100 24.97900
C  41.67300 11.51200 25.66000
N  42.93300 9.91100 30.00900
C  43.87400 10.07700 29.03400
C  45.06400 10.72900 29.53900
C  44.75800 10.95800 30.93700
C  43.48600 10.37500 31.14800
C  46.37600 11.09100 28.88500
C  45.30200 11.52600 32.20200
O  46.34700 12.09200 32.48600
C  44.19500 11.13900 33.22600
C  44.83700 10.20000 34.09100
O  44.95900 8.99800 34.00000
O  45.33400 10.98400 35.13900
C  45.97200 10.27500 36.17800
H  38.00600 7.94600 33.29300
H  38.40900 7.58200 26.86200
H  44.17500 10.13100 26.92900
H  42.22200 9.48400 35.05200
H  39.22800 9.38200 34.87300
H  39.69500 7.56500 36.07200
H  41.25300 7.22700 35.26400
H  39.74700 6.85500 34.47300
H  40.37000 11.82800 34.29100
H  42.03300 11.91200 34.96600
H  40.76000 10.34600 36.76100
H  39.61600 11.74100 36.35500
H  35.63900 6.09300 31.69600
H  34.91800 7.65400 31.46700
H  36.17200 7.39700 32.69100
H  34.87900 5.51200 29.33300
H  34.04300 6.12500 28.01600
H  34.04600 7.16200 29.30000
H  40.06600 8.80400 25.37100
H  42.88000 8.10600 25.45600
H  41.02800 5.97600 25.98100
H  41.60000 6.52800 24.42800
H  39.94600 6.50700 24.62400
H  41.41100 9.97900 24.22900
H  43.15000 10.27600 24.53700
H  41.19700 11.34100 26.62600
H  40.83700 11.83300 25.03800
H  42.44000 12.26400 25.84300
H  46.58300 10.29900 28.16500
H  47.24000 11.13200 29.54700
H  46.18300 11.94100 28.23100
H  43.81700 12.02500 33.73700
H  46.58200 9.38900 36.00300
H  45.25000 9.89300 36.90000
H  46.55500 11.04700 36.67800
Mg -11.44800 37.90500 43.00500
C  -9.75200 35.03000 41.77300
C  -9.01600 39.85800 41.36800
C  -13.45300 40.68400 43.28200
C  -13.93800 35.90100 44.24200
N  -9.68800 37.48700 41.72500
C  -9.22300 36.27400 41.33900
C  -7.99900 36.38500 40.44100
C  -7.54200 37.86700 40.67400
C  -8.81000 38.45100 41.39700
C  -6.14500 38.07100 41.49300
C  -8.20700 35.91200 38.92400
C  -7.26300 34.75000 38.43800
H  -6.30200 35.08900 37.29300
N  -11.24400 39.99600 42.44300
C  -10.20000 40.53600 41.72300
C  -10.38300 42.00800 41.75600
C  -11.59600 42.31700 42.44000
C  -12.20800 40.99300 42.71800
C  -9.40400 43.07000 41.11400
C  -12.17400 43.72900 42.69600
O  -11.62100 44.70900 42.29600
C  -13.41400 43.96200 43.57000
N  -13.40400 38.23600 43.56900
C  -14.03700 39.43800 43.57000
C  -15.46600 39.34500 44.12000
C  -15.64900 37.78300 44.43200
C  -14.24200 37.26500 43.99700
C  -15.82900 40.16200 45.39600
C  -16.74900 37.04100 43.45300
C  -17.53800 35.86400 44.04500
N  -11.85100 35.82200 42.97500
C  -12.85200 35.17300 43.55900
C  -12.56900 33.72000 43.63900
C  -11.39300 33.62000 42.89200
C  -11.01000 34.92100 42.50400
C  -13.44700 32.75400 44.28900
C  -10.33200 32.64000 42.43600
O  -10.23800 31.45800 42.60600
C  -9.22300 33.60500 41.63700
C  -7.84500 33.26400 42.26400
O  -7.26800 32.20300 42.18900
O  -7.31300 34.36400 42.89400
C  -5.96300 34.28500 43.50700
H  -8.21200 40.41700 40.88500
H  -14.14200 41.52700 43.20400
H  -14.68800 35.32000 44.78300
H  -7.20300 35.70700 40.75000
H  -7.49400 38.31700 39.68200
H  -5.44000 38.53900 40.80600
H  -5.66500 37.17000 41.87500
H  -6.40600 38.68700 42.35300
H  -7.97200 36.77400 38.30100
H  -9.23100 35.56700 38.77400
H  -7.92200 33.93600 38.13500
H  -6.61100 34.39100 39.23400
H  -9.82700 43.58900 40.25300
H  -8.44200 42.62400 40.86100
H  -9.28800 43.89000 41.82200
H  -14.30400 43.67400 43.01100
H  -13.34200 45.04200 43.70100
H  -13.36000 43.47300 44.54200
H  -16.04300 39.77200 43.30000
H  -15.89400 37.57900 45.47400
H  -16.46500 40.95400 45.00000
H  -14.89300 40.54800 45.79900
H  -16.30900 39.60700 46.20200
H  -16.24300 36.56800 42.61200
H  -17.43900 37.74300 42.98500
H  -17.73200 36.09300 45.09300
H  -16.90800 34.98100 43.93600
H  -18.48600 35.72700 43.52300
H  -13.23500 31.68400 44.28100
H  -14.39100 32.88800 43.76000
H  -13.45600 33.03800 45.34100
H  -9.32600 33.20400 40.62800
H  -5.49700 33.31400 43.34600
H  -6.16200 34.38600 44.57400
H  -5.40600 35.18200 43.23600

