158

Mg 54.55600 23.58400 44.75000
C  52.03200 25.66400 43.57200
C  52.96000 20.97800 42.84500
C  57.31500 21.61300 44.85800
C  56.32500 26.32100 45.58700
N  52.85100 23.43400 43.14100
C  51.93900 24.40500 42.88400
C  50.84500 23.98400 41.87400
C  51.05500 22.42700 41.84500
C  52.34200 22.20900 42.70600
C  49.82700 21.58500 42.36100
C  51.06600 24.85500 40.59100
C  51.22000 24.12000 39.26300
H  51.30200 24.84900 37.90600
N  55.03000 21.55500 44.16300
C  54.20400 20.69600 43.42200
C  54.87300 19.36200 43.39400
C  56.06400 19.48100 44.12400
C  56.18300 20.88000 44.50700
C  54.30400 18.34300 42.51200
C  57.04000 18.40800 44.28800
O  56.92700 17.32700 43.67600
C  58.22800 18.46000 45.23400
N  56.53300 23.94900 45.01500
C  57.51400 22.91700 45.11700
C  58.81200 23.56600 45.51200
C  58.58400 25.11000 45.66000
C  57.06600 25.11800 45.43300
C  59.48000 22.95800 46.75500
C  59.44500 26.04600 44.80400
C  60.06400 27.15500 45.63800
N  54.22400 25.62700 44.85500
C  54.97400 26.57000 45.41900
C  54.28400 27.82300 45.46100
C  53.05600 27.50600 44.79000
C  53.12400 26.19400 44.33600
C  54.72700 29.08500 46.10000
C  51.79300 28.01800 44.39300
O  51.37300 29.15400 44.55200
C  51.06600 26.84000 43.60200
C  50.62900 27.42300 42.35400
O  51.38700 27.90300 41.52300
O  49.25800 27.44200 42.27900
C  48.67500 28.09300 41.06100
H  52.46600 20.11500 42.39400
H  58.18800 20.98600 44.66700
H  56.95100 27.15500 45.91100
H  49.89200 24.31500 42.28800
H  51.24100 22.07000 40.83200
H  49.07700 21.63300 41.57100
H  49.45700 21.88300 43.34200
H  50.24800 20.58200 42.29400
H  52.00500 25.40600 40.63500
H  50.31100 25.63800 40.51900
H  50.52300 23.28700 39.17800
H  52.21500 23.67500 39.24000
H  54.11500 18.77400 41.52900
H  53.38300 17.96500 42.95600
H  54.81800 17.40000 42.32300
H  58.17100 19.20000 46.03200
H  58.89300 18.94800 44.52200
H  58.51300 17.47500 45.60500
H  59.57400 23.44600 44.74200
H  58.56700 25.41600 46.70600
H  59.31600 23.60300 47.61700
H  60.56600 23.04600 46.71400
H  59.04400 21.97700 46.94300
H  58.82600 26.46300 44.01000
H  60.24100 25.48500 44.31400
H  59.74400 28.13200 45.27600
H  61.14000 26.98200 45.62300
H  59.80000 27.07800 46.69200
H  55.81000 29.12000 45.98600
H  54.59900 29.15800 47.18000
H  54.35400 29.87300 45.44500
H  50.17200 26.51600 44.13500
H  49.08600 27.64700 40.15600
H  48.91100 29.15600 41.00500
H  47.58700 28.11000 41.12200
Mg 16.54700 52.55600 26.80700
C  18.39100 50.71400 29.27200
C  14.34700 53.44100 29.19800
C  14.47900 53.43800 24.37100
C  18.83100 51.24200 24.38000
N  16.27300 51.81400 29.00800
C  17.24500 51.31100 29.79300
C  17.04400 51.64800 31.34300
C  15.60000 52.29200 31.22000
C  15.39500 52.56900 29.72700
C  14.51300 51.36300 31.84300
C  18.15400 52.49700 31.89800
C  18.82000 52.11500 33.22700
H  18.27200 52.64800 34.60700
N  14.70100 53.37900 26.74100
C  13.98300 53.76100 27.83100
C  12.77500 54.39100 27.35900
C  12.79000 54.44600 25.95100
C  14.04700 53.73900 25.61700
C  11.70500 54.90700 28.30300
C  11.80400 54.94300 24.93900
O  11.85600 54.65200 23.72000
C  10.62200 55.63400 25.41100
N  16.58600 52.23200 24.69700
C  15.66900 52.79700 23.88600
C  16.12000 52.89500 22.43700
C  17.55400 52.25300 22.50200
C  17.70200 51.84800 23.91400
C  15.10800 52.26600 21.40500
C  18.73400 53.19800 22.02100
C  19.17800 54.33400 23.00300
N  18.23900 51.17100 26.75600
C  19.03700 50.82400 25.72300
C  20.21900 50.16000 26.26400
C  20.01200 50.07500 27.66400
C  18.76700 50.65200 27.88600
C  21.41300 49.63600 25.44100
C  20.53900 49.63800 28.93600
O  21.63100 49.08500 29.12500
C  19.46800 50.13300 30.00100
C  18.90400 48.95500 30.76600
O  18.02000 48.20400 30.30800
O  19.47800 48.86300 31.93800
C  18.77400 48.02900 32.93000
H  13.76800 53.77900 30.06000
H  14.00400 54.02300 23.58100
H  19.71800 51.13700 23.75000
H  16.92000 50.75700 31.95800
H  15.60100 53.19500 31.83100
H  14.17400 51.90500 32.72600
H  14.77400 50.38200 32.24200
H  13.72700 51.23500 31.09900
H  17.79600 53.51100 32.07300
H  18.90500 52.60100 31.11400
H  19.87700 52.34800 33.09900
H  18.81100 51.03200 33.35400
H  11.53300 55.98100 28.23000
H  11.83500 54.60700 29.34300
H  10.71000 54.55900 28.02500
H  10.11000 54.88800 26.02000
H  10.01000 55.95300 24.56800
H  11.08800 56.42600 25.99600
H  16.38400 53.92300 22.18900
H  17.54100 51.28100 22.00800
H  15.11300 51.18200 21.51500
H  15.37500 52.68600 20.43500
H  14.18200 52.65500 21.82900
H  18.32000 53.70400 21.14900
H  19.61500 52.59000 21.81500
H  18.40700 55.10400 22.98500
H  20.08900 54.81200 22.64400
H  19.26100 53.90000 23.99900
H  22.16700 49.22900 26.11400
H  21.89000 50.40100 24.82900
H  21.12400 48.83100 24.76500
H  20.01000 50.74100 30.72500
H  18.66800 48.48700 33.91400
H  19.29700 47.09300 33.12400
H  17.71600 47.78600 32.83000

