158

Mg 47.70600 34.45400 27.25000
C  45.97000 33.02900 29.87200
C  47.71400 37.51400 29.20100
C  48.98600 36.15100 24.70500
C  47.10200 31.67100 25.28600
N  46.88500 35.18000 29.31600
C  46.42800 34.30800 30.29200
C  46.45700 35.00100 31.62000
C  46.61100 36.50400 31.25300
C  47.09500 36.42900 29.82900
C  45.25300 37.31900 31.57800
C  47.45700 34.45200 32.68200
C  46.79400 34.16600 34.06200
H  45.61200 34.95000 34.51700
N  48.22400 36.55400 26.89200
C  48.23900 37.63400 27.83000
C  48.85800 38.82700 27.29900
C  49.36400 38.36300 26.01400
C  48.82400 36.98700 25.81300
C  48.96800 40.17400 28.03500
C  50.16600 39.08600 24.95800
O  50.63800 38.55700 23.97000
C  50.45900 40.65400 25.20000
N  47.71100 34.06500 25.15000
C  48.49000 34.83200 24.43600
C  48.76100 34.21800 23.10700
C  48.34800 32.73300 23.16700
C  47.73400 32.75100 24.63600
C  48.09800 34.98500 21.92900
C  49.51400 31.69200 22.86400
C  49.40500 30.53100 21.81100
N  46.73600 32.65900 27.42700
C  46.54800 31.57700 26.57100
C  45.75700 30.58300 27.20200
C  45.47000 31.09100 28.49300
C  46.10300 32.35900 28.59300
C  45.36000 29.28600 26.46500
C  44.90600 30.81200 29.78100
O  44.40100 29.74100 30.15300
C  45.15400 32.05900 30.67600
C  45.69500 31.57300 31.97700
O  46.83600 31.21500 32.15800
O  44.75600 31.48200 32.95500
C  44.99900 30.67300 34.18900
H  47.54800 38.44100 29.75300
H  49.61100 36.59000 23.92400
H  47.08500 30.74100 24.71300
H  45.43800 34.82800 31.96500
H  47.42000 37.04700 31.74200
H  44.70000 37.50600 30.65700
H  45.43900 38.28600 32.04400
H  44.53900 36.76800 32.19000
H  48.21100 35.23100 32.79300
H  47.87700 33.51000 32.32800
H  47.59300 34.08100 34.79800
H  46.43400 33.14400 33.95100
H  48.66900 40.08500 29.07900
H  48.38200 40.93300 27.51700
H  50.00600 40.48300 28.15600
H  49.58700 41.21000 25.54600
H  50.86600 41.03900 24.26500
H  51.28800 40.68500 25.90700
H  49.83300 34.35400 22.96300
H  47.53100 32.56700 22.46400
H  47.87800 34.31500 21.09800
H  48.72700 35.82900 21.64500
H  47.17800 35.50100 22.20700
H  49.78400 31.15300 23.77200
H  50.42700 32.24800 22.64900
H  49.64700 29.68200 22.44900
H  50.11400 30.69800 21.00000
H  48.41000 30.44500 21.37300
H  46.23700 28.78400 26.05800
H  44.72400 29.50100 25.60500
H  44.75900 28.57300 27.02800
H  44.12500 32.37900 30.84200
H  44.69600 31.27200 35.04800
H  46.03700 30.34200 34.24400
H  44.34000 29.81100 34.09300
Mg -1.63200 35.06500 26.85900
C  -3.21400 33.64000 29.68500
C  -0.48500 37.55000 28.75400
C  -0.91500 36.67300 23.93600
C  -3.49900 32.67100 24.90100
N  -2.02200 35.53600 29.02900
C  -2.47100 34.78300 30.00600
C  -2.14400 35.33100 31.36500
C  -1.34600 36.68200 30.99100
C  -1.13200 36.51100 29.50000
C  -2.01300 38.01300 31.44600
C  -1.30200 34.28400 32.15900
C  -1.92600 33.86700 33.59300
H  -0.97300 34.13100 34.74300
N  -0.76600 36.85400 26.39900
C  -0.30500 37.72100 27.37800
C  0.36000 38.78700 26.69900
C  0.26500 38.55300 25.30700
C  -0.55800 37.33800 25.14000
C  0.90400 39.92300 27.47600
C  0.88200 39.34200 24.20400
O  0.76600 39.05300 23.04600
C  1.71800 40.51700 24.57400
N  -2.25600 34.70500 24.79300
C  -1.63900 35.45700 23.76400
C  -1.91400 34.87100 22.35600
C  -2.82000 33.66200 22.66300
C  -2.81900 33.62200 24.23100
C  -2.50200 35.88200 21.28500
C  -2.42300 32.40100 21.92900
C  -1.06900 31.76600 22.36700
N  -3.00300 33.41000 27.15200
C  -3.65100 32.63200 26.30000
C  -4.38400 31.64400 27.00600
C  -4.22400 31.96800 28.34100
C  -3.39700 33.11300 28.39000
C  -5.15700 30.56000 26.38000
C  -4.62500 31.50600 29.64700
O  -5.33800 30.60300 30.02700
C  -3.93200 32.57600 30.64700
C  -5.01000 33.14800 31.41800
O  -5.88100 33.93700 31.09000
O  -4.82200 32.67100 32.65900
C  -5.86800 32.91800 33.65900
H  -0.02400 38.27700 29.42700
H  -0.46600 37.04700 23.01400
H  -4.19100 31.99900 24.38800
H  -3.13500 35.49900 31.78600
H  -0.30800 36.79100 31.30500
H  -2.73100 37.96100 32.26400
H  -2.46700 38.43800 30.55100
H  -1.13800 38.57600 31.77000
H  -0.25900 34.58200 32.25900
H  -1.35800 33.36500 31.57600
H  -2.17700 32.80600 33.58600
H  -2.85700 34.37400 33.84500
H  1.00300 39.70800 28.54000
H  0.34100 40.85100 27.37300
H  1.93600 40.09400 27.17000
H  1.27200 41.29800 25.18900
H  2.03400 40.95200 23.62600
H  2.59300 40.14200 25.10600
H  -0.89200 34.61000 22.08100
H  -3.86300 33.81300 22.38800
H  -2.51400 36.79900 21.87400
H  -3.48800 35.50400 21.01600
H  -1.77700 35.79300 20.47500
H  -2.50800 32.68500 20.88000
H  -3.13100 31.58600 22.08200
H  -1.43200 30.75700 22.56000
H  -0.69700 32.20400 23.29300
H  -0.29100 31.74700 21.60400
H  -5.51100 29.77600 27.05000
H  -4.56300 30.10200 25.58900
H  -6.01500 30.92600 25.81700
H  -3.25200 31.99200 31.26700
H  -5.24900 33.08700 34.54000
H  -6.40800 31.98400 33.81400
H  -6.52500 33.75300 33.41600

