158

Mg 36.30100 48.98700 25.45400
C  36.38000 47.19900 28.50800
C  35.35800 51.85900 27.20200
C  35.63200 50.45400 22.48900
C  37.35100 46.10200 23.77200
N  35.66300 49.37400 27.57300
C  35.91600 48.53000 28.63900
C  35.80000 49.28400 29.94000
C  35.24400 50.68600 29.47000
C  35.42200 50.67000 27.97500
C  33.79500 51.15400 29.85500
C  37.20100 49.29500 30.72200
C  37.23100 49.04900 32.27300
H  35.86900 48.84800 32.94500
N  35.60100 50.88500 24.93300
C  35.39200 51.96700 25.78900
C  35.13000 53.19900 25.02500
C  35.08800 52.81200 23.64300
C  35.40500 51.25600 23.57900
C  34.83600 54.60400 25.63600
C  34.85000 53.64600 22.41400
O  34.83300 53.12300 21.30600
C  34.48400 55.02900 22.48100
N  36.33500 48.33000 23.45100
C  36.08100 49.17800 22.40600
C  36.42400 48.43400 21.07000
C  36.97200 47.04000 21.45300
C  36.94900 47.18600 23.01100
C  35.16600 48.29600 20.07500
C  38.34200 46.74300 20.89400
C  39.57900 47.34100 21.59100
N  36.75100 46.99800 25.97300
C  37.28900 46.00000 25.17300
C  37.48500 44.84900 26.07600
C  37.23200 45.33200 27.39100
C  36.81400 46.67500 27.27600
C  37.78400 43.44000 25.49200
C  37.12000 44.92300 28.82700
O  37.32000 43.83300 29.27400
C  36.56500 46.11600 29.57900
C  35.24400 45.73400 30.20300
O  34.17100 45.94800 29.63100
O  35.31700 45.14700 31.41300
C  34.02900 44.91300 32.10500
H  35.13300 52.76900 27.76100
H  35.52100 50.97200 21.53400
H  37.58400 45.21600 23.17700
H  35.00600 48.82500 30.53000
H  35.87800 51.49800 29.82500
H  33.98300 51.97100 30.55100
H  33.25600 50.31300 30.29400
H  33.22500 51.66100 29.07700
H  37.74300 50.21700 30.50800
H  37.81500 48.53700 30.23600
H  37.68000 49.91800 32.75500
H  37.89500 48.22400 32.52900
H  33.76000 54.76700 25.68700
H  35.36300 55.39500 25.10200
H  35.25400 54.62300 26.64300
H  34.40800 55.42100 21.46700
H  35.36900 55.47600 22.93200
H  33.59900 55.15300 23.10500
H  37.12000 49.03000 20.48000
H  36.22400 46.28200 21.22000
H  34.29800 48.51200 20.69700
H  35.17100 47.32400 19.58000
H  35.17300 49.10700 19.34700
H  38.30900 47.09700 19.86300
H  38.48700 45.66300 20.87800
H  39.27500 48.00400 22.40100
H  40.12500 47.90400 20.83500
H  40.28000 46.53200 21.79500
H  38.29100 43.45200 24.52800
H  36.85300 42.96000 25.19000
H  38.29400 42.82700 26.23500
H  37.30800 46.38900 30.32900
H  33.15800 45.34100 31.60900
H  34.13200 45.52600 33.00000
H  33.82600 43.88600 32.40700
Mg 9.44400 48.22000 25.80300
C  7.02500 48.49400 28.50100
C  11.76800 49.54600 27.97700
C  11.70200 47.76800 23.33400
C  6.80000 47.60300 23.61100
N  9.36700 48.87300 27.96600
C  8.36800 48.72000 28.89400
C  8.87700 48.96700 30.32400
C  10.29400 49.71200 30.00600
C  10.51500 49.34100 28.56900
C  10.36400 51.21400 30.25300
C  9.04900 47.68500 31.19200
C  8.70300 47.89600 32.66000
H  8.66300 46.65900 33.48200
N  11.44800 48.53800 25.67700
C  12.25800 49.08700 26.68600
C  13.58600 49.11300 26.21000
C  13.56000 48.65100 24.84900
C  12.21200 48.22700 24.54000
C  14.82200 49.53100 27.12900
C  14.75000 48.56500 23.94800
O  14.65400 48.23100 22.80200
C  16.17000 49.07600 24.31200
N  9.22500 47.85000 23.77300
C  10.38500 47.63300 22.98900
C  9.91000 47.23800 21.61900
C  8.33200 47.23000 21.59400
C  8.07900 47.55600 23.08500
C  10.42900 48.18400 20.50400
C  7.67600 45.92100 21.17800
C  7.49000 45.95200 19.64600
N  7.34300 48.06900 25.89700
C  6.44200 47.84600 24.91800
C  5.08400 47.83900 25.49100
C  5.26800 48.07300 26.86600
C  6.68400 48.23700 27.10200
C  3.72500 47.68200 24.75100
C  4.60300 48.06200 28.17300
O  3.40100 47.86300 28.44200
C  5.68700 48.49100 29.18400
C  5.52400 47.63800 30.36200
O  5.73200 46.39900 30.47600
O  4.83600 48.41000 31.33300
C  4.45400 47.57600 32.48500
H  12.55800 49.80800 28.68400
H  12.47300 47.41800 22.64400
H  5.96900 47.33800 22.95500
H  8.11500 49.61800 30.75200
H  11.14500 49.29300 30.54300
H  10.54800 51.74000 29.31700
H  11.11500 51.39300 31.02300
H  9.36300 51.51400 30.56200
H  10.09800 47.41600 31.07100
H  8.42800 46.93200 30.70800
H  7.65100 48.17800 32.63700
H  9.35600 48.64800 33.10600
H  15.55000 48.71900 27.12300
H  14.50300 49.51000 28.17100
H  15.42800 50.38900 26.84000
H  16.18800 50.08400 24.72700
H  16.68600 49.08100 23.35300
H  16.65000 48.37600 24.99600
H  10.39700 46.27400 21.47100
H  7.90800 48.09500 21.08300
H  10.91300 47.44000 19.87100
H  11.21400 48.85700 20.84900
H  9.72900 48.82600 19.96800
H  6.77400 45.80400 21.77900
H  8.42500 45.15500 21.37900
H  6.44300 45.80200 19.38500
H  7.98000 45.11700 19.14400
H  7.71200 46.90900 19.17400
H  3.05100 48.33300 25.30800
H  3.40300 46.65900 24.55800
H  3.81200 48.10300 23.75000
H  5.41600 49.51000 29.46200
H  5.21800 47.63800 33.26000
H  4.25600 46.56700 32.12300
H  3.57200 48.01100 32.95300

