158

Mg 9.07500 3.06100 27.69700
C  10.42800 1.77100 30.67300
C  7.09200 5.14000 29.67400
C  7.52300 4.02000 25.06300
C  10.56800 0.29000 26.10700
N  8.60000 3.16400 29.93300
C  9.49300 2.75500 30.90400
C  9.20800 3.40300 32.27800
C  7.91400 4.21700 31.95300
C  7.88000 4.20900 30.38900
C  6.63100 3.58400 32.52400
C  10.43200 4.27600 32.75500
C  10.88900 4.12800 34.21200
H  9.90400 3.65100 35.20800
N  7.60500 4.54600 27.37400
C  7.01100 5.32200 28.29000
C  6.25200 6.26600 27.57000
C  6.24300 5.96000 26.19900
C  7.13000 4.80300 26.10800
C  5.58600 7.50700 28.27100
C  5.50500 6.62200 25.06000
O  5.63100 6.16100 23.91600
C  4.49800 7.86300 25.31700
N  9.23900 2.41700 25.81300
C  8.38800 2.90100 24.89500
C  8.61700 2.29700 23.48200
C  9.44500 1.10800 23.92100
C  9.77700 1.21900 25.38800
C  7.32300 1.87600 22.71800
C  10.68500 0.87400 23.06900
C  10.65600 -0.40400 22.23700
N  10.45000 1.52800 28.22100
C  10.94000 0.52600 27.44000
C  11.81400 -0.31700 28.25500
C  11.69500 0.12900 29.52000
C  10.73000 1.16100 29.45800
C  12.70600 -1.37600 27.70300
C  12.14300 -0.00500 30.86700
O  13.06300 -0.68900 31.29800
C  11.27000 1.03800 31.65800
C  10.46400 0.30000 32.75100
O  9.30300 -0.12500 32.65300
O  11.27200 0.04800 33.85400
C  10.59700 -0.65600 34.86700
H  6.46600 5.88000 30.17700
H  7.16100 4.35000 24.08700
H  10.76500 -0.64900 25.58600
H  8.93900 2.62100 32.98900
H  7.95100 5.22700 32.36100
H  6.37500 4.15900 33.41400
H  6.98200 2.58400 32.78000
H  5.89300 3.39600 31.74500
H  10.12100 5.31200 32.61700
H  11.18700 4.17700 31.97600
H  11.24700 5.12700 34.45600
H  11.79900 3.52900 34.24400
H  6.01600 7.78300 29.23400
H  4.51100 7.34300 28.33700
H  5.68400 8.38300 27.62900
H  3.89900 8.11500 24.44200
H  5.12700 8.72400 25.54400
H  3.84400 7.59600 26.14700
H  9.25500 3.00800 22.95700
H  8.81400 0.22000 23.90800
H  6.49100 2.02500 23.40600
H  7.23800 0.88200 22.27900
H  7.26500 2.47100 21.80700
H  11.58700 0.96200 23.67500
H  10.72400 1.58300 22.24200
H  11.32600 -0.30800 21.38300
H  9.69700 -0.68600 21.80300
H  11.09400 -1.27000 22.73400
H  13.55500 -1.58400 28.35400
H  13.01700 -1.20900 26.67100
H  11.98100 -2.18900 27.65900
H  12.02500 1.71600 32.05600
H  11.14700 -0.52100 35.79800
H  10.56300 -1.72500 34.65600
H  9.58000 -0.31800 35.06400
Mg 53.37000 23.79400 44.90200
C  50.86300 26.22900 43.89200
C  51.22600 21.46100 44.02400
C  55.95800 21.83100 44.65600
C  55.53500 26.56500 45.56200
N  51.43800 23.79700 43.66600
C  50.58100 24.88700 43.51800
C  49.26000 24.40200 43.12100
C  49.24100 22.85700 43.59400
C  50.74700 22.69400 43.76800
C  48.38000 22.58500 44.86600
C  48.91200 24.53800 41.62400
C  50.09700 24.92300 40.73600
H  49.77900 25.16400 39.20900
N  53.54300 21.80600 44.49600
C  52.52500 20.95500 44.11700
C  53.02700 19.61300 44.13100
C  54.44200 19.65000 44.43300
C  54.72800 21.12800 44.57400
C  52.12400 18.40400 43.86600
C  55.46000 18.50100 44.47400
O  55.09700 17.35500 44.12600
C  56.98700 18.72300 44.78100
N  55.50200 24.21600 44.81500
C  56.32600 23.15000 44.75900
C  57.74900 23.74300 44.91300
C  57.57800 25.28100 45.09800
C  56.14900 25.39200 45.24500
C  58.46800 23.10800 46.16200
C  58.22400 26.16400 43.98600
C  59.69600 25.78900 43.48800
N  53.17600 25.99300 44.92600
C  54.14300 26.90400 45.32700
C  53.38500 28.15500 45.55500
C  52.11000 27.93100 45.02600
C  52.05000 26.64100 44.54800
C  53.99800 29.38400 46.18900
C  50.83600 28.53900 44.73000
O  50.54100 29.72700 44.93500
C  49.90700 27.37500 44.05700
C  49.25400 27.87700 42.77400
O  49.88900 28.21600 41.79000
O  47.92000 27.83400 42.83500
C  47.26500 28.52900 41.70700
H  50.57200 20.59500 44.14600
H  56.84900 21.21700 44.50400
H  56.18000 27.41400 45.80100
H  48.56800 25.00300 43.71000
H  48.81900 22.27700 42.77300
H  48.79700 21.73700 45.41000
H  47.45000 22.30000 44.37500
H  48.09100 23.41100 45.51500
H  48.12300 25.26800 41.44500
H  48.35900 23.65700 41.29900
H  50.77000 24.06600 40.76300
H  50.50800 25.85200 41.13000
H  51.14400 18.34500 44.33800
H  52.61500 17.43500 43.95400
H  51.84300 18.46300 42.81400
H  57.47300 17.76200 44.95300
H  57.19800 19.44700 45.56700
H  57.40400 19.26000 43.92900
H  58.40300 23.48500 44.07900
H  58.10600 25.63700 45.98300
H  57.87800 22.33500 46.65600
H  58.72300 23.76600 46.99200
H  59.28900 22.49000 45.79900
H  58.20000 27.19400 44.34200
H  57.55400 26.01400 43.14000
H  60.28100 25.05500 44.04300
H  60.31600 26.67900 43.59400
H  59.69600 25.50900 42.43500
H  55.07400 29.48100 46.04600
H  53.79600 29.38600 47.26000
H  53.49400 30.23800 45.73700
H  49.04500 27.21300 44.70500
H  46.20500 28.71400 41.87600
H  47.25300 27.74200 40.95300
H  47.70700 29.39800 41.22000

