158

Mg 42.13100 41.25900 26.89400
C  41.58000 43.57800 29.58100
C  43.28300 39.11900 29.30900
C  42.91600 39.21200 24.53600
C  41.35100 43.73000 24.62100
N  42.42000 41.32600 29.28200
C  42.01200 42.33300 30.07300
C  42.04500 41.94600 31.58000
C  42.82600 40.49300 31.46200
C  42.84300 40.30600 29.93900
C  44.16600 40.19300 32.18200
C  40.56700 41.98000 32.16500
C  40.26700 42.83300 33.37900
H  39.58700 42.27900 34.66100
N  43.03900 39.39500 26.89200
C  43.27400 38.58700 27.98200
C  43.77000 37.34100 27.51200
C  43.70600 37.29100 26.10700
C  43.19000 38.68900 25.78600
C  44.27600 36.31200 28.44800
C  43.88300 36.13600 25.13400
O  43.61600 36.35300 23.96600
C  44.33300 34.74300 25.57300
N  42.23500 41.54200 24.99800
C  42.42900 40.43500 24.21300
C  42.15400 40.67700 22.76000
C  41.71900 42.17500 22.77600
C  41.70100 42.49000 24.22200
C  43.33800 40.32200 21.74400
C  40.36200 42.31300 22.10100
C  39.13200 41.82100 22.89100
N  41.48400 43.23400 27.01600
C  41.27700 44.16400 25.99300
C  40.85400 45.44500 26.57200
C  40.92200 45.15300 27.97000
C  41.35300 43.85600 28.20600
C  40.47700 46.70800 25.78800
C  40.73900 45.83800 29.26200
O  40.37700 46.97200 29.53100
C  41.15000 44.82300 30.30900
C  42.22000 45.31500 31.18100
O  43.35400 45.57400 30.79100
O  41.75700 45.47700 32.40200
C  42.61900 46.17700 33.35200
H  43.65300 38.47500 30.10900
H  42.94000 38.49100 23.71600
H  41.09500 44.42500 23.81800
H  42.73900 42.59600 32.11200
H  42.17600 39.73200 31.89500
H  44.44200 40.96500 32.90000
H  45.01200 39.98200 31.52800
H  43.97300 39.27300 32.73500
H  40.26000 40.97200 32.44300
H  39.98800 42.33400 31.31100
H  39.55800 43.53700 32.94400
H  41.20400 43.36100 33.55400
H  44.15300 36.58000 29.49800
H  45.35800 36.20500 28.38300
H  43.93400 35.34200 28.08700
H  43.61100 34.22200 26.20200
H  45.13900 34.83700 26.30000
H  44.70800 34.32500 24.63900
H  41.34500 40.04300 22.39500
H  42.47600 42.76800 22.26200
H  43.96900 39.49400 22.06700
H  44.02200 41.16900 21.68600
H  42.85600 40.04100 20.80700
H  40.39000 41.76700 21.15800
H  40.17800 43.35700 21.84900
H  38.59600 41.15700 22.21200
H  38.66500 42.57100 23.52800
H  39.48100 41.06600 23.59600
H  40.84100 46.81200 24.76600
H  40.91700 47.50300 26.39000
H  39.39100 46.80000 25.81400
H  40.21000 44.49300 30.75200
H  42.14600 47.11300 33.64800
H  43.60300 46.47900 32.99500
H  42.65800 45.75000 34.35500
Mg -12.56000 17.69700 40.89800
C  -9.48800 16.03800 40.25500
C  -11.03300 20.59200 40.14000
C  -15.68600 19.22200 40.58400
C  -14.19500 14.55900 40.53800
N  -10.49800 18.28400 40.39700
C  -9.36800 17.49600 40.24500
C  -8.03000 18.28500 40.19700
C  -8.61000 19.76300 40.44800
C  -10.14200 19.58600 40.39500
C  -8.05700 20.52300 41.71200
C  -7.42400 18.13100 38.73800
C  -5.85900 17.91100 38.49800
H  -5.39900 16.87900 37.56300
N  -13.29900 19.73300 40.62200
C  -12.44900 20.68000 40.15700
C  -13.24500 21.82100 39.80100
C  -14.57900 21.51600 40.07200
C  -14.61900 20.13600 40.49400
C  -12.61900 23.21200 39.37100
C  -15.70100 22.48300 39.83000
O  -15.57400 23.60600 39.52800
C  -17.11800 22.06600 40.11500
N  -14.56600 17.02200 40.74800
C  -15.64200 17.83500 40.77300
C  -16.99400 17.12800 40.57600
C  -16.53100 15.67700 40.27500
C  -14.99500 15.73800 40.52500
C  -18.03000 17.21500 41.73600
C  -16.77900 15.21300 38.77300
C  -18.20800 14.67700 38.41600
N  -11.96500 15.71400 40.64500
C  -12.76800 14.54000 40.56000
C  -11.89900 13.43100 40.45000
C  -10.60100 13.96500 40.33600
C  -10.71400 15.32800 40.41700
C  -12.23900 11.96300 40.52800
C  -9.13700 13.63600 40.26400
O  -8.63900 12.55200 40.01900
C  -8.36600 15.03700 40.26000
C  -7.54200 15.20600 41.45200
O  -7.95500 15.43300 42.55400
O  -6.24800 15.28900 41.00800
C  -5.21000 15.37100 42.03300
H  -10.46400 21.44700 39.77000
H  -16.69500 19.58500 40.38000
H  -14.63600 13.59000 40.29900
H  -7.34600 17.99600 40.99500
H  -8.36400 20.46000 39.64700
H  -8.41400 21.55000 41.79800
H  -6.96700 20.53600 41.69900
H  -8.44200 19.94700 42.55300
H  -7.60700 18.95600 38.04900
H  -7.87300 17.28400 38.21900
H  -5.43800 17.78200 39.49500
H  -5.49600 18.91900 38.29700
H  -12.78700 23.48000 38.32800
H  -11.59200 23.23200 39.73700
H  -13.12100 23.90800 40.04400
H  -17.46000 21.24500 39.48600
H  -17.75600 22.94000 39.99100
H  -17.27300 21.59800 41.08700
H  -17.50300 17.46000 39.67200
H  -17.08000 14.97400 40.90100
H  -18.09400 16.22800 42.19400
H  -18.95700 17.57500 41.28900
H  -17.78600 18.06200 42.37600
H  -16.09400 14.51600 38.29100
H  -16.64800 16.12200 38.18600
H  -18.73400 15.38600 37.77700
H  -18.66600 14.62800 39.40400
H  -18.07200 13.70100 37.95200
H  -11.46400 11.39600 41.04200
H  -12.28200 11.43800 39.57300
H  -13.12300 11.71300 41.11400
H  -7.72200 15.18600 39.39300
H  -5.52800 14.96600 42.99400
H  -4.97500 16.43500 42.02900
H  -4.35300 14.80200 41.67200

