158

Mg 53.58800 24.71400 45.06500
C  50.74000 26.70800 44.35900
C  51.95700 22.01800 43.57300
C  56.47500 23.39900 44.69800
C  55.16400 27.92000 45.76900
N  51.76700 24.50300 43.83500
C  50.70600 25.40500 43.69300
C  49.53200 24.74700 42.88600
C  49.76500 23.27900 43.42100
C  51.27300 23.23700 43.54500
C  49.00700 22.88500 44.69800
C  49.85800 24.97600 41.37700
C  48.58800 25.41700 40.54100
H  48.32000 24.54900 39.27100
N  54.14800 22.87100 44.40200
C  53.29400 21.85900 43.83200
C  54.13200 20.70700 43.56300
C  55.51200 21.06700 43.78200
C  55.43200 22.48200 44.38400
C  53.54200 19.36100 43.08300
C  56.75500 20.19100 43.57200
O  56.66000 19.07800 43.09400
C  58.14800 20.62700 43.81900
N  55.54800 25.54100 45.03100
C  56.57300 24.71900 44.98600
C  57.90500 25.45600 45.26600
C  57.45300 26.92300 45.60000
C  55.93100 26.79600 45.45900
C  58.74100 24.88200 46.43200
C  58.16100 28.08500 44.82000
C  59.01100 29.14800 45.59700
N  53.00200 26.72300 45.47700
C  53.75400 27.83000 45.78200
C  52.84800 28.91300 46.01900
C  51.64500 28.55000 45.46200
C  51.81900 27.24000 45.10600
C  53.31400 30.23900 46.58600
C  50.29800 28.96900 45.16100
O  49.81000 30.04400 45.37300
C  49.68300 27.77200 44.36100
C  49.33800 28.38600 43.06500
O  50.19300 28.61800 42.19700
O  48.02300 28.72600 43.16000
C  47.56900 29.46300 41.97700
H  51.32800 21.15300 43.35000
H  57.40300 22.82700 44.74400
H  55.73300 28.83500 45.94800
H  48.58600 25.21100 43.16400
H  49.43200 22.67400 42.57700
H  49.79800 22.71500 45.42800
H  48.54800 21.91600 44.50500
H  48.37600 23.70900 45.03200
H  50.22300 23.99000 41.08900
H  50.60600 25.76200 41.27700
H  48.82100 26.40000 40.13300
H  47.64300 25.46800 41.08200
H  53.64300 19.18400 42.01300
H  52.52000 19.43900 43.45500
H  53.91500 18.53000 43.68100
H  58.31800 21.43100 43.10400
H  58.93100 19.87300 43.73600
H  58.05700 21.00100 44.83900
H  58.43500 25.36900 44.31800
H  57.69400 27.11000 46.64600
H  58.13400 24.07600 46.84500
H  59.03200 25.63700 47.16200
H  59.72700 24.58100 46.07900
H  57.36400 28.65300 44.33900
H  58.74000 27.63000 44.01600
H  60.05600 28.84400 45.53200
H  58.83100 29.24600 46.66800
H  58.77900 30.12100 45.16400
H  52.46500 30.62700 47.14800
H  53.56800 31.08500 45.94600
H  54.08800 29.89500 47.27100
H  48.79100 27.28900 44.76000
H  46.58800 29.89200 42.18000
H  47.54600 28.65600 41.24400
H  48.18600 30.33200 41.75000
Mg -5.46100 24.81600 26.06400
C  -3.79900 26.20500 28.81000
C  -6.64300 22.38200 28.22100
C  -7.24300 23.62500 23.46800
C  -3.75400 26.93800 23.94000
N  -5.22100 24.44900 28.27700
C  -4.70300 25.23700 29.20700
C  -5.08800 24.83900 30.60700
C  -5.54500 23.39100 30.42000
C  -5.82400 23.33700 28.85200
C  -4.56400 22.30900 30.91400
C  -6.13700 25.67100 31.23700
C  -6.22100 25.94200 32.73100
H  -5.53500 25.00600 33.70600
N  -6.75500 23.29300 25.88200
C  -7.04500 22.34100 26.82300
C  -7.81900 21.24000 26.22600
C  -8.14200 21.71900 24.92000
C  -7.41700 22.98400 24.68300
C  -8.34600 20.08000 27.08300
C  -9.17600 21.12000 23.94800
O  -9.35900 21.55900 22.83800
C  -10.00000 19.91800 24.32300
N  -5.49300 25.32800 23.95200
C  -6.44800 24.74800 23.13900
C  -6.42900 25.31800 21.73200
C  -5.21000 26.31300 21.82300
C  -4.76800 26.24100 23.32500
C  -6.33400 24.31000 20.49300
C  -5.50400 27.76800 21.34900
C  -4.25800 28.48400 20.85100
N  -4.03500 26.21100 26.22800
C  -3.33200 26.96700 25.30000
C  -2.46000 27.89700 26.00400
C  -2.50700 27.53000 27.35000
C  -3.50200 26.59800 27.48200
C  -1.58500 28.94200 25.43200
C  -1.94200 27.76700 28.64200
O  -0.97200 28.43700 29.05100
C  -2.85100 27.08500 29.66800
C  -2.00900 26.26500 30.53600
O  -1.40900 25.24500 30.17300
O  -1.99500 26.79700 31.81900
C  -1.19800 26.17300 32.86300
H  -6.90700 21.52200 28.84000
H  -7.91900 23.32700 22.66400
H  -3.24700 27.64500 23.28100
H  -4.10500 24.88600 31.07600
H  -6.53200 23.31500 30.87600
H  -4.50500 22.44000 31.99400
H  -3.63500 22.46900 30.36500
H  -4.94200 21.31200 30.68700
H  -7.13700 25.48800 30.84400
H  -5.80600 26.61000 30.79300
H  -7.25600 26.04600 33.05800
H  -5.72700 26.90800 32.83400
H  -9.42700 19.98400 27.18400
H  -7.94700 19.95700 28.09000
H  -8.11400 19.16000 26.54700
H  -9.16800 19.21900 24.40700
H  -10.61500 19.47900 23.53700
H  -10.60500 19.96900 25.22900
H  -7.33300 25.92400 21.67800
H  -4.40800 25.84800 21.25000
H  -6.01200 23.35100 20.89800
H  -5.58900 24.63800 19.76700
H  -7.31600 24.24500 20.02500
H  -5.77600 28.25700 22.28400
H  -6.40400 27.81500 20.73500
H  -3.38500 27.84400 20.72500
H  -3.92100 29.12800 21.66400
H  -4.46000 28.96000 19.89100
H  -1.54400 28.93500 24.34300
H  -0.57900 28.85000 25.84000
H  -2.00900 29.93400 25.58700
H  -3.41500 27.76000 30.31200
H  -1.27900 25.08700 32.83800
H  -1.52600 26.67400 33.77400
H  -0.14400 26.43500 32.76500

