158

Mg 30.71800 58.26100 40.63000
C  27.87400 56.64100 39.61400
C  32.69200 55.88300 39.14800
C  33.44500 60.27900 41.00300
C  28.66800 61.10000 41.31000
N  30.30100 56.54500 39.50800
C  29.04500 55.98200 39.31200
C  29.22500 54.66900 38.51800
C  30.71800 54.28200 38.69900
C  31.25400 55.61200 39.18900
C  30.98800 53.07400 39.66600
C  28.82800 54.93700 36.99500
C  27.85800 53.99600 36.30800
H  27.97100 53.94100 34.76200
N  32.84700 58.10300 40.17400
C  33.40500 56.98100 39.62100
C  34.83200 57.23500 39.47700
C  35.10400 58.41400 40.17700
C  33.76100 58.97400 40.55600
C  35.76700 56.24300 38.79600
C  36.57900 58.85400 40.48300
O  37.51600 58.32400 39.98000
C  36.90200 60.03600 41.36900
N  30.99300 60.40700 41.16400
C  32.24500 60.95000 41.26900
C  32.17000 62.47200 41.52400
C  30.62900 62.65600 41.84300
C  30.00200 61.34800 41.34400
C  33.12800 63.00800 42.64200
C  29.95700 63.89200 41.27900
C  30.77600 65.17700 41.47600
N  28.63600 58.79700 40.56300
C  27.96600 59.91100 40.91000
C  26.51900 59.61700 40.79500
C  26.40900 58.32000 40.31800
C  27.71500 57.90500 40.13700
C  25.38200 60.51000 41.23100
C  25.42800 57.22500 39.94500
O  24.20300 57.15000 40.01100
C  26.45900 56.14900 39.35100
C  26.25800 54.79600 40.02100
O  26.77300 54.36900 41.05000
O  25.21200 54.12400 39.33400
C  24.80600 52.80300 39.95700
H  33.28400 55.06000 38.74300
H  34.36500 60.86700 40.97800
H  28.01600 61.91200 41.63700
H  28.51800 54.01400 39.02700
H  31.06100 53.92700 37.72800
H  30.98000 53.40200 40.70500
H  32.01500 52.77000 39.46300
H  30.25000 52.30500 39.43900
H  29.70100 54.96700 36.34400
H  28.31800 55.90000 37.01500
H  26.86200 54.39300 36.50400
H  27.95100 53.02200 36.78800
H  35.63000 56.25300 37.71500
H  35.55100 55.22700 39.12700
H  36.78100 56.41900 39.15500
H  36.52800 60.90500 40.82600
H  37.97300 60.21100 41.46500
H  36.50600 60.05100 42.38400
H  32.39100 62.90500 40.54900
H  30.48800 62.70700 42.92300
H  33.89900 62.25200 42.79100
H  32.50100 63.10300 43.52800
H  33.56800 63.98000 42.41900
H  29.08700 64.06800 41.91100
H  29.49800 63.84300 40.29100
H  31.48300 65.40200 40.67800
H  31.28200 65.18300 42.44100
H  30.13800 66.05800 41.54900
H  24.92700 61.01600 40.37900
H  25.73500 61.25800 41.94100
H  24.66200 59.92400 41.80200
H  26.33600 56.11300 38.26800
H  24.88700 52.68700 41.03800
H  25.16900 51.86700 39.53100
H  23.76800 52.71300 39.63600
Mg 10.21500 47.82400 25.81800
C  8.23700 48.10000 28.70100
C  12.95400 48.95300 27.62100
C  12.13300 47.23300 23.10800
C  7.30200 47.49900 23.92800
N  10.59100 48.34500 27.99300
C  9.61400 48.33300 28.98100
C  10.16800 48.86200 30.31500
C  11.50200 49.58800 29.78000
C  11.76500 48.93500 28.37300
C  11.46500 51.16400 29.71800
C  10.45800 47.72100 31.36900
C  9.69000 47.95100 32.66700
H  9.57100 46.77600 33.66700
N  12.29600 48.02800 25.43800
C  13.25400 48.49000 26.32200
C  14.54300 48.41400 25.64500
C  14.33600 47.80000 24.35000
C  12.85500 47.65600 24.25000
C  15.83300 48.93200 26.20000
C  15.29400 47.28300 23.28200
O  14.92000 46.51200 22.40900
C  16.74600 47.56700 23.43500
N  9.75400 47.54300 23.79400
C  10.74900 47.14200 22.91200
C  10.24000 46.55800 21.58600
C  8.69100 46.83500 21.78700
C  8.50800 47.28000 23.26100
C  10.63200 47.34200 20.29300
C  7.90200 45.53900 21.43200
C  7.79400 44.41500 22.50000
N  8.16100 47.72600 26.20500
C  7.10000 47.61800 25.31700
C  5.84900 47.63000 26.06000
C  6.23700 47.80600 27.40700
C  7.62100 47.88100 27.46000
C  4.52000 47.32400 25.43600
C  5.81300 47.94200 28.71800
O  4.68400 47.70700 29.14900
C  7.03800 48.12200 29.63800
C  7.03800 46.95500 30.66100
O  7.83000 46.01200 30.57500
O  6.16400 47.18700 31.73700
C  5.93200 46.03700 32.65900
H  13.78200 49.46200 28.11900
H  12.71800 46.82600 22.28100
H  6.48700 47.35000 23.21700
H  9.54900 49.64600 30.75100
H  12.33300 49.37900 30.45400
H  10.46100 51.49300 29.98800
H  11.49600 51.45300 28.66800
H  12.28100 51.54100 30.33600
H  11.51400 47.72700 31.63900
H  10.28600 46.73000 30.94800
H  8.68700 48.34600 32.50600
H  10.24800 48.73400 33.18100
H  15.72400 49.35700 27.19800
H  16.37900 49.70700 25.66200
H  16.56000 48.12900 26.32300
H  16.90100 48.63700 23.57700
H  17.28100 47.27500 22.53100
H  16.93000 46.98400 24.33700
H  10.55000 45.51300 21.57200
H  8.34300 47.72600 21.26400
H  9.76700 47.63500 19.69800
H  11.24700 46.65300 19.71500
H  11.18600 48.23700 20.57800
H  8.21500 45.11400 20.47900
H  6.86100 45.79400 21.23200
H  7.99200 43.48800 21.96200
H  6.78000 44.45500 22.89900
H  8.63600 44.46000 23.19000
H  4.15000 46.45000 25.97200
H  4.53900 47.26000 24.34800
H  3.82600 48.13700 25.65000
H  7.05500 49.03700 30.23000
H  6.18500 46.28600 33.69000
H  6.39300 45.09300 32.36700
H  4.86500 45.83900 32.75200

