158

Mg 53.09000 25.02100 43.28100
C  50.77600 27.52600 42.71300
C  50.88700 22.68100 41.99800
C  55.64300 22.74600 42.81300
C  55.54200 27.43600 44.09500
N  51.09800 25.10300 42.45900
C  50.24700 26.20500 42.43700
C  48.87600 25.89800 41.93000
C  48.85900 24.25000 41.91000
C  50.33500 23.97800 42.21200
C  47.97100 23.65700 43.11900
C  48.45800 26.38000 40.48100
C  49.54700 26.29300 39.36400
H  49.33700 25.55200 38.08400
N  53.23200 22.95800 42.59000
C  52.19900 22.13500 42.27500
C  52.64300 20.82800 41.95200
C  54.01200 20.81700 42.05300
C  54.35100 22.21000 42.58800
C  51.72500 19.66900 41.52600
C  54.94800 19.65400 41.88200
O  54.54200 18.58700 41.49200
C  56.46400 19.73200 42.14800
N  55.23700 25.15600 43.49600
C  56.06600 24.03200 43.23500
C  57.64000 24.41200 43.55200
C  57.43500 25.86900 44.10800
C  55.96200 26.21800 43.83300
C  58.37300 23.43900 44.53100
C  58.54100 26.78200 43.50400
C  59.39700 27.55500 44.60000
N  53.16600 27.07100 43.45600
C  54.20000 27.92100 43.83200
C  53.58700 29.19800 44.14300
C  52.33900 29.10300 43.56200
C  52.08000 27.79100 43.25400
C  54.29300 30.43900 44.65900
C  51.05400 29.78400 43.37100
O  50.73200 30.93800 43.56800
C  50.04500 28.76700 42.76300
C  49.57500 29.38500 41.44800
O  50.31000 29.55100 40.41300
O  48.20400 29.66400 41.51800
C  47.56300 30.16000 40.33300
H  50.10100 21.99700 41.67200
H  56.52900 22.11400 42.71800
H  56.27700 28.11800 44.52800
H  48.20700 26.21100 42.73100
H  48.47000 23.79800 40.99800
H  47.62700 24.48600 43.73700
H  48.55600 22.93000 43.68300
H  47.12400 23.15300 42.65500
H  48.05900 27.39400 40.44400
H  47.59300 25.78100 40.19600
H  50.40500 25.78800 39.80800
H  49.87200 27.25400 38.96600
H  52.00500 19.27400 40.54900
H  50.71500 20.01000 41.29800
H  51.70900 18.79400 42.17600
H  56.95500 18.79900 41.87400
H  56.61600 20.12700 43.15200
H  56.79600 20.49600 41.44400
H  58.18700 24.33900 42.61200
H  57.58600 25.95700 45.18400
H  57.78000 22.54300 44.71800
H  58.50600 23.97300 45.47200
H  59.33600 23.18400 44.09000
H  58.07800 27.54000 42.87100
H  59.20400 26.24600 42.82500
H  59.08600 28.59900 44.55000
H  60.46900 27.41600 44.46000
H  59.17400 27.37700 45.65200
H  55.08600 30.69800 43.95800
H  54.74000 30.18100 45.62000
H  53.55100 31.23100 44.75300
H  49.15000 28.65200 43.37400
H  47.52900 29.41200 39.54000
H  48.16100 31.01900 40.02800
H  46.56500 30.52100 40.58300
Mg 16.91400 51.83500 25.42500
C  19.02800 50.12900 27.80000
C  15.13200 53.00100 28.07700
C  15.21300 53.66300 23.26000
C  18.83900 50.56800 22.92000
N  16.96500 51.32200 27.69400
C  18.03100 50.82600 28.48500
C  17.84000 51.10700 29.99000
C  16.38500 51.86000 30.01700
C  16.09900 52.04300 28.48600
C  15.16700 51.12800 30.64000
C  18.96200 51.90600 30.71000
C  18.96800 51.82900 32.19800
H  18.00400 50.90100 33.02400
N  15.27300 53.09900 25.60700
C  14.64000 53.48900 26.80100
C  13.62500 54.42300 26.55700
C  13.66600 54.73000 25.10200
C  14.74800 53.80000 24.55800
C  12.59900 54.97600 27.57100
C  12.72000 55.51200 24.21500
O  12.85600 55.43700 23.06300
C  11.60300 56.33700 24.83000
N  16.83800 51.82200 23.35600
C  16.16100 52.83400 22.67200
C  16.52400 52.72100 21.11100
C  17.89800 52.05600 21.14400
C  17.84900 51.42200 22.57400
C  15.50900 52.02500 20.27100
C  19.14900 53.00300 20.90300
C  20.13700 52.45200 19.84200
N  18.59700 50.45100 25.32000
C  19.20700 50.03100 24.16700
C  20.21800 49.09100 24.50600
C  20.23200 49.06500 25.93400
C  19.19700 49.97500 26.38600
C  21.28800 48.51200 23.58000
C  20.80900 48.53100 27.13400
O  21.72000 47.72100 27.28700
C  20.15100 49.38600 28.31600
C  19.91300 48.43300 29.46900
O  19.18300 47.48600 29.47900
O  20.78300 48.66800 30.50200
C  20.78700 47.69400 31.59400
H  14.68900 53.56600 28.90000
H  14.71600 54.27600 22.50500
H  19.55600 50.23800 22.16500
H  17.65100 50.12800 30.42900
H  16.45000 52.88800 30.37400
H  15.32300 50.06400 30.81600
H  14.35200 51.15700 29.91700
H  14.94700 51.61900 31.58800
H  18.75800 52.93700 30.42000
H  19.89700 51.56700 30.26400
H  18.88100 52.75900 32.76000
H  19.93700 51.40100 32.45600
H  12.80600 54.44700 28.50200
H  11.57100 54.67900 27.36500
H  12.68800 56.04100 27.78800
H  11.96300 56.86500 25.71200
H  10.68400 55.79700 25.06000
H  11.39000 57.13800 24.12200
H  16.56100 53.71000 20.65500
H  17.90600 51.25400 20.40500
H  15.93400 51.62300 19.35200
H  14.68800 52.62000 19.87000
H  15.12800 51.11200 20.72900
H  19.82800 53.15600 21.74200
H  18.82700 54.00800 20.63100
H  19.96300 52.88200 18.85500
H  20.06200 51.39200 19.60100
H  21.17400 52.68900 20.08200
H  21.05300 49.00900 22.63800
H  21.05900 47.45000 23.49300
H  22.33100 48.78600 23.74200
H  20.94800 50.00600 28.72500
H  20.41100 48.36500 32.36700
H  21.80300 47.35000 31.78600
H  20.15500 46.81100 31.67900

