158

Mg 0.82000 7.42400 25.21200
C  1.77400 9.12500 28.13900
C  0.85400 4.34300 27.01800
C  0.25500 5.88000 22.37100
C  1.41200 10.39200 23.42600
N  1.22300 6.84300 27.27700
C  1.55600 7.70700 28.32300
C  1.50300 6.87200 29.67500
C  1.43100 5.42600 29.25000
C  1.11700 5.54800 27.74700
C  2.61600 4.51400 29.59300
C  0.30600 7.42100 30.51400
C  0.57000 7.49300 32.03100
H  1.72300 6.62800 32.61400
N  0.63300 5.33600 24.75800
C  0.61900 4.26300 25.61300
C  0.33800 3.06600 24.77800
C  0.22200 3.50100 23.43700
C  0.26500 4.98200 23.46500
C  0.11100 1.72900 25.38000
C  0.10400 2.63300 22.14700
O  -0.05200 3.10300 21.04000
C  0.16600 1.13800 22.25100
N  0.86500 8.05800 23.16300
C  0.54500 7.17800 22.23000
C  0.34900 7.83200 20.86300
C  0.68500 9.34600 21.11800
C  0.95700 9.27200 22.63000
C  1.11500 7.19700 19.65800
C  -0.57000 10.31100 20.88700
C  -0.24400 11.31300 19.79000
N  1.52200 9.37300 25.58700
C  1.58800 10.47000 24.79200
C  1.75400 11.65900 25.54900
C  1.87300 11.19400 26.86600
C  1.71600 9.80300 26.86300
C  1.74400 13.09600 25.13000
C  2.05900 11.59600 28.20400
O  2.36900 12.63400 28.68100
C  1.85100 10.33000 29.11000
C  2.97800 10.07800 29.94400
O  4.03100 9.56800 29.66300
O  2.75200 10.63200 31.21300
C  3.89600 10.85400 32.07600
H  0.67600 3.45600 27.62900
H  -0.16700 5.44700 21.46200
H  1.54000 11.24500 22.75600
H  2.38700 7.06600 30.28200
H  0.63600 4.84600 29.71800
H  2.32800 3.83800 30.39800
H  3.52800 4.95400 29.99800
H  2.94800 3.96600 28.71100
H  -0.53400 6.74100 30.37300
H  -0.03700 8.36200 30.08300
H  -0.32900 7.29400 32.61400
H  0.81200 8.54800 32.15900
H  1.04000 1.16500 25.47300
H  -0.61500 1.14600 24.81400
H  -0.31900 1.75300 26.38200
H  0.42800 0.81000 21.24500
H  -0.82000 0.78200 22.55200
H  0.86000 0.76100 23.00200
H  -0.70600 7.64100 20.66600
H  1.64500 9.76300 20.81400
H  1.92900 7.86000 19.36300
H  0.38300 7.05100 18.86400
H  1.54400 6.21400 19.85500
H  -0.89200 10.91100 21.73800
H  -1.36700 9.61900 20.61500
H  -0.67000 10.88600 18.88300
H  0.81800 11.45200 19.59000
H  -0.69900 12.28200 19.99700
H  2.60300 13.31700 24.49600
H  1.76100 13.72300 26.02200
H  0.96900 13.51800 24.49200
H  0.92800 10.35800 29.68900
H  4.30300 11.79500 31.70500
H  4.74200 10.17200 31.99700
H  3.58400 10.90000 33.11900
Mg 8.72600 2.85400 27.37500
C  10.05000 1.36900 30.33500
C  6.74800 4.82400 29.42200
C  7.35200 4.11300 24.52400
C  10.36300 0.27400 25.55000
N  8.40300 2.92300 29.58600
C  9.13700 2.37200 30.56700
C  8.83700 2.95500 31.90100
C  7.77000 3.97700 31.59300
C  7.55500 3.90200 30.09200
C  6.38900 3.79400 32.31400
C  10.01900 3.44600 32.82600
C  9.77800 4.29400 34.08300
H  10.45200 4.00900 35.41900
N  7.44000 4.38300 27.06100
C  6.68800 5.07700 28.00000
C  5.80200 5.91000 27.33400
C  5.99700 5.78500 25.92900
C  6.98200 4.69100 25.75100
C  4.89900 6.81900 28.08700
C  5.36600 6.61700 24.81200
O  5.62500 6.39100 23.61100
C  4.51200 7.80900 25.14800
N  8.95200 2.33000 25.37400
C  8.30500 3.03300 24.34500
C  8.51800 2.36000 22.97300
C  9.66600 1.35500 23.30800
C  9.55000 1.22100 24.82200
C  7.15700 1.83600 22.44700
C  11.14700 1.73000 22.95500
C  11.75300 0.85400 21.85200
N  9.97000 1.16400 27.78600
C  10.62400 0.26200 26.96100
C  11.37900 -0.70200 27.68100
C  11.21200 -0.26100 29.01200
C  10.35900 0.84000 29.02600
C  12.33300 -1.67900 27.07600
C  11.66900 -0.49300 30.36400
O  12.44700 -1.38600 30.79400
C  10.93100 0.52900 31.29100
C  10.23900 -0.18000 32.36200
O  9.41400 -0.95900 32.22700
O  10.78900 0.23200 33.54800
C  10.28300 -0.38700 34.76400
H  6.18900 5.47600 30.09600
H  6.93900 4.43400 23.56600
H  11.00300 -0.38900 24.96500
H  8.29300 2.18500 32.44900
H  8.00900 5.02000 31.80000
H  5.79900 3.08000 31.74000
H  5.89000 4.76000 32.38900
H  6.46500 3.32000 33.29200
H  10.65300 4.00200 32.13500
H  10.62100 2.64800 33.26100
H  8.70300 4.24200 34.25400
H  9.99500 5.29500 33.70800
H  5.11900 7.84600 27.79400
H  4.79500 6.66100 29.16000
H  3.99400 6.60700 27.51700
H  3.59900 7.46900 25.63800
H  4.18900 8.16400 24.16900
H  5.00600 8.62800 25.66900
H  8.86800 3.09200 22.24500
H  9.46800 0.38500 22.85300
H  6.87900 2.40800 21.56200
H  6.35600 1.99300 23.16900
H  7.19900 0.78700 22.15200
H  11.77600 1.97100 23.81200
H  11.03000 2.67600 22.42800
H  12.01500 1.35500 20.92000
H  11.11400 -0.00100 21.63600
H  12.60200 0.27800 22.22000
H  11.84400 -2.65100 27.02200
H  13.08900 -1.94300 27.81400
H  12.73800 -1.33800 26.12200
H  11.67600 1.16900 31.76500
H  9.23900 -0.69400 34.70000
H  10.35200 0.27600 35.62600
H  10.90700 -1.21700 35.09500

