158

Mg 26.47900 50.46000 26.47200
C  24.47700 51.75000 29.20200
C  28.73300 49.42400 28.79400
C  28.23900 49.23900 23.92200
C  24.27600 51.93400 24.26200
N  26.50800 50.58900 28.76900
C  25.59500 51.09700 29.67700
C  26.00200 50.81400 31.14000
C  27.47900 50.23900 30.91300
C  27.58100 50.00500 29.38300
C  28.58200 51.18700 31.51000
C  25.08100 49.79500 31.85100
C  24.60700 50.33700 33.22500
H  25.64800 50.26100 34.32000
N  28.23600 49.52500 26.34100
C  29.05700 49.13700 27.42600
C  30.25900 48.54400 26.90300
C  30.02300 48.29400 25.48000
C  28.78200 49.03000 25.14700
C  31.46200 48.06500 27.75500
C  30.87100 47.53700 24.41600
O  30.53800 47.40200 23.24200
C  32.09100 46.95900 24.86300
N  26.28900 50.61100 24.31100
C  27.11000 49.93000 23.47100
C  26.68500 50.02000 21.99900
C  25.32500 50.84900 22.12300
C  25.28600 51.21600 23.62100
C  27.74000 50.55600 20.99300
C  24.00200 50.06700 21.79900
C  22.80400 50.95100 21.25000
N  24.78000 51.52500 26.57100
C  24.00300 52.08100 25.60700
C  22.85000 52.74700 26.18100
C  23.03700 52.65800 27.54100
C  24.24100 51.92000 27.75400
C  21.88900 53.58100 25.31200
C  22.41400 53.03600 28.86700
O  21.33300 53.58800 29.13000
C  23.41300 52.45200 30.00400
C  23.81600 53.64700 30.88700
O  24.56900 54.56900 30.57800
O  23.24300 53.41600 32.11100
C  23.66900 54.27700 33.19800
H  29.47400 49.09100 29.52300
H  28.71000 48.68500 23.10700
H  23.57000 52.40900 23.57800
H  26.01900 51.67500 31.80800
H  27.59700 49.26400 31.38400
H  29.19500 51.78500 30.83600
H  29.36000 50.63400 32.03600
H  28.05900 51.84300 32.20600
H  25.65400 48.90700 32.11900
H  24.28400 49.46900 31.18200
H  23.71600 49.82700 33.59000
H  24.43000 51.41200 33.25400
H  32.38000 48.18900 27.18100
H  31.35900 47.03500 28.09700
H  31.60000 48.70600 28.62600
H  32.74600 47.83100 24.87100
H  32.38500 46.30200 24.04400
H  32.04500 46.44700 25.82400
H  26.45300 48.96800 21.83400
H  25.40900 51.75400 21.52100
H  27.37400 51.27200 20.25800
H  28.12200 49.74500 20.37300
H  28.54900 51.00000 21.57200
H  23.63800 49.50100 22.65600
H  24.19600 49.16900 21.21300
H  22.50600 50.55600 20.27900
H  23.12300 51.99100 21.17800
H  21.93100 50.90900 21.90200
H  21.29800 53.08500 24.54200
H  22.54100 54.31400 24.83600
H  21.26700 54.08600 26.05100
H  22.92400 51.68700 30.60800
H  23.55300 55.31000 32.87200
H  24.68200 53.98600 33.47500
H  23.02400 54.24300 34.07600
Mg 10.14300 47.75900 26.03300
C  7.79600 48.09200 28.75100
C  12.32300 49.39700 27.95000
C  12.07200 47.94200 23.41500
C  7.36600 46.93700 23.88100
N  10.05500 48.42500 28.10900
C  9.10500 48.42400 29.08700
C  9.63300 48.93800 30.48200
C  10.86000 49.74000 29.94500
C  11.09900 49.17900 28.55600
C  10.70600 51.28500 29.91200
C  9.98900 47.80000 31.47400
C  10.01800 48.08800 33.00100
H  9.47500 47.12000 34.07400
N  12.02800 48.34200 25.84000
C  12.83500 48.94000 26.72000
C  14.16400 49.02200 26.21700
C  14.10800 48.60000 24.85800
C  12.67900 48.27600 24.64000
C  15.24900 49.48000 27.16300
C  15.15500 48.50700 23.84700
O  14.90600 48.10900 22.71000
C  16.61500 48.82000 24.14200
N  9.78300 47.63800 23.88200
C  10.78100 47.56600 23.06300
C  10.41600 47.19000 21.59700
C  9.00700 46.60100 21.82900
C  8.71000 47.04300 23.30000
C  10.31400 48.42300 20.68900
C  8.87100 45.01100 21.60200
C  9.24800 44.13000 22.78000
N  8.03300 47.53000 26.24800
C  7.07500 47.10700 25.27700
C  5.78600 47.28400 25.88000
C  6.03500 47.63300 27.24000
C  7.42800 47.79300 27.39200
C  4.51400 47.06200 25.22700
C  5.39400 47.84900 28.47700
O  4.19100 47.73700 28.65400
C  6.51900 48.31400 29.53600
C  6.38600 47.46700 30.71500
O  6.82200 46.34500 30.88400
O  5.66500 48.15300 31.64300
C  5.52000 47.50800 32.95400
H  12.89200 50.10500 28.55700
H  12.71400 47.99300 22.53400
H  6.52100 46.68100 23.23800
H  8.90100 49.58600 30.96300
H  11.67600 49.71900 30.66800
H  9.74500 51.62700 30.29600
H  10.81900 51.65700 28.89400
H  11.58800 51.76700 30.33300
H  10.96700 47.43400 31.16200
H  9.32200 46.95300 31.31200
H  9.52600 49.05700 33.08500
H  11.07700 48.23600 33.20800
H  15.05500 49.35900 28.22900
H  15.43600 50.53200 26.94800
H  16.18500 48.96600 26.94600
H  16.96700 48.09500 24.87600
H  16.56400 49.82600 24.55800
H  17.19100 48.78100 23.21800
H  11.10400 46.47400 21.14800
H  8.28900 47.12900 21.20100
H  11.12400 48.22400 19.98700
H  10.59100 49.25100 21.34200
H  9.42800 48.58100 20.07400
H  9.68200 44.73500 20.92900
H  7.90800 44.88600 21.10500
H  8.83100 44.43600 23.74000
H  10.30700 43.98800 22.99800
H  8.88300 43.13800 22.51200
H  3.95600 47.99400 25.13200
H  3.99000 46.38800 25.90500
H  4.57500 46.52900 24.27900
H  6.39700 49.39000 29.65700
H  5.46700 46.41900 32.95400
H  4.52800 47.75300 33.33300
H  6.32700 47.81700 33.61800

