158

Mg 25.71000 0.23600 28.69500
C  27.45700 -0.50100 31.57700
C  22.88500 0.49400 30.54900
C  24.08800 0.75100 25.79100
C  28.71500 -0.61900 26.74400
N  25.23400 0.01800 30.83800
C  26.14300 -0.17300 31.85900
C  25.43600 -0.01800 33.27600
C  23.91600 -0.07300 32.89000
C  23.99100 0.14500 31.33300
C  23.01200 -1.22200 33.44300
C  25.86500 1.29600 33.95500
C  26.79200 1.18200 35.20100
H  26.55000 1.93900 36.44100
N  23.75100 0.72200 28.27100
C  22.71100 0.75800 29.13800
C  21.52000 1.13800 28.45200
C  21.85400 1.13600 27.06700
C  23.28700 0.85400 26.98800
C  20.22200 1.44600 29.23500
C  20.96900 1.36000 25.87600
O  21.37900 1.28000 24.70100
C  19.48300 1.62200 25.96200
N  26.27400 -0.09200 26.50200
C  25.41800 0.36600 25.55600
C  26.05200 0.41100 24.14900
C  27.54900 0.22100 24.53700
C  27.54000 -0.23000 26.01100
C  25.55800 -0.79100 23.27400
C  28.48900 1.44100 24.28800
C  28.47300 2.69100 25.31200
N  27.68800 -0.56700 29.01300
C  28.76600 -0.70800 28.14700
C  29.87900 -1.19900 28.98000
C  29.44700 -1.10200 30.34800
C  28.06600 -0.66300 30.27700
C  31.24100 -1.57700 28.52400
C  29.90300 -1.15200 31.69700
O  31.05600 -1.26400 32.19300
C  28.60100 -0.81600 32.53900
C  28.12300 -1.95600 33.41500
O  27.48300 -2.95100 33.06800
O  28.56300 -1.87400 34.69900
C  27.98700 -2.77600 35.71000
H  22.02100 0.56500 31.21300
H  23.49500 0.90400 24.88700
H  29.64700 -0.62700 26.17400
H  25.64800 -0.93600 33.82500
H  23.38900 0.79400 33.28900
H  22.17500 -0.67300 33.87300
H  23.52700 -1.64600 34.30400
H  22.71100 -1.92000 32.66100
H  24.92300 1.74800 34.26300
H  26.43900 1.85500 33.21600
H  27.82200 1.50900 35.05200
H  26.83900 0.11000 35.39400
H  20.35900 1.26400 30.30100
H  19.46600 0.69600 29.00200
H  19.69500 2.38100 29.04800
H  19.43000 2.70100 25.81400
H  19.15800 1.44800 26.98700
H  18.77400 1.21300 25.24200
H  26.03900 1.36500 23.62300
H  27.89100 -0.65900 23.99100
H  24.94800 -1.42500 23.91800
H  26.31700 -1.53500 23.03200
H  24.97800 -0.44100 22.42000
H  28.35500 1.74300 23.24900
H  29.47600 0.97900 24.30700
H  27.81900 2.59900 26.17900
H  28.07900 3.52600 24.73300
H  29.47900 3.02500 25.56600
H  31.89000 -1.03800 29.21400
H  31.52500 -1.30600 27.50700
H  31.33100 -2.66000 28.59900
H  28.80300 0.02300 33.20400
H  28.24700 -2.36800 36.68600
H  28.36300 -3.79800 35.76000
H  26.90200 -2.70000 35.78400
Mg 47.66200 44.95400 42.94700
C  44.44300 43.98600 43.05300
C  48.48800 41.57100 42.21700
C  50.68000 45.83800 42.10900
C  46.66300 48.23600 42.96100
N  46.50600 43.09500 42.45600
C  45.22100 42.92600 42.72000
C  44.82800 41.46400 42.62300
C  46.14100 40.74600 42.37100
C  47.12800 41.85700 42.31500
C  46.49300 39.65800 43.44400
C  43.74900 41.18600 41.52100
C  43.50300 42.10900 40.31600
H  43.29500 41.56200 38.88800
N  49.37200 43.85700 42.39400
C  49.58300 42.49600 42.15900
C  50.94200 42.18700 41.86500
C  51.58800 43.41700 41.71700
C  50.56000 44.43700 42.10600
C  51.52700 40.77600 41.60700
C  53.03900 43.61900 41.17700
O  53.73600 42.69900 40.80500
C  53.58700 44.99800 40.96500
N  48.51800 46.70000 42.54700
C  49.83700 46.87700 42.37800
C  50.28400 48.30700 42.52200
C  48.94900 49.09500 42.52100
C  47.97500 47.90900 42.69500
C  51.13600 48.59600 43.75800
C  48.58400 49.84900 41.20900
C  48.71300 51.40100 41.20100
N  45.91800 45.97000 43.02300
C  45.64700 47.28500 43.07100
C  44.20700 47.48800 43.30000
C  43.76600 46.14400 43.39400
C  44.81800 45.30400 43.16900
C  43.41500 48.72700 43.49800
C  42.53900 45.39200 43.67900
O  41.42400 45.80600 44.05800
C  42.90000 43.92500 43.45300
C  42.69100 43.16400 44.72900
O  43.40800 43.24700 45.66100
O  41.58200 42.43800 44.68400
C  41.20900 41.77300 45.89700
H  48.59700 40.49000 42.11200
H  51.70600 46.19900 42.00900
H  46.50800 49.31600 42.94000
H  44.45700 41.12900 43.59100
H  46.30700 40.23300 41.42400
H  45.58500 39.07000 43.57500
H  46.69400 40.18400 44.37800
H  47.39000 39.05400 43.30700
H  42.80500 41.03800 42.04600
H  44.08000 40.23700 41.10100
H  44.11000 43.00400 40.18100
H  42.47400 42.41500 40.50600
H  52.06400 40.42700 42.49000
H  52.15900 40.69400 40.72300
H  50.73200 40.03200 41.57200
H  52.91400 45.57200 40.32700
H  54.61300 45.06300 40.60400
H  53.61900 45.46600 41.94900
H  50.89800 48.58400 41.66500
H  48.80900 49.75200 43.38000
H  51.31600 47.65000 44.26900
H  50.54700 49.09000 44.53000
H  52.10800 49.03300 43.53000
H  47.52000 49.72400 41.00700
H  49.04500 49.46900 40.29700
H  49.46300 51.73800 40.48400
H  48.96700 51.77900 42.19200
H  47.73500 51.82400 40.97000
H  43.33500 49.20900 42.52300
H  43.89500 49.35800 44.24600
H  42.41800 48.45700 43.84600
H  42.20200 43.43400 42.77600
H  40.53800 40.93600 45.70300
H  40.71500 42.49500 46.54700
H  42.07000 41.32500 46.39300

