158

Mg 16.80900 -1.26600 27.28300
C  15.60700 0.69900 30.13200
C  18.91700 -2.86800 29.34700
C  17.90700 -2.87700 24.56800
C  14.70200 0.76500 25.33000
N  17.16600 -1.09000 29.52900
C  16.50400 -0.36700 30.45100
C  17.06100 -0.60000 31.87500
C  18.22400 -1.70800 31.58900
C  18.11400 -1.95400 30.08400
C  19.60700 -1.38500 32.14500
C  15.91900 -1.04000 32.94100
C  16.03800 -0.46700 34.36400
H  17.40700 0.13600 34.86700
N  18.28400 -2.60800 26.99400
C  18.99400 -3.23200 27.96300
C  19.83000 -4.15700 27.42500
C  19.54400 -4.16200 26.05300
C  18.54400 -3.21300 25.81200
C  20.81200 -5.07700 28.26400
C  20.11500 -5.01300 25.03900
O  19.73800 -5.07100 23.86400
C  21.22900 -6.01300 25.39100
N  16.39400 -0.99100 25.23000
C  16.93900 -1.84800 24.29300
C  16.47400 -1.51400 22.88400
C  15.42000 -0.36900 23.17400
C  15.50000 -0.19200 24.63200
C  17.50800 -1.10200 21.93600
C  14.05800 -0.72300 22.60800
C  13.15900 -1.70000 23.41900
N  15.39400 0.32700 27.57700
C  14.70000 1.08200 26.71400
C  13.90100 2.10100 27.35200
C  14.24100 2.01500 28.66300
C  15.09500 0.91000 28.80700
C  12.95800 3.03500 26.67100
C  14.04000 2.57700 29.95500
O  13.30900 3.51100 30.29200
C  14.92700 1.69800 30.98800
C  15.75700 2.74900 31.62400
O  16.70300 3.36800 31.24900
O  15.05900 3.06600 32.73600
C  15.46700 4.20600 33.62000
H  19.64800 -3.34600 30.00300
H  18.02500 -3.40800 23.62000
H  14.07100 1.33400 24.64300
H  17.44000 0.38200 32.15900
H  17.93200 -2.64600 32.06100
H  19.92500 -2.18200 32.81700
H  19.64000 -0.46100 32.72300
H  20.26100 -1.37500 31.27300
H  16.12100 -2.09600 33.12000
H  15.01000 -0.76800 32.40500
H  15.62300 -1.17100 35.08600
H  15.39900 0.41500 34.31500
H  20.51500 -6.12400 28.20100
H  20.67900 -4.88700 29.32900
H  21.83500 -4.88500 27.94100
H  20.90300 -6.72900 26.14500
H  21.98200 -5.31100 25.74900
H  21.68800 -6.48800 24.52400
H  15.94600 -2.41800 22.57900
H  15.73700 0.57600 22.73300
H  18.47100 -1.07100 22.44400
H  17.22700 -0.13900 21.50900
H  17.61100 -1.88000 21.17900
H  14.19000 -1.14700 21.61300
H  13.52200 0.21000 22.43900
H  12.34200 -1.14500 23.88100
H  13.77000 -2.22100 24.15700
H  12.78300 -2.38600 22.66100
H  12.29000 3.52000 27.38200
H  12.27500 2.46200 26.04300
H  13.40000 3.88800 26.15600
H  14.20800 1.25300 31.67600
H  15.12300 4.11300 34.65000
H  15.22800 5.20000 33.24000
H  16.55700 4.22700 33.64300
Mg 30.22200 58.18400 40.10300
C  27.62400 55.67300 39.50600
C  32.39800 55.68500 39.36900
C  32.50300 60.58900 40.07900
C  27.65600 60.43200 40.74500
N  30.00000 55.83200 39.62300
C  28.88400 55.17500 39.21800
C  29.27000 53.75300 38.69200
C  30.83600 53.63600 39.10900
C  31.11000 55.09600 39.40700
C  31.10200 52.60600 40.27800
C  29.17400 53.59600 37.13500
C  27.75100 53.17500 36.66800
H  27.00500 54.13400 35.65600
N  32.19000 58.15200 39.72300
C  32.93600 57.03200 39.50300
C  34.29400 57.40900 39.35600
C  34.37300 58.83000 39.41000
C  33.01700 59.28400 39.69400
C  35.49100 56.43500 39.34700
C  35.66100 59.66600 39.29800
O  36.75400 59.15400 39.09100
C  35.67500 61.12100 39.52000
N  30.05300 60.31000 40.17800
C  31.18400 61.06300 40.27200
C  30.79300 62.48100 40.77800
C  29.24400 62.42600 41.07200
C  28.96600 60.94800 40.68400
C  31.73600 63.06800 41.89800
C  28.33400 63.42800 40.19600
C  27.21700 64.11200 40.97800
N  28.10700 58.14300 40.13800
C  27.25100 59.16300 40.44900
C  25.87900 58.62400 40.34600
C  26.00300 57.22600 40.06700
C  27.34600 57.00100 39.91800
C  24.66200 59.44700 40.62600
C  25.32200 55.93300 39.90000
O  24.11500 55.76000 39.96800
C  26.28400 54.84500 39.42400
C  26.18700 53.71400 40.48200
O  26.66200 53.70800 41.54900
O  25.47800 52.61900 40.00600
C  25.44300 51.48800 40.94700
H  33.13400 54.91700 39.12500
H  33.19600 61.38200 40.36600
H  26.90900 61.16800 41.04700
H  28.58600 53.07600 39.20400
H  31.47700 53.33500 38.28100
H  31.92900 51.95700 39.99000
H  30.21800 52.00400 40.48800
H  31.53200 53.01300 41.19300
H  29.81500 52.76100 36.85200
H  29.47000 54.55900 36.72000
H  27.10800 52.94600 37.51800
H  27.77200 52.20700 36.16800
H  36.04400 56.53700 38.41400
H  35.31600 55.39300 39.61500
H  36.12400 56.81100 40.15100
H  34.92500 61.58700 38.88200
H  36.68600 61.49700 39.36200
H  35.47900 61.45600 40.53800
H  30.83800 63.08800 39.87400
H  28.99200 62.59700 42.11800
H  32.33200 62.23700 42.27600
H  31.28700 63.50600 42.78900
H  32.31000 63.84500 41.39400
H  27.92300 62.91200 39.32800
H  29.06200 64.16000 39.84600
H  27.42500 65.17700 41.07700
H  27.22900 63.61300 41.94700
H  26.38500 63.88600 40.31100
H  23.80700 58.87300 40.98200
H  24.45100 59.75900 39.60300
H  24.88400 60.24500 41.33400
H  25.95400 54.40700 38.48200
H  25.57900 50.50800 40.49000
H  24.43400 51.31800 41.32300
H  26.05000 51.53000 41.85200

