158

Mg 25.23400 -0.42000 29.15700
C  27.30400 -0.40700 32.17100
C  22.53700 -0.33700 31.05800
C  23.70100 -0.72800 26.28400
C  28.48900 -1.10200 27.53200
N  25.00100 -0.36100 31.34700
C  25.90100 -0.26200 32.36800
C  25.19000 -0.05300 33.74600
C  23.69200 -0.39300 33.36500
C  23.73100 -0.41700 31.82800
C  22.88300 -1.54200 34.16500
C  25.49400 1.29200 34.47100
C  26.22300 1.24000 35.84300
H  25.86000 2.22100 36.95800
N  23.37800 -0.31700 28.67700
C  22.35000 -0.38900 29.62500
C  21.09100 -0.37500 28.84100
C  21.38800 -0.34300 27.40900
C  22.86700 -0.42100 27.39100
C  19.73900 -0.28100 29.58100
C  20.37100 -0.20800 26.17500
O  20.78200 -0.20900 25.05800
C  18.87700 -0.25700 26.47700
N  26.03500 -0.87800 27.20200
C  25.10200 -0.87400 26.14400
C  25.76300 -0.84100 24.78400
C  27.27900 -0.94600 25.21200
C  27.31500 -0.94100 26.73600
C  25.29500 -1.92500 23.77900
C  27.97200 0.36300 24.70700
C  27.73700 1.74400 25.47000
N  27.43300 -0.68000 29.72400
C  28.56300 -0.89500 28.92900
C  29.77500 -0.90800 29.76900
C  29.27400 -0.74400 31.01500
C  27.95100 -0.55300 30.94300
C  31.16800 -1.03400 29.26200
C  29.70800 -0.66100 32.44800
O  30.80200 -0.95000 32.95200
C  28.35200 -0.44000 33.26500
C  28.15600 -1.66100 34.16900
O  27.89300 -2.79100 33.80200
O  28.35800 -1.22200 35.47100
C  28.40500 -2.18400 36.57400
H  21.63100 -0.36300 31.66700
H  23.03400 -0.85700 25.42900
H  29.36800 -1.36000 26.93800
H  25.55100 -0.86000 34.38400
H  23.19100 0.56100 33.52900
H  22.27300 -2.19500 33.54000
H  22.11700 -1.08400 34.79000
H  23.61700 -2.05100 34.79000
H  24.50100 1.73100 34.56700
H  26.13500 1.90000 33.83300
H  27.20700 1.57700 35.51700
H  26.26800 0.24600 36.28700
H  19.36100 0.73300 29.45300
H  19.88300 -0.48800 30.64200
H  19.10700 -1.08100 29.19600
H  18.65400 -1.24500 26.88100
H  18.46200 -0.07200 25.48600
H  18.56300 0.57000 27.11400
H  25.48600 0.13100 24.37600
H  27.78400 -1.81800 24.79800
H  25.94000 -2.74500 23.46400
H  24.98400 -1.49000 22.82900
H  24.41500 -2.45500 24.14400
H  27.62900 0.55900 23.69100
H  29.05300 0.22900 24.66800
H  27.56400 1.53900 26.52600
H  26.93900 2.31000 24.98800
H  28.68100 2.27400 25.59700
H  31.19100 -2.02900 28.81700
H  31.83700 -0.82800 30.09700
H  31.44700 -0.29500 28.51100
H  28.41200 0.52700 33.76500
H  29.27800 -1.89400 37.15900
H  28.47000 -3.18500 36.14700
H  27.51800 -2.09700 37.20100
Mg -0.02200 43.49200 26.43200
C  2.61700 43.10100 28.91100
C  -2.07000 42.08400 28.92200
C  -2.49700 43.62400 24.29100
C  2.41300 44.16600 24.24000
N  0.27200 42.76900 28.69800
C  1.37500 42.77800 29.47800
C  1.09700 42.59400 30.93900
C  -0.32300 41.96800 30.86500
C  -0.75500 42.27900 29.44400
C  -0.53500 40.44400 31.17800
C  1.14100 44.00000 31.66700
C  1.73800 44.01700 33.16500
H  1.57400 42.75600 34.02000
N  -1.96500 42.91700 26.55400
C  -2.59800 42.43500 27.66200
C  -4.01100 42.16600 27.21500
C  -4.16700 42.51600 25.84900
C  -2.86100 43.03000 25.50500
C  -5.00500 41.54600 28.20600
C  -5.26700 42.38700 24.95800
O  -5.22700 42.78500 23.80200
C  -6.62800 41.93500 25.45500
N  -0.02800 43.62000 24.41000
C  -1.20000 43.84700 23.76000
C  -0.89900 44.26200 22.30600
C  0.57300 44.71500 22.41400
C  1.05600 44.13300 23.75200
C  -1.20000 43.14900 21.26900
C  0.74000 46.27300 22.24000
C  1.14400 46.67100 20.83000
N  2.04200 43.48600 26.48400
C  2.89500 43.80300 25.47000
C  4.23500 43.73700 25.96300
C  4.16100 43.59900 27.28500
C  2.81000 43.30900 27.54600
C  5.38800 44.09000 25.08700
C  4.93400 43.57700 28.49700
O  6.10000 43.65700 28.77800
C  3.90600 43.36000 29.54200
C  4.34900 42.09100 30.20900
O  4.38000 40.96300 29.74700
O  4.79300 42.39200 31.53000
C  5.09000 41.14600 32.24000
H  -2.76800 41.64200 29.63600
H  -3.27400 43.74300 23.53300
H  3.22100 44.37200 23.53400
H  1.78700 41.87300 31.37900
H  -0.99000 42.40100 31.61200
H  -1.05000 39.99300 30.33000
H  -1.15100 40.30700 32.06700
H  0.42000 39.93100 31.29500
H  0.15700 44.46800 31.64800
H  1.81000 44.66300 31.11900
H  1.26300 44.84800 33.68500
H  2.76800 44.37400 33.17000
H  -5.51000 42.37600 28.70000
H  -4.63200 40.87200 28.97700
H  -5.73600 40.90800 27.70900
H  -6.81900 42.44900 26.39700
H  -6.62100 40.84500 25.48700
H  -7.27300 42.38200 24.69900
H  -1.60800 45.06900 22.12000
H  1.16600 44.06400 21.77200
H  -2.26300 43.26200 21.05700
H  -0.97600 42.14300 21.62400
H  -0.63400 43.37800 20.36600
H  1.47200 46.66000 22.94800
H  -0.21800 46.75100 22.44400
H  2.15000 47.08600 20.88800
H  0.41500 47.43100 20.55000
H  1.16600 45.82500 20.14300
H  5.95600 44.89700 25.55000
H  4.99600 44.40300 24.11900
H  5.96000 43.16900 25.20100
H  3.94000 44.08600 30.35400
H  5.35300 41.43900 33.25600
H  5.96700 40.68200 31.78700
H  4.17600 40.55400 32.27200

