158

Mg 1.28000 -1.54000 44.39600
C  4.61200 -0.24900 44.00000
C  0.21500 1.27500 42.74300
C  -1.73600 -3.00900 43.94600
C  2.51500 -4.23900 45.90200
N  2.33700 0.15000 43.20800
C  3.68000 0.52300 43.30500
C  3.98900 1.88300 42.75700
C  2.57200 2.54000 42.83700
C  1.62100 1.27500 42.90900
C  2.38900 3.50100 44.02800
C  4.55500 1.80500 41.33100
C  6.01400 2.12900 40.90500
H  6.15800 2.99200 39.60900
N  -0.66800 -0.83400 43.59300
C  -0.85800 0.35400 42.97500
C  -2.19900 0.53600 42.58000
C  -2.77800 -0.78300 42.86600
C  -1.70000 -1.61200 43.47000
C  -2.72000 1.81200 41.91300
C  -4.19300 -1.17600 42.56500
O  -4.91700 -0.42300 41.92300
C  -4.73800 -2.43200 43.06200
N  0.57500 -3.40000 44.78300
C  -0.72100 -3.69500 44.61500
C  -1.00100 -5.00800 45.34500
C  0.30700 -5.49600 45.90500
C  1.17100 -4.30800 45.48800
C  -2.06600 -4.81000 46.40900
C  0.80700 -6.89300 45.32000
C  1.13900 -7.88900 46.43100
N  3.14200 -2.21500 44.78400
C  3.52400 -3.34200 45.45000
C  4.86100 -3.29200 45.83500
C  5.36000 -2.11800 45.27200
C  4.27300 -1.48300 44.60500
C  5.64000 -4.27600 46.70600
C  6.50600 -1.25300 45.24600
O  7.62200 -1.29000 45.76600
C  6.12800 -0.07800 44.27700
C  6.38500 1.12600 45.04900
O  5.61000 1.60200 45.90700
O  7.59000 1.64000 44.65300
C  8.09600 2.71700 45.36900
H  -0.05100 2.29200 42.44800
H  -2.59300 -3.68600 43.97600
H  2.95200 -5.05100 46.48700
H  4.61200 2.44800 43.45000
H  2.35200 3.21200 42.00800
H  3.27000 3.83000 44.57900
H  1.69000 3.03600 44.72300
H  1.95600 4.44700 43.70300
H  3.98900 2.44400 40.65300
H  4.32500 0.90000 40.76800
H  6.35900 1.12300 40.66900
H  6.54400 2.56500 41.75300
H  -2.85500 1.56100 40.86100
H  -2.11900 2.72000 41.86500
H  -3.71500 2.03000 42.30200
H  -5.78900 -2.62300 42.84300
H  -4.53900 -2.31100 44.12700
H  -4.12700 -3.16600 42.53700
H  -1.31500 -5.71900 44.58000
H  0.19400 -5.47000 46.98900
H  -1.46100 -4.39700 47.21600
H  -2.48200 -5.78600 46.66100
H  -2.90300 -4.22400 46.03100
H  1.76000 -6.65100 44.85100
H  0.16100 -7.41500 44.61400
H  2.09000 -7.57900 46.86400
H  1.11700 -8.90800 46.04400
H  0.37000 -7.98100 47.19700
H  5.97500 -5.01300 45.97600
H  4.98600 -4.80100 47.40200
H  6.44600 -3.63900 47.07100
H  6.81900 0.00500 43.43800
H  9.12900 2.91700 45.08600
H  8.10800 2.44800 46.42500
H  7.50400 3.59300 45.10400
Mg 26.94800 49.84800 26.40500
C  24.67200 51.05400 28.84000
C  28.72400 48.50500 28.95500
C  29.08800 49.04800 24.04200
C  25.14400 51.67600 24.05300
N  26.66200 49.78100 28.61000
C  25.69300 50.28400 29.37800
C  25.76400 49.73900 30.84600
C  27.22900 49.22800 30.90900
C  27.57400 49.15000 29.36200
C  28.33100 49.94200 31.75900
C  24.58800 48.77600 31.35100
C  23.72500 49.35700 32.56400
H  23.91800 48.49100 33.77300
N  28.63800 48.85000 26.52600
C  29.28200 48.36900 27.63800
C  30.50900 47.77100 27.27500
C  30.63300 47.89600 25.86000
C  29.41100 48.59200 25.39000
C  31.42600 47.11100 28.29700
C  31.72700 47.43700 24.89700
O  31.51100 47.54100 23.69300
C  33.02000 46.84500 25.34300
N  27.10400 50.33600 24.43700
C  28.03400 49.80200 23.55200
C  27.92400 50.32500 22.07300
C  26.60200 51.17800 22.15300
C  26.27100 51.08200 23.65000
C  29.21000 50.96900 21.50700
C  25.34000 50.65700 21.33700
C  24.60800 51.76600 20.55900
N  25.19200 51.12800 26.38700
C  24.60400 51.74900 25.32100
C  23.43000 52.38000 25.75200
C  23.41900 52.15000 27.17800
C  24.52300 51.38300 27.51100
C  22.59800 53.26100 24.89000
C  22.72400 52.35800 28.36300
O  21.75400 53.02800 28.64100
C  23.43900 51.63900 29.48300
C  23.73100 52.48400 30.70800
O  24.66900 53.30600 30.84300
O  22.68300 52.44100 31.54400
C  22.63400 53.41600 32.66000
H  29.29300 48.00800 29.74400
H  29.64600 48.76600 23.14700
H  24.49000 52.20300 23.35500
H  25.87400 50.62000 31.47800
H  27.13900 48.24600 31.37300
H  28.99200 49.20700 32.21700
H  27.87800 50.61400 32.48800
H  28.93100 50.59200 31.12200
H  25.03300 47.78600 31.46000
H  23.80400 48.64400 30.60500
H  22.73900 49.32800 32.10100
H  23.99900 50.35200 32.91400
H  32.31600 47.74000 28.28700
H  31.57900 46.11500 27.88000
H  31.02400 47.07200 29.31000
H  33.57900 46.72100 24.41500
H  32.83600 45.94500 25.92900
H  33.58100 47.49100 26.01800
H  27.79800 49.48000 21.39700
H  26.86400 52.22000 21.97100
H  28.98400 52.00600 21.25800
H  29.73000 50.36700 20.76200
H  29.97400 50.98700 22.28300
H  24.68800 50.15900 22.05500
H  25.73500 49.98300 20.57700
H  23.61900 51.81800 21.01400
H  24.53200 51.42000 19.52800
H  25.06000 52.75600 20.61900
H  22.27500 54.06200 25.55500
H  21.69500 52.71600 24.61700
H  22.96000 53.66600 23.94500
H  22.83100 50.77900 29.76500
H  23.26500 54.29100 32.50400
H  23.07900 52.87200 33.49400
H  21.57800 53.66300 32.77000

