158

Mg 17.36200 -0.47700 27.79400
C  15.90300 1.19900 30.55600
C  19.39300 -2.14900 30.03400
C  18.73700 -2.07900 25.21800
C  15.50700 1.68800 25.73100
N  17.47800 -0.55600 30.00500
C  16.87200 0.20300 30.89600
C  17.41800 0.12700 32.30100
C  18.63900 -0.80600 32.10600
C  18.54100 -1.21900 30.63200
C  19.97700 -0.02600 32.35500
C  16.37500 -0.55200 33.27400
C  16.10800 -0.06500 34.73500
H  17.32100 0.38900 35.47500
N  18.81400 -1.97200 27.69800
C  19.47100 -2.58600 28.68300
C  20.42300 -3.62000 28.15900
C  20.15100 -3.66300 26.77100
C  19.14400 -2.60600 26.50100
C  21.33000 -4.48100 28.95500
C  20.46400 -4.70400 25.68700
O  20.07700 -4.59000 24.53000
C  21.14700 -6.02700 26.11800
N  17.29300 -0.11800 25.84000
C  17.97500 -0.87000 24.94300
C  17.82400 -0.25300 23.53500
C  16.72500 0.84600 23.80400
C  16.47000 0.86400 25.27100
C  19.21700 0.31700 23.27900
C  15.39300 0.61300 22.94700
C  14.91500 1.75900 22.09700
N  15.84100 1.10600 28.01600
C  15.20700 1.90800 27.11100
C  14.38200 2.88400 27.82300
C  14.66400 2.63900 29.14900
C  15.49900 1.56600 29.23500
C  13.65200 4.07100 27.11800
C  14.33000 3.13400 30.46200
O  13.56900 4.04400 30.79000
C  15.18100 2.21800 31.40800
C  15.95700 3.11600 32.34400
O  16.91400 3.79300 31.99100
O  15.38600 3.13200 33.55600
C  15.80800 4.08700 34.55300
H  20.12700 -2.62900 30.68600
H  18.90100 -2.51900 24.23200
H  15.03200 2.29100 24.95500
H  17.58500 1.14800 32.64400
H  18.61800 -1.68000 32.75700
H  20.59600 0.12500 31.47100
H  20.54000 -0.70800 32.99200
H  19.73700 0.94100 32.79900
H  16.37600 -1.62700 33.45000
H  15.41700 -0.45400 32.76400
H  15.76200 -0.93900 35.28700
H  15.42600 0.78600 34.73000
H  22.35700 -4.59500 28.60900
H  20.88400 -5.47300 29.02400
H  21.36200 -4.10100 29.97600
H  21.09200 -6.76000 25.31400
H  20.71800 -6.43600 27.03300
H  22.19300 -5.83600 26.35800
H  17.66000 -1.13800 22.92000
H  16.99600 1.87000 23.54800
H  19.13200 1.29600 22.80700
H  19.80400 -0.33100 22.62700
H  19.83400 0.51300 24.15600
H  14.56500 0.40500 23.62400
H  15.52900 -0.18400 22.21600
H  14.13500 2.19600 22.72000
H  14.36400 1.56400 21.17700
H  15.75900 2.40100 21.84500
H  13.32700 3.81600 26.10900
H  14.12900 5.04900 27.16900
H  12.68300 4.03000 27.61600
H  14.43700 1.75100 32.05300
H  14.98400 4.13800 35.26500
H  16.06000 5.06600 34.14700
H  16.65800 3.83200 35.18500
Mg 0.64900 43.01000 25.34700
C  2.56000 43.08700 28.27400
C  -2.13800 42.81900 27.26600
C  -1.11400 42.72600 22.57000
C  3.58000 43.48200 23.41700
N  0.29900 43.02200 27.52400
C  1.19200 43.01000 28.63000
C  0.56100 42.87600 29.99800
C  -0.95200 42.68500 29.54400
C  -0.93200 42.89700 28.02900
C  -1.53400 41.29100 29.91400
C  0.90200 44.03000 30.94700
C  1.11800 43.72200 32.44100
H  0.75700 42.27900 32.85600
N  -1.34000 42.65300 24.98600
C  -2.33000 42.72600 25.91200
C  -3.58400 42.73800 25.21600
C  -3.43300 42.58800 23.79200
C  -1.92700 42.59700 23.73000
C  -4.91500 42.68800 25.95500
C  -4.41800 42.42000 22.67700
O  -4.09600 42.18300 21.51800
C  -5.87800 42.56400 23.02600
N  1.10000 43.17600 23.26700
C  0.21200 42.96800 22.32400
C  0.74500 43.31500 20.88000
C  2.20300 43.73600 21.22300
C  2.33300 43.46700 22.75300
C  0.71100 42.03700 19.93500
C  2.44900 45.22300 20.85800
C  3.76900 45.51000 20.09400
N  2.65400 43.26400 25.76200
C  3.71600 43.41800 24.84800
C  4.94800 43.54500 25.63500
C  4.57700 43.32800 27.02200
C  3.16300 43.20700 26.96300
C  6.36100 43.63100 25.08100
C  5.08300 43.10600 28.33000
O  6.21000 43.10600 28.77400
C  3.81300 42.94900 29.21400
C  3.88000 41.77000 30.13200
O  3.57600 40.65100 29.76100
O  4.51200 42.01700 31.33300
C  5.03600 40.89000 32.10600
H  -2.96600 42.63700 27.95500
H  -1.72500 42.77600 21.66600
H  4.41800 43.55300 22.72000
H  0.87700 41.90700 30.38700
H  -1.57800 43.45000 30.00400
H  -2.42300 41.40700 30.53300
H  -0.85900 40.78000 30.60000
H  -1.70100 40.64100 29.05500
H  0.12000 44.78300 30.84800
H  1.75500 44.58800 30.56000
H  0.44700 44.36000 33.01500
H  2.15000 44.03100 32.60700
H  -5.43500 43.41000 25.32500
H  -4.94200 43.01900 26.99300
H  -5.31500 41.69300 25.76100
H  -6.20700 41.96200 23.87400
H  -6.46000 42.17700 22.19000
H  -6.24600 43.58900 23.07300
H  0.09600 44.10200 20.49700
H  2.94500 43.04300 20.82600
H  0.30000 41.17600 20.46200
H  1.65700 41.84500 19.42900
H  -0.09000 42.20200 19.21500
H  2.42300 45.85400 21.74600
H  1.75200 45.69800 20.16600
H  4.38500 44.62100 20.23200
H  4.25000 46.39500 20.50900
H  3.56900 45.69700 19.03900
H  6.81100 44.60200 25.28500
H  6.38700 43.39600 24.01700
H  6.91400 42.78900 25.49700
H  3.85100 43.81500 29.87500
H  6.10200 41.03800 32.28200
H  4.82400 39.91700 31.66300
H  4.53400 40.93700 33.07200

