158

Mg 23.92600 -6.59900 45.75400
C  26.32900 -4.09600 45.26900
C  21.59900 -4.59800 44.15200
C  21.86400 -9.23300 45.86900
C  26.59500 -8.61100 46.95800
N  23.97800 -4.63600 44.84900
C  25.08000 -3.89600 44.68500
C  24.67400 -2.63200 43.82900
C  23.11600 -2.59900 43.95300
C  22.85700 -4.01600 44.42600
C  22.49800 -1.54700 44.90100
C  25.24500 -2.73300 42.38200
C  25.50500 -1.37600 41.75500
H  24.65200 -1.04900 40.50800
N  21.96600 -6.86600 45.10800
C  21.20300 -5.89200 44.44800
C  19.90700 -6.47700 44.21500
C  19.98900 -7.86100 44.63600
C  21.27900 -8.01700 45.23100
C  18.85300 -5.71500 43.33700
C  18.92800 -8.89600 44.53600
O  18.05000 -8.67400 43.77000
C  19.00000 -10.26300 45.13600
N  24.17400 -8.54500 46.31700
C  23.19800 -9.46300 46.34500
C  23.70300 -10.84800 46.95400
C  25.16100 -10.60600 46.88900
C  25.34300 -9.14000 46.66400
C  23.09900 -11.23400 48.34800
C  25.88400 -11.42100 45.78000
C  26.97700 -12.41100 46.08900
N  26.05400 -6.42200 46.15800
C  26.96400 -7.31600 46.67300
C  28.21500 -6.66500 46.91100
C  28.02300 -5.38100 46.25800
C  26.70500 -5.30900 45.79800
C  29.46100 -7.25800 47.42500
C  28.63400 -4.08400 45.95100
O  29.72700 -3.64400 46.15600
C  27.50800 -3.25900 45.10800
C  27.27300 -1.84200 45.63700
O  27.07700 -1.59500 46.82300
O  27.34700 -0.96600 44.65800
C  27.61100 0.41000 45.00700
H  20.80900 -3.96700 43.73900
H  21.27600 -10.15200 45.81500
H  27.31600 -9.36000 47.29200
H  24.90700 -1.67400 44.29400
H  22.60400 -2.49800 42.99600
H  23.24900 -0.91400 45.37300
H  21.90400 -1.95500 45.71900
H  21.82100 -0.96500 44.27600
H  24.43200 -3.17700 41.80700
H  26.14700 -3.33600 42.27400
H  26.56700 -1.27400 41.53100
H  25.35700 -0.53700 42.43500
H  19.12500 -5.24500 42.39200
H  18.53300 -4.84400 43.91000
H  17.90700 -6.20800 43.11300
H  18.00500 -10.70800 45.10600
H  19.19500 -10.02000 46.18000
H  19.73200 -10.91000 44.65200
H  23.36600 -11.56600 46.20600
H  25.54800 -10.82400 47.88400
H  22.08200 -11.56300 48.12900
H  23.09900 -10.32300 48.94600
H  23.58500 -12.00900 48.94000
H  26.43800 -10.72200 45.15300
H  25.19300 -12.02200 45.18900
H  26.65500 -13.44400 45.95900
H  27.55100 -12.21800 46.99500
H  27.60200 -12.25900 45.20800
H  29.39000 -7.73300 48.40300
H  30.28100 -6.54100 47.38000
H  29.79000 -7.92800 46.63100
H  27.85400 -3.22600 44.07400
H  27.95000 1.05600 44.19700
H  28.27100 0.49600 45.87000
H  26.66100 0.90700 45.20300
Mg -1.61700 34.67800 27.09000
C  -3.64300 33.03700 29.50600
C  -0.51400 36.70000 29.68400
C  -0.16200 36.68000 24.89000
C  -3.35700 33.02100 24.58600
N  -2.11900 34.87400 29.34000
C  -2.87800 34.04700 30.08100
C  -2.73200 34.28800 31.61800
C  -2.08400 35.71400 31.65000
C  -1.54700 35.80800 30.13300
C  -3.16600 36.86500 31.98000
C  -2.01600 33.11400 32.34100
C  -2.72600 32.46500 33.58100
H  -1.95100 32.55500 34.91400
N  -0.24700 36.20000 27.30800
C  0.11300 36.85200 28.45200
C  1.03900 37.93000 28.08900
C  1.25600 37.85800 26.73000
C  0.29300 36.87500 26.26000
C  1.74300 38.76200 29.21300
C  2.21600 38.70500 25.94600
O  2.38600 38.62100 24.70200
C  3.00700 39.82200 26.67500
N  -1.91700 34.87200 24.94200
C  -1.06000 35.74800 24.25100
C  -1.03800 35.45100 22.71000
C  -2.04700 34.19500 22.62200
C  -2.40600 33.95700 24.08300
C  -1.56500 36.60000 21.93100
C  -1.53000 32.91500 21.86800
C  -0.73900 31.87800 22.76500
N  -3.24500 33.32000 27.00500
C  -3.79000 32.69900 25.93600
C  -4.73400 31.69200 26.32700
C  -4.66900 31.75200 27.80500
C  -3.79200 32.78600 28.14100
C  -5.52100 30.75100 25.38700
C  -5.06800 31.08600 29.04800
O  -5.76400 30.12800 29.13000
C  -4.37300 31.86700 30.19800
C  -5.49900 32.24700 31.10400
O  -6.23200 33.19700 31.03100
O  -5.63100 31.22100 32.08200
C  -6.54700 31.55600 33.18300
H  -0.20500 37.36100 30.49700
H  0.41600 37.31500 24.21600
H  -3.83700 32.36500 23.85700
H  -3.74300 34.34600 32.02000
H  -1.23300 35.69800 32.33100
H  -2.94600 37.57800 31.18600
H  -2.90800 37.26900 32.96000
H  -4.17700 36.47300 31.86900
H  -1.05500 33.49700 32.68400
H  -1.84700 32.30500 31.63100
H  -2.86000 31.39500 33.42400
H  -3.74700 32.83200 33.68600
H  1.41600 39.80200 29.21100
H  2.81500 38.59600 29.11600
H  1.43400 38.44100 30.20800
H  3.49100 40.39000 25.88000
H  3.79000 39.30200 27.22700
H  2.34800 40.45300 27.27200
H  -0.05500 35.23600 22.29100
H  -3.01300 34.47800 22.20200
H  -1.54900 37.51900 22.51600
H  -2.58900 36.37700 21.63100
H  -1.00700 36.80400 21.01800
H  -1.04400 33.34500 20.99200
H  -2.44900 32.46100 21.49900
H  -0.60500 32.21800 23.79200
H  0.26000 31.75400 22.34600
H  -1.26300 30.92200 22.77600
H  -6.07300 31.37600 24.68400
H  -6.22100 30.19000 26.00600
H  -4.69300 30.15100 25.01000
H  -3.66000 31.17500 30.64500
H  -6.07800 32.28600 33.84200
H  -6.67300 30.69400 33.83800
H  -7.51900 32.00800 32.98800

