158

Mg 16.60400 -0.73300 27.85800
C  15.55400 1.16100 30.52500
C  18.42100 -2.69500 29.91600
C  18.17600 -2.02900 25.17600
C  14.99100 1.48900 25.68400
N  17.07000 -0.64100 30.02900
C  16.45100 0.16400 30.93100
C  16.88000 -0.22600 32.38500
C  17.68800 -1.57200 32.12100
C  17.80100 -1.60800 30.60900
C  19.07400 -1.63700 32.79900
C  15.80200 -0.26000 33.52500
C  16.19000 -0.95000 34.80600
H  17.36500 -0.40500 35.52600
N  17.92400 -2.19200 27.57300
C  18.42000 -2.98200 28.59900
C  19.10300 -4.14600 28.03500
C  19.13200 -3.93800 26.60800
C  18.37800 -2.74500 26.40900
C  19.73900 -5.15500 28.90000
C  19.87400 -4.67700 25.49700
O  19.78400 -4.47300 24.28500
C  20.95700 -5.73900 25.83700
N  16.71800 -0.23100 25.79800
C  17.40700 -0.95600 24.93300
C  17.31700 -0.43600 23.45400
C  16.00100 0.49400 23.59900
C  15.94400 0.63200 25.11400
C  18.66300 0.21000 23.03300
C  14.76300 -0.14800 23.01300
C  13.97700 -1.13300 23.86900
N  15.30300 0.82700 28.00400
C  14.72100 1.65700 27.03400
C  13.81500 2.63300 27.67100
C  14.13100 2.41000 29.05000
C  15.04500 1.39900 29.16800
C  13.03900 3.61000 26.98300
C  13.91000 2.91500 30.43600
O  13.12600 3.75700 30.79600
C  14.83800 2.15600 31.44000
C  15.71800 3.13200 32.14200
O  16.68500 3.69800 31.75400
O  15.15200 3.37700 33.39600
C  15.64200 4.54700 34.16200
H  19.08200 -3.27500 30.56400
H  18.67100 -2.50600 24.32700
H  14.36200 2.09500 25.02800
H  17.57100 0.59200 32.58400
H  17.13100 -2.43000 32.49600
H  19.27700 -0.77000 33.42800
H  19.83900 -1.57400 32.02400
H  19.10800 -2.56900 33.36400
H  14.84400 -0.63800 33.16800
H  15.69000 0.81300 33.68500
H  16.42500 -2.00700 34.68500
H  15.36400 -0.90600 35.51500
H  19.09300 -5.36900 29.75200
H  20.67200 -4.77800 29.31800
H  19.95400 -6.06800 28.34600
H  21.69700 -5.74000 25.03700
H  20.71900 -6.79800 25.93300
H  21.52800 -5.37100 26.69000
H  17.23400 -1.41400 22.97800
H  16.42700 1.42000 23.21100
H  18.55400 1.29000 23.12500
H  18.96100 0.06400 21.99400
H  19.42400 -0.15600 23.72200
H  15.11600 -0.76300 22.18600
H  14.05900 0.57000 22.59400
H  13.06200 -0.74400 24.31800
H  14.56300 -1.46300 24.72700
H  13.81100 -2.06200 23.32300
H  12.89700 3.36900 25.93000
H  13.49200 4.59000 27.13700
H  12.07300 3.59500 27.48800
H  14.25300 1.51900 32.10300
H  15.87700 5.42200 33.55700
H  16.45500 4.40900 34.87500
H  14.82700 4.75300 34.85600
Mg 55.24900 24.03400 45.13700
C  52.95400 26.49400 44.05200
C  53.16300 21.61300 44.11300
C  57.92100 21.86800 44.92000
C  57.57100 26.57800 45.88500
N  53.27100 24.07000 44.12000
C  52.51000 25.15500 43.83600
C  51.07000 24.63500 43.36600
C  51.16500 23.15000 43.80800
C  52.61600 22.88900 44.02100
C  50.33300 22.74300 44.98100
C  50.67900 24.84600 41.88500
C  49.25500 25.19900 41.60600
H  48.57900 24.83900 40.27200
N  55.54900 21.98200 44.62200
C  54.48400 21.17200 44.39800
C  55.01200 19.81100 44.20800
C  56.39300 19.81300 44.50000
C  56.74100 21.23300 44.63600
C  54.09900 18.60800 43.73800
C  57.28700 18.61500 44.69500
O  56.94100 17.50200 44.29200
C  58.65900 18.69500 45.39900
N  57.50100 24.28400 45.16600
C  58.33700 23.21100 45.25900
C  59.77900 23.55400 45.52500
C  59.66700 25.06600 45.96200
C  58.16300 25.34100 45.67000
C  60.54800 22.78900 46.57700
C  60.65900 26.07500 45.30500
C  61.37200 27.14300 46.24600
N  55.22800 26.09100 45.27800
C  56.21500 26.97800 45.53800
C  55.60500 28.33400 45.48900
C  54.38200 28.18200 44.87600
C  54.18300 26.78300 44.71200
C  56.37200 29.55800 45.87800
C  53.25200 28.93200 44.31300
O  53.08800 30.11500 44.25100
C  52.28200 27.84900 43.75800
C  52.06300 28.23500 42.32800
O  52.94300 28.53500 41.53600
O  50.71800 28.30400 42.01600
C  50.30400 28.67700 40.61700
H  52.37700 20.87000 43.96500
H  58.79400 21.23700 45.09600
H  58.25400 27.29400 46.34500
H  50.41200 25.23200 43.99700
H  50.78500 22.64600 42.91900
H  49.61600 23.48300 45.33700
H  50.96500 22.42000 45.80800
H  49.84500 21.82200 44.66300
H  50.95700 23.99400 41.26500
H  51.31700 25.61800 41.45600
H  49.15600 26.28400 41.64600
H  48.63900 24.66700 42.33100
H  53.95000 18.04900 44.66200
H  54.53000 17.96500 42.97000
H  53.26100 19.07200 43.21700
H  59.45200 19.01400 44.72200
H  58.63600 17.70100 45.84700
H  58.49800 19.26000 46.31700
H  60.28000 23.47200 44.56000
H  59.75500 25.13900 47.04600
H  61.10200 22.01800 46.04300
H  59.93200 22.24100 47.28900
H  61.29400 23.46400 46.99700
H  60.18600 26.62100 44.48800
H  61.49100 25.53700 44.85000
H  61.09800 28.17400 46.02300
H  62.42800 27.01400 46.00900
H  61.34800 26.96400 47.32100
H  56.09100 29.98400 46.84100
H  56.20200 30.44100 45.26200
H  57.40500 29.34400 46.15300
H  51.31300 27.84500 44.25800
H  51.17300 29.02500 40.05800
H  49.54200 29.45600 40.63100
H  49.86200 27.80400 40.13700

