158

Mg -2.46800 17.34600 26.87300
C  -3.20900 15.10700 29.50300
C  -2.39300 19.81000 29.01900
C  -2.27700 19.34600 24.23400
C  -3.23300 14.66700 24.64900
N  -2.80300 17.32300 29.04200
C  -2.95700 16.37300 29.96700
C  -3.00100 16.89800 31.36900
C  -2.90100 18.44500 31.09800
C  -2.63200 18.55300 29.59400
C  -4.07500 19.27700 31.65200
C  -1.81300 16.25300 32.21500
C  -1.44800 16.97000 33.51800
H  -1.13700 16.15100 34.71700
N  -2.18500 19.28100 26.66500
C  -2.13600 20.17200 27.69300
C  -1.91000 21.50600 27.16000
C  -1.88800 21.42100 25.72200
C  -2.10100 19.97200 25.44500
C  -1.98000 22.68700 28.08800
C  -1.69200 22.47900 24.60900
O  -1.79300 22.20300 23.41600
C  -1.50300 23.83600 24.98700
N  -2.54600 17.06000 24.77700
C  -2.46300 18.02500 23.91300
C  -2.78100 17.54700 22.49400
C  -3.00300 16.00900 22.61300
C  -2.85100 15.90500 24.10700
C  -4.01800 18.11200 21.89300
C  -1.96600 15.17100 21.74800
C  -2.42500 14.33100 20.54600
N  -2.96100 15.25700 26.97200
C  -3.29500 14.31800 26.04800
C  -3.64600 13.04700 26.65700
C  -3.55500 13.30300 27.99700
C  -3.13500 14.67200 28.13200
C  -4.05900 11.79100 25.92800
C  -3.72100 12.69400 29.32000
O  -4.03900 11.57900 29.65100
C  -3.57600 13.84100 30.25600
C  -2.44700 13.30900 31.04500
O  -1.31100 13.57300 30.98700
O  -2.93200 12.51200 32.05700
C  -2.12700 12.14100 33.18900
H  -2.35900 20.62400 29.74700
H  -2.19600 20.01900 23.37800
H  -3.35000 13.84300 23.94300
H  -3.84500 16.65500 32.01500
H  -1.97600 18.77400 31.57300
H  -4.71100 19.45700 30.78500
H  -3.66500 20.13900 32.17800
H  -4.62900 18.68900 32.38400
H  -0.87800 16.08100 31.68100
H  -2.24200 15.30900 32.54900
H  -2.10500 17.82300 33.69200
H  -0.45100 17.40600 33.45500
H  -1.39200 22.39900 28.96000
H  -3.00600 22.79900 28.43700
H  -1.63700 23.61100 27.62300
H  -2.22200 24.08800 25.76600
H  -1.68600 24.43200 24.09300
H  -0.46000 24.08800 25.18200
H  -2.03700 17.73300 21.72000
H  -4.04400 15.76200 22.40800
H  -4.88600 17.52200 22.19100
H  -3.92400 17.91500 20.82500
H  -4.13200 19.15200 22.19800
H  -1.40600 14.48600 22.38500
H  -1.25100 15.83100 21.25700
H  -2.09400 14.76100 19.60100
H  -3.50400 14.20600 20.63400
H  -2.05100 13.30900 20.60400
H  -3.33400 10.97700 25.94000
H  -4.36200 12.00200 24.90300
H  -4.87400 11.33300 26.48900
H  -4.23600 14.02000 31.10500
H  -1.86400 11.08400 33.24400
H  -2.66000 12.46200 34.08300
H  -1.17800 12.67500 33.24100
Mg -5.88500 24.31200 25.76400
C  -4.78500 25.95700 28.60300
C  -7.48900 22.06800 27.70100
C  -6.41400 22.45300 22.96200
C  -3.62400 26.37400 23.80600
N  -6.19800 24.15200 27.87000
C  -5.67300 24.96000 28.84000
C  -6.01300 24.43200 30.27400
C  -6.85000 23.09600 29.95200
C  -6.83300 23.07200 28.39700
C  -6.10700 21.83100 30.59400
C  -6.85600 25.41800 31.14000
C  -6.84700 25.26000 32.71300
H  -6.19400 23.94900 33.33700
N  -6.97500 22.55100 25.34900
C  -7.57100 21.80500 26.31800
C  -8.33300 20.68300 25.73300
C  -7.98400 20.74800 24.37100
C  -7.04600 21.92400 24.11800
C  -9.31800 19.87600 26.48700
C  -8.41400 19.89100 23.24000
O  -8.10700 20.05600 22.02700
C  -9.40900 18.72200 23.55300
N  -4.86600 24.15100 23.74900
C  -5.40500 23.35000 22.81300
C  -4.69500 23.62200 21.48600
C  -3.88300 24.93300 21.71500
C  -4.14900 25.25300 23.17300
C  -3.85500 22.46400 20.99400
C  -4.17100 26.09400 20.77600
C  -3.13500 26.50400 19.75800
N  -4.56600 25.83500 26.11800
C  -3.77700 26.64200 25.20700
C  -3.16600 27.72000 25.92900
C  -3.49600 27.50300 27.31700
C  -4.34700 26.38000 27.34300
C  -2.29700 28.67300 25.25200
C  -3.23600 27.88900 28.67200
O  -2.54500 28.75900 29.20000
C  -4.06900 26.91600 29.58300
C  -3.18200 26.19100 30.53100
O  -2.24100 25.43600 30.26200
O  -3.45700 26.53000 31.84400
C  -2.58300 25.98600 32.94500
H  -7.94500 21.31300 28.34500
H  -6.57000 21.89700 22.03600
H  -3.05000 27.10400 23.23100
H  -5.10800 24.22400 30.84500
H  -7.89800 23.15500 30.24700
H  -5.19700 22.16400 31.09200
H  -5.84400 21.11800 29.81300
H  -6.70400 21.19500 31.24800
H  -7.89300 25.39900 30.80500
H  -6.54000 26.41700 30.84000
H  -7.84400 25.31100 33.15000
H  -6.14000 25.99900 33.09000
H  -8.98500 18.84400 26.37600
H  -10.34900 19.89800 26.13400
H  -9.22700 20.16900 27.53300
H  -9.54100 18.05800 22.69900
H  -10.41600 19.04300 23.81800
H  -9.03800 18.05800 24.33400
H  -5.44400 23.74200 20.70400
H  -2.82700 24.66500 21.76100
H  -2.79900 22.72300 20.92400
H  -4.18200 22.19200 19.99000
H  -3.95700 21.70100 21.76700
H  -4.67600 26.91000 21.29300
H  -4.86600 25.56800 20.12200
H  -2.13500 26.07500 19.81700
H  -2.89200 27.56500 19.81100
H  -3.52100 26.25600 18.76900
H  -2.86900 29.45800 24.75600
H  -1.49700 28.29000 24.61900
H  -1.76400 29.23700 26.01700
H  -4.70500 27.56300 30.18800
H  -1.69900 25.46200 32.58100
H  -3.07800 25.46600 33.76500
H  -2.13800 26.90200 33.33500

