158

Mg 8.76700 3.97800 28.02000
C  10.15500 2.18700 30.81300
C  6.93900 5.81300 30.34400
C  7.24600 5.44500 25.57600
C  10.16100 1.56300 25.94800
N  8.58600 3.97600 30.37000
C  9.39000 3.21800 31.23800
C  9.18100 3.74800 32.64800
C  7.98500 4.78400 32.45600
C  7.75500 4.83400 30.96000
C  6.67900 4.29800 33.15700
C  10.47000 4.52300 33.23600
C  10.34100 5.20300 34.60000
H  11.14800 4.57500 35.68100
N  7.33900 5.54300 27.96400
C  6.70800 6.13900 28.98200
C  5.84900 7.12500 28.51700
C  5.93700 7.06400 27.05700
C  6.89000 6.02700 26.79600
C  5.13300 8.04900 29.43900
C  5.17400 7.91300 25.98700
O  5.32000 7.73100 24.76700
C  4.29500 9.02000 26.41200
N  8.59100 3.44600 26.04200
C  7.99500 4.30000 25.21400
C  8.37200 3.97500 23.69800
C  9.41800 2.75800 23.84900
C  9.42200 2.61500 25.39300
C  7.10300 3.69600 22.81400
C  10.88300 3.13800 23.35200
C  11.51400 2.25400 22.15000
N  9.92600 2.23900 28.29900
C  10.37100 1.46800 27.29600
C  11.32500 0.47700 27.83700
C  11.17500 0.68800 29.27200
C  10.31400 1.78300 29.47300
C  12.10700 -0.62000 27.12400
C  11.67200 0.27300 30.52400
O  12.34300 -0.67300 30.87100
C  11.06300 1.26600 31.54700
C  10.33000 0.55800 32.70800
O  9.36600 -0.19800 32.68200
O  11.03200 0.90800 33.83500
C  10.42500 0.41700 35.06500
H  6.53900 6.43000 31.15100
H  6.85700 6.00300 24.72300
H  10.69300 0.78700 25.39400
H  8.88500 2.93100 33.30500
H  8.18000 5.77100 32.87400
H  6.66800 4.71700 34.16300
H  6.79000 3.21600 33.23400
H  5.74100 4.48400 32.63400
H  10.63800 5.32400 32.51600
H  11.31500 3.83500 33.24400
H  9.31300 5.33900 34.93500
H  10.75100 6.19700 34.42300
H  4.08100 7.86000 29.22600
H  5.40300 9.10300 29.37600
H  5.16400 7.78300 30.49500
H  3.91600 9.44500 25.48200
H  4.96800 9.74200 26.87400
H  3.47800 8.70300 27.06000
H  8.84500 4.87500 23.30400
H  8.89800 1.89200 23.43800
H  6.16700 3.76900 23.36800
H  7.19400 2.75700 22.26900
H  7.11600 4.40100 21.98300
H  11.64800 3.00400 24.11700
H  10.95200 4.17700 23.03100
H  10.89000 1.36400 22.06900
H  12.53600 1.90700 22.30200
H  11.62400 2.81900 21.22500
H  13.06000 -0.14000 26.90100
H  11.66100 -0.84300 26.15500
H  12.24700 -1.50200 27.74700
H  11.88600 1.85800 31.94800
H  9.34700 0.47400 35.21100
H  10.82900 0.99800 35.89500
H  10.79100 -0.60300 35.17700
Mg 41.11800 40.96300 26.59300
C  40.38900 43.25200 29.10900
C  42.48900 38.83000 28.83400
C  42.24400 39.05800 24.02700
C  40.86900 43.68100 24.30200
N  41.38900 41.02300 28.75400
C  40.87400 41.97500 29.60900
C  40.96400 41.54300 31.06700
C  41.67300 40.20100 31.01800
C  41.91400 39.98700 29.45900
C  42.97100 40.11700 31.87000
C  39.67600 41.61100 31.99700
C  39.86300 42.23500 33.42300
H  39.11600 41.68300 34.64800
N  42.16200 39.12000 26.47200
C  42.63300 38.45500 27.52200
C  43.33100 37.24500 26.95800
C  43.19800 37.31100 25.57500
C  42.49500 38.55600 25.29900
C  43.86800 36.18900 27.81300
C  43.67100 36.27500 24.47300
O  43.49600 36.46500 23.29200
C  44.40700 35.03100 24.92000
N  41.47900 41.31000 24.48500
C  41.98200 40.35900 23.69200
C  41.99500 40.83900 22.25000
C  41.16300 42.13300 22.28200
C  41.15600 42.42400 23.76000
C  43.42500 41.09100 21.69700
C  39.78800 41.90500 21.56600
C  38.73400 40.91300 22.00400
N  40.48100 42.95300 26.61800
C  40.55200 43.92700 25.64900
C  40.06700 45.21500 26.15100
C  39.96500 45.01600 27.51500
C  40.29000 43.63900 27.74600
C  39.85300 46.53400 25.34500
C  39.54100 45.62400 28.79500
O  39.15800 46.72900 29.11400
C  39.88700 44.44400 29.90000
C  40.93900 45.07200 30.78000
O  42.07400 45.38100 30.39000
O  40.58700 45.28000 32.10300
C  41.55800 45.73200 33.04600
H  42.95600 38.21700 29.60700
H  42.43800 38.44700 23.14300
H  40.71200 44.61700 23.76200
H  41.66100 42.31800 31.38400
H  40.96300 39.46600 31.39600
H  42.74300 39.24300 32.48000
H  43.29800 40.90500 32.54800
H  43.78900 39.84600 31.20300
H  39.04800 40.72100 32.04400
H  38.98200 42.21200 31.40900
H  39.41500 43.21300 33.25000
H  40.88900 42.48900 33.68800
H  43.27200 35.32000 27.53400
H  43.78100 36.26900 28.89700
H  44.84900 35.85000 27.48100
H  45.31100 35.29400 25.47000
H  44.52200 34.39900 24.03900
H  43.69900 34.60200 25.62900
H  41.52200 40.09000 21.61600
H  41.70400 42.98200 21.86500
H  44.14300 40.73400 22.43600
H  43.55800 42.09800 21.30400
H  43.55300 40.39100 20.87100
H  40.06500 41.66300 20.54000
H  39.39200 42.91800 21.49600
H  37.82300 41.46700 22.23300
H  39.05500 40.31100 22.85400
H  38.63000 40.26700 21.13200
H  39.37500 47.30100 25.95400
H  39.25100 46.34400 24.45600
H  40.78400 46.99700 25.01900
H  39.00900 44.26700 30.52100
H  42.33700 46.32300 32.56500
H  41.80300 44.86300 33.65800
H  41.11100 46.44500 33.73800

