158

Mg 24.23900 -5.64300 45.45600
C  26.61300 -3.81700 43.84200
C  21.84200 -4.39400 43.36100
C  22.25400 -8.31000 46.32800
C  26.79600 -7.03800 47.45000
N  24.32100 -4.38400 43.79100
C  25.34300 -3.57200 43.39600
C  24.93700 -2.58300 42.34300
C  23.34200 -2.58200 42.43300
C  23.14800 -3.85100 43.25600
C  22.65300 -1.33300 43.04800
C  25.51800 -3.00100 40.96000
C  26.15900 -1.86600 40.14900
H  25.89300 -1.88700 38.63500
N  22.23400 -6.11200 45.12700
C  21.43900 -5.50900 44.16300
C  20.13400 -6.17200 44.16700
C  20.24200 -7.38100 44.95200
C  21.61700 -7.36100 45.48400
C  18.97100 -5.72800 43.23200
C  19.19400 -8.37000 45.24900
O  18.07600 -8.24800 44.64400
C  19.29900 -9.57300 46.16200
N  24.55200 -7.50100 46.55200
C  23.56700 -8.39800 46.81300
C  24.04900 -9.51700 47.74000
C  25.45100 -9.03000 48.12000
C  25.67000 -7.80200 47.36200
C  23.19900 -9.79600 48.98800
C  26.54000 -10.07400 47.93000
C  27.60400 -10.46300 49.08800
N  26.27500 -5.44400 45.70800
C  27.14900 -5.98800 46.53500
C  28.38600 -5.31500 46.42500
C  28.25800 -4.42000 45.35000
C  26.91900 -4.60000 44.93600
C  29.58200 -5.48200 47.31400
C  28.94600 -3.48600 44.53400
O  30.09000 -3.06500 44.52500
C  27.89000 -3.07000 43.48400
C  27.75600 -1.60800 43.63700
O  27.32200 -1.04900 44.64900
O  28.34300 -0.93800 42.59900
C  28.46600 0.51300 42.94800
H  21.10900 -3.82100 42.78800
H  21.72000 -9.20400 46.66000
H  27.41700 -7.29400 48.31100
H  25.32800 -1.58000 42.51600
H  22.94900 -2.70700 41.42400
H  22.14400 -1.62300 43.96800
H  22.00500 -0.83000 42.33000
H  23.44000 -0.58500 43.13600
H  24.69800 -3.41800 40.37600
H  26.20200 -3.84400 41.05700
H  27.22100 -1.97300 40.37100
H  25.78400 -0.90100 40.49000
H  19.21500 -4.68000 43.05900
H  17.92000 -5.79900 43.51200
H  19.05600 -6.15300 42.23100
H  18.33700 -10.06200 46.31200
H  19.53600 -9.18000 47.15100
H  20.10000 -10.20700 45.78400
H  24.12500 -10.44600 47.17500
H  25.31700 -8.54300 49.08600
H  22.82900 -10.80500 48.80300
H  22.35100 -9.14900 49.21100
H  23.76100 -9.91200 49.91500
H  27.12600 -9.88200 47.03200
H  26.09700 -11.04100 47.69200
H  27.86600 -9.60600 49.70800
H  28.52700 -10.93500 48.75100
H  27.08800 -11.18000 49.72700
H  29.78500 -4.60500 47.92900
H  30.44600 -5.61500 46.66300
H  29.48100 -6.37100 47.93800
H  28.14000 -3.18700 42.43000
H  29.38500 0.63500 43.52200
H  27.65900 0.97700 43.51500
H  28.44300 1.02400 41.98600
Mg 16.25100 52.27200 26.48800
C  18.03500 50.93700 29.09300
C  13.66600 52.68800 28.68800
C  14.52800 53.24400 23.92800
C  18.77800 51.05700 24.22400
N  15.91600 51.79300 28.55800
C  16.81000 51.48800 29.48800
C  16.43200 51.76900 31.00400
C  14.90600 51.91600 30.74900
C  14.83000 52.21700 29.19800
C  14.12900 50.63900 31.29100
C  17.28600 53.00300 31.39500
C  17.44100 53.30700 32.93900
H  16.43900 52.54000 33.93200
N  14.34200 53.04000 26.37800
C  13.36900 53.07700 27.34700
C  12.20400 53.73500 26.75500
C  12.48200 53.99000 25.37600
C  13.83500 53.40400 25.17700
C  10.95300 54.11700 27.57200
C  11.65100 54.63900 24.24900
O  12.07800 54.91100 23.17500
C  10.28700 55.22600 24.56200
N  16.59100 52.09500 24.45900
C  15.70800 52.69300 23.59600
C  16.17400 52.66800 22.17400
C  17.71700 52.42800 22.28600
C  17.78300 51.84500 23.68900
C  15.51300 51.67500 21.14500
C  18.68700 53.54800 22.05300
C  18.88900 53.87500 20.54200
N  17.98800 51.13600 26.58500
C  19.01600 50.77000 25.60900
C  20.05400 50.15600 26.26900
C  19.73100 50.15500 27.60500
C  18.47300 50.76000 27.75400
C  21.26000 49.54800 25.69700
C  20.26100 49.87900 28.92800
O  21.26900 49.29100 29.31700
C  19.17700 50.42700 29.94100
C  18.64700 49.37300 30.88100
O  17.64400 48.71800 30.73700
O  19.35000 49.37900 32.06000
C  18.70400 48.62600 33.13400
H  12.77900 52.73100 29.32400
H  13.97400 53.61000 23.06100
H  19.63100 50.93100 23.55400
H  16.62800 50.92600 31.66700
H  14.45600 52.81900 31.16000
H  13.41900 50.80400 32.10200
H  14.82700 49.85800 31.59000
H  13.56100 50.19400 30.47400
H  16.80700 53.79000 30.81300
H  18.29900 52.81800 31.03500
H  17.26500 54.38000 33.01500
H  18.42500 53.14900 33.38300
H  10.03000 53.77200 27.10800
H  10.87400 55.20100 27.64800
H  10.92100 53.62400 28.54400
H  9.94800 55.72200 23.65200
H  10.33000 55.82400 25.47200
H  9.71100 54.33900 24.82400
H  16.06600 53.70500 21.85300
H  18.04300 51.66900 21.57400
H  15.32300 52.21100 20.21600
H  14.59200 51.22800 21.51900
H  16.20300 50.93000 20.75100
H  19.60200 53.19400 22.53000
H  18.27600 54.38300 22.62000
H  18.10300 53.38200 19.97000
H  19.89100 53.57000 20.24000
H  18.97000 54.95000 20.38400
H  21.87800 50.32600 25.25000
H  20.95000 48.81300 24.95400
H  21.70900 48.97800 26.51000
H  19.50800 51.28600 30.52400
H  18.67100 47.56500 32.88500
H  17.66700 48.89300 33.33500
H  19.21700 48.64400 34.09600

