158

Mg 53.63000 25.99300 44.60600
C  50.95000 28.14800 44.41400
C  51.43800 23.41500 43.75600
C  56.27200 23.92000 44.21900
C  55.62500 28.69200 45.10000
N  51.40200 25.82300 44.15400
C  50.53100 26.81500 44.12300
C  49.12800 26.39200 43.55500
C  49.27400 24.84100 43.88000
C  50.81800 24.63300 43.85000
C  48.54300 24.26800 45.08300
C  48.86700 26.69400 42.04600
C  50.08500 26.97200 41.07500
H  50.36900 26.01700 39.92200
N  53.81400 23.89900 44.12800
C  52.82100 22.98800 43.89400
C  53.40200 21.68200 43.55100
C  54.86100 21.81800 43.75400
C  55.01800 23.25900 44.06200
C  52.58700 20.52000 43.21000
C  55.93200 20.62900 43.72800
O  55.57500 19.48100 43.43400
C  57.38800 20.87300 44.12000
N  55.70400 26.32500 44.50300
C  56.58000 25.27100 44.39500
C  58.00300 25.78600 44.34600
C  57.83300 27.28900 44.72000
C  56.28600 27.49500 44.79000
C  59.12400 25.06600 45.24100
C  58.58000 28.52200 43.95700
C  59.26100 29.60500 44.82300
N  53.36600 27.97200 44.91400
C  54.26700 28.95300 45.22200
C  53.61300 30.22900 45.40000
C  52.27200 29.92600 45.15000
C  52.22100 28.55900 44.84700
C  54.27700 31.52100 45.68100
C  50.99700 30.50000 45.04600
O  50.60400 31.61700 45.30500
C  50.04800 29.34600 44.55900
C  49.58500 29.93000 43.24000
O  50.16400 29.96200 42.18800
O  48.16700 30.17400 43.41400
C  47.39200 30.50500 42.13600
H  50.72400 22.61000 43.57400
H  57.24400 23.42700 44.14800
H  56.33300 29.52400 45.09400
H  48.31800 26.80800 44.15300
H  48.91300 24.23100 43.05300
H  48.17800 24.99000 45.81300
H  49.24100 23.62700 45.62100
H  47.78200 23.49700 44.96200
H  48.17000 27.52700 41.94800
H  48.33500 25.92200 41.49100
H  51.00100 27.13900 41.64100
H  49.91300 27.92300 40.57000
H  52.88700 19.65000 43.79500
H  52.61400 20.29000 42.14500
H  51.59700 20.80600 43.56300
H  57.82400 21.47300 43.32100
H  57.89500 19.91100 44.20000
H  57.23600 21.18100 45.15400
H  58.37700 25.66900 43.32900
H  58.20300 27.48300 45.72700
H  58.65600 24.33200 45.89700
H  59.69800 25.77000 45.84200
H  59.89700 24.54000 44.68000
H  57.83300 28.94300 43.28500
H  59.37200 27.96800 43.45400
H  59.54500 29.09600 45.74400
H  58.51000 30.39100 44.90300
H  60.25800 29.91400 44.50900
H  53.92500 32.45800 45.24900
H  55.34300 31.65400 45.49300
H  54.21300 31.59500 46.76600
H  49.17600 29.31500 45.21200
H  46.69200 31.25800 42.50000
H  46.85400 29.60400 41.84000
H  47.99600 30.87600 41.30800
Mg -5.94100 24.92000 25.84500
C  -4.67700 26.14700 28.97600
C  -8.15300 22.94300 27.80500
C  -7.04400 23.48500 23.10400
C  -3.36500 26.56600 24.16300
N  -6.20600 24.56000 28.17000
C  -5.66400 25.20300 29.23500
C  -6.31600 24.88500 30.56100
C  -7.37000 23.76300 30.10400
C  -7.23500 23.73500 28.57700
C  -7.32800 22.28800 30.80600
C  -6.99000 26.10700 31.35100
C  -6.57900 26.37600 32.83800
H  -6.01600 25.15500 33.68700
N  -7.33000 23.43900 25.51300
C  -8.18200 22.84700 26.43400
C  -9.11000 21.94300 25.73100
C  -8.66800 21.93300 24.35900
C  -7.67400 23.00700 24.27900
C  -10.09500 21.11200 26.46300
C  -9.22000 20.97900 23.23200
O  -8.76800 21.09500 22.10100
C  -10.24200 19.89300 23.46100
N  -5.24100 25.02900 23.94200
C  -5.94200 24.35400 22.94800
C  -5.29500 24.64300 21.59500
C  -4.09100 25.46200 21.97000
C  -4.17900 25.72500 23.43500
C  -4.88900 23.31700 20.86300
C  -4.01300 26.85300 21.19600
C  -2.64300 27.29900 20.77300
N  -4.43800 26.31900 26.38700
C  -3.42400 26.83000 25.58900
C  -2.60100 27.67800 26.35000
C  -3.06800 27.50500 27.70900
C  -4.15200 26.57500 27.70500
C  -1.45900 28.62900 26.00800
C  -2.82400 27.93600 29.01500
O  -1.98000 28.73900 29.39600
C  -3.82200 26.98800 29.96900
C  -2.84100 26.18100 30.70600
O  -2.35500 25.08100 30.30900
O  -2.60900 26.82000 31.91000
C  -1.45100 26.27700 32.64700
H  -8.91800 22.50000 28.44600
H  -7.40300 22.96300 22.21400
H  -2.51000 26.99100 23.63300
H  -5.50000 24.45500 31.14200
H  -8.36300 24.13400 30.35800
H  -6.38900 22.15400 31.34400
H  -7.20800 21.54400 30.01900
H  -8.18800 22.14800 31.46100
H  -8.07800 26.06000 31.30700
H  -6.66600 27.04600 30.90200
H  -7.51000 26.68500 33.31300
H  -5.86400 27.19600 32.89000
H  -11.07900 21.17700 26.00000
H  -10.30000 21.38700 27.49800
H  -9.74000 20.08300 26.39800
H  -10.18600 19.11700 22.69700
H  -11.27400 20.23100 23.55100
H  -9.98600 19.42100 24.41000
H  -5.93700 25.20200 20.91300
H  -3.16100 24.91000 21.83800
H  -3.84000 23.41700 20.58200
H  -5.49200 23.07600 19.98800
H  -4.94800 22.48000 21.55900
H  -4.50800 27.61500 21.79900
H  -4.71800 26.83500 20.36500
H  -2.50300 28.24700 21.29300
H  -2.54900 27.39700 19.69200
H  -1.92400 26.60900 21.21500
H  -1.84000 29.38700 25.32500
H  -0.59700 28.09000 25.61400
H  -1.10500 29.14300 26.90200
H  -4.39600 27.62900 30.63800
H  -1.15600 26.93100 33.46700
H  -0.59400 26.13600 31.98900
H  -1.65200 25.27600 33.02800

