158

Mg 34.83700 49.31300 25.04600
C  34.90600 47.52200 28.07000
C  32.93200 51.81000 26.69900
C  34.72100 51.10300 22.31300
C  36.19500 46.55100 23.42400
N  34.06900 49.67700 27.10100
C  34.37500 48.87700 28.20100
C  34.09600 49.57600 29.52800
C  33.24200 50.77800 29.07600
C  33.46800 50.78600 27.53500
C  31.76800 50.70800 29.37300
C  35.35700 49.75100 30.43800
C  35.20700 49.50000 31.90900
H  33.75700 49.44000 32.46800
N  33.90600 51.21100 24.52200
C  33.16000 52.03800 25.34500
C  32.79900 53.19100 24.60600
C  33.37100 52.97800 23.30100
C  33.96800 51.70500 23.34100
C  32.11500 54.30400 25.20200
C  33.24800 53.84000 22.01900
O  33.77600 53.64500 20.90300
C  32.32200 54.99800 22.13800
N  35.42900 48.87400 23.14400
C  35.28500 49.81800 22.20300
C  35.58900 49.13700 20.85500
C  36.28300 47.77300 21.22600
C  35.93800 47.71700 22.63500
C  34.32500 49.07200 19.91600
C  37.82200 47.60100 20.88300
C  38.83500 48.12800 21.89300
N  35.40500 47.45600 25.60200
C  36.03600 46.41400 24.83100
C  36.24800 45.22900 25.67700
C  35.79300 45.65900 26.94900
C  35.39300 47.01100 26.85700
C  36.72600 43.90600 25.28500
C  35.55200 45.17800 28.21700
O  35.71600 44.09000 28.66800
C  35.09100 46.38900 29.11000
C  33.85100 45.91100 29.79700
O  32.79400 45.70800 29.24000
O  34.06600 45.74700 31.08700
C  32.92600 45.37000 31.87600
H  32.37900 52.60500 27.20300
H  34.79600 51.63500 21.36300
H  36.63700 45.77000 22.80200
H  33.41200 48.85000 29.96700
H  33.57100 51.75300 29.43600
H  31.58400 49.85600 30.02800
H  31.02700 50.58300 28.58400
H  31.53700 51.59600 29.96100
H  35.80400 50.70100 30.14300
H  36.05700 49.00900 30.05400
H  35.80700 50.29700 32.34800
H  35.53700 48.46500 32.00600
H  32.51200 55.28100 24.92600
H  31.93900 54.28500 26.27800
H  31.03800 54.30600 25.03100
H  31.41000 54.77600 22.69100
H  32.00900 55.34600 21.15400
H  32.83300 55.83500 22.61400
H  36.30400 49.79300 20.35800
H  35.73100 47.05100 20.62500
H  34.39000 49.75900 19.07300
H  33.43800 49.29100 20.51200
H  34.26800 48.06600 19.50000
H  37.82200 48.13800 19.93400
H  37.99800 46.53000 20.78800
H  39.38500 48.97200 21.47500
H  39.53200 47.34500 22.19000
H  38.31800 48.56600 22.74700
H  36.08300 43.39500 24.56800
H  36.80500 43.22900 26.13500
H  37.73300 44.01200 24.88100
H  35.83600 46.65900 29.85900
H  32.65600 44.36300 31.55600
H  32.12500 46.10600 31.80500
H  33.34300 45.49300 32.87500
Mg 15.87000 51.63000 24.75000
C  17.92200 50.56900 27.42300
C  13.52900 52.50700 26.98400
C  14.19900 52.62600 22.24300
C  18.46400 50.28200 22.59400
N  15.64600 51.31800 26.86500
C  16.69000 51.11200 27.75000
C  16.28000 51.49100 29.18000
C  14.72400 51.68000 29.07000
C  14.64200 51.91400 27.56000
C  13.90000 50.50600 29.53000
C  17.03500 52.67700 29.62800
C  16.90200 53.08500 31.15400
H  15.83600 52.26000 31.97800
N  14.01000 52.50300 24.59700
C  13.26700 52.80900 25.65800
C  12.05300 53.43900 25.15300
C  12.20200 53.47400 23.69600
C  13.52300 52.87100 23.47600
C  10.91100 53.98400 25.91200
C  11.27400 54.01700 22.60800
O  11.55000 54.05300 21.41600
C  9.93800 54.71600 22.97100
N  16.28500 51.43500 22.76700
C  15.40800 51.96700 21.87500
C  15.89800 52.01500 20.47300
C  17.15900 51.12200 20.52800
C  17.32600 50.89900 22.06300
C  14.81100 51.51500 19.43600
C  18.37300 51.75900 19.89200
C  19.31100 50.89000 18.94400
N  17.87500 50.66600 24.92700
C  18.78800 50.12500 23.97000
C  19.92900 49.60900 24.58400
C  19.61300 49.76500 26.02700
C  18.39100 50.39600 26.12200
C  21.06800 49.00500 23.80100
C  20.08400 49.42100 27.34800
O  21.10900 48.83200 27.76500
C  19.03300 50.05400 28.36100
C  18.61000 48.90900 29.29400
O  17.68800 48.14800 29.15500
O  19.44600 48.93000 30.34000
C  18.89100 48.39200 31.57900
H  12.67200 52.77800 27.60400
H  13.64300 52.98800 21.37600
H  19.16200 49.90200 21.84500
H  16.43200 50.69000 29.90300
H  14.27900 52.55600 29.54200
H  12.98100 50.93600 29.92800
H  14.34400 49.79000 30.22100
H  13.69900 49.84400 28.68800
H  16.76600 53.60200 29.11800
H  18.11800 52.56100 29.61500
H  16.62500 54.13900 31.19700
H  17.89500 53.01900 31.59800
H  10.86100 55.07200 25.87200
H  11.02500 53.71900 26.96300
H  9.98700 53.49700 25.59800
H  10.21800 55.60100 23.54200
H  9.27600 54.07500 23.55300
H  9.47700 54.97000 22.01600
H  16.09900 53.07700 20.33000
H  16.88700 50.14200 20.13600
H  14.10300 50.91100 20.00300
H  15.26200 51.02000 18.57600
H  14.37000 52.44200 19.06900
H  19.03500 51.98400 20.72800
H  18.05800 52.60000 19.27300
H  19.29500 51.16800 17.89000
H  18.96200 49.85700 18.92600
H  20.35100 50.92300 19.26900
H  20.92000 48.71900 22.76000
H  21.33400 48.15000 24.42300
H  21.86100 49.75300 23.79900
H  19.59300 50.76800 28.96400
H  18.27500 47.51600 31.37500
H  18.27600 49.15900 32.05000
H  19.74400 48.10200 32.19200

