158

Mg 30.15400 58.62400 39.46800
C  27.09300 57.13500 38.80000
C  31.72100 55.71500 38.50700
C  33.06800 60.35500 39.38500
C  28.48600 61.67100 40.12100
N  29.46400 56.72400 38.54100
C  28.16500 56.27300 38.45000
C  28.13800 54.95300 37.75100
C  29.53700 54.37900 38.00800
C  30.29200 55.62900 38.41600
C  29.51300 53.28800 39.12000
C  27.81500 55.21700 36.25100
C  26.61000 54.62500 35.55100
H  25.93700 55.55400 34.51000
N  32.12400 58.10800 39.10000
C  32.55300 56.87000 38.76300
C  34.03200 56.86600 38.66200
C  34.43000 58.22300 38.77400
C  33.21900 58.96500 39.16200
C  34.80200 55.68900 38.13300
C  35.81300 58.73000 38.49800
O  36.63700 57.91400 38.13800
C  36.22000 60.10300 38.52000
N  30.67800 60.60700 39.68600
C  31.95400 61.11000 39.61400
C  32.03100 62.65100 39.70000
C  30.64700 62.96400 40.32000
C  29.88400 61.68200 40.00400
C  33.26800 63.28100 40.38300
C  30.07100 64.27500 39.70400
C  29.52400 65.30000 40.67000
N  28.10000 59.27400 39.62800
C  27.61600 60.58200 39.85000
C  26.14100 60.47900 39.78100
C  25.89900 59.10700 39.46100
C  27.13900 58.43000 39.27900
C  25.06700 61.54700 40.26600
C  24.86700 58.14300 39.22900
O  23.65100 58.13000 39.38300
C  25.60300 56.88200 38.67700
C  25.06600 55.69700 39.36700
O  25.42200 55.26800 40.45600
O  24.13100 55.06200 38.56600
C  23.56900 53.78600 39.07200
H  32.22500 54.75500 38.37800
H  33.91300 61.04600 39.39400
H  27.98600 62.62800 40.28800
H  27.38900 54.29500 38.19100
H  29.92500 53.95400 37.08200
H  28.58200 53.18400 39.67700
H  30.20300 53.63000 39.89200
H  29.83600 52.31100 38.76000
H  28.68700 54.92500 35.66500
H  27.55200 56.27400 36.20100
H  25.88200 54.28700 36.28800
H  27.01000 53.84200 34.90700
H  35.03800 55.89200 37.08800
H  34.29400 54.73000 38.23700
H  35.70100 55.62300 38.74600
H  37.06700 60.23000 37.84600
H  36.31000 60.42900 39.55600
H  35.49400 60.62000 37.89300
H  31.88100 63.01000 38.68200
H  30.75600 62.93000 41.40400
H  32.93000 64.05800 41.07000
H  33.71400 63.67400 39.47000
H  34.05600 62.62400 40.75100
H  29.26400 64.02400 39.01500
H  30.80100 64.83000 39.11600
H  30.17200 66.15600 40.85700
H  29.42800 64.75700 41.61000
H  28.57300 65.67900 40.29500
H  25.61000 62.29300 40.84600
H  24.29600 61.01700 40.82600
H  24.59400 62.08200 39.44300
H  25.30400 56.84700 37.63000
H  24.44000 53.16600 39.28200
H  22.97900 53.30700 38.29100
H  23.00000 54.01200 39.97400
Mg 6.49400 54.36100 41.35400
C  6.19800 50.93100 41.20600
C  10.00900 53.90400 40.53800
C  6.86400 57.71800 41.00600
C  3.16500 54.69700 41.74700
N  7.85400 52.60300 40.72900
C  7.47100 51.24900 40.83700
C  8.72300 50.33900 40.63900
C  9.93200 51.34100 40.69500
C  9.22200 52.68700 40.74500
C  10.91900 51.07500 41.88600
C  8.66400 49.61200 39.27800
C  8.45700 50.49500 38.10700
H  7.49200 49.96900 37.04400
N  8.15400 55.61900 40.83900
C  9.46900 55.24500 40.59200
C  10.27900 56.46100 40.32000
C  9.39800 57.53800 40.46800
C  8.04700 56.93900 40.77800
C  11.70100 56.39100 39.86400
C  9.76400 59.03300 40.20300
O  10.90700 59.34400 39.88300
C  8.79300 60.09500 40.17100
N  5.19500 56.00100 41.14700
C  5.53400 57.27600 41.14800
C  4.42700 58.22600 41.56600
C  3.24700 57.24400 41.55200
C  3.89300 55.85900 41.42700
C  4.63100 58.78500 42.99800
C  2.18800 57.51300 40.40500
C  0.78700 57.82500 40.85700
N  4.92600 53.11700 41.49300
C  3.60800 53.34600 41.80000
C  2.98100 52.12700 42.17900
C  3.98100 51.17300 41.99300
C  5.16700 51.80100 41.47300
C  1.63200 51.95300 42.73400
C  4.20700 49.79300 42.02800
O  3.44600 48.87600 42.36100
C  5.62900 49.58300 41.49500
C  5.43200 48.70500 40.35200
O  4.86500 49.04000 39.36400
O  5.78300 47.40100 40.60700
C  5.19800 46.33300 39.75400
H  11.09600 53.84600 40.44700
H  7.04200 58.79400 41.06300
H  2.12300 54.95400 41.94800
H  8.69800 49.59300 41.43400
H  10.47100 51.36100 39.74700
H  11.18200 51.94200 42.49200
H  11.84800 50.67900 41.47500
H  10.58600 50.21900 42.47300
H  8.01700 48.73900 39.20000
H  9.64600 49.17600 39.09000
H  9.41900 50.49700 37.59600
H  8.20400 51.54700 38.23100
H  11.82800 57.01400 38.97900
H  11.88100 55.39000 39.47200
H  12.44900 56.74400 40.57400
H  7.87200 59.76800 39.68900
H  9.22800 60.89400 39.57000
H  8.67400 60.52500 41.16600
H  4.36400 59.07600 40.88700
H  2.68200 57.18100 42.48200
H  3.92300 58.28900 43.66200
H  4.41400 59.85300 43.00400
H  5.63700 58.61600 43.38100
H  2.24200 56.81700 39.56700
H  2.61600 58.40000 39.93900
H  0.63100 58.86300 40.56400
H  0.55300 57.83600 41.92100
H  0.07700 57.31300 40.20700
H  1.04300 51.52100 41.92400
H  1.13300 52.77700 43.24300
H  1.86300 51.14600 43.42900
H  6.34100 49.27200 42.26000
H  4.21000 46.24900 40.20600
H  5.72200 45.37800 39.71400
H  5.10600 46.71800 38.73900

