158

Mg 8.06700 2.34700 27.66200
C  9.61400 0.83400 30.35900
C  5.97500 3.93100 29.62500
C  6.11200 3.19400 24.85500
C  9.63100 -0.12000 25.59400
N  7.78700 2.27900 29.79500
C  8.65200 1.70300 30.72400
C  8.26700 2.17000 32.18900
C  6.94200 3.01300 31.96100
C  6.85200 3.08500 30.36400
C  5.54100 2.57900 32.57400
C  9.37000 3.00300 33.01000
C  9.93800 2.38400 34.30700
H  10.14700 3.34100 35.51400
N  6.46800 3.59600 27.29900
C  5.80000 4.21200 28.25600
C  4.89300 5.23700 27.73700
C  4.88000 5.03600 26.32800
C  5.86700 3.91100 26.13200
C  4.02800 6.21800 28.57800
C  4.04500 5.68000 25.27300
O  4.31400 5.53300 24.06600
C  3.00500 6.63600 25.67800
N  7.97100 1.75500 25.51600
C  6.96900 2.13300 24.66800
C  6.90800 1.20700 23.39600
C  8.28400 0.40300 23.52800
C  8.63600 0.66500 24.98500
C  5.66200 0.41000 23.18300
C  9.44100 0.76800 22.54300
C  10.43000 -0.29700 22.11200
N  9.33900 0.72000 27.85100
C  9.92100 -0.08800 26.92700
C  10.96700 -0.95700 27.55500
C  10.88500 -0.52300 28.89200
C  9.88500 0.44300 29.03300
C  11.84300 -1.99600 26.86100
C  11.39300 -0.76100 30.23500
O  12.30000 -1.52900 30.64300
C  10.63400 0.10800 31.20700
C  10.12200 -0.76500 32.32300
O  9.07800 -1.41700 32.20800
O  11.01200 -0.75000 33.33400
C  10.45400 -1.33100 34.57800
H  5.46300 4.57900 30.34000
H  5.47800 3.45200 24.00500
H  10.28300 -0.74800 24.98200
H  8.00200 1.23600 32.68400
H  7.03100 4.06600 32.23000
H  5.02100 3.35500 33.13600
H  5.82300 1.71900 33.18100
H  4.86900 2.26600 31.77500
H  9.10400 4.03800 33.22500
H  10.18000 3.20400 32.30900
H  10.89300 1.95500 34.00600
H  9.23200 1.63700 34.67200
H  4.39300 6.36600 29.59400
H  3.04100 5.75700 28.58500
H  4.11600 7.14100 28.00400
H  2.43300 6.14200 26.46400
H  2.38400 6.89800 24.82100
H  3.36700 7.53000 26.18600
H  7.04300 1.92600 22.58700
H  8.06600 -0.66100 23.42600
H  5.02700 0.38800 24.06900
H  5.78900 -0.63700 22.90700
H  5.08600 0.94000 22.42400
H  9.95900 1.64100 22.93900
H  8.94000 1.10300 21.63500
H  10.36300 -1.26800 22.60400
H  11.42800 0.12200 22.23700
H  10.24100 -0.54600 21.06800
H  12.89000 -1.71700 26.74200
H  11.47100 -2.18300 25.85300
H  11.74900 -2.91700 27.43600
H  11.40400 0.80400 31.54100
H  11.24800 -1.15000 35.30200
H  10.23300 -2.39900 34.56100
H  9.58700 -0.75600 34.90300
Mg -5.88500 24.31200 25.76400
C  -4.78500 25.95700 28.60300
C  -7.48900 22.06800 27.70100
C  -6.41400 22.45300 22.96200
C  -3.62400 26.37400 23.80600
N  -6.19800 24.15200 27.87000
C  -5.67300 24.96000 28.84000
C  -6.01300 24.43200 30.27400
C  -6.85000 23.09600 29.95200
C  -6.83300 23.07200 28.39700
C  -6.10700 21.83100 30.59400
C  -6.85600 25.41800 31.14000
C  -6.84700 25.26000 32.71300
H  -6.19400 23.94900 33.33700
N  -6.97500 22.55100 25.34900
C  -7.57100 21.80500 26.31800
C  -8.33300 20.68300 25.73300
C  -7.98400 20.74800 24.37100
C  -7.04600 21.92400 24.11800
C  -9.31800 19.87600 26.48700
C  -8.41400 19.89100 23.24000
O  -8.10700 20.05600 22.02700
C  -9.40900 18.72200 23.55300
N  -4.86600 24.15100 23.74900
C  -5.40500 23.35000 22.81300
C  -4.69500 23.62200 21.48600
C  -3.88300 24.93300 21.71500
C  -4.14900 25.25300 23.17300
C  -3.85500 22.46400 20.99400
C  -4.17100 26.09400 20.77600
C  -3.13500 26.50400 19.75800
N  -4.56600 25.83500 26.11800
C  -3.77700 26.64200 25.20700
C  -3.16600 27.72000 25.92900
C  -3.49600 27.50300 27.31700
C  -4.34700 26.38000 27.34300
C  -2.29700 28.67300 25.25200
C  -3.23600 27.88900 28.67200
O  -2.54500 28.75900 29.20000
C  -4.06900 26.91600 29.58300
C  -3.18200 26.19100 30.53100
O  -2.24100 25.43600 30.26200
O  -3.45700 26.53000 31.84400
C  -2.58300 25.98600 32.94500
H  -7.94500 21.31300 28.34500
H  -6.57000 21.89700 22.03600
H  -3.05000 27.10400 23.23100
H  -5.10800 24.22400 30.84500
H  -7.89800 23.15500 30.24700
H  -5.19700 22.16400 31.09200
H  -5.84400 21.11800 29.81300
H  -6.70400 21.19500 31.24800
H  -7.89300 25.39900 30.80500
H  -6.54000 26.41700 30.84000
H  -7.84400 25.31100 33.15000
H  -6.14000 25.99900 33.09000
H  -8.98500 18.84400 26.37600
H  -10.34900 19.89800 26.13400
H  -9.22700 20.16900 27.53300
H  -9.54100 18.05800 22.69900
H  -10.41600 19.04300 23.81800
H  -9.03800 18.05800 24.33400
H  -5.44400 23.74200 20.70400
H  -2.82700 24.66500 21.76100
H  -2.79900 22.72300 20.92400
H  -4.18200 22.19200 19.99000
H  -3.95700 21.70100 21.76700
H  -4.67600 26.91000 21.29300
H  -4.86600 25.56800 20.12200
H  -2.13500 26.07500 19.81700
H  -2.89200 27.56500 19.81100
H  -3.52100 26.25600 18.76900
H  -2.86900 29.45800 24.75600
H  -1.49700 28.29000 24.61900
H  -1.76400 29.23700 26.01700
H  -4.70500 27.56300 30.18800
H  -1.69900 25.46200 32.58100
H  -3.07800 25.46600 33.76500
H  -2.13800 26.90200 33.33500

