158

Mg 44.32900 3.97600 46.64300
C  42.23500 6.75700 46.03100
C  41.56200 1.90000 46.00800
C  46.48600 1.40800 46.48000
C  47.02500 6.22800 46.52800
N  42.27000 4.26700 45.89200
C  41.66000 5.51200 45.70000
C  40.23700 5.42200 45.14800
C  39.93800 3.89800 45.38000
C  41.32400 3.28400 45.76700
C  38.90800 3.67800 46.52400
C  40.15000 5.77400 43.58900
C  38.88800 5.32800 42.79900
H  38.62100 6.22800 41.60100
N  44.09300 1.86000 46.45700
C  42.87800 1.23600 46.20500
C  43.13600 -0.19200 46.23700
C  44.51900 -0.39600 46.46600
C  45.09800 0.95000 46.51800
C  42.06900 -1.27500 46.00900
C  45.22100 -1.75600 46.46600
O  44.60700 -2.75600 46.42900
C  46.74400 -1.97200 46.78500
N  46.52300 3.84100 46.23200
C  47.13900 2.63800 46.48800
C  48.71600 2.80600 46.51700
C  48.88000 4.35800 46.56600
C  47.39400 4.85800 46.45700
C  49.39200 2.11100 47.67300
C  49.78400 4.96300 45.47700
C  51.24300 4.85900 45.71700
N  44.62500 6.08800 46.46000
C  45.74000 6.81800 46.53000
C  45.48200 8.22200 46.56500
C  44.07600 8.24900 46.35800
C  43.62600 6.96400 46.26600
C  46.46200 9.34700 46.57200
C  42.90900 9.16100 46.19800
O  42.80400 10.36300 46.33600
C  41.63400 8.17300 46.04100
C  40.74900 8.30600 47.22000
O  40.45700 7.43000 48.01400
O  40.02800 9.47200 47.25900
C  39.11000 9.71800 48.41100
H  40.67400 1.26800 45.92800
H  47.34900 0.74000 46.51300
H  47.85400 6.92900 46.64700
H  39.59000 6.03800 45.77300
H  39.69000 3.32300 44.48800
H  38.23900 2.86700 46.23500
H  38.27600 4.50600 46.84500
H  39.56200 3.33100 47.32400
H  41.09300 5.48000 43.13000
H  40.33300 6.84800 43.54200
H  38.00300 5.44000 43.42600
H  39.03400 4.32000 42.41000
H  42.33600 -1.95100 45.19700
H  41.11300 -0.94700 45.60100
H  41.97800 -1.93200 46.87400
H  47.41500 -1.72000 45.96400
H  46.76500 -3.03400 47.03200
H  46.97900 -1.38500 47.67200
H  49.18700 2.40400 45.62000
H  49.27500 4.63900 47.54200
H  48.69700 1.56200 48.30700
H  49.99100 2.76400 48.30800
H  50.07600 1.37800 47.24400
H  49.52900 5.98400 45.19400
H  49.64400 4.46300 44.51900
H  51.88400 5.73600 45.81300
H  51.57800 4.30300 44.84100
H  51.36100 4.14200 46.52900
H  47.05100 9.57700 47.46000
H  46.06700 10.28700 46.18600
H  47.15400 9.19800 45.74300
H  41.15100 8.50000 45.12000
H  38.68300 10.72100 48.43800
H  39.81100 9.71300 49.24600
H  38.27800 9.01500 48.37700
Mg 47.56000 34.32600 28.22400
C  45.76500 32.48300 30.47900
C  47.49600 37.02800 30.33700
C  48.59600 36.46600 25.62400
C  47.11000 31.82000 25.82700
N  46.61400 34.74500 30.04100
C  46.06300 33.75700 30.89500
C  45.98500 34.29400 32.30100
C  46.12800 35.86300 32.01900
C  46.83300 35.87400 30.74200
C  44.70900 36.55900 31.95700
C  47.04900 33.67400 33.32700
C  47.88200 34.59700 34.18300
H  47.06800 35.34600 35.31400
N  48.17200 36.38000 28.07100
C  48.13400 37.26400 29.11800
C  48.80300 38.50400 28.77200
C  49.11100 38.37600 27.38700
C  48.61400 37.03700 26.93800
C  49.06700 39.71100 29.80500
C  49.74300 39.40100 26.50500
O  50.04800 39.16200 25.35400
C  50.11900 40.70200 27.00700
N  47.67400 34.23300 25.99100
C  48.17300 35.17500 25.18600
C  48.36600 34.74400 23.73700
C  48.28100 33.16900 23.91400
C  47.66200 33.02800 25.36600
C  47.27200 35.29400 22.82200
C  49.57600 32.37000 23.78800
C  49.50400 31.03700 23.02300
N  46.69400 32.42100 28.11900
C  46.60500 31.54200 27.10100
C  45.89000 30.35200 27.53300
C  45.50200 30.68000 28.88400
C  46.09700 31.92000 29.14200
C  45.46500 29.23500 26.64700
C  44.84200 30.22800 30.13300
O  44.34800 29.18400 30.41100
C  44.82600 31.50400 31.14600
C  45.18300 31.14400 32.57900
O  46.08300 30.42800 32.96700
O  44.20500 31.68500 33.42700
C  44.21000 31.27600 34.82000
H  47.54100 37.87500 31.02500
H  49.14200 37.00500 24.84700
H  47.13200 30.94600 25.17200
H  45.03500 33.96500 32.72200
H  46.83800 36.32100 32.70800
H  44.85200 37.31700 31.18700
H  44.46500 37.01600 32.91700
H  43.92600 35.87600 31.62900
H  47.73400 33.05200 32.75100
H  46.53200 33.00700 34.01700
H  48.58500 35.15100 33.56000
H  48.59500 34.03900 34.79100
H  48.74400 40.69700 29.46900
H  50.14300 39.85800 29.90400
H  48.67100 39.49300 30.79700
H  50.82700 40.55000 27.82200
H  49.26900 41.26600 27.39000
H  50.59500 41.29000 26.22200
H  49.32500 35.11700 23.37600
H  47.58900 32.77600 23.17000
H  46.71000 36.05400 23.36600
H  46.54600 34.62400 22.36200
H  47.63800 35.71600 21.88700
H  49.86200 32.16400 24.82000
H  50.37000 32.98300 23.36400
H  50.03100 31.10100 22.07100
H  48.45200 30.79100 22.87700
H  49.83300 30.23800 23.68800
H  45.56900 28.27100 27.14400
H  45.93500 29.28000 25.66400
H  44.43300 29.32300 26.30700
H  43.86500 32.01800 31.12300
H  43.77300 32.14100 35.31700
H  45.19500 31.23000 35.28500
H  43.72100 30.36400 35.16400

