158

Mg 6.90800 52.59100 42.12800
C  6.50100 49.04400 41.74300
C  10.26400 52.18200 41.02800
C  7.08100 55.82300 41.84900
C  3.52700 52.75200 42.75000
N  8.22700 50.81500 41.46800
C  7.80300 49.46500 41.34600
C  9.04000 48.59900 40.93100
C  10.25400 49.64600 41.12700
C  9.55800 50.99000 41.22100
C  11.33600 49.32500 42.22500
C  8.99400 47.86900 39.56700
C  8.82800 48.73400 38.25300
H  7.95100 48.17300 37.12700
N  8.50800 53.85000 41.58300
C  9.78100 53.55000 41.16800
C  10.55100 54.73200 41.02800
C  9.61200 55.84200 41.28400
C  8.31000 55.20500 41.52000
C  12.06600 54.65200 40.74300
C  10.02100 57.28200 41.12900
O  11.22000 57.56200 40.93200
C  9.03800 58.37700 41.42900
N  5.49100 54.06100 42.13700
C  5.83300 55.31900 42.22900
C  4.73200 56.22300 42.62600
C  3.56400 55.32300 43.05600
C  4.17900 53.94100 42.61000
C  5.03600 57.22400 43.79400
C  2.14900 55.60100 42.46600
C  2.01300 55.21000 40.98200
N  5.32900 51.23500 42.17600
C  4.01700 51.48600 42.48000
C  3.39400 50.23300 42.77100
C  4.31700 49.25000 42.37300
C  5.47400 49.89100 42.02600
C  1.94900 50.11800 43.28800
C  4.50200 47.84700 42.18300
O  3.76900 46.86700 42.30100
C  5.92200 47.68900 41.65800
C  5.71300 47.13300 40.29000
O  5.40400 47.72800 39.24300
O  6.09500 45.88700 40.37700
C  5.93900 44.98800 39.34500
H  11.32100 52.00900 40.81400
H  7.02400 56.90100 41.68400
H  2.47800 52.75600 43.05200
H  9.07700 47.84900 41.72200
H  10.86600 49.68800 40.22600
H  11.09600 48.48000 42.87100
H  11.59600 50.15900 42.87700
H  12.30500 49.05500 41.80300
H  8.32100 47.01700 39.46400
H  10.01600 47.49200 39.53100
H  9.85100 48.87100 37.90300
H  8.46700 49.73000 38.50900
H  12.55000 55.61100 40.92600
H  12.22800 54.41200 39.69200
H  12.51300 53.94000 41.43700
H  8.22300 58.28300 40.71100
H  9.61800 59.29300 41.32100
H  8.74800 58.14400 42.45400
H  4.49100 56.86700 41.78000
H  3.47800 55.16000 44.13000
H  4.14300 57.81200 44.00800
H  5.76100 57.91300 43.36100
H  5.37700 56.81900 44.74700
H  1.91700 56.66400 42.53300
H  1.49800 55.10100 43.18400
H  0.97900 55.40900 40.70200
H  2.14900 54.13400 40.87500
H  2.70100 55.75800 40.33800
H  1.77300 49.24000 43.91000
H  1.33800 50.06800 42.38600
H  1.67600 50.92400 43.96900
H  6.30800 46.91700 42.32400
H  6.88500 44.51100 39.08600
H  5.50200 45.42900 38.44900
H  5.34100 44.17700 39.76200
Mg 16.81500 51.75500 26.79700
C  18.88200 50.48200 29.22400
C  14.58000 52.78500 29.17200
C  14.74800 52.61000 24.25600
C  19.01300 50.40800 24.38600
N  16.69500 51.49500 28.82800
C  17.72800 51.08800 29.74200
C  17.34500 51.31500 31.15900
C  15.84400 51.74600 31.14100
C  15.70100 52.00700 29.62700
C  14.86000 50.72600 31.79100
C  18.25300 52.45000 31.77900
C  18.40200 52.46200 33.31100
H  17.44400 51.51600 34.18200
N  15.00000 52.73200 26.67000
C  14.25200 53.04500 27.84200
C  13.13800 53.85200 27.38500
C  13.17600 53.85400 25.90200
C  14.37300 53.03100 25.55000
C  12.11100 54.44400 28.38600
C  12.19300 54.54700 24.92300
O  12.36700 54.50300 23.70900
C  11.01300 55.29800 25.42500
N  16.89600 51.43700 24.62400
C  15.90000 51.93800 23.86100
C  16.17800 51.65000 22.35900
C  17.62900 50.99700 22.37000
C  17.88800 50.92700 23.87400
C  15.15900 50.67600 21.84400
C  18.73900 51.85200 21.58400
C  19.04600 53.21300 22.07800
N  18.54900 50.65900 26.78700
C  19.33000 50.25400 25.74600
C  20.47700 49.52100 26.25500
C  20.34600 49.66100 27.60600
C  19.16200 50.34700 27.89500
C  21.59200 48.81700 25.49700
C  21.01000 49.32500 28.89400
O  22.05800 48.76500 29.07400
C  20.01800 49.80900 30.04600
C  19.47500 48.67300 30.83000
O  18.77300 47.83500 30.34400
O  19.96800 48.65000 32.11100
C  19.54700 47.53200 32.86900
H  13.95600 53.08000 30.01800
H  14.11000 52.84200 23.40100
H  19.64200 49.89300 23.65600
H  17.54600 50.39700 31.71000
H  15.67400 52.71500 31.61000
H  15.46700 49.97700 32.29900
H  14.29600 50.21600 31.00900
H  14.17900 51.22500 32.48100
H  17.80900 53.40400 31.49500
H  19.28400 52.34400 31.44000
H  18.04800 53.45400 33.59100
H  19.43000 52.25100 33.60400
H  12.58800 55.26000 28.92900
H  11.96900 53.69000 29.15900
H  11.14200 54.71700 27.96800
H  10.22400 54.57300 25.62700
H  10.72300 55.97400 24.62100
H  11.40500 55.99900 26.16100
H  16.18900 52.54800 21.74100
H  17.55700 49.95300 22.06500
H  14.58500 51.32200 21.17900
H  14.48700 50.11500 22.49300
H  15.72000 49.99200 21.20700
H  18.52100 52.01200 20.52800
H  19.63300 51.23500 21.67700
H  18.20300 53.67800 22.59100
H  19.28800 53.85200 21.22900
H  19.94900 53.21900 22.68900
H  22.60900 49.14300 25.72100
H  21.45100 48.97800 24.42900
H  21.64400 47.78100 25.83100
H  20.52400 50.54300 30.67300
H  18.46300 47.54400 32.98200
H  19.98600 47.49600 33.86600
H  19.70300 46.52100 32.49300

