158

Mg 25.47100 1.35700 29.38400
C  27.59700 0.82900 32.24000
C  22.77300 1.53700 31.60100
C  23.46000 1.34400 26.70900
C  28.21800 0.62500 27.37100
N  25.30100 1.20800 31.68400
C  26.23700 1.14200 32.63900
C  25.66000 1.24800 33.98500
C  24.10300 1.26900 33.76400
C  24.04200 1.35900 32.26800
C  23.37700 0.07100 34.39600
C  26.10500 2.43600 34.81900
C  26.66100 2.19000 36.18600
H  26.21900 3.10500 37.35400
N  23.37900 1.55700 29.15400
C  22.48500 1.57400 30.19700
C  21.16900 1.72700 29.57700
C  21.23700 1.70900 28.15900
C  22.75800 1.55500 27.93800
C  19.89000 1.65300 30.43400
C  20.14600 1.79200 27.04200
O  20.48100 1.74300 25.85400
C  18.74900 1.84100 27.44800
N  25.81400 0.94900 27.36900
C  24.82900 1.06300 26.44600
C  25.38000 0.59900 25.07800
C  26.98200 0.72400 25.20100
C  26.99000 0.76100 26.74700
C  24.84700 -0.70300 24.67200
C  27.60700 1.92900 24.55300
C  28.58000 1.68500 23.40800
N  27.54800 0.83800 29.68700
C  28.47100 0.56700 28.74700
C  29.78100 0.40600 29.42700
C  29.49600 0.42200 30.76100
C  28.10400 0.65900 30.91100
C  31.03700 0.14800 28.79500
C  30.06000 0.33000 32.12700
O  31.18300 0.09300 32.48200
C  28.83400 0.59200 33.07900
C  28.79100 -0.54400 34.03400
O  28.74800 -1.75800 33.76800
O  28.88200 -0.08000 35.36600
C  28.98700 -1.00800 36.48500
H  21.98300 1.78700 32.31200
H  22.83300 1.34900 25.81600
H  28.95700 0.48500 26.57900
H  25.97500 0.32800 34.47800
H  23.57800 2.16200 34.10300
H  23.90200 -0.53600 35.13300
H  23.02800 -0.57100 33.58700
H  22.39500 0.35600 34.77600
H  25.26400 3.11600 34.95500
H  26.81300 2.96100 34.17800
H  27.71000 2.48600 36.16100
H  26.54700 1.13900 36.45400
H  20.04700 1.38900 31.48000
H  19.16900 0.95700 30.00500
H  19.36700 2.60400 30.53400
H  18.04000 1.86500 26.62000
H  18.56700 2.62700 28.18100
H  18.59100 0.91900 28.00800
H  25.11000 1.27600 24.26700
H  27.47400 -0.19400 24.87800
H  25.64300 -1.41700 24.46100
H  24.32600 -0.73800 23.71500
H  24.19800 -1.11100 25.44700
H  28.17600 2.39200 25.35900
H  26.86700 2.68100 24.28200
H  29.61400 1.86900 23.69800
H  28.43700 2.28200 22.50800
H  28.46300 0.68300 22.99500
H  31.19900 0.89900 28.02300
H  30.91700 -0.82300 28.31400
H  31.80300 0.19600 29.56900
H  29.04400 1.49700 33.64800
H  28.03500 -1.53800 36.52000
H  28.96200 -0.55900 37.47800
H  29.81900 -1.71000 36.42200
Mg 47.94000 34.71500 26.75600
C  46.09000 33.49400 29.39800
C  48.62800 37.51300 28.69600
C  49.57200 36.04200 24.13800
C  47.03300 31.92600 24.82300
N  47.29500 35.39900 28.79700
C  46.70500 34.64100 29.73100
C  46.87600 35.20900 31.18200
C  47.38600 36.62700 30.86300
C  47.79300 36.55500 29.32400
C  46.45600 37.79200 31.15200
C  47.96600 34.37000 31.86500
C  48.23200 34.61000 33.31300
H  47.35600 35.56000 34.12600
N  49.00900 36.54200 26.42500
C  49.23800 37.53200 27.35000
C  50.11500 38.57600 26.77900
C  50.28500 38.12900 25.41200
C  49.62000 36.84300 25.24800
C  50.52400 39.74400 27.62400
C  51.09000 38.74500 24.38200
O  51.33500 38.30500 23.24900
C  51.66300 40.10400 24.69600
N  48.23200 34.13100 24.76500
C  48.99000 34.78500 23.89500
C  49.18500 34.09700 22.49800
C  48.66200 32.62300 22.89700
C  47.95500 32.89700 24.30300
C  48.34100 34.84900 21.33900
C  49.78500 31.56900 23.07800
C  49.95900 30.49900 22.04100
N  46.81200 33.03500 26.96100
C  46.41100 32.04500 26.10400
C  45.51100 31.12600 26.69700
C  45.34900 31.63400 27.98200
C  46.22100 32.77400 28.13100
C  44.97300 29.88400 26.10800
C  44.71300 31.41400 29.17600
O  44.01400 30.47000 29.59400
C  45.13000 32.55600 30.19800
C  45.58500 31.82900 31.49500
O  46.41700 30.97200 31.66500
O  44.73900 32.27100 32.52700
C  44.97900 31.85600 33.97000
H  48.80700 38.39300 29.31800
H  50.22700 36.29600 23.30200
H  46.88500 31.06000 24.17500
H  45.98000 35.19000 31.80200
H  48.29800 36.86400 31.41100
H  45.99100 38.10000 30.21600
H  46.90400 38.66700 31.62300
H  45.68000 37.40500 31.81200
H  48.86400 34.52400 31.26700
H  47.77100 33.31100 31.69700
H  49.21900 35.06300 33.41500
H  48.22700 33.61800 33.76500
H  49.86000 40.54200 27.29300
H  51.49000 40.16400 27.34400
H  50.58500 39.59500 28.70200
H  51.95500 40.59300 23.76700
H  52.44900 40.05100 25.45000
H  50.78200 40.66700 25.00600
H  50.22600 34.08800 22.17200
H  47.92000 32.32600 22.15600
H  47.35100 34.46600 21.58600
H  48.69900 34.49100 20.37400
H  48.57500 35.89200 21.55700
H  49.58700 30.93300 23.94100
H  50.74300 32.05300 23.26700
H  49.81200 29.56400 22.58200
H  50.96700 30.47700 21.62600
H  49.25600 30.63600 21.22000
H  45.63900 29.02200 26.13800
H  44.76000 30.09500 25.06000
H  44.05100 29.60500 26.61700
H  44.26500 33.15600 30.48000
H  45.96300 31.43500 34.17600
H  44.15200 31.26600 34.36600
H  45.00200 32.85700 34.40000

