158

Mg 46.83700 25.35000 28.86000
C  47.58700 27.80600 31.25400
C  45.81000 23.26600 31.41500
C  46.38500 22.80900 26.71200
C  48.37600 27.36800 26.46500
N  46.47600 25.62600 31.07000
C  46.95900 26.63300 31.82400
C  46.70600 26.36600 33.29400
C  46.20000 24.86800 33.31000
C  46.24400 24.52400 31.84000
C  47.02800 24.00900 34.38100
C  45.53600 27.35400 33.82300
C  46.00100 28.10200 35.10900
H  46.49500 27.32800 36.36000
N  45.94400 23.38700 29.03000
C  45.60800 22.69800 30.14100
C  45.19300 21.37900 29.80200
C  45.27800 21.26700 28.39600
C  45.85100 22.52100 27.97800
C  44.44000 20.45500 30.74900
C  44.77500 20.17600 27.47100
O  44.66500 20.35400 26.27300
C  44.21000 18.84900 28.00700
N  47.39600 25.11700 26.95400
C  47.06400 23.96600 26.26400
C  47.52300 24.10100 24.84100
C  47.92000 25.64800 24.62300
C  47.87100 26.09400 26.11700
C  48.62400 23.17500 24.55100
C  46.88000 26.47900 23.83600
C  47.50500 27.57100 22.99600
N  47.78100 27.19800 28.72200
C  48.34600 27.89000 27.73000
C  48.86600 29.12200 28.16100
C  48.61400 29.09000 29.56400
C  47.93100 27.96900 29.88200
C  49.43900 30.12400 27.31300
C  48.69200 29.94300 30.77300
O  49.13900 31.06100 30.88500
C  48.22900 29.02100 31.96600
C  49.40600 28.68600 32.84600
O  50.53500 28.50800 32.39400
O  49.08200 28.68300 34.19000
C  50.27200 28.75300 35.07700
H  45.56800 22.62600 32.26600
H  46.23300 22.06900 25.92300
H  48.83600 27.99100 25.69500
H  47.59500 26.48600 33.91300
H  45.15700 24.67600 33.56300
H  46.44700 23.13300 34.67200
H  47.41900 24.58300 35.22100
H  47.86900 23.66300 33.78200
H  44.53600 26.93400 33.92600
H  45.40100 28.12300 33.06200
H  45.06800 28.49400 35.51300
H  46.66900 28.95300 34.96900
H  44.95400 19.49400 30.72300
H  43.44300 20.26300 30.35200
H  44.46800 20.77100 31.79100
H  44.75100 18.40700 28.84400
H  44.24300 18.13700 27.18200
H  43.19800 18.86200 28.41200
H  46.71200 23.90900 24.13800
H  48.98800 25.77400 24.44600
H  48.66700 23.24200 23.46400
H  48.41600 22.18400 24.95600
H  49.54700 23.52200 25.01600
H  46.18400 26.91600 24.55200
H  46.42900 25.80800 23.10500
H  48.58300 27.52600 22.84300
H  47.27400 28.56600 23.37600
H  47.08400 27.53700 21.99100
H  49.50900 30.99500 27.96500
H  48.81300 30.20100 26.42400
H  50.48100 29.89100 27.09000
H  47.42800 29.46400 32.55800
H  50.91000 27.91400 34.79900
H  49.84800 28.52400 36.05500
H  50.73900 29.72700 35.22200
Mg 30.11300 58.16900 39.98000
C  27.37300 56.24900 39.13800
C  32.12000 55.52600 38.97800
C  32.80500 60.16500 40.06700
C  27.96300 60.95100 40.08900
N  29.77100 56.08700 39.37200
C  28.56300 55.49400 39.03500
C  28.75600 54.02000 38.75100
C  30.12900 53.68300 39.33200
C  30.79100 55.18100 39.23500
C  30.16700 53.07500 40.76200
C  28.70600 53.67000 37.21100
C  27.62600 52.64900 36.62100
H  26.73500 53.35900 35.60100
N  32.19100 57.90000 39.46200
C  32.80600 56.77700 39.09200
C  34.20100 56.94200 39.00500
C  34.47000 58.29000 39.43200
C  33.13000 58.94400 39.59400
C  35.05400 55.83500 38.60700
C  35.83300 58.86800 39.63400
O  36.79700 58.14600 39.37500
C  36.01600 60.27600 40.16200
N  30.32300 60.36800 39.88400
C  31.59200 60.87400 40.18600
C  31.38800 62.32100 40.59900
C  29.81700 62.46500 40.74700
C  29.28300 61.17200 40.15100
C  32.11300 62.83100 41.91400
C  29.15200 63.65700 39.97600
C  28.50700 64.67100 40.85300
N  28.03300 58.53000 39.89200
C  27.35800 59.71600 39.89700
C  25.94800 59.37400 39.87600
C  25.89500 57.96300 39.59300
C  27.20500 57.58600 39.50200
C  24.89200 60.38800 40.02700
C  25.05600 56.87300 39.32100
O  23.85400 56.79600 39.30200
C  26.02900 55.68900 38.98700
C  25.60100 54.48000 39.71100
O  26.01900 54.11800 40.81200
O  24.81500 53.61900 38.91700
C  24.31600 52.36100 39.48500
H  32.67900 54.61900 38.74200
H  33.65200 60.81900 40.28700
H  27.27900 61.73400 40.42200
H  28.02200 53.43000 39.30100
H  30.63700 53.10200 38.56300
H  29.24700 53.40500 41.24400
H  31.05000 53.50700 41.23400
H  30.31600 51.99500 40.75300
H  29.63400 53.35800 36.73100
H  28.52000 54.60800 36.68700
H  26.89900 52.30500 37.35700
H  28.21000 51.84600 36.17200
H  35.28000 55.32200 39.54200
H  35.95300 56.21900 38.12500
H  34.55100 55.02400 38.08000
H  35.57900 60.60100 41.10500
H  35.98900 60.92500 39.28700
H  37.09400 60.22600 40.31900
H  31.69300 62.87700 39.71300
H  29.51100 62.54700 41.79000
H  32.31800 61.93000 42.49300
H  31.47200 63.55400 42.42000
H  33.04400 63.34100 41.66500
H  28.30100 63.35500 39.36600
H  29.91500 64.19600 39.41300
H  28.24500 64.44600 41.88700
H  27.60600 64.92700 40.29500
H  29.17400 65.52500 40.96700
H  23.96200 59.84900 39.84200
H  25.02800 61.14900 39.25900
H  24.95400 60.90400 40.98500
H  25.87800 55.31700 37.97400
H  24.17400 51.63600 38.68300
H  23.38800 52.49400 40.04200
H  25.00600 51.93600 40.21300

