158

Mg 9.15000 3.63000 27.42800
C  10.70200 2.22500 30.26200
C  7.68400 5.95600 29.26000
C  7.93800 5.02700 24.48000
C  10.43800 1.00400 25.54700
N  9.18400 3.98100 29.53200
C  9.85800 3.32800 30.53300
C  9.62100 3.96300 31.88900
C  8.62900 5.20100 31.53100
C  8.49200 5.08100 30.00600
C  7.27000 4.97100 32.22300
C  10.95400 4.41500 32.52600
C  10.79400 5.08300 34.02000
H  11.51200 4.51800 35.26600
N  7.95400 5.26400 26.93000
C  7.33700 6.04800 27.89800
C  6.54300 7.06400 27.26900
C  6.68000 6.89900 25.82800
C  7.52800 5.70700 25.68800
C  5.54600 7.95400 28.00600
C  5.98600 7.62600 24.72400
O  6.08900 7.24000 23.55200
C  5.07200 8.79900 25.03200
N  9.17100 3.07800 25.32400
C  8.60700 3.82100 24.32400
C  8.84500 3.14900 22.99800
C  9.54200 1.83100 23.33100
C  9.77100 1.97300 24.82700
C  7.49000 2.99400 22.18000
C  10.76100 1.65900 22.51200
C  10.80400 0.45600 21.56100
N  10.28300 1.85000 27.81800
C  10.80600 0.89600 26.86800
C  11.52000 -0.08300 27.59900
C  11.55600 0.41400 28.91800
C  10.76600 1.61500 29.01200
C  12.24500 -1.32400 27.13300
C  12.03200 0.08900 30.22900
O  12.68600 -0.86800 30.63000
C  11.50400 1.28000 31.18800
C  10.66800 0.66900 32.25400
O  9.59400 0.05700 32.09200
O  11.27400 0.73600 33.48400
C  10.69000 -0.10100 34.51800
H  7.33700 6.74300 29.93300
H  7.61300 5.54900 23.57800
H  10.70100 0.17600 24.88500
H  9.23000 3.14900 32.50000
H  9.07100 6.19000 31.65200
H  6.89900 5.92800 32.58900
H  7.39300 4.30500 33.07800
H  6.46700 4.52000 31.63900
H  11.38800 5.14700 31.84600
H  11.66000 3.59400 32.65300
H  9.72700 5.10700 34.24400
H  10.95700 6.16100 34.00300
H  5.81800 9.00900 27.98800
H  5.67200 7.56300 29.01500
H  4.56100 7.76900 27.57900
H  4.05100 8.58000 25.34400
H  4.90400 9.45200 24.17500
H  5.54500 9.38600 25.81900
H  9.49400 3.83100 22.44900
H  8.88300 0.98200 23.14800
H  7.35200 3.78700 21.44400
H  6.69300 3.07800 22.91900
H  7.62700 2.05000 21.65200
H  11.67800 1.62100 23.10100
H  10.82100 2.50300 21.82500
H  10.04700 0.55800 20.78300
H  10.76100 -0.48900 22.10100
H  11.78600 0.46200 21.08700
H  12.34700 -1.84400 28.08600
H  13.21300 -1.07200 26.70100
H  11.62000 -1.90000 26.45000
H  12.32000 1.80900 31.68000
H  10.09200 -0.93700 34.15700
H  10.19400 0.51900 35.26500
H  11.44300 -0.60000 35.12800
Mg 53.34800 22.79600 43.84900
C  50.48700 24.52300 42.70900
C  51.79700 19.84200 43.42000
C  56.37700 21.32600 43.93100
C  54.85700 25.93300 44.36200
N  51.49400 22.19900 42.67600
C  50.45000 23.11500 42.51700
C  49.19200 22.24800 42.23700
C  49.51000 20.86500 42.84900
C  50.99700 20.90900 42.98800
C  48.67800 20.64000 44.20700
C  48.96900 22.12600 40.70800
C  47.80600 21.22200 40.24000
H  48.01000 20.17300 39.18900
N  53.99200 20.80800 43.67700
C  53.20700 19.75500 43.60400
C  53.99800 18.56200 43.54200
C  55.36200 18.89900 43.70500
C  55.27900 20.39800 43.76800
C  53.46200 17.12800 43.37300
C  56.55600 17.95900 43.62600
O  56.35800 16.73600 43.53700
C  58.00600 18.38700 43.66000
N  55.36000 23.53500 43.88800
C  56.42900 22.70700 44.07800
C  57.71800 23.52300 44.33400
C  57.24000 25.02400 44.46100
C  55.72500 24.84400 44.21000
C  58.68200 23.01200 45.43000
C  57.96400 25.95500 43.36900
C  57.21100 26.43200 42.12400
N  52.80100 24.78400 43.75500
C  53.46700 25.87900 44.05200
C  52.56700 26.98800 44.06500
C  51.41600 26.50300 43.50500
C  51.58400 25.14300 43.27000
C  52.70900 28.41500 44.62300
C  50.08100 26.85700 43.03800
O  49.40500 27.86100 43.16800
C  49.45400 25.52800 42.39700
C  49.40700 25.78800 40.95000
O  50.40200 26.02600 40.20000
O  48.14600 25.53100 40.46900
C  47.95100 25.78800 38.99900
H  51.20300 18.92700 43.39200
H  57.35400 20.85300 44.05100
H  55.28500 26.91100 44.58900
H  48.28600 22.68600 42.65400
H  49.27100 20.07300 42.13900
H  48.06100 19.76200 44.01600
H  48.09800 21.51300 44.50700
H  49.35800 20.37400 45.01600
H  49.87100 21.60700 40.38200
H  48.85200 23.11100 40.25800
H  47.07000 21.91000 39.82400
H  47.43900 20.68000 41.11200
H  53.89600 16.54700 42.56000
H  52.38700 17.25400 43.25000
H  53.63200 16.57300 44.29600
H  58.59500 17.53500 43.32000
H  58.13100 18.59100 44.72300
H  58.27300 19.29700 43.12300
H  58.30200 23.35600 43.42900
H  57.40800 25.39900 45.47100
H  58.12400 22.52900 46.23200
H  59.41000 23.75600 45.75400
H  59.31600 22.28300 44.92500
H  58.89400 25.50300 43.02400
H  58.43300 26.73600 43.96800
H  56.41600 25.74400 41.83500
H  57.89100 26.63200 41.29600
H  56.76700 27.38700 42.40600
H  52.21500 29.20600 44.06000
H  53.78400 28.59600 44.63700
H  52.29600 28.53600 45.62400
H  48.43300 25.35200 42.73500
H  48.54400 26.61500 38.60800
H  46.91200 25.96200 38.71900
H  48.19100 24.85400 38.49200

