158

Mg 8.27400 3.10000 27.77900
C  9.80200 1.91200 30.68000
C  6.72900 5.59000 29.48700
C  6.36200 3.68400 25.05400
C  10.06600 0.66300 26.01100
N  8.22300 3.62300 29.76800
C  8.91400 3.04900 30.81300
C  8.52000 3.73300 32.18100
C  7.59000 4.85100 31.72400
C  7.47700 4.68900 30.18000
C  6.27600 5.07000 32.57300
C  9.89500 4.09100 32.97100
C  9.76200 5.17300 34.03500
H  10.54900 4.96700 35.39900
N  6.78900 4.48800 27.34700
C  6.35900 5.48300 28.14900
C  5.31600 6.32100 27.44300
C  5.11400 5.66800 26.21400
C  6.06900 4.57200 26.14300
C  4.68700 7.47100 28.01400
C  4.10100 5.99400 25.17000
O  4.05500 5.40400 24.12400
C  3.18200 7.13600 25.27400
N  8.14700 2.23100 25.78200
C  7.22100 2.65800 24.89300
C  7.36400 1.80100 23.55400
C  8.73500 1.11800 23.82800
C  9.00000 1.33800 25.29700
C  6.16900 0.87700 23.25200
C  9.96200 1.56200 22.99900
C  10.91600 0.48700 22.62500
N  9.61600 1.61800 28.18500
C  10.14400 0.59500 27.36900
C  10.93900 -0.31400 28.15600
C  10.87200 0.24100 29.45300
C  10.04600 1.33200 29.44500
C  11.85700 -1.44400 27.75700
C  11.37500 0.08600 30.83400
O  12.25100 -0.62800 31.33500
C  10.57700 1.13000 31.70400
C  9.71400 0.33300 32.59400
O  8.56600 -0.00500 32.30200
O  10.43700 0.10800 33.81200
C  9.59100 -0.70700 34.71700
H  6.29300 6.36500 30.12000
H  5.77600 3.89500 24.15700
H  10.69200 -0.08700 25.52300
H  8.09400 2.87500 32.70000
H  8.19200 5.72600 31.97000
H  5.36500 5.37700 32.05900
H  6.41800 5.86100 33.30900
H  5.98900 4.15200 33.08600
H  10.66600 4.46800 32.29900
H  10.24800 3.19900 33.48900
H  8.68800 5.32600 34.14200
H  10.16000 6.08500 33.59000
H  3.65600 7.40000 28.35900
H  4.56500 8.31700 27.33700
H  5.26100 7.85900 28.85500
H  2.78500 7.11800 26.28900
H  2.42500 6.92300 24.51800
H  3.71800 8.07900 25.17200
H  7.41000 2.53800 22.75200
H  8.77900 0.06200 23.56200
H  6.32800 -0.13500 22.87800
H  5.45400 1.35900 22.58500
H  5.62100 0.78000 24.18900
H  10.60200 2.29200 23.49400
H  9.56100 2.03500 22.10300
H  10.82700 -0.42500 23.21500
H  11.90400 0.91400 22.79300
H  10.83800 0.25400 21.56300
H  12.84000 -1.19600 28.15800
H  11.88500 -1.59000 26.67700
H  11.55900 -2.40800 28.17000
H  11.26400 1.81400 32.20300
H  9.16900 -1.47400 34.06700
H  8.83100 -0.11400 35.22500
H  10.14100 -1.24800 35.48700
Mg 25.13600 1.50900 29.94500
C  27.10200 1.04400 32.86600
C  22.36600 1.28000 32.08900
C  23.24700 1.60100 27.29200
C  27.88500 0.59800 28.05000
N  24.85500 1.37700 32.23900
C  25.76800 1.25800 33.20400
C  25.19900 1.31700 34.67800
C  23.76200 1.18800 34.37200
C  23.60200 1.31000 32.79000
C  22.93600 -0.02300 34.92900
C  25.65800 2.57800 35.55600
C  26.18000 2.23600 36.97400
H  25.69300 3.09800 38.16600
N  23.03300 1.60400 29.75400
C  22.10800 1.50300 30.72300
C  20.84200 1.74600 30.00100
C  21.02700 1.74300 28.59000
C  22.47400 1.69900 28.47400
C  19.62900 2.11300 30.66800
C  20.09200 1.81400 27.45100
O  20.44200 1.80800 26.24000
C  18.59100 1.89100 27.75400
N  25.45600 0.73300 27.96600
C  24.57500 1.16800 27.03100
C  25.07600 1.14100 25.57700
C  26.58200 0.74200 25.83200
C  26.66500 0.75300 27.41500
C  24.24700 0.15200 24.71000
C  27.54200 1.69400 25.04200
C  28.04200 2.97900 25.80000
N  27.13500 1.05000 30.29500
C  28.13400 0.75100 29.42100
C  29.33600 0.68700 30.17300
C  28.97300 0.88000 31.52400
C  27.61900 1.06000 31.53600
C  30.63900 0.39200 29.58600
C  29.54300 0.68700 32.80500
O  30.67400 0.39000 33.22300
C  28.29800 0.87500 33.76500
C  28.39500 -0.30000 34.73500
O  27.83500 -1.42700 34.59700
O  29.03400 0.08100 35.81300
C  28.82400 -0.71400 37.06400
H  21.51400 1.21300 32.76900
H  22.81500 1.71400 26.29600
H  28.79400 0.48500 27.45700
H  25.52900 0.44300 35.24000
H  23.21000 2.08900 34.64000
H  22.22200 0.34200 35.66700
H  23.56900 -0.70900 35.49200
H  22.61300 -0.79900 34.23500
H  24.82800 3.28400 35.57900
H  26.54400 3.02300 35.10200
H  27.27000 2.22000 36.99100
H  25.85400 1.25800 37.32900
H  19.64800 2.05500 31.75600
H  18.96500 1.25500 30.56100
H  19.19700 3.04200 30.29600
H  18.05200 1.82700 26.80900
H  18.26300 2.80200 28.25500
H  18.26300 1.08600 28.41200
H  25.03900 2.12000 25.09900
H  26.76800 -0.31600 25.64300
H  23.34500 -0.11800 25.25900
H  24.81600 -0.72200 24.39300
H  23.83200 0.61200 23.81300
H  27.05300 2.03100 24.12800
H  28.47200 1.22900 24.71500
H  27.56500 2.91500 26.77800
H  27.69400 3.82100 25.20200
H  29.13100 2.95600 25.79600
H  31.48900 0.80100 30.13200
H  30.69400 0.79900 28.57600
H  30.66700 -0.68700 29.43400
H  28.32600 1.77400 34.37900
H  28.27200 -1.64600 36.94300
H  28.35200 -0.07400 37.81000
H  29.79100 -0.96900 37.49700

