158

Mg 9.02000 3.84800 27.07200
C  10.17600 2.08800 29.85600
C  7.00100 5.59000 29.18000
C  7.77700 5.48000 24.40000
C  10.49100 1.39800 25.00100
N  8.43500 3.63000 29.21400
C  9.18800 2.97600 30.19000
C  8.93100 3.41700 31.59300
C  7.77200 4.50100 31.35100
C  7.65000 4.54100 29.83100
C  6.56600 4.52000 32.27100
C  10.18200 4.02300 32.27000
C  10.26700 3.58500 33.79300
H  10.80900 4.54200 34.92300
N  7.63800 5.38200 26.83200
C  6.88500 5.95100 27.80000
C  6.06000 6.99900 27.29100
C  6.31000 7.03400 25.89900
C  7.28900 5.96900 25.62300
C  5.31600 7.96400 28.09700
C  5.86900 8.03200 24.80300
O  6.26300 7.94900 23.61300
C  4.83000 8.90700 25.22700
N  9.00000 3.39500 25.05200
C  8.50100 4.27800 24.14200
C  8.86300 3.81800 22.68100
C  9.82400 2.60600 22.86200
C  9.69300 2.40000 24.41300
C  7.65500 3.72900 21.73200
C  11.25600 2.92500 22.42400
C  12.21700 3.52600 23.35200
N  10.08700 2.04200 27.29600
C  10.61100 1.15100 26.39400
C  11.55400 0.30000 27.12800
C  11.38600 0.58200 28.49800
C  10.41200 1.62900 28.54100
C  12.51400 -0.57500 26.51900
C  11.84900 0.27700 29.81000
O  12.69000 -0.58900 30.12800
C  11.07000 1.26200 30.75300
C  10.31500 0.46200 31.67200
O  9.15500 0.00700 31.40700
O  10.87500 0.46500 32.92100
C  10.20700 -0.19600 33.99700
H  6.41700 6.21700 29.85700
H  7.40600 5.99100 23.51000
H  11.17400 0.76700 24.42800
H  8.49200 2.54600 32.08000
H  8.18600 5.50500 31.44000
H  6.87000 4.06800 33.21500
H  5.77700 3.93100 31.80400
H  6.21800 5.54500 32.40000
H  10.14000 5.11200 32.23700
H  11.11100 3.79000 31.74900
H  10.79300 2.63600 33.89800
H  9.25900 3.24300 34.02600
H  5.49800 9.01100 27.85200
H  5.53400 7.92900 29.16500
H  4.26000 7.78800 27.89500
H  4.03500 8.23000 25.53900
H  4.59200 9.44800 24.31100
H  5.06100 9.52800 26.09200
H  9.45800 4.64700 22.29800
H  9.35400 1.74200 22.39400
H  6.73600 4.03500 22.23100
H  7.45100 2.82800 21.15300
H  7.77600 4.40100 20.88200
H  11.25900 3.60700 21.57400
H  11.60600 2.00700 21.95300
H  12.70200 4.33800 22.81000
H  12.81200 2.67500 23.68500
H  11.67200 3.92900 24.20500
H  12.12300 -1.53000 26.16800
H  13.25900 -0.74800 27.29600
H  12.98800 -0.02600 25.70600
H  11.88500 1.72500 31.31000
H  9.47700 0.51700 34.38000
H  10.81100 -0.43000 34.87400
H  9.68300 -1.10100 33.68700
Mg 26.09100 1.44100 29.15300
C  27.90400 0.86200 31.99400
C  23.30400 1.90700 30.98400
C  24.36700 1.53400 26.17100
C  29.02300 0.41700 27.29200
N  25.75800 1.61000 31.31200
C  26.62700 1.35800 32.29100
C  26.01700 1.52400 33.63900
C  24.51800 1.65600 33.36000
C  24.49100 1.72400 31.74600
C  23.63800 0.46100 33.80400
C  26.49000 2.72100 34.54300
C  27.05300 2.36200 35.93600
H  26.99400 3.42400 37.09300
N  24.12000 1.76800 28.61900
C  23.11100 1.90500 29.54000
C  21.78900 1.94400 28.81800
C  22.11600 1.79500 27.37300
C  23.59700 1.69800 27.31700
C  20.48700 1.99400 29.57400
C  21.09900 1.75500 26.15900
O  21.47800 1.45300 25.04200
C  19.69400 1.90300 26.45800
N  26.58600 1.03500 27.04500
C  25.78800 1.42000 26.06200
C  26.47200 1.39900 24.72700
C  27.92800 1.52500 25.21800
C  27.90900 1.00900 26.58900
C  26.14200 0.14400 23.87700
C  28.59500 2.96300 25.14000
C  29.86400 3.11000 24.41100
N  28.13200 0.69800 29.54100
C  29.14200 0.33700 28.69800
C  30.26800 -0.03600 29.55100
C  29.87400 0.20200 30.91800
C  28.54800 0.61500 30.82300
C  31.50600 -0.51100 28.99700
C  30.24500 0.27400 32.29500
O  31.26400 0.02800 32.87400
C  28.94200 0.54700 33.05200
C  28.50400 -0.63600 33.90500
O  27.89300 -1.63600 33.51700
O  29.11600 -0.53400 35.07100
C  28.92200 -1.51500 36.13900
H  22.47200 2.06800 31.67400
H  23.89000 1.59800 25.19100
H  29.93300 0.13100 26.76000
H  26.33300 0.67000 34.23700
H  24.17700 2.64500 33.66600
H  23.67300 -0.38500 33.11700
H  22.61500 0.82900 33.87500
H  23.98400 0.07300 34.76300
H  25.86200 3.60900 34.61500
H  27.40300 3.05700 34.05100
H  28.12600 2.24600 35.78300
H  26.59700 1.43400 36.28100
H  20.21300 3.04800 29.52800
H  20.72300 1.66900 30.58700
H  19.75700 1.34400 29.09000
H  19.50700 1.07800 27.14500
H  19.13800 1.76800 25.53000
H  19.57800 2.93600 26.78500
H  26.19900 2.30300 24.18200
H  28.46400 0.83100 24.57000
H  25.42800 -0.51200 24.37500
H  27.00200 -0.50900 23.73000
H  25.73100 0.43500 22.90900
H  28.76800 3.33500 26.15000
H  27.94400 3.64800 24.59500
H  29.77200 3.80800 23.57900
H  30.16900 2.19000 23.91200
H  30.68300 3.40400 25.06700
H  31.16800 -1.23300 28.25300
H  32.15700 -0.93500 29.76100
H  32.02600 0.27700 28.45200
H  29.11800 1.42500 33.67500
H  29.64600 -1.31300 36.92900
H  29.00300 -2.51500 35.71300
H  27.99000 -1.29500 36.66000

