158

Mg 45.28200 2.95500 47.04100
C  43.03700 5.72300 46.56500
C  42.57200 0.83100 46.94900
C  47.43200 0.39800 46.86400
C  47.97700 5.22600 46.59400
N  43.07700 3.30300 46.70400
C  42.39200 4.51600 46.66300
C  40.90200 4.22700 46.91000
C  40.78800 2.75700 47.28800
C  42.25200 2.24500 46.96600
C  40.25400 2.41800 48.66400
C  40.06000 4.58700 45.71600
C  40.58500 4.22200 44.27500
H  40.74800 5.48900 43.34900
N  45.03100 0.85400 46.82700
C  43.86500 0.20500 46.87900
C  44.09100 -1.22500 46.79400
C  45.52500 -1.38800 46.85000
C  46.07700 -0.02600 46.82300
C  43.05900 -2.25900 46.77400
C  46.30700 -2.67900 46.65300
O  45.63900 -3.76100 46.68500
C  47.82600 -2.78900 46.41700
N  47.35400 2.83300 46.64000
C  47.97900 1.66200 46.86600
C  49.48500 1.83700 47.00100
C  49.71500 3.37200 46.74200
C  48.29900 3.85800 46.60200
C  50.05000 1.31300 48.32300
C  50.51700 3.81900 45.43900
C  51.87400 3.01600 45.29800
N  45.56000 5.10500 46.86200
C  46.71100 5.88600 46.64700
C  46.38400 7.24400 46.65700
C  44.95800 7.23300 46.61400
C  44.51400 5.95500 46.75000
C  47.33100 8.36100 46.50300
C  43.78800 8.11500 46.71100
O  43.76300 9.33900 46.94900
C  42.51700 7.17600 46.60900
C  41.63100 7.47000 47.76000
O  41.70500 6.95900 48.89800
O  40.82200 8.50200 47.43700
C  39.80400 8.95600 48.42700
H  41.67700 0.20700 46.98300
H  48.18600 -0.39100 46.89100
H  48.88200 5.83100 46.68400
H  40.60300 4.82500 47.77100
H  40.16000 2.25000 46.55500
H  40.05100 3.29300 49.28000
H  41.06600 1.83900 49.10400
H  39.34700 1.81600 48.60300
H  40.06200 5.67200 45.81100
H  39.02900 4.23700 45.76700
H  39.92300 3.49700 43.80200
H  41.55100 3.76400 44.48700
H  43.38000 -3.06300 46.11200
H  42.04500 -1.90900 46.58300
H  43.05100 -2.67400 47.78200
H  48.14400 -2.12400 45.61500
H  48.04000 -3.82800 46.16800
H  48.39400 -2.59500 47.32700
H  50.05300 1.32700 46.22300
H  50.16300 3.87200 47.60000
H  49.26900 0.90700 48.96700
H  50.59200 2.10100 48.84500
H  50.67700 0.43900 48.14800
H  50.69200 4.85300 45.73900
H  49.85900 3.65800 44.58600
H  52.62700 3.74000 44.98700
H  51.82800 2.27500 44.50000
H  52.13400 2.62300 46.28100
H  48.05000 7.94100 45.79900
H  47.88400 8.55400 47.42200
H  46.86100 9.31300 46.25700
H  41.95400 7.48300 45.72800
H  39.68700 8.40200 49.35900
H  38.83400 8.87000 47.93700
H  39.84700 10.02800 48.61800
Mg 47.00100 24.18800 28.97100
C  47.81100 26.67800 31.48300
C  46.20000 22.10600 31.36300
C  46.95300 21.92400 26.67700
C  48.16100 26.62500 26.57900
N  46.88800 24.44200 31.12300
C  47.28500 25.51100 31.98900
C  46.72300 25.19300 33.40400
C  46.51700 23.68700 33.42400
C  46.47400 23.39400 31.91000
C  47.68000 22.87900 34.15200
C  45.48200 26.06000 33.80700
C  45.64000 26.88400 35.08200
H  44.63300 26.67200 36.19300
N  46.45500 22.26200 28.97200
C  46.14200 21.55500 30.06800
C  45.82800 20.17900 29.62900
C  46.04000 20.12700 28.27500
C  46.52100 21.47700 27.91400
C  45.48600 19.10500 30.66400
C  45.76600 18.89300 27.30900
O  45.88900 19.02800 26.12200
C  45.21500 17.57000 27.84700
N  47.45200 24.28600 26.97000
C  47.33400 23.13700 26.22600
C  47.85000 23.39500 24.89000
C  47.88400 24.95500 24.75300
C  47.91200 25.35300 26.20500
C  49.27300 22.74600 24.62900
C  46.69500 25.57400 23.99700
C  45.43600 25.94400 24.67300
N  47.81500 26.25900 28.94800
C  48.12600 27.10400 27.89800
C  48.47700 28.44200 28.42300
C  48.47100 28.30500 29.85700
C  48.02100 26.95800 30.10100
C  48.94600 29.61700 27.67400
C  48.70400 28.98600 31.13800
O  49.13700 30.06800 31.48500
C  48.27000 27.91500 32.20900
C  49.38400 27.66400 33.14600
O  50.43400 27.07700 32.91100
O  49.08300 28.19000 34.41000
C  50.11400 27.91000 35.42200
H  45.91300 21.47900 32.20900
H  47.15900 21.24600 25.84600
H  48.47300 27.28000 25.76300
H  47.59500 25.46600 33.99900
H  45.55800 23.38100 33.84100
H  47.20600 22.36000 34.98500
H  48.41600 23.60400 34.50200
H  48.23400 22.18000 33.52600
H  44.70900 25.30600 33.95900
H  45.24900 26.78700 33.02900
H  45.47900 27.96200 35.07500
H  46.58300 26.62400 35.56200
H  45.48400 19.47200 31.69000
H  46.13800 18.23800 30.76300
H  44.51000 18.71700 30.37300
H  45.87000 17.35600 28.69200
H  45.05100 16.89300 27.00900
H  44.22000 17.85100 28.19100
H  47.25800 22.89800 24.12200
H  48.78300 25.29600 24.24100
H  49.51600 22.37900 25.62700
H  49.88300 23.58400 24.29200
H  49.14800 21.96800 23.87700
H  46.52900 24.92100 23.14000
H  47.03800 26.53600 23.61900
H  44.62500 25.80000 23.96000
H  45.54100 26.90900 25.16800
H  45.26800 25.15400 25.40500
H  48.29400 29.69400 26.80400
H  50.01000 29.51500 27.46000
H  48.81500 30.54100 28.23800
H  47.32800 28.29800 32.60200
H  50.24900 26.83300 35.51600
H  49.76400 28.29100 36.38200
H  51.00100 28.47400 35.13300

