158

Mg 47.50100 14.76600 27.52200
C  45.53400 14.86600 30.49500
C  49.48600 17.28000 28.81100
C  49.10700 14.84300 24.61000
C  45.06000 12.64700 26.22800
N  47.48400 15.87600 29.42300
C  46.71800 15.68000 30.58600
C  47.23100 16.40700 31.77900
C  48.44800 17.28300 31.23200
C  48.48000 16.85700 29.71800
C  48.39200 18.83000 31.49500
C  47.57700 15.44700 32.86400
C  47.31400 15.94000 34.26700
H  48.38400 15.71100 35.36000
N  49.16300 15.90500 26.79000
C  49.79000 16.93300 27.44400
C  50.75400 17.57400 26.53200
C  50.81100 16.65700 25.34900
C  49.66600 15.75700 25.52100
C  51.61800 18.82200 26.83100
C  51.76200 16.76700 24.15200
O  51.67000 16.01700 23.14900
C  52.92700 17.79400 24.15700
N  47.11400 13.85800 25.69700
C  47.92600 14.02200 24.65700
C  47.57100 13.06000 23.51100
C  46.36000 12.25900 24.09000
C  46.17700 12.89400 25.44800
C  47.21600 13.84200 22.16400
C  46.71700 10.66600 24.24400
C  47.28900 9.95300 22.99000
N  45.55600 13.99700 28.14800
C  44.74400 13.14800 27.47100
C  43.54500 12.97200 28.33100
C  43.89300 13.56600 29.54000
C  45.12100 14.18900 29.35700
C  42.28800 12.15400 27.99200
C  43.36700 13.84300 30.85700
O  42.31200 13.53400 31.37000
C  44.38300 14.68000 31.55400
C  43.77100 15.96000 31.94900
O  43.48100 16.87100 31.23500
O  43.56000 15.91900 33.27700
C  42.81700 16.99300 33.90400
H  50.15000 18.04100 29.22600
H  49.71900 14.65000 23.72600
H  44.39500 11.95000 25.71300
H  46.45200 17.06100 32.17100
H  49.34800 16.79800 31.61000
H  48.49900 19.37900 30.56000
H  49.20800 19.03500 32.18800
H  47.48000 19.22300 31.94500
H  48.61400 15.13500 32.74400
H  47.12600 14.45600 32.80700
H  46.37700 15.53400 34.64900
H  47.18800 17.02200 34.29500
H  51.26500 19.59300 26.14500
H  52.70500 18.78200 26.76200
H  51.50900 19.22200 27.83900
H  53.26200 17.76500 23.12000
H  53.72100 17.37300 24.77300
H  52.48100 18.76000 24.39400
H  48.46400 12.50000 23.23400
H  45.47800 12.53100 23.51100
H  47.92300 14.55600 21.74200
H  46.21900 14.27300 22.25100
H  47.01100 13.13100 21.36400
H  45.81100 10.21600 24.64900
H  47.40100 10.33900 25.02700
H  46.75000 9.06700 22.65500
H  48.26800 9.51300 23.17600
H  47.23500 10.61800 22.12800
H  42.56200 11.19000 27.56300
H  41.84600 12.70100 27.16000
H  41.65800 12.15400 28.88100
H  44.85500 14.18900 32.40500
H  43.46100 17.42300 34.67200
H  41.87700 16.68400 34.36000
H  42.66000 17.84500 33.24300
Mg 46.48000 44.45300 43.56900
C  42.92700 44.08900 43.60800
C  46.77900 41.17300 42.73900
C  49.64600 45.14100 43.08800
C  45.75800 48.06000 43.57200
N  44.94600 42.78100 43.33800
C  43.56900 42.93200 43.30400
C  42.98700 41.48900 42.94700
C  44.20700 40.68200 42.53300
C  45.42100 41.59000 42.88300
C  44.29900 39.30600 43.16900
C  41.84600 41.45100 41.87300
C  42.08700 41.98400 40.40000
H  41.69900 41.17500 39.06200
N  48.01300 43.26000 43.10000
C  47.97600 41.91200 42.89900
C  49.30600 41.42800 42.79500
C  50.17700 42.52200 43.18900
C  49.33000 43.72400 43.18100
C  49.62400 39.94000 42.58800
C  51.69800 42.51100 43.54900
O  52.43100 41.48300 43.42000
C  52.47900 43.68000 44.19300
N  47.48900 46.29200 43.21100
C  48.84500 46.28400 43.09200
C  49.42100 47.78800 42.90100
C  48.11200 48.69400 42.90700
C  47.04700 47.62700 43.19700
C  50.48600 48.32000 43.97700
C  47.82100 49.57800 41.65900
C  47.37600 50.94400 41.93100
N  44.74400 45.85700 43.78200
C  44.65100 47.22900 43.78500
C  43.33300 47.62600 44.04500
C  42.56200 46.40300 44.00600
C  43.51100 45.34700 43.75500
C  42.78800 49.00600 44.28300
C  41.25300 45.87500 44.08200
O  40.15500 46.42200 44.24500
C  41.40300 44.29700 43.74700
C  40.78800 43.50300 44.85800
O  39.99300 42.55600 44.70200
O  41.22600 43.92900 46.05900
C  40.77700 43.18800 47.22100
H  46.81900 40.22700 42.19500
H  50.72200 45.31600 43.01100
H  45.46200 49.11100 43.57900
H  42.62800 41.06600 43.88500
H  44.23900 40.59500 41.44700
H  44.91500 39.31600 44.06800
H  44.62300 38.56200 42.44100
H  43.32400 38.95100 43.50200
H  40.99600 42.07600 42.14800
H  41.60000 40.39700 41.74700
H  43.15800 42.17200 40.32600
H  41.57400 42.94200 40.31500
H  49.83600 39.76700 41.53300
H  48.87800 39.25300 42.98600
H  50.46600 39.55500 43.16300
H  51.99600 43.95400 45.13100
H  52.48500 44.46100 43.43200
H  53.52200 43.37500 44.28000
H  49.89100 47.75800 41.91800
H  48.07900 49.38200 43.75200
H  50.57500 47.57300 44.76500
H  50.30100 49.27700 44.46500
H  51.50000 48.32100 43.57600
H  47.10300 49.06500 41.01900
H  48.63900 49.73900 40.95700
H  46.70900 51.18800 41.10400
H  48.28500 51.54500 41.90100
H  46.91100 51.02700 42.91300
H  41.89000 48.85700 44.88200
H  42.41400 49.38000 43.33000
H  43.53700 49.59400 44.81300
H  40.88600 44.14500 42.79900
H  41.54300 43.10400 47.99300
H  40.51000 42.15900 46.98000
H  39.92000 43.76600 47.56800

