158

Mg -1.88900 17.54100 25.60800
C  -2.31300 15.30600 28.36500
C  -2.70100 20.10100 27.72200
C  -2.16000 19.52400 22.89300
C  -1.83300 14.78100 23.53200
N  -2.52400 17.61700 27.74200
C  -2.38600 16.63400 28.75100
C  -2.47400 17.25200 30.19700
C  -2.73500 18.77100 29.90200
C  -2.68800 18.82300 28.37000
C  -4.12800 19.24400 30.51300
C  -1.13100 16.94100 31.07400
C  -0.94900 17.70000 32.39800
H  -1.19000 16.89700 33.63900
N  -2.12500 19.50600 25.36300
C  -2.38100 20.42800 26.36300
C  -2.49500 21.74200 25.79200
C  -2.14200 21.57100 24.40800
C  -2.16100 20.15100 24.13400
C  -2.78600 23.03700 26.56500
C  -1.82900 22.67300 23.35000
O  -1.55400 22.37400 22.17100
C  -1.80300 24.05200 23.75100
N  -2.16200 17.18700 23.53000
C  -2.09100 18.17000 22.57500
C  -2.12600 17.60000 21.16100
C  -1.56500 16.13400 21.42900
C  -1.84200 15.99000 22.90600
C  -3.54100 17.61200 20.44100
C  -0.03200 15.93700 21.12400
C  0.93600 16.76500 21.94200
N  -1.93300 15.48500 25.86600
C  -1.93900 14.48800 24.88600
C  -2.03900 13.18100 25.50800
C  -2.11800 13.47000 26.84400
C  -2.08600 14.85900 27.00300
C  -1.92300 11.90700 24.78300
C  -2.28200 12.84300 28.09300
O  -2.22500 11.67900 28.45000
C  -2.34600 14.00000 29.16600
C  -1.28600 13.79800 30.18500
O  -0.08900 13.91400 29.91000
O  -1.75600 13.35400 31.45400
C  -0.79700 13.22800 32.48200
H  -2.75600 20.80100 28.55900
H  -2.30600 20.13200 21.99800
H  -1.60200 13.89600 22.93500
H  -3.24600 16.78000 30.80600
H  -1.94500 19.29000 30.44400
H  -4.76400 19.67800 29.74200
H  -3.94100 19.95600 31.31600
H  -4.70000 18.43700 30.97100
H  -0.22200 16.88600 30.47500
H  -1.29200 15.89700 31.34100
H  -1.63400 18.54800 32.38100
H  0.05300 18.12500 32.46100
H  -1.91500 23.69000 26.59700
H  -2.99100 22.80800 27.61100
H  -3.71100 23.42600 26.13800
H  -2.80200 24.25700 24.13600
H  -1.67500 24.72600 22.90400
H  -1.00700 24.19800 24.48100
H  -1.37000 18.06300 20.52700
H  -2.12500 15.41800 20.82700
H  -3.45600 17.87300 19.38600
H  -4.15100 18.38400 20.91000
H  -4.07400 16.67400 20.59600
H  0.18500 16.08800 20.06600
H  0.29300 14.90800 21.27400
H  0.49600 17.74700 22.11300
H  1.81500 17.06400 21.37000
H  1.18000 16.19100 22.83600
H  -1.14100 12.15700 24.06600
H  -2.82300 11.67200 24.21400
H  -1.62600 11.08200 25.43000
H  -3.34100 13.77900 29.55100
H  -1.05800 14.06600 33.12800
H  0.26500 13.32600 32.25700
H  -0.90000 12.25200 32.95600
Mg 9.64000 3.82700 27.77400
C  10.85100 2.26900 30.57000
C  7.96100 6.11600 29.75900
C  8.18800 5.28100 25.00900
C  10.96500 1.30600 25.66300
N  9.49300 4.09000 29.91500
C  10.06200 3.40100 30.94000
C  9.66500 3.98300 32.32200
C  8.64200 5.06100 31.96500
C  8.78600 5.23300 30.41900
C  7.24000 4.72100 32.43800
C  10.98600 4.56300 32.95500
C  10.78700 5.37800 34.26000
H  11.68800 4.91300 35.42200
N  8.37100 5.58200 27.44500
C  7.76300 6.36800 28.41900
C  6.86100 7.25900 27.76200
C  6.92800 7.01700 26.33300
C  7.89200 5.90000 26.17300
C  5.89100 8.05400 28.54700
C  6.19500 7.71900 25.14600
O  6.18400 7.41200 23.94400
C  5.31700 8.91200 25.53100
N  9.43900 3.25700 25.71600
C  8.90600 4.06200 24.73800
C  9.28500 3.59200 23.35400
C  9.82600 2.16700 23.59000
C  10.21100 2.30400 25.02100
C  8.25100 3.72100 22.21400
C  11.09100 1.84300 22.76300
C  11.03800 0.58200 21.94200
N  10.66000 2.14700 27.97400
C  11.10500 1.21600 27.02900
C  11.77800 0.18400 27.77700
C  11.84400 0.66000 29.16000
C  11.01800 1.79400 29.26000
C  12.41800 -1.08300 27.26000
C  12.36300 0.30600 30.46900
O  13.07500 -0.61900 30.80000
C  11.77000 1.40300 31.45600
C  11.01100 0.73300 32.52400
O  10.23200 -0.16400 32.31600
O  11.50600 1.16300 33.73600
C  11.15000 0.33400 34.86000
H  7.50600 6.80200 30.47600
H  7.75800 5.74300 24.11700
H  11.30500 0.40100 25.15600
H  9.31500 3.18400 32.97500
H  8.77700 5.98300 32.53000
H  6.53300 5.02500 31.66500
H  7.12700 5.30300 33.35200
H  7.09200 3.66400 32.66100
H  11.57200 5.20400 32.29600
H  11.51100 3.64100 33.20100
H  9.73800 5.28900 34.54500
H  10.99800 6.43700 34.11100
H  6.25000 9.08300 28.55000
H  5.74800 7.78400 29.59300
H  4.89300 8.10100 28.11100
H  5.89700 9.56700 26.18100
H  4.51400 8.36600 26.02800
H  4.90800 9.44400 24.67200
H  10.17100 4.21000 23.21000
H  8.97600 1.51100 23.40400
H  7.24300 4.10000 22.38200
H  8.02800 2.74900 21.77500
H  8.64400 4.43000 21.48500
H  11.92600 1.81100 23.46300
H  11.16900 2.69400 22.08700
H  11.52400 0.67400 20.97100
H  10.02800 0.22600 21.73900
H  11.55800 -0.17100 22.53400
H  13.45600 -0.88400 26.99300
H  11.93700 -1.42000 26.34200
H  12.31900 -1.90000 27.97500
H  12.54700 1.99400 31.94200
H  10.64700 -0.61200 34.66000
H  10.62900 0.97900 35.56700
H  12.06200 0.02800 35.37300

