158

Mg 42.25400 41.42100 26.68700
C  41.44300 43.54400 29.31700
C  43.20800 39.04700 28.97200
C  43.36900 39.46400 24.08700
C  41.51900 43.92500 24.46100
N  42.28300 41.34100 28.93900
C  41.94000 42.35200 29.78800
C  42.17700 41.87900 31.24800
C  42.59600 40.41900 31.15200
C  42.64000 40.14900 29.59500
C  43.96700 40.02300 31.75200
C  41.08600 42.35100 32.24000
C  40.64800 41.38500 33.32400
H  39.96600 41.78100 34.62500
N  43.27300 39.54800 26.53100
C  43.51600 38.76700 27.59200
C  43.99800 37.48900 27.05500
C  44.01000 37.53800 25.62600
C  43.55500 38.90400 25.36400
C  44.46200 36.41700 28.05300
C  44.49700 36.48700 24.67900
O  44.46200 36.63600 23.48100
C  44.83200 35.12300 25.15700
N  42.43100 41.61800 24.57800
C  42.80500 40.65000 23.70000
C  42.68500 41.01600 22.22500
C  41.83000 42.32100 22.38300
C  41.98800 42.73300 23.86800
C  44.07400 41.14900 21.54300
C  40.43800 42.16000 21.79900
C  39.41600 41.61600 22.69700
N  41.70200 43.36900 26.78700
C  41.44900 44.30000 25.86700
C  40.88000 45.48000 26.43700
C  40.86900 45.18900 27.77600
C  41.49100 43.95200 27.97500
C  40.58500 46.68800 25.57900
C  40.48800 45.71000 29.05800
O  39.99700 46.83200 29.25100
C  40.88900 44.74200 30.09700
C  41.76400 45.39800 31.06600
O  43.01200 45.35700 31.07600
O  41.01400 46.14800 31.91300
C  41.68400 46.46400 33.28100
H  43.63800 38.36400 29.70800
H  43.58300 38.87100 23.19600
H  41.10700 44.57700 23.68800
H  43.02100 42.53500 31.46000
H  41.93600 39.71700 31.66200
H  44.76800 40.23100 31.04300
H  43.88500 38.98800 32.08200
H  44.18300 40.76800 32.51700
H  40.19900 42.47800 31.61900
H  41.40300 43.35700 32.51500
H  41.53100 40.80700 33.59700
H  40.01200 40.66200 32.81400
H  45.42800 36.16400 27.61700
H  43.69300 35.64500 28.09700
H  44.64700 36.72800 29.08100
H  45.73400 35.05600 25.76600
H  44.90700 34.49600 24.26900
H  43.96800 34.92400 25.79100
H  42.14800 40.18500 21.76900
H  42.17800 43.13100 21.74100
H  44.82400 40.85400 22.27700
H  44.37400 42.16200 21.27500
H  44.15700 40.44600 20.71400
H  40.54800 41.60400 20.86800
H  40.22600 43.19500 21.52900
H  39.91200 41.18700 23.56800
H  38.87200 40.86000 22.13100
H  38.73200 42.36900 23.08900
H  41.42700 46.89000 24.91700
H  40.27800 47.55300 26.16800
H  39.64500 46.41500 25.10000
H  39.92300 44.62700 30.58900
H  42.07900 45.53500 33.69300
H  41.01500 46.79600 34.07500
H  42.47900 47.19400 33.12700
Mg 30.18900 57.23800 40.50300
C  27.36500 55.30500 39.50300
C  32.15000 54.45700 39.85800
C  32.91300 59.27200 40.46400
C  28.03800 60.07700 40.40300
N  29.78600 55.14800 39.70500
C  28.57000 54.55300 39.41100
C  28.79600 53.20500 38.70600
C  30.12800 52.82700 39.41100
C  30.77200 54.22700 39.62900
C  30.10100 52.08300 40.82800
C  28.88500 53.35800 37.12100
C  27.91500 52.41700 36.31500
H  27.14300 52.89300 35.07600
N  32.28100 56.93200 40.25900
C  32.82800 55.69400 40.00000
C  34.30100 56.00800 40.02500
C  34.58100 57.38600 40.22400
C  33.24700 57.94600 40.32800
C  35.24100 54.93800 39.53700
C  36.00800 58.03100 40.29200
O  37.01400 57.37100 40.09300
C  36.29400 59.45200 40.79400
N  30.42600 59.30600 40.46400
C  31.64100 59.92200 40.54300
C  31.55300 61.43800 40.67900
C  29.97800 61.64800 40.74900
C  29.43800 60.24300 40.54800
C  32.22900 62.20000 41.90400
C  29.42700 62.62200 39.74400
C  28.22800 63.41900 40.26900
N  28.09800 57.64700 40.25600
C  27.37700 58.82200 40.25500
C  25.92200 58.52800 40.01100
C  25.87100 57.19800 39.75300
C  27.20000 56.70300 39.84600
C  24.76100 59.58300 39.93200
C  25.06100 56.03900 39.30000
O  23.91300 55.97700 39.09200
C  25.94600 54.77600 39.17700
C  25.55000 53.76400 40.15700
O  26.25700 53.44100 41.07900
O  24.36500 53.16400 39.77800
C  24.02800 51.81200 40.14000
H  32.81000 53.59700 39.72100
H  33.70100 60.02500 40.40700
H  27.31100 60.88600 40.49500
H  28.03700 52.49000 39.02400
H  30.80700 52.30700 38.73600
H  29.09700 51.66000 40.83800
H  30.17900 52.80900 41.63700
H  30.78400 51.24000 40.93800
H  29.93800 53.25300 36.86400
H  28.51600 54.34000 36.82300
H  27.32300 51.83700 37.02300
H  28.49000 51.58900 35.90100
H  34.80800 54.31700 38.75300
H  35.61700 54.22500 40.27000
H  36.07500 55.49500 39.10800
H  36.28700 60.23200 40.03300
H  37.22000 59.40300 41.36700
H  35.57800 59.68000 41.58400
H  31.95100 61.91300 39.78300
H  29.68800 62.02900 41.72900
H  33.00600 62.88800 41.56800
H  32.77600 61.47600 42.50800
H  31.50700 62.78200 42.47700
H  29.14900 62.23400 38.76400
H  30.09800 63.45400 39.53200
H  28.45200 64.48100 40.37400
H  27.83000 63.16100 41.25000
H  27.50400 63.25200 39.47200
H  24.96000 60.24000 39.08600
H  24.70800 60.14500 40.86500
H  23.88700 59.00000 39.64300
H  25.72100 54.28200 38.23200
H  23.09600 51.72400 40.69900
H  24.83300 51.31600 40.68200
H  23.86200 51.31600 39.18400

