158

Mg 8.99300 3.83200 27.20300
C  10.25700 2.22200 30.03000
C  7.03800 5.75000 29.24000
C  7.87400 5.47800 24.50600
C  10.69300 1.57300 25.24800
N  8.68900 3.87500 29.39200
C  9.42100 3.26600 30.38000
C  9.08000 3.90100 31.72700
C  7.85600 4.83200 31.53300
C  7.86400 4.82300 29.95800
C  6.50200 4.41100 32.08600
C  10.32200 4.54500 32.37900
C  10.16900 5.18100 33.77900
H  10.99600 4.62100 34.97700
N  7.62200 5.33900 26.89000
C  6.87300 5.98500 27.84800
C  6.09900 7.10500 27.25300
C  6.49700 7.13900 25.91800
C  7.35400 5.93100 25.72400
C  5.16700 8.02900 27.99700
C  6.18200 8.15000 24.87100
O  6.52400 7.99700 23.67700
C  5.45700 9.48700 25.24900
N  9.02200 3.37300 25.10800
C  8.68600 4.33100 24.24300
C  9.19700 4.02600 22.88300
C  10.06300 2.69200 23.02100
C  9.90600 2.46500 24.53800
C  8.08900 3.95600 21.83400
C  11.55200 2.75200 22.42900
C  11.98400 1.52600 21.67600
N  10.19100 2.15600 27.48600
C  10.82500 1.37500 26.59300
C  11.64400 0.36900 27.22100
C  11.40600 0.67000 28.59900
C  10.49200 1.76100 28.68300
C  12.55000 -0.71100 26.71900
C  11.73800 0.29700 29.87400
O  12.60000 -0.51200 30.14700
C  11.09200 1.27800 30.89900
C  10.38400 0.65700 32.05800
O  9.22200 0.24100 31.96400
O  11.19600 0.68600 33.15900
C  10.39800 0.58100 34.37400
H  6.50600 6.36400 29.96800
H  7.80600 6.24000 23.72700
H  11.26200 0.88300 24.62100
H  8.83200 3.07900 32.39700
H  8.06300 5.87600 31.76500
H  6.62100 3.41400 32.51000
H  5.69700 4.33700 31.35500
H  6.11600 4.98300 32.93000
H  10.74300 5.33600 31.75700
H  11.15600 3.84300 32.39500
H  9.14100 5.13400 34.13800
H  10.36100 6.25000 33.69500
H  5.65500 8.96400 28.26900
H  4.92800 7.59100 28.96600
H  4.23800 8.16600 27.44300
H  5.63600 10.16400 24.41300
H  5.89100 9.96700 26.12600
H  4.43100 9.12500 25.31800
H  9.82600 4.85900 22.57100
H  9.57700 1.82300 22.57700
H  7.17000 4.18300 22.37500
H  7.92600 3.07000 21.22000
H  8.14100 4.74100 21.07900
H  12.25600 2.85800 23.25500
H  11.64900 3.63700 21.80000
H  12.81900 1.00200 22.14100
H  12.20400 1.84000 20.65600
H  11.12300 0.86000 21.61400
H  12.36200 -0.85800 25.65600
H  12.41400 -1.69500 27.16600
H  13.56400 -0.39100 26.96200
H  11.97300 1.82200 31.23900
H  11.06100 0.20300 35.15200
H  9.52600 -0.07300 34.36600
H  10.07500 1.59400 34.61300
Mg 40.56700 9.05400 30.51000
C  42.50100 10.36900 32.97200
C  38.36200 7.84300 32.99800
C  38.68900 7.60400 28.16100
C  43.12100 9.48300 28.20800
N  40.48300 9.03100 32.78200
C  41.30000 9.82400 33.52000
C  40.87300 9.90400 34.96600
C  39.59200 8.92200 34.96300
C  39.43300 8.56900 33.50900
C  39.74700 7.64800 35.93200
C  40.74700 11.30800 35.56300
C  39.94300 11.49000 36.86400
H  40.60100 12.11300 38.08400
N  38.76800 8.00000 30.57300
C  38.07900 7.56000 31.69300
C  36.82700 6.99400 31.23400
C  36.82900 6.95800 29.84500
C  38.18400 7.52100 29.45200
C  35.76600 6.46800 32.15000
C  35.82000 6.41800 28.87900
O  36.00900 6.40800 27.65500
C  34.58200 5.76900 29.34400
N  40.93400 8.42600 28.47600
C  39.94200 8.07400 27.70200
C  40.34900 7.93100 26.25000
C  41.80500 8.55200 26.19800
C  42.01200 8.78700 27.71400
C  40.21500 6.48300 25.72700
C  42.04000 9.82600 25.35900
C  43.19200 9.69800 24.38700
N  42.42100 9.72200 30.49100
C  43.34300 9.96200 29.47700
C  44.43800 10.66600 29.98700
C  44.14300 10.88100 31.31700
C  42.90300 10.26000 31.59500
C  45.54900 11.23500 29.19300
C  44.67600 11.38000 32.52600
O  45.75200 11.90000 32.78700
C  43.60500 11.18600 33.61300
C  44.17600 10.58200 34.86300
O  44.27300 9.35400 35.21100
O  44.58800 11.53400 35.76500
C  45.04900 11.24700 37.10600
H  37.71600 7.54400 33.82600
H  38.06000 7.20500 27.36300
H  43.88900 9.62600 27.44500
H  41.69900 9.41700 35.48500
H  38.69600 9.42200 35.33000
H  40.70500 7.52900 36.43800
H  39.68600 6.75600 35.30800
H  38.89700 7.63400 36.61500
H  40.32400 11.90900 34.75800
H  41.72900 11.68900 35.84000
H  39.78100 10.45400 37.16500
H  39.03400 12.06100 36.67200
H  35.70900 5.41100 31.89000
H  34.82500 6.99200 31.98200
H  36.05300 6.44500 33.20100
H  33.89000 5.59100 28.52100
H  33.99500 6.39000 30.02200
H  34.75900 4.76300 29.72400
H  39.79400 8.66300 25.66300
H  42.63000 7.85000 26.08000
H  40.10000 5.69800 26.47500
H  41.02300 6.10600 25.10000
H  39.40300 6.35700 25.01100
H  42.27400 10.58600 26.10400
H  41.13900 10.21000 24.88000
H  44.09700 10.14000 24.80300
H  42.98700 10.17900 23.43000
H  43.52300 8.67700 24.19600
H  45.82000 10.52600 28.41000
H  46.41500 11.25200 29.85400
H  45.31000 12.20100 28.74800
H  43.29700 12.17400 33.95400
H  44.18900 10.92200 37.69200
H  45.53300 12.14600 37.48900
H  45.80300 10.46500 37.19700

