158

Mg -1.26300 18.34500 27.27500
C  -1.58700 16.37000 30.29700
C  -1.52900 21.00300 29.28100
C  -1.56700 20.09600 24.45800
C  -1.43800 15.44400 25.36700
N  -1.64500 18.59000 29.59900
C  -1.45900 17.75000 30.63100
C  -1.66500 18.36000 31.97900
C  -1.89000 19.83800 31.57700
C  -1.70400 19.83600 30.01200
C  -3.27000 20.51700 31.99900
C  -0.62400 17.93300 33.07400
C  -1.09100 17.22800 34.36200
H  -0.09900 17.33600 35.58400
N  -1.46500 20.26800 26.93600
C  -1.58500 21.28500 27.88400
C  -1.64000 22.62200 27.22700
C  -1.40200 22.28400 25.82800
C  -1.50100 20.79900 25.65800
C  -1.63900 23.93500 27.94800
C  -1.15900 23.25400 24.70300
O  -1.03800 22.87400 23.53300
C  -0.96300 24.76200 24.89600
N  -1.64500 17.74800 25.15800
C  -1.55800 18.71500 24.21000
C  -1.47600 18.00400 22.77200
C  -1.20100 16.56500 23.13100
C  -1.41700 16.56300 24.63900
C  -2.74500 18.15000 21.97300
C  0.17900 15.99600 22.82800
C  1.38000 16.72500 23.57600
N  -1.51800 16.33000 27.69200
C  -1.47300 15.28100 26.79200
C  -1.53700 14.04800 27.61700
C  -1.60900 14.46300 28.97200
C  -1.62700 15.83800 28.96700
C  -1.50900 12.66900 27.02300
C  -1.80000 13.97200 30.32600
O  -2.03100 12.77600 30.67900
C  -1.64300 15.12600 31.30300
C  -0.36200 14.70700 31.98300
O  0.76300 15.07700 31.68000
O  -0.74600 13.83800 32.92600
C  0.32500 13.60500 33.84900
H  -1.50700 21.88000 29.93200
H  -1.73100 20.67100 23.54500
H  -1.17600 14.52700 24.83400
H  -2.58200 17.94600 32.39800
H  -1.13100 20.52800 31.94700
H  -3.39400 20.21900 33.04100
H  -4.00500 20.02000 31.36600
H  -3.25600 21.60400 31.93000
H  -0.05900 18.83000 33.32800
H  -0.01700 17.16200 32.59900
H  -1.27000 16.17400 34.14700
H  -2.06400 17.63800 34.63300
H  -0.59600 24.20600 27.78500
H  -1.92500 23.64100 28.95700
H  -2.26400 24.75400 27.59000
H  0.03000 24.90000 25.32300
H  -1.74900 25.28600 25.44100
H  -0.92400 25.17800 23.88900
H  -0.61300 18.47400 22.30100
H  -1.95500 15.91000 22.69400
H  -2.52400 18.61700 21.01300
H  -3.42300 18.84500 22.47000
H  -3.29000 17.24800 21.69700
H  0.34900 16.06400 21.75300
H  0.25900 14.94800 23.11700
H  1.07900 17.00100 24.58700
H  1.76200 17.60300 23.05500
H  2.21900 16.03500 23.66700
H  -0.76700 12.04100 27.51600
H  -1.15300 12.82000 26.00400
H  -2.47900 12.17300 27.03400
H  -2.46500 15.14200 32.01900
H  1.10000 13.10600 33.26700
H  -0.01700 13.02300 34.70500
H  0.63400 14.49100 34.40200
Mg 16.08000 50.86000 25.98500
C  17.97900 49.71600 28.71800
C  13.76700 52.14300 28.17400
C  14.63600 52.24500 23.34300
C  18.82000 49.88100 23.81700
N  16.00700 51.02000 28.23300
C  16.88500 50.53600 29.13400
C  16.42900 50.76700 30.54700
C  15.01300 51.32700 30.37400
C  14.92800 51.58500 28.83800
C  13.79600 50.48400 30.97500
C  17.50000 51.72000 31.20300
C  17.98700 51.24500 32.62300
H  17.41900 52.11700 33.75100
N  14.33900 51.86500 25.79800
C  13.56600 52.35200 26.78700
C  12.46300 53.12700 26.24600
C  12.67800 53.20000 24.85300
C  13.92900 52.44000 24.56800
C  11.36000 53.63500 27.06500
C  11.79700 53.85000 23.81800
O  12.15500 53.89400 22.64700
C  10.45800 54.36700 24.19100
N  16.64800 50.88700 23.81400
C  15.80700 51.53800 22.97900
C  16.42300 51.50400 21.62300
C  17.80900 50.84200 21.68700
C  17.79400 50.54500 23.18200
C  15.52500 50.70100 20.59300
C  19.05300 51.77600 21.30300
C  20.05100 51.05800 20.23700
N  17.97300 49.88500 26.17600
C  18.95200 49.51700 25.18300
C  19.98000 48.76800 25.82600
C  19.57700 48.75100 27.27300
C  18.41300 49.53700 27.38200
C  21.22800 48.09400 25.31500
C  20.04700 48.37800 28.62000
O  21.03700 47.72200 28.89800
C  19.04400 49.12100 29.59900
C  18.52700 48.21700 30.62200
O  17.63900 47.36700 30.52300
O  19.25600 48.34500 31.77800
C  18.90400 47.48000 32.88900
H  13.08200 52.53300 28.92900
H  14.27000 52.73300 22.43800
H  19.66000 49.61400 23.17300
H  16.43400 49.76900 30.98500
H  14.93700 52.33100 30.79100
H  13.26400 51.15800 31.64600
H  14.04300 49.54700 31.47500
H  13.12700 50.09900 30.20500
H  17.05400 52.70300 31.35200
H  18.23100 51.96600 30.43200
H  19.07100 51.36000 32.60200
H  17.79200 50.18300 32.77100
H  10.44600 53.04200 27.08000
H  11.16600 54.70400 26.97200
H  11.64500 53.64100 28.11700
H  9.95600 54.55400 23.24200
H  10.64100 55.16300 24.91300
H  9.96800 53.54200 24.70900
H  16.49700 52.53100 21.26300
H  17.88300 49.96200 21.04700
H  16.14000 50.62900 19.69500
H  14.64400 51.26500 20.29000
H  15.17300 49.70000 20.84100
H  19.57500 52.08700 22.20800
H  18.64600 52.70100 20.89500
H  19.97300 49.97200 20.18900
H  21.00600 51.38100 20.65100
H  19.96100 51.43700 19.22000
H  22.00600 48.83300 25.51000
H  21.18400 47.83000 24.25800
H  21.58200 47.28400 25.95200
H  19.75200 49.81900 30.04600
H  19.17500 46.47600 32.56300
H  17.89400 47.40800 33.29300
H  19.45900 47.76900 33.78200

