158

Mg 35.82800 1.68600 29.08700
C  33.78000 2.46400 31.81600
C  38.56700 1.71200 31.19800
C  37.90800 1.26800 26.32900
C  33.13300 2.20600 26.88100
N  36.07900 1.95100 31.31900
C  35.11300 2.22200 32.23700
C  35.70300 2.30500 33.65700
C  37.24100 2.03700 33.43700
C  37.32500 1.87800 31.88100
C  38.22400 3.07500 33.94700
C  35.02500 1.22600 34.52000
C  34.23200 1.75800 35.72300
H  34.86600 3.04600 36.43100
N  37.84100 1.28400 28.79300
C  38.83400 1.41600 29.80700
C  40.10100 1.03600 29.25600
C  39.96100 0.81400 27.83600
C  38.50300 1.09700 27.58300
C  41.31100 0.97200 30.07900
C  40.90400 0.35700 26.83000
O  40.55700 0.03300 25.70100
C  42.40200 0.32000 27.14800
N  35.54700 1.74900 26.94800
C  36.58000 1.61500 26.05600
C  36.05200 1.98500 24.68900
C  34.45400 1.97300 24.73100
C  34.33200 2.06200 26.27500
C  36.61900 3.44900 24.32100
C  33.78900 0.87200 23.99700
C  32.35600 1.09500 23.44300
N  33.85300 2.14800 29.26100
C  32.86200 2.39500 28.30000
C  31.66900 2.79600 28.91200
C  31.98300 2.87500 30.26700
C  33.35600 2.42700 30.40800
C  30.38800 3.12400 28.29900
C  31.41900 3.15700 31.54700
O  30.21800 3.43700 31.77700
C  32.57100 2.93700 32.64200
C  32.64100 4.21500 33.37700
O  33.37200 5.11400 33.00700
O  31.77800 4.25800 34.40900
C  31.75300 5.45100 35.20200
H  39.42000 1.70800 31.88000
H  38.59600 1.27800 25.48100
H  32.28900 2.33500 26.20100
H  35.49800 3.32300 33.98900
H  37.49600 1.11800 33.96500
H  38.75600 3.53000 33.11100
H  38.84400 2.77900 34.79200
H  37.56500 3.88200 34.27000
H  35.79900 0.67500 35.05400
H  34.32800 0.58600 33.97800
H  34.16200 0.95300 36.45500
H  33.21400 1.94400 35.38100
H  41.67000 -0.02800 30.32300
H  41.23000 1.34500 31.10000
H  42.08000 1.56500 29.58400
H  42.77400 1.27500 27.52000
H  42.88300 0.10400 26.19500
H  42.52200 -0.50700 27.84800
H  36.31700 1.33200 23.85800
H  34.00300 2.91000 24.40500
H  35.81500 4.16800 24.48100
H  36.82800 3.46000 23.25200
H  37.47900 3.70000 24.94200
H  33.65900 0.01300 24.65600
H  34.38700 0.54200 23.14700
H  31.74300 0.49200 24.11400
H  32.27900 0.70300 22.42900
H  31.91200 2.09000 23.44300
H  30.08300 2.73800 27.32600
H  30.21900 4.20100 28.28700
H  29.60000 2.67100 28.90100
H  32.19400 2.30000 33.44200
H  31.41100 5.08700 36.17000
H  31.03500 6.14400 34.76200
H  32.72500 5.91600 35.36800
Mg 17.24500 51.33100 26.35400
C  19.21800 49.90900 28.86600
C  14.95300 52.26000 28.81200
C  15.27900 52.44700 23.92700
C  19.34300 49.78300 23.95500
N  17.04700 50.99700 28.62700
C  18.01500 50.48700 29.38300
C  17.66700 50.60300 30.85300
C  16.23600 51.29700 30.86500
C  15.97600 51.48400 29.33900
C  15.19300 50.48600 31.66300
C  18.74200 51.48300 31.62500
C  18.33000 52.35600 32.85400
H  17.53800 51.55400 33.88400
N  15.43000 52.32000 26.38600
C  14.64900 52.67300 27.44500
C  13.51400 53.39900 26.96200
C  13.59700 53.51500 25.55400
C  14.78900 52.72700 25.18800
C  12.43400 54.02500 27.88100
C  12.70400 54.18300 24.59300
O  12.91900 54.16100 23.40400
C  11.41300 54.85400 25.08900
N  17.41900 51.19400 24.27000
C  16.45600 51.80200 23.50300
C  16.69100 51.50200 21.95600
C  18.06700 50.78700 21.90300
C  18.30100 50.57000 23.45300
C  15.45600 50.80100 21.32900
C  19.21400 51.54600 21.06500
C  20.18000 50.66200 20.24000
N  18.93000 50.13700 26.28100
C  19.73200 49.64600 25.30100
C  20.81300 48.86400 25.86900
C  20.60200 48.97500 27.22800
C  19.49600 49.78000 27.48600
C  21.91800 48.28900 25.12000
C  21.27100 48.63700 28.51800
O  22.34600 48.08000 28.72200
C  20.39100 49.31000 29.62900
C  20.08600 48.30300 30.66000
O  19.25600 47.36300 30.45800
O  20.91000 48.55300 31.73600
C  20.68500 47.64200 32.89600
H  14.18000 52.60800 29.50000
H  14.60900 52.73700 23.11500
H  19.95900 49.23100 23.24200
H  17.62100 49.59300 31.26200
H  16.32300 52.28100 31.32700
H  14.40500 50.06000 31.04200
H  14.69600 51.05800 32.44600
H  15.68100 49.69100 32.22500
H  19.41500 52.05700 30.98700
H  19.30700 50.69600 32.12400
H  17.94000 53.30100 32.47500
H  19.23300 52.42700 33.45900
H  12.34100 55.07900 27.61700
H  12.87100 54.18400 28.86700
H  11.44800 53.56800 27.96200
H  10.82800 54.11800 25.64000
H  10.75200 55.24900 24.31800
H  11.56700 55.68600 25.77700
H  16.66400 52.45600 21.43000
H  17.91700 49.78000 21.51400
H  14.62600 50.76700 22.03400
H  15.78100 49.78900 21.08600
H  15.06900 51.28600 20.43300
H  19.81200 52.21200 21.68700
H  18.66900 52.24800 20.43400
H  21.16500 51.01400 20.54500
H  20.08300 50.70900 19.15500
H  20.03200 49.65900 20.64000
H  21.53600 47.83400 24.20600
H  22.44000 47.52400 25.69500
H  22.65000 49.05100 24.85200
H  20.90500 50.11000 30.16300
H  19.65200 47.82600 33.19100
H  21.38700 48.00500 33.64700
H  20.93900 46.65900 32.49900

