158

Mg 50.33300 46.15400 42.10300
C  47.20500 47.30400 40.94400
C  49.40700 42.91800 41.02300
C  53.53100 45.22800 42.35700
C  51.24200 49.48300 42.90300
N  48.47400 45.31400 41.13600
C  47.31100 45.90000 40.80500
C  46.36800 44.95700 40.15200
C  46.95800 43.61400 40.54800
C  48.42500 43.93400 40.90200
C  46.13300 42.78100 41.63900
C  46.38500 45.24200 38.58400
C  45.01500 45.29000 37.83600
H  44.71900 44.27500 36.67100
N  51.32000 44.30000 41.77800
C  50.76000 43.10100 41.40000
C  51.81800 42.05900 41.39900
C  53.01800 42.70100 41.76500
C  52.67300 44.12100 42.02600
C  51.56900 40.67500 40.93200
C  54.37500 42.08800 41.89900
O  54.56000 41.01400 41.40900
C  55.57300 42.70700 42.60400
N  52.17900 47.22900 42.43600
C  53.32200 46.61500 42.57700
C  54.43600 47.58300 42.95300
C  53.67200 48.89900 43.37300
C  52.23500 48.51800 42.83600
C  55.46000 46.99800 43.94400
C  54.23400 50.26700 42.86300
C  54.22500 51.44100 43.95700
N  49.40100 48.04700 42.06200
C  49.90500 49.30100 42.43300
C  48.86200 50.25100 42.21900
C  47.81000 49.57400 41.56200
C  48.15800 48.19800 41.53700
C  48.98800 51.71700 42.42000
C  46.50200 49.73300 40.88100
O  45.73200 50.68000 40.63300
C  46.11600 48.31800 40.45900
C  44.77700 48.01000 41.12500
O  44.54300 47.96400 42.28900
O  43.80800 48.00900 40.19400
C  42.45600 48.28200 40.59900
H  49.22600 41.89500 40.68700
H  54.54400 44.83300 42.25400
H  51.66400 50.40300 43.31300
H  45.33100 45.12500 40.44100
H  46.97200 43.08500 39.59500
H  45.59800 41.94800 41.18500
H  45.33400 43.32200 42.14700
H  46.74000 42.38900 42.45500
H  47.02100 44.59400 37.98100
H  46.92200 46.14900 38.30500
H  44.78700 46.28200 37.44500
H  44.31100 45.07700 38.64000
H  52.08700 40.52700 39.98500
H  50.51700 40.45000 40.75300
H  51.98900 39.95600 41.63500
H  55.18500 43.19800 43.49600
H  56.08600 43.36400 41.90200
H  56.23700 41.98100 43.07100
H  54.89800 47.81400 41.99300
H  53.64100 48.87100 44.46200
H  55.81600 47.81700 44.56800
H  56.32100 46.62500 43.38900
H  54.96300 46.22700 44.53300
H  53.69100 50.48700 41.94300
H  55.28600 50.04700 42.68000
H  53.45900 52.11500 43.57500
H  55.24700 51.78400 44.12200
H  53.93300 51.17400 44.97300
H  47.99000 52.14800 42.33600
H  49.67600 52.08100 41.65700
H  49.39700 51.82100 43.42500
H  46.10300 48.33600 39.37000
H  41.73600 47.55100 40.23300
H  42.11400 49.29800 40.40200
H  42.38000 48.30800 41.68600
Mg 49.01500 35.07300 27.17300
C  46.82400 34.42000 29.84000
C  49.92000 38.00200 28.78100
C  50.86400 35.78300 24.59000
C  47.76900 32.18300 25.63300
N  48.52100 36.10100 29.14400
C  47.66200 35.58900 30.09600
C  47.55200 36.47700 31.32900
C  48.31300 37.79000 30.85200
C  49.00300 37.27900 29.50500
C  47.47600 39.08800 30.66300
C  48.23900 35.88500 32.63100
C  47.44500 35.77300 33.86600
H  47.60600 36.81900 34.99900
N  50.20400 36.69100 26.74800
C  50.50800 37.73000 27.55500
C  51.32300 38.70300 26.80000
C  51.67900 38.03600 25.62000
C  50.98400 36.77900 25.62000
C  51.77500 39.99000 27.33900
C  52.61100 38.54500 24.50900
O  52.85700 37.80300 23.54500
C  53.25700 39.93300 24.54800
N  49.28800 34.14200 25.25900
C  50.10900 34.63000 24.34600
C  50.18700 33.81400 23.10600
C  49.26600 32.56600 23.40900
C  48.79000 32.88800 24.85600
C  49.76800 34.59000 21.89600
C  49.93000 31.15400 23.42500
C  51.09900 30.77700 22.47300
N  47.43100 33.66700 27.50400
C  47.13900 32.51800 26.88400
C  46.07900 31.78000 27.63200
C  45.87100 32.59100 28.72900
C  46.74300 33.66400 28.64500
C  45.55800 30.38800 27.42500
C  45.16800 32.60200 29.98400
O  44.43100 31.74200 30.43000
C  45.70200 33.83500 30.71100
C  46.18800 33.27700 31.97300
O  47.29300 32.80000 32.13800
O  45.18100 33.30500 32.89500
C  45.46500 32.61700 34.18400
H  50.13600 38.93800 29.30000
H  51.43800 36.11500 23.72200
H  47.54000 31.24300 25.12700
H  46.53300 36.76500 31.58800
H  49.09400 38.07500 31.55700
H  46.46500 38.85900 31.00000
H  47.38400 39.45600 29.64100
H  47.91200 39.87300 31.28200
H  49.02500 36.57300 32.94200
H  48.79800 34.95500 32.52900
H  47.58100 34.83200 34.40000
H  46.39000 35.84400 33.60200
H  51.46700 40.76700 26.63900
H  52.85000 40.16500 27.34600
H  51.48600 40.20600 28.36800
H  52.42700 40.63800 24.51100
H  53.84000 39.97700 23.62900
H  53.90600 39.90500 25.42300
H  51.21200 33.44900 23.03000
H  48.39100 32.56100 22.76000
H  49.20000 35.47500 22.18200
H  49.07200 34.14100 21.18800
H  50.59300 35.01700 21.32500
H  49.05400 30.59300 23.09800
H  50.27100 30.94100 24.43800
H  51.18500 31.48000 21.64400
H  51.05500 29.75100 22.10900
H  51.93900 30.82200 23.16600
H  46.07200 30.02900 26.53400
H  44.55300 30.35300 27.00500
H  45.68500 29.70300 28.26300
H  44.88600 34.55100 30.81000
H  46.44800 32.16600 34.32400
H  44.60300 32.05400 34.54300
H  45.57600 33.47800 34.84300

