158

Mg 24.02400 -5.04800 45.77500
C  25.98500 -2.50100 44.34600
C  21.46200 -4.04900 43.73100
C  22.55200 -8.03300 46.12600
C  26.95700 -6.31000 47.14500
N  23.74900 -3.39800 44.24200
C  24.67700 -2.41800 43.91100
C  24.06500 -1.45200 42.96000
C  22.51800 -1.74200 43.17500
C  22.56800 -3.13800 43.78100
C  21.78000 -0.79900 44.14700
C  24.59900 -1.62900 41.49200
C  24.80100 -0.27700 40.68600
H  24.75400 -0.21500 39.14800
N  22.18400 -5.86200 45.17900
C  21.32400 -5.30100 44.28600
C  20.19000 -6.14500 44.07700
C  20.39600 -7.27000 44.93200
C  21.81600 -7.11400 45.42200
C  18.98600 -5.88100 43.10500
C  19.33400 -8.34300 45.22800
O  18.20300 -8.31300 44.73900
C  19.64200 -9.50500 46.17300
N  24.67000 -6.88100 46.51200
C  23.82600 -7.94500 46.66800
C  24.51700 -9.16100 47.34700
C  25.92500 -8.64600 47.71500
C  25.87500 -7.15900 47.09100
C  23.78200 -9.67400 48.66900
C  26.98100 -9.57600 47.03000
C  28.27700 -9.83900 47.73000
N  26.03100 -4.47200 45.86800
C  27.11000 -5.05800 46.51800
C  28.24500 -4.25700 46.44900
C  27.86200 -3.30000 45.48100
C  26.51100 -3.47100 45.24600
C  29.66900 -4.54400 47.01600
C  28.35800 -2.08200 44.83800
O  29.42500 -1.59700 44.92300
C  27.18100 -1.55800 43.99600
C  26.93900 -0.05500 44.08500
O  26.56900 0.49900 45.07000
O  27.28700 0.57000 42.92400
C  27.12300 1.99300 43.01700
H  20.61400 -3.69600 43.14000
H  22.15000 -9.04100 46.24400
H  27.83500 -6.69200 47.67100
H  24.31400 -0.47800 43.38200
H  22.00400 -1.85600 42.22100
H  22.32000 0.08700 44.48000
H  21.31100 -1.39600 44.92900
H  20.98500 -0.29400 43.59900
H  23.82300 -2.20000 40.98200
H  25.53700 -2.17400 41.59700
H  25.72400 0.18500 41.03500
H  23.95400 0.32500 41.01300
H  18.86300 -6.63300 42.32600
H  19.24800 -4.96700 42.57200
H  18.05700 -5.70700 43.64900
H  20.06300 -9.31400 47.15900
H  20.13700 -10.21500 45.51000
H  18.70800 -9.97500 46.48200
H  24.52700 -9.91800 46.56200
H  26.27800 -8.52000 48.73900
H  23.28900 -10.64300 48.59500
H  23.02100 -8.93000 48.90600
H  24.45200 -9.71600 49.52800
H  27.20600 -9.21700 46.02600
H  26.52500 -10.56300 46.95700
H  28.53400 -9.15800 48.54100
H  29.09400 -9.63200 47.03900
H  28.29700 -10.84700 48.14500
H  29.95800 -5.57500 46.81400
H  29.65600 -4.47200 48.10400
H  30.36300 -3.84500 46.55000
H  27.50400 -1.87200 43.00400
H  27.68000 2.33900 42.14600
H  27.66600 2.33800 43.89700
H  26.11200 2.39900 43.02500
Mg 47.72200 16.63700 29.31900
C  45.87200 16.36300 32.28200
C  49.96300 18.51900 31.02600
C  49.34000 17.28500 26.43000
C  45.04100 15.32900 27.49400
N  47.81700 17.50000 31.37900
C  47.00300 17.13100 32.38100
C  47.58700 17.66400 33.73700
C  48.77700 18.59300 33.29600
C  48.86100 18.26600 31.81300
C  48.60700 20.09100 33.49300
C  48.05700 16.42100 34.65800
C  47.87800 16.73200 36.14300
H  47.53800 18.17300 36.57300
N  49.49500 17.58700 28.85400
C  50.28600 18.27400 29.70800
C  51.57100 18.64700 29.05900
C  51.44900 18.21300 27.67100
C  50.04500 17.67300 27.56700
C  52.79600 19.26900 29.77500
C  52.42200 18.28200 26.51600
O  52.04100 18.08400 25.36500
C  53.87400 18.59700 26.76600
N  47.23400 16.28000 27.23500
C  48.07900 16.67100 26.19900
C  47.37100 16.51500 24.84800
C  46.05800 15.69700 25.25100
C  46.09000 15.82200 26.73900
C  46.94700 17.84100 24.10000
C  45.98700 14.25600 24.64800
C  45.27400 14.00100 23.29300
N  45.81000 16.02700 29.69000
C  44.81500 15.47800 28.88000
C  43.74500 14.94300 29.67900
C  44.13500 15.21000 31.10500
C  45.39200 15.95300 30.98300
C  42.56800 14.14900 29.14900
C  43.73500 15.12000 32.48200
O  42.73100 14.73000 33.01600
C  44.80300 15.86100 33.30100
C  44.12900 16.91000 34.10000
O  43.72400 18.03300 33.70200
O  44.05900 16.50400 35.39900
C  43.01500 17.27000 36.10800
H  50.74300 19.09500 31.52700
H  49.81500 17.48900 25.46800
H  44.24100 15.05000 26.80500
H  46.69600 18.15700 34.12800
H  49.68200 18.28000 33.81700
H  47.90600 20.14700 34.32600
H  48.18100 20.58600 32.62000
H  49.53500 20.62200 33.70200
H  49.11000 16.23900 34.44300
H  47.43900 15.57200 34.36500
H  48.85600 16.48700 36.55700
H  47.18900 15.96200 36.49300
H  52.51000 19.59700 30.77400
H  53.25200 20.02300 29.13300
H  53.48800 18.44200 29.93300
H  54.09500 18.09400 27.70700
H  54.06400 19.65800 26.92800
H  54.41900 18.20200 25.90800
H  47.98300 16.01400 24.09800
H  45.17900 16.24000 24.90400
H  47.13500 18.66600 24.78700
H  45.94500 17.84100 23.67000
H  47.58700 17.95900 23.22600
H  45.34400 13.76400 25.37900
H  47.01100 13.88700 24.60800
H  45.94800 13.40700 22.67600
H  45.09500 14.93300 22.75600
H  44.25600 13.63600 23.43000
H  42.77100 13.62600 28.21500
H  41.86900 14.97800 29.04200
H  42.14100 13.42500 29.84400
H  45.21400 15.15800 34.02600
H  43.33000 18.23000 36.51500
H  42.80700 16.70900 37.01900
H  42.09600 17.18100 35.52900

