158

Mg 48.51900 34.55300 26.49800
C  46.76300 33.13500 29.33700
C  48.71100 37.50600 28.08000
C  49.65900 35.72400 23.63900
C  47.69900 31.43700 24.72100
N  47.91300 35.22900 28.51200
C  47.31600 34.47600 29.47900
C  47.36700 35.28700 30.82900
C  47.44000 36.76300 30.38800
C  48.04300 36.52900 28.87700
C  46.07400 37.52200 30.41500
C  48.45800 34.80400 31.81200
C  48.06700 34.59800 33.29100
H  46.90800 35.45000 33.83700
N  49.22300 36.28500 25.95500
C  49.20800 37.38800 26.75200
C  50.02800 38.44000 26.06700
C  50.28500 38.01700 24.70900
C  49.70300 36.65800 24.68400
C  50.51600 39.75500 26.74800
C  50.93900 38.66900 23.54200
O  51.32400 38.15300 22.51400
C  51.10400 40.15100 23.59700
N  48.40500 33.79000 24.44500
C  49.15500 34.48100 23.56200
C  49.36400 33.68900 22.28200
C  48.84900 32.30100 22.65700
C  48.28100 32.46300 24.04700
C  48.70400 34.22800 20.96400
C  49.87900 31.17700 22.56900
C  50.99800 31.19600 23.58900
N  47.41200 32.66400 26.93200
C  47.16800 31.51800 26.04100
C  46.45400 30.54900 26.81700
C  46.14700 31.19600 28.09900
C  46.79700 32.43400 28.09500
C  46.10200 29.12600 26.39300
C  45.53600 31.01500 29.39400
O  45.06900 30.03900 29.98200
C  45.80400 32.37300 30.20100
C  46.35600 31.90400 31.54400
O  47.49500 31.54500 31.84600
O  45.30700 31.67200 32.42000
C  45.58500 31.01300 33.71600
H  48.91400 38.51300 28.45000
H  50.21000 35.93600 22.72000
H  47.62500 30.46900 24.22200
H  46.37400 35.07900 31.22700
H  48.16000 37.32600 30.98200
H  45.29000 36.87000 30.79800
H  45.91600 37.89800 29.40400
H  46.19600 38.31500 31.15300
H  49.33000 35.45800 31.83300
H  48.68600 33.78000 31.51500
H  48.96100 34.74600 33.89700
H  47.67000 33.58600 33.37100
H  49.84300 40.50400 26.33100
H  51.58200 39.90600 26.58200
H  50.29900 39.77500 27.81600
H  51.66400 40.34200 24.51300
H  50.20900 40.76300 23.70700
H  51.76700 40.55700 22.83300
H  50.42200 33.58400 22.04000
H  48.06000 32.07800 21.93800
H  48.04600 35.06400 21.20300
H  48.13300 33.54500 20.33500
H  49.52500 34.67300 20.40200
H  50.40300 31.06200 21.62000
H  49.31200 30.26400 22.75000
H  50.80000 30.34300 24.23800
H  50.99500 32.13300 24.14600
H  52.01700 31.06300 23.22600
H  46.12300 28.91100 25.32500
H  45.16500 28.69500 26.74900
H  46.90000 28.51400 26.81200
H  44.91100 32.98300 30.34000
H  46.65500 31.02400 33.92600
H  45.25800 29.97400 33.71700
H  45.10900 31.60000 34.50100
Mg -11.86700 38.96800 41.22200
C  -9.88400 36.18300 40.17900
C  -9.15700 41.04500 40.20800
C  -13.82900 41.54000 41.52200
C  -14.48200 36.80900 42.03000
N  -9.79700 38.68400 40.36800
C  -9.28300 37.44600 40.01800
C  -7.87600 37.57600 39.36600
C  -7.56900 39.07500 39.75900
C  -8.94900 39.68800 40.05100
C  -6.54900 39.24800 40.96300
C  -7.90000 37.36400 37.84700
C  -7.06200 36.30700 37.12900
H  -5.79900 36.74000 36.35400
N  -11.55700 41.03900 40.85600
C  -10.40000 41.69900 40.49600
C  -10.58600 43.17200 40.47100
C  -11.93700 43.34000 41.00300
C  -12.52200 41.95000 41.12900
C  -9.55600 44.13100 39.92300
C  -12.58900 44.72800 41.22700
O  -11.94000 45.76600 41.01100
C  -13.89900 44.84800 41.89500
N  -13.92500 39.06600 41.62200
C  -14.42700 40.27500 41.78700
C  -15.87600 40.27000 42.55300
C  -16.01000 38.69800 42.79800
C  -14.73700 38.13500 42.07800
C  -15.95100 41.21900 43.79400
C  -17.36700 38.27000 42.26900
C  -17.95600 36.96900 42.97300
N  -12.18300 36.85400 41.19600
C  -13.30200 36.09000 41.55800
C  -12.92700 34.66300 41.44400
C  -11.62800 34.67900 40.87800
C  -11.21100 36.01000 40.73500
C  -13.74900 33.49400 41.99900
C  -10.48000 33.84200 40.56300
O  -10.40200 32.63900 40.60600
C  -9.37300 34.80000 39.92100
C  -8.03400 34.46100 40.40000
O  -7.65800 34.75300 41.51200
O  -7.30300 33.76200 39.43700
C  -5.93700 33.46400 39.89700
H  -8.23300 41.62500 40.15900
H  -14.54300 42.36300 41.60600
H  -15.25700 36.11600 42.36500
H  -7.21200 36.84700 39.83200
H  -7.08200 39.58900 38.93000
H  -5.56200 39.01200 40.56600
H  -6.79900 38.53300 41.74700
H  -6.60100 40.22900 41.43600
H  -7.82400 38.35100 37.39100
H  -8.92200 37.05000 37.63700
H  -7.68200 35.74600 36.43000
H  -6.64000 35.66100 37.89900
H  -8.57100 43.72300 39.69400
H  -9.35500 44.93500 40.63000
H  -10.00300 44.65500 39.07900
H  -14.74000 44.42700 41.34300
H  -14.11800 45.85400 42.25400
H  -13.71100 44.17900 42.73400
H  -16.62200 40.56500 41.81600
H  -15.88200 38.45800 43.85400
H  -15.01100 41.72500 44.01500
H  -16.32200 40.74900 44.70400
H  -16.64500 42.00000 43.48200
H  -17.17000 38.20000 41.19900
H  -18.06600 39.10200 42.35500
H  -18.98400 37.16600 43.27800
H  -17.40200 36.67900 43.86600
H  -17.89200 36.08700 42.33600
H  -14.83700 33.46200 42.05800
H  -13.45400 33.38200 43.04300
H  -13.57200 32.50100 41.58800
H  -9.34100 34.60000 38.85000
H  -5.30300 33.44900 39.01100
H  -5.74300 32.49400 40.35400
H  -5.56600 34.23400 40.57400

