158

Mg 16.85000 -1.04100 27.29100
C  16.04700 1.18400 29.91400
C  18.90500 -2.68200 29.47500
C  18.30100 -2.61800 24.68900
C  15.52800 1.49300 25.01200
N  17.57400 -0.68900 29.43600
C  16.91800 0.15400 30.33700
C  17.39600 -0.10900 31.80500
C  18.44200 -1.24700 31.61600
C  18.35400 -1.59700 30.09500
C  19.91300 -0.86900 31.99700
C  16.16200 -0.42000 32.73600
C  16.25600 0.01600 34.27000
H  17.62100 0.57000 34.77200
N  18.17600 -2.64400 27.10800
C  18.83000 -3.13600 28.13200
C  19.69300 -4.25800 27.61000
C  19.45900 -4.29000 26.25900
C  18.60900 -3.16000 25.92700
C  20.48600 -5.19700 28.42800
C  19.95400 -5.30800 25.22500
O  19.67300 -5.28200 24.00000
C  20.66800 -6.50800 25.69900
N  16.97800 -0.51200 25.22100
C  17.46600 -1.46200 24.30700
C  17.29700 -1.00800 22.89200
C  16.27400 0.13100 23.05000
C  16.26300 0.39600 24.51100
C  18.60400 -0.46200 22.23800
C  14.87100 -0.23900 22.43900
C  13.68400 -0.58300 23.42900
N  15.87100 0.91200 27.44000
C  15.32800 1.77100 26.42800
C  14.58100 2.86800 27.01400
C  14.80900 2.67900 28.43700
C  15.61400 1.50100 28.61900
C  13.87000 3.94300 26.19700
C  14.59300 3.17400 29.72900
O  13.90000 4.18000 30.09200
C  15.38300 2.29100 30.74500
C  16.42200 3.13600 31.38100
O  17.62600 3.09200 31.28200
O  15.79100 3.80400 32.35000
C  16.62000 4.61000 33.29300
H  19.61500 -3.15200 30.15900
H  18.74500 -3.06900 23.79900
H  15.13300 2.35100 24.46500
H  17.85400 0.75500 32.28700
H  18.04100 -2.14600 32.08300
H  19.82800 0.03300 32.60300
H  20.52600 -0.65500 31.12200
H  20.32500 -1.62800 32.66300
H  15.90000 -1.47700 32.75000
H  15.32400 0.11600 32.29100
H  15.98900 -0.79200 34.95100
H  15.41900 0.68800 34.45500
H  20.20800 -6.23500 28.24500
H  20.46200 -4.87200 29.46800
H  21.50600 -4.90800 28.17300
H  21.58100 -6.15400 26.17800
H  21.01100 -7.18700 24.91700
H  20.15900 -7.25000 26.31400
H  16.84000 -1.77400 22.26600
H  16.66700 1.03800 22.59200
H  18.34000 0.28800 21.49200
H  19.05500 -1.32200 21.74400
H  19.37200 -0.07700 22.90900
H  14.96500 -0.87400 21.55700
H  14.42600 0.69700 22.10100
H  14.06600 -1.17900 24.25800
H  12.98200 -1.26000 22.94300
H  13.15900 0.33400 23.69600
H  13.74200 3.60500 25.16900
H  14.42800 4.87800 26.24000
H  12.94900 4.23600 26.70000
H  14.65600 1.93800 31.47600
H  15.84400 5.30900 33.60400
H  17.41500 5.12500 32.75500
H  17.00100 4.04100 34.14200
Mg -2.30000 35.12700 26.75300
C  -3.93900 33.13000 29.01300
C  -0.71100 36.64200 29.40300
C  -0.73300 37.24100 24.47500
C  -3.94100 33.60500 24.12900
N  -2.37400 34.96400 28.89700
C  -3.08100 34.00100 29.66600
C  -2.89900 34.08300 31.16800
C  -2.07900 35.41400 31.25300
C  -1.70700 35.70600 29.74700
C  -2.81700 36.68000 31.93200
C  -2.15400 32.84400 31.75200
C  -2.78800 32.09400 32.98500
H  -2.18700 32.20500 34.33400
N  -0.88500 36.71400 26.94500
C  -0.30500 37.16000 28.09900
C  0.75900 38.13200 27.70800
C  0.76800 38.24700 26.30300
C  -0.34200 37.41800 25.84400
C  1.62100 38.80000 28.71600
C  1.58200 39.11700 25.40900
O  1.36600 39.27400 24.22400
C  2.84800 39.74000 25.97100
N  -2.49700 35.60400 24.60400
C  -1.60100 36.30500 23.87300
C  -1.86100 36.13900 22.35000
C  -2.79800 34.85800 22.34400
C  -3.02700 34.58800 23.80500
C  -2.43700 37.44500 21.67100
C  -2.20300 33.55100 21.61300
C  -0.67900 33.37300 21.43300
N  -3.74000 33.62400 26.52300
C  -4.36500 33.15900 25.42800
C  -5.35700 32.10700 25.85300
C  -5.27200 32.13000 27.29500
C  -4.25200 33.11100 27.64300
C  -6.22100 31.21100 25.09600
C  -5.71500 31.45400 28.45400
O  -6.49000 30.42400 28.55700
C  -4.92200 32.11200 29.70200
C  -5.83600 32.74200 30.67900
O  -6.54000 33.73900 30.46900
O  -5.97400 31.92200 31.80400
C  -6.98000 32.23200 32.87100
H  -0.21100 37.11800 30.24900
H  -0.09000 37.62500 23.68000
H  -4.50800 33.03300 23.39100
H  -3.85900 34.19700 31.67200
H  -1.19100 35.19200 31.84500
H  -2.50300 36.85200 32.96200
H  -3.89700 36.55400 32.01400
H  -2.72700 37.58900 31.33700
H  -1.17900 33.22300 32.05900
H  -2.02300 32.11000 30.95600
H  -2.95700 31.08800 32.60000
H  -3.77700 32.50600 33.18000
H  2.66500 38.75000 28.40900
H  1.52300 38.32400 29.69200
H  1.21000 39.80900 28.66600
H  3.43300 40.25200 25.20700
H  3.40600 38.91800 26.42000
H  2.48100 40.47900 26.68300
H  -0.87800 35.98900 21.90300
H  -3.76900 35.09400 21.90900
H  -3.31400 37.23100 21.05900
H  -1.63700 37.83900 21.04600
H  -2.82300 38.10200 22.45100
H  -2.72000 33.44900 20.65800
H  -2.54900 32.65400 22.12700
H  -0.25100 33.83200 20.54200
H  -0.56400 32.29000 21.38700
H  -0.02300 33.73100 22.22600
H  -5.74800 31.04200 24.12900
H  -7.20000 31.69100 25.11800
H  -6.36000 30.26000 25.61100
H  -4.24200 31.41500 30.19200
H  -7.43800 33.21900 32.79500
H  -6.53200 32.42200 33.84600
H  -7.76500 31.47600 32.86000

