158

Mg 29.97700 58.57900 38.69700
C  27.61500 56.56000 37.32600
C  32.44000 56.18000 38.08400
C  32.31900 61.01200 39.28400
C  27.53500 61.20400 38.69700
N  30.00500 56.51600 37.65000
C  28.85300 55.88600 37.36200
C  29.12300 54.39100 37.12100
C  30.66100 54.26400 37.45100
C  31.09100 55.69500 37.80500
C  31.03000 53.26500 38.49000
C  28.78400 53.84300 35.67000
C  29.21600 54.63600 34.42200
H  28.08700 55.06000 33.48100
N  32.10000 58.49800 38.81400
C  32.88900 57.43000 38.48200
C  34.30100 57.79900 38.73700
C  34.23500 59.18500 39.20800
C  32.84600 59.64400 39.07500
C  35.49200 56.88100 38.57200
C  35.48400 59.92300 39.58300
O  36.60700 59.42400 39.64000
C  35.48500 61.44600 39.92100
N  29.94200 60.74600 39.01700
C  31.02700 61.44800 39.39000
C  30.75800 62.93300 39.39100
C  29.21400 62.93700 39.46900
C  28.81100 61.56100 39.04600
C  31.55400 63.86100 40.39400
C  28.47700 64.12300 38.69000
C  28.54100 64.01500 37.10500
N  28.04600 58.88000 38.07200
C  27.13100 59.96400 38.20500
C  25.79700 59.63000 37.71500
C  25.86900 58.19000 37.57600
C  27.28200 57.92400 37.65600
C  24.51800 60.48800 37.56600
C  25.10100 56.99900 37.27900
O  23.90900 56.70500 37.14200
C  26.25600 55.88100 37.03600
C  25.77900 54.74200 37.92400
O  26.05100 54.56400 39.10000
O  24.90200 53.95600 37.21300
C  24.23400 52.93100 37.98200
H  33.13000 55.33400 38.05400
H  32.98400 61.86000 39.45800
H  26.74400 61.94000 38.85400
H  28.51200 53.81200 37.81400
H  31.11500 54.04600 36.48400
H  30.15700 52.92800 39.05000
H  31.76500 53.66000 39.19100
H  31.44500 52.36000 38.04700
H  27.76800 53.45100 35.61700
H  29.38200 52.93500 35.59100
H  29.90200 54.02100 33.83800
H  29.60400 55.57000 34.82900
H  36.11200 57.36700 37.81800
H  35.16900 55.93200 38.14400
H  36.12800 56.66100 39.43000
H  36.46000 61.83400 40.21400
H  34.79300 61.59700 40.75000
H  35.10400 62.09700 39.13400
H  30.96300 63.31500 38.39100
H  28.95000 63.14600 40.50600
H  32.29900 64.48800 39.90400
H  32.02600 63.30500 41.20400
H  30.83800 64.52100 40.88500
H  28.84800 65.12000 38.93100
H  27.47400 64.01700 39.10500
H  28.93900 64.90800 36.62300
H  27.55400 63.76000 36.71700
H  29.06800 63.14300 36.71800
H  23.76700 60.01400 36.93400
H  24.69300 61.49300 37.18000
H  23.99000 60.54600 38.51700
H  26.21100 55.47400 36.02600
H  23.72600 52.27200 37.27900
H  23.54200 53.43100 38.65900
H  24.92600 52.27100 38.50600
Mg 1.11600 43.73300 25.65100
C  3.19700 43.38000 28.45200
C  -1.59300 43.06600 27.72000
C  -0.89800 43.36000 22.98700
C  3.97300 43.39500 23.56100
N  0.90100 43.28800 27.85100
C  1.85100 43.32900 28.83000
C  1.33800 43.11200 30.19300
C  -0.19100 42.74500 29.92500
C  -0.35000 43.01400 28.37700
C  -0.50600 41.31100 30.29600
C  1.49400 44.36300 31.21800
C  1.67300 43.94200 32.72900
H  1.21000 42.49700 33.11900
N  -0.98300 43.61100 25.41700
C  -1.89400 43.39000 26.39500
C  -3.19600 43.50400 25.79900
C  -2.97100 43.50800 24.40600
C  -1.57800 43.48700 24.22700
C  -4.52200 43.53800 26.60100
C  -4.03200 43.42600 23.33000
O  -3.77500 43.52700 22.15500
C  -5.46600 43.24300 23.68000
N  1.56200 43.50800 23.59600
C  0.50500 43.28600 22.74700
C  1.00500 42.88900 21.31100
C  2.48400 43.34500 21.42000
C  2.74200 43.39100 22.96200
C  0.75700 41.40200 20.88000
C  2.82000 44.73500 20.75500
C  4.00700 44.69700 19.75600
N  3.11100 43.46800 25.88900
C  4.13000 43.48100 24.95500
C  5.40800 43.39700 25.62600
C  5.03700 43.40800 26.96100
C  3.66300 43.43700 27.11500
C  6.78900 43.57600 25.11200
C  5.65300 43.48000 28.32600
O  6.80600 43.64600 28.67400
C  4.45300 43.42100 29.30200
C  4.63200 42.22600 30.11500
O  4.48700 41.08100 29.78300
O  5.21900 42.71500 31.29000
C  5.74500 41.68800 32.22200
H  -2.42900 42.97600 28.41600
H  -1.52600 43.36600 22.09400
H  4.74500 43.19800 22.81400
H  1.90500 42.29900 30.64600
H  -0.86900 43.41800 30.44900
H  0.37200 40.86300 30.76300
H  -0.75100 40.84800 29.34100
H  -1.37500 41.27800 30.95400
H  0.56000 44.91500 31.10700
H  2.28800 45.02800 30.88100
H  1.04400 44.50900 33.41600
H  2.66800 44.25300 33.04600
H  -4.78800 44.59200 26.68200
H  -4.20200 43.12800 27.55900
H  -5.36100 42.91900 26.28200
H  -6.00600 43.11800 22.74100
H  -5.77600 44.19700 24.10600
H  -5.62100 42.32200 24.24100
H  0.41000 43.44800 20.58900
H  3.25500 42.61600 21.17100
H  1.62700 40.99900 20.36200
H  -0.04500 41.38400 20.14300
H  0.51400 40.78400 21.74500
H  2.85200 45.46300 21.56600
H  1.90600 45.00100 20.22300
H  4.47500 45.68200 19.76300
H  3.75800 44.71200 18.69500
H  4.81900 44.02300 20.03000
H  7.27700 44.23600 25.83000
H  6.92100 44.12300 24.17800
H  7.39100 42.66700 25.12100
H  4.44300 44.28900 29.96000
H  6.80600 41.74500 32.46400
H  5.62100 40.65100 31.90900
H  5.26700 41.68500 33.20100

