158

Mg 6.46000 53.96900 40.73500
C  5.42000 50.55600 40.45800
C  9.58100 53.02200 39.75100
C  7.01100 57.18900 40.27000
C  3.03600 54.66000 41.77900
N  7.20200 52.10300 39.85900
C  6.67500 50.82100 39.85400
C  7.64900 49.80400 39.15000
C  9.00100 50.52600 39.47600
C  8.60300 52.01200 39.66500
C  9.70800 49.90500 40.75600
C  7.22900 49.66800 37.65400
C  7.59500 48.26800 36.93500
H  6.73200 47.84900 35.80200
N  8.15900 54.96700 40.12100
C  9.33300 54.39200 39.81100
C  10.23800 55.43200 39.55000
C  9.60400 56.69000 39.71300
C  8.14400 56.34300 40.01800
C  11.72700 55.20500 39.15600
C  10.22400 58.01200 39.51100
O  11.42600 58.13000 39.20600
C  9.43100 59.30000 39.50800
N  5.17800 55.60800 40.81900
C  5.68100 56.89200 40.65300
C  4.52900 57.94000 40.92700
C  3.38800 57.08700 41.57500
C  3.96000 55.68800 41.47200
C  4.94100 59.18600 41.79300
C  1.95500 57.15100 40.90500
C  1.40900 58.60300 40.59500
N  4.60400 52.86300 41.17500
C  3.41400 53.27900 41.68400
C  2.51800 52.14300 41.98700
C  3.31500 51.06300 41.56200
C  4.51000 51.53600 41.05300
C  1.17400 52.11600 42.55700
C  3.41600 49.60600 41.36600
O  2.61500 48.70100 41.65300
C  4.85200 49.19800 40.77100
C  4.69900 48.29000 39.57300
O  4.21400 48.52600 38.49700
O  5.05100 47.01100 39.94900
C  5.02900 45.92600 38.97000
H  10.58300 52.66600 39.49800
H  7.13000 58.27400 40.30300
H  2.06300 54.95200 42.18000
H  7.57800 48.83200 39.63800
H  9.66500 50.31300 38.63800
H  9.13700 49.13600 41.27800
H  9.92300 50.71300 41.45600
H  10.61500 49.40600 40.41700
H  7.82200 50.45300 37.18500
H  6.21600 50.00500 37.43100
H  7.60200 47.52900 37.73700
H  8.61200 48.49100 36.61300
H  11.90100 54.13300 39.06500
H  12.40900 55.62400 39.89600
H  11.96200 55.63500 38.18300
H  10.04500 60.19200 39.37500
H  8.97800 59.20500 40.49400
H  8.81100 59.29100 38.61200
H  4.17100 58.25300 39.94600
H  3.18900 57.25500 42.63300
H  4.06200 59.64200 42.24800
H  5.40700 59.88300 41.09600
H  5.73300 58.96000 42.50700
H  1.28900 56.65100 41.60800
H  2.02900 56.63800 39.94600
H  2.05600 59.34400 41.06500
H  0.36500 58.72900 40.88000
H  1.44300 58.61100 39.50500
H  0.64000 53.06600 42.54600
H  1.16900 51.74300 43.58100
H  0.64500 51.31000 42.04700
H  5.47200 48.68100 41.50400
H  4.20800 45.99600 38.25600
H  5.06700 44.96000 39.47300
H  5.88000 46.09400 38.31100
Mg 9.95100 47.97500 26.29700
C  8.22800 47.71500 29.37100
C  12.50500 49.67000 27.96500
C  11.72300 48.12600 23.36800
C  7.18800 46.90800 24.55700
N  10.26600 48.69300 28.40400
C  9.53500 48.32300 29.47800
C  10.14000 48.86200 30.77200
C  11.23500 49.76400 30.21600
C  11.35900 49.34200 28.79100
C  11.23600 51.27700 30.46800
C  10.55700 47.68800 31.66600
C  10.06200 47.68700 33.17600
H  10.19000 46.33400 33.94700
N  11.86300 48.63000 25.79800
C  12.77500 49.22200 26.65800
C  14.04300 49.22200 25.92400
C  13.79900 48.84700 24.61100
C  12.34100 48.56200 24.49300
C  15.36700 49.52400 26.67400
C  14.84100 48.61400 23.44300
O  14.54100 48.26600 22.28200
C  16.36100 48.77700 23.75400
N  9.53700 47.61600 24.19100
C  10.38800 47.75000 23.18200
C  9.83100 47.11500 21.86700
C  8.43800 46.55300 22.39600
C  8.33800 47.10800 23.75500
C  9.73200 48.06500 20.61500
C  8.40800 44.99700 22.29900
C  9.31400 44.22700 23.19200
N  8.06200 47.44100 26.78900
C  7.06200 47.02600 25.98800
C  5.87700 46.82400 26.82300
C  6.29000 47.01900 28.14300
C  7.66600 47.37000 28.09000
C  4.54600 46.50400 26.37300
C  5.89600 47.09800 29.55700
O  4.76400 46.81900 30.07100
C  7.19300 47.36600 30.35700
C  7.42500 46.03600 30.97100
O  8.09500 45.17500 30.57100
O  6.59500 45.81700 32.03600
C  6.74700 44.54600 32.73400
H  13.30600 50.23900 28.44200
H  12.24800 48.19200 22.41300
H  6.31700 46.67300 23.94100
H  9.31700 49.45500 31.17200
H  12.17100 49.40800 30.64800
H  10.55200 51.58500 31.25800
H  10.96400 51.78700 29.54400
H  12.17800 51.66500 30.85600
H  11.63600 47.65900 31.51100
H  10.14300 46.84100 31.11900
H  8.99500 47.91300 33.17400
H  10.52500 48.56900 33.61700
H  15.24600 49.72700 27.73800
H  15.91800 50.30300 26.14700
H  16.09300 48.72300 26.53200
H  16.70000 49.80100 23.91100
H  16.87400 48.37700 22.88000
H  16.70000 48.11200 24.54800
H  10.47800 46.28300 21.59000
H  7.55600 46.93100 21.88000
H  8.71300 48.41500 20.45300
H  10.11800 47.47800 19.78200
H  10.40100 48.92200 20.69900
H  8.68800 44.78000 21.26900
H  7.38900 44.66200 22.49500
H  9.66500 44.90800 23.96800
H  10.25300 44.01700 22.68000
H  8.83100 43.32500 23.56700
H  3.93700 47.38600 26.17400
H  3.98000 45.89500 27.07800
H  4.56100 45.88200 25.47800
H  7.04100 48.09100 31.15700
H  6.10200 43.79200 32.28200
H  6.48100 44.85000 33.74600
H  7.74700 44.11500 32.78600

