158

Mg 36.18900 48.83200 25.06600
C  36.22800 47.56200 28.20500
C  34.68300 51.72700 26.29200
C  35.83300 49.91400 21.89900
C  37.43800 45.74700 23.92500
N  35.68800 49.61700 27.06200
C  35.79300 48.87600 28.26800
C  35.42000 49.73200 29.46600
C  34.99700 51.04200 28.82100
C  35.14300 50.85200 27.30900
C  33.58700 51.64800 29.18200
C  36.64300 49.77900 30.45900
C  36.33300 49.62700 31.93900
H  34.89400 49.84700 32.43500
N  35.41300 50.61000 24.20000
C  34.75200 51.67000 24.87400
C  34.22800 52.59400 23.87000
C  34.49000 52.01600 22.56600
C  35.29500 50.77600 22.87300
C  33.61000 53.81000 24.27100
C  34.03900 52.48000 21.24700
O  34.22700 51.82500 20.26700
C  33.29300 53.74800 21.15000
N  36.52800 47.99800 23.11400
C  36.42200 48.66200 21.95700
C  37.00100 47.83000 20.69500
C  37.65500 46.70100 21.52300
C  37.07300 46.75800 22.95500
C  35.98500 47.34800 19.60400
C  39.19600 46.69100 21.40900
C  39.70600 45.67900 20.42800
N  36.63100 46.97800 25.84800
C  37.18200 45.84000 25.31600
C  37.36700 44.81300 26.34500
C  36.95800 45.43900 27.44600
C  36.61300 46.76700 27.10800
C  37.85300 43.40500 26.13700
C  36.89400 45.21100 28.81200
O  37.27000 44.21900 29.44100
C  36.39800 46.58600 29.39600
C  35.12400 46.36100 30.14500
O  34.04000 46.44000 29.70700
O  35.44500 45.95900 31.36900
C  34.38200 45.82200 32.43100
H  34.09500 52.55300 26.69500
H  35.92700 50.22400 20.85600
H  37.87500 44.78800 23.64000
H  34.60000 49.25700 30.00400
H  35.61900 51.85200 29.20000
H  33.58600 52.71800 29.39300
H  33.18200 51.12400 30.04800
H  33.05100 51.28900 28.30300
H  37.20700 50.66600 30.17200
H  37.35200 48.98700 30.21500
H  37.03900 50.23600 32.50400
H  36.66100 48.63900 32.26200
H  33.86900 54.63200 23.60500
H  33.99800 54.15500 25.22900
H  32.53400 53.69000 24.39500
H  33.92300 54.63400 21.23500
H  32.46500 53.67500 21.85400
H  32.75400 53.85900 20.20900
H  37.70900 48.40500 20.09700
H  37.27600 45.73700 21.18500
H  36.25900 46.35100 19.25900
H  36.01300 48.05800 18.77700
H  35.01700 47.38800 20.10300
H  39.56500 46.47000 22.41000
H  39.55000 47.64100 21.00700
H  38.90600 45.17000 19.89100
H  40.26100 44.90500 20.96000
H  40.29400 46.17900 19.65900
H  38.94200 43.42000 26.10700
H  37.48500 42.91800 25.23400
H  37.57600 42.81600 27.01200
H  37.16800 46.84900 30.12000
H  33.39100 46.21400 32.20300
H  34.77200 46.35400 33.29800
H  34.32900 44.76500 32.69100
Mg -5.11800 25.59400 26.58800
C  -3.65500 26.82600 29.64000
C  -7.26100 23.64300 28.48800
C  -6.18300 24.21100 23.70300
C  -2.98300 27.50300 24.81900
N  -5.27200 25.18000 28.74400
C  -4.62900 25.84400 29.77400
C  -5.24100 25.38900 31.11900
C  -6.22000 24.22500 30.71900
C  -6.29200 24.32400 29.22000
C  -5.70400 22.86800 31.22900
C  -5.98100 26.58600 31.91800
C  -7.04100 26.31500 33.03000
H  -6.70400 25.24500 34.10000
N  -6.51500 24.26200 26.15200
C  -7.31600 23.58100 27.08800
C  -8.25300 22.76700 26.38300
C  -7.96000 22.87700 25.00800
C  -6.81600 23.79200 24.90500
C  -9.32100 22.06300 27.15200
C  -8.60500 22.22700 23.81700
O  -8.30400 22.50500 22.63700
C  -9.55200 21.06700 24.13500
N  -4.62400 25.77300 24.55100
C  -5.18000 25.11700 23.53100
C  -4.46700 25.39100 22.27000
C  -3.63300 26.68300 22.52400
C  -3.79300 26.76200 24.04900
C  -3.64400 24.16800 21.72400
C  -4.09100 27.96100 21.77300
C  -3.10200 28.41500 20.72800
N  -3.56600 26.87300 27.03500
C  -2.84900 27.65400 26.17500
C  -1.89300 28.50500 26.97200
C  -2.24400 28.26000 28.34000
C  -3.25500 27.28200 28.29400
C  -0.83400 29.38600 26.41000
C  -1.97300 28.64200 29.72900
O  -1.24900 29.53900 30.20500
C  -2.93600 27.70400 30.65900
C  -2.13200 27.01200 31.70500
O  -1.45300 26.00100 31.63100
O  -2.27600 27.71400 32.88100
C  -2.21000 26.93700 34.13200
H  -7.87400 22.91400 29.02100
H  -6.47800 23.90900 22.69600
H  -2.18500 27.98300 24.24800
H  -4.48400 25.09900 31.84700
H  -7.22200 24.32100 31.13900
H  -4.98100 22.99100 32.03600
H  -5.21100 22.42300 30.36400
H  -6.54900 22.27500 31.57800
H  -6.40500 27.09500 31.05200
H  -5.26000 27.28000 32.34900
H  -7.86400 25.97900 32.39900
H  -7.32300 27.27400 33.46600
H  -9.01000 21.07400 27.49000
H  -10.20000 21.76000 26.58300
H  -9.68900 22.65800 27.98800
H  -9.87100 20.63600 23.18600
H  -10.48200 21.36400 24.61900
H  -9.05200 20.30400 24.73200
H  -5.28900 25.68100 21.61500
H  -2.56700 26.51500 22.36700
H  -3.38300 23.45600 22.50700
H  -2.77900 24.56100 21.19000
H  -4.27700 23.68000 20.98300
H  -4.25400 28.81200 22.43500
H  -5.04200 27.81900 21.26000
H  -3.42400 28.09100 19.73800
H  -2.07700 28.09100 20.90200
H  -3.09100 29.50500 20.68800
H  -0.43700 28.98800 25.47600
H  -0.03600 29.58600 27.12500
H  -1.30600 30.35600 26.25700
H  -3.73700 28.28500 31.11600
H  -1.29600 27.22200 34.65400
H  -2.32800 25.86700 33.96200
H  -3.08500 27.20800 34.72300

