158

Mg 16.48000 -2.02700 27.11100
C  15.78200 -0.12600 29.85200
C  18.31800 -4.17700 29.26600
C  17.84600 -3.60600 24.43700
C  14.95700 0.31700 25.08300
N  17.14300 -2.03500 29.31800
C  16.65600 -1.17200 30.25700
C  17.13700 -1.50200 31.69800
C  18.12800 -2.71000 31.47800
C  17.79100 -3.02500 29.90100
C  19.61700 -2.26000 31.64200
C  15.91800 -1.95800 32.61000
C  16.25300 -2.43100 34.00700
H  17.63100 -2.09700 34.73600
N  17.78000 -3.72000 26.91800
C  18.35100 -4.47900 27.90000
C  19.10400 -5.55600 27.28200
C  19.09800 -5.32700 25.84900
C  18.24900 -4.21000 25.64300
C  19.80700 -6.62500 28.08400
C  19.81700 -6.19500 24.74900
O  19.62700 -6.01000 23.53100
C  20.84700 -7.17900 25.13500
N  16.38000 -1.70900 24.99600
C  16.96100 -2.50900 24.08300
C  16.82000 -1.97500 22.59700
C  15.80800 -0.75200 22.83500
C  15.65600 -0.71600 24.41400
C  18.15600 -1.65400 21.84300
C  14.37500 -1.01200 22.26300
C  13.81600 0.25400 21.64000
N  15.37200 -0.36100 27.31300
C  14.86200 0.53300 26.42400
C  14.18000 1.60500 27.13700
C  14.57800 1.33600 28.51700
C  15.31800 0.14800 28.57000
C  13.32400 2.65700 26.46200
C  14.41600 1.87600 29.86900
O  13.89200 2.95200 30.14600
C  15.15600 0.91900 30.81600
C  16.17000 1.74900 31.62400
O  17.16900 2.28300 31.14600
O  15.79400 1.84300 32.91800
C  16.63600 2.69400 33.82900
H  18.77000 -4.84400 30.00200
H  18.28300 -4.00800 23.52000
H  14.58000 1.05400 24.37100
H  17.60400 -0.61800 32.13300
H  18.12600 -3.64800 32.03200
H  19.59900 -1.24800 32.04600
H  20.16200 -2.33600 30.70100
H  20.19100 -2.90400 32.30800
H  15.34800 -2.68300 32.02900
H  15.25000 -1.10700 32.73900
H  15.99900 -3.48800 34.07900
H  15.54900 -1.97800 34.70500
H  20.88900 -6.68300 27.96800
H  19.49800 -7.56700 27.63300
H  19.59200 -6.61800 29.15300
H  21.64000 -6.63300 25.64600
H  21.12900 -7.68200 24.20900
H  20.59600 -8.03500 25.76100
H  16.36000 -2.84200 22.12200
H  16.24700 0.15600 22.42100
H  19.02200 -1.59700 22.50200
H  18.15400 -0.71100 21.29700
H  18.28200 -2.47500 21.13700
H  13.75000 -1.39600 23.07000
H  14.51400 -1.82300 21.54900
H  12.79200 0.44800 21.95800
H  13.74100 0.23400 20.55300
H  14.39100 1.11600 21.97900
H  13.76000 2.97000 25.51300
H  13.45500 3.61400 26.96600
H  12.25400 2.44700 26.48200
H  14.45900 0.45000 31.51000
H  16.65300 3.70300 33.41700
H  17.67400 2.36300 33.78700
H  16.32000 2.73700 34.87100
Mg 46.63100 44.88300 44.83500
C  43.18500 44.77800 44.03300
C  46.93000 41.48200 44.24100
C  49.96900 45.23900 44.89200
C  46.24100 48.36200 45.16800
N  45.29200 43.40500 44.12800
C  43.88200 43.55700 43.83200
C  43.27400 42.25200 43.22800
C  44.40900 41.20000 43.60500
C  45.66000 42.06700 44.09200
C  44.09600 39.99900 44.64100
C  43.25800 42.44300 41.75200
C  41.89100 42.15300 41.09100
H  41.76000 41.29500 39.85800
N  48.23400 43.48700 44.77900
C  48.12800 42.15900 44.56700
C  49.44300 41.59800 44.35600
C  50.41100 42.63800 44.49300
C  49.53600 43.88900 44.80500
C  49.73500 40.12100 44.08400
C  51.89000 42.49000 44.43200
O  52.33500 41.36700 44.26400
C  52.83600 43.64900 44.57800
N  47.92000 46.54800 44.77300
C  49.28200 46.44700 44.83400
C  49.95300 47.82500 44.92500
C  48.76800 48.72400 45.34300
C  47.55800 47.86200 45.09700
C  51.22800 47.98300 45.87100
C  48.74500 50.14800 44.62900
C  48.74500 51.40500 45.47900
N  45.08400 46.30800 44.72400
C  45.00500 47.69900 44.92400
C  43.63200 48.18800 44.75600
C  42.90500 47.07800 44.36700
C  43.80400 45.96900 44.38300
C  43.14400 49.68600 44.73400
C  41.55900 46.58200 43.98300
O  40.41000 47.11500 43.97200
C  41.70600 44.99300 43.81300
C  40.84700 44.29300 44.76900
O  39.85100 43.63800 44.48300
O  41.29700 44.40000 46.08600
C  40.47600 43.63400 47.03900
H  46.97200 40.42500 43.96900
H  51.04100 45.44000 44.93000
H  46.26400 49.42200 45.43100
H  42.36100 42.13900 43.81300
H  44.66900 40.63200 42.71200
H  44.50000 39.06200 44.25700
H  43.04700 39.98400 44.93700
H  44.72300 40.17300 45.51600
H  44.04100 41.86400 41.26300
H  43.54000 43.46600 41.50200
H  41.44300 43.11300 40.83400
H  41.19400 41.52500 41.64600
H  48.80200 39.56600 43.98700
H  50.31600 39.66700 44.88700
H  50.26300 39.97100 43.14300
H  52.60300 43.99900 45.58400
H  52.61000 44.37000 43.79200
H  53.86600 43.29500 44.61500
H  50.24400 48.11500 43.91600
H  48.79200 48.81200 46.42900
H  52.18000 47.95300 45.34000
H  51.25200 47.26400 46.69000
H  51.29800 48.96800 46.33200
H  47.87900 50.27300 43.97800
H  49.64700 50.09200 44.02000
H  49.53200 52.12300 45.24800
H  48.83800 51.10400 46.52300
H  47.77700 51.90100 45.41200
H  42.45300 49.91600 43.92400
H  44.11600 50.17700 44.67200
H  42.59700 49.85600 45.66200
H  41.31800 44.78100 42.81600
H  40.97400 42.67200 47.16200
H  39.46700 43.29200 46.80900
H  40.40500 44.19200 47.97200

