158

Mg 48.73600 45.42600 43.78400
C  45.57100 45.83600 42.59100
C  48.79600 42.26700 42.19700
C  51.97700 45.18100 44.70100
C  48.76000 48.84400 44.83500
N  47.40600 44.31400 42.33300
C  46.12800 44.64600 42.13300
C  45.51800 43.64200 41.09700
C  46.47100 42.37300 41.18700
C  47.63900 43.03500 41.99100
C  45.84300 41.15200 41.99800
C  45.47500 44.32600 39.68700
C  44.04500 44.39800 39.02800
H  43.70300 43.52700 37.83000
N  50.21500 43.93000 43.38400
C  50.02700 42.67700 42.80100
C  51.25100 41.95600 42.92400
C  52.14700 42.70500 43.78600
C  51.47900 43.97600 44.02700
C  51.33800 40.56300 42.37600
C  53.53000 42.23700 44.19100
O  53.89000 41.06500 43.89100
C  54.42600 42.94300 45.02200
N  50.22700 46.91400 44.55500
C  51.46700 46.51000 44.89000
C  52.30300 47.67600 45.48600
C  51.23400 48.77600 45.69300
C  49.95800 48.17800 45.03000
C  53.12800 47.30600 46.73600
C  51.60800 50.15200 45.19000
C  52.00500 51.23600 46.20100
N  47.42500 47.00000 43.95500
C  47.52600 48.32200 44.37400
C  46.33600 49.02400 44.03100
C  45.46300 48.02800 43.51600
C  46.24200 46.89300 43.32600
C  46.23600 50.56800 44.13700
C  44.14100 47.78600 42.86500
O  43.20300 48.45300 42.61000
C  44.13400 46.34700 42.32500
C  43.14900 45.56500 43.08200
O  43.33000 44.66700 43.83200
O  41.90600 46.06900 42.69900
C  40.79300 45.43400 43.40800
H  48.77800 41.28700 41.71700
H  52.99900 45.07600 45.07000
H  48.77700 49.84000 45.28300
H  44.58900 43.30800 41.55900
H  46.74900 42.15000 40.15700
H  45.96400 41.36700 43.05900
H  46.40600 40.22500 41.88700
H  44.77900 41.05100 41.78300
H  46.19900 43.80400 39.06200
H  45.82000 45.35200 39.81800
H  43.86600 45.46200 38.87100
H  43.25500 43.98200 39.65300
H  52.40100 40.38100 42.21400
H  50.83500 40.53400 41.41000
H  50.83900 39.88600 43.06900
H  53.98200 43.44400 45.88200
H  54.80000 43.68600 44.31800
H  55.33600 42.37200 45.20800
H  52.94100 47.88400 44.62700
H  51.09300 48.84700 46.77200
H  52.96300 46.26900 47.02900
H  52.92400 47.95100 47.59100
H  54.18000 47.39200 46.46300
H  50.78800 50.50300 44.56300
H  52.53500 49.95500 44.65100
H  51.39100 52.13200 46.11200
H  53.03200 51.57600 46.06800
H  52.03000 50.91800 47.24300
H  46.24500 51.01500 45.13100
H  45.29100 50.82900 43.66100
H  47.09100 50.86000 43.52600
H  43.92400 46.37100 41.25600
H  40.47400 44.54900 42.85700
H  39.98700 46.16600 43.37000
H  41.03000 45.16400 44.43700
Mg 27.14500 50.16500 25.50900
C  25.31100 51.58400 28.18700
C  29.60500 49.42800 27.75700
C  28.70300 48.77000 23.06900
C  24.58500 51.13600 23.36600
N  27.36200 50.42400 27.80700
C  26.51200 50.99400 28.63300
C  27.03300 50.82100 30.08100
C  28.50000 50.46500 29.85200
C  28.53700 50.11500 28.35900
C  29.64000 51.52000 30.12700
C  26.13300 49.87500 30.94400
C  25.42600 50.55900 32.15700
H  26.34000 50.96000 33.26300
N  28.96300 49.28300 25.42100
C  29.85500 49.07100 26.44000
C  31.01100 48.28600 25.89500
C  30.70700 47.97400 24.57400
C  29.47500 48.73400 24.27900
C  32.26200 47.83600 26.72000
C  31.46500 47.29400 23.53200
O  31.11600 47.32700 22.33100
C  32.83000 46.67600 23.81200
N  26.86000 50.30500 23.41800
C  27.60500 49.51600 22.66000
C  27.08500 49.48900 21.18500
C  25.61500 49.98200 21.35600
C  25.64900 50.50700 22.76500
C  27.91400 50.40500 20.26100
C  24.41200 49.04900 20.93100
C  24.25200 47.84200 21.94000
N  25.36700 51.29500 25.65900
C  24.45600 51.60400 24.69900
C  23.35200 52.42900 25.23900
C  23.58500 52.27500 26.65700
C  24.88100 51.65400 26.85900
C  22.10300 52.94900 24.53200
C  23.07200 52.56100 27.97900
O  22.01300 53.00800 28.36700
C  24.18200 52.18000 29.04900
C  24.57100 53.37500 29.77100
O  25.38300 54.23400 29.47700
O  23.87500 53.35900 30.95200
C  24.02300 54.45500 31.92100
H  30.38700 49.15000 28.46700
H  29.14900 48.21200 22.24200
H  23.72400 51.39100 22.74400
H  27.18400 51.77900 30.57900
H  28.75500 49.57300 30.42500
H  29.20000 52.50700 30.27200
H  30.31400 51.58900 29.27300
H  30.26900 51.33700 30.99800
H  26.82500 49.09100 31.25300
H  25.41000 49.42700 30.26300
H  24.60700 49.97000 32.57100
H  25.04500 51.54500 31.89100
H  32.27500 46.77200 26.48300
H  32.08800 47.90400 27.79400
H  33.21500 48.25500 26.39800
H  33.32500 46.65500 22.84100
H  32.71200 45.66600 24.20400
H  33.38800 47.28500 24.52300
H  27.12900 48.47400 20.79100
H  25.44900 50.91100 20.81100
H  28.93500 50.34100 20.63500
H  27.61300 51.45100 20.20500
H  27.93800 50.02100 19.24100
H  24.59000 48.68100 19.92000
H  23.50800 49.65900 20.91800
H  23.18100 47.63900 21.97500
H  24.83800 47.84000 22.85900
H  24.59500 47.01200 21.32200
H  21.56400 52.04300 24.25600
H  22.19300 53.47400 23.58100
H  21.42100 53.43200 25.23300
H  23.97900 51.37900 29.76000
H  24.61100 55.22900 31.42800
H  24.59900 54.15700 32.79800
H  23.03900 54.90200 32.06200

