158

Mg 8.35600 2.36100 27.93600
C  10.12400 1.25800 30.61900
C  6.45200 4.38300 29.90800
C  7.03300 3.57000 25.23900
C  10.03400 -0.09400 25.96900
N  8.21100 2.70500 30.08100
C  9.14000 2.21700 31.00900
C  8.89400 2.75100 32.39800
C  7.46800 3.53600 32.16400
C  7.40300 3.63100 30.65500
C  6.18500 2.92600 32.76500
C  9.99300 3.64900 32.89600
C  9.72000 4.39900 34.24500
H  10.60000 4.07700 35.50600
N  6.91900 3.82000 27.64800
C  6.16200 4.52800 28.57200
C  5.28800 5.47200 27.96800
C  5.58200 5.36800 26.55100
C  6.55100 4.20000 26.42200
C  4.23100 6.21800 28.78200
C  4.95000 6.16400 25.41000
O  5.33600 6.06400 24.29600
C  3.92800 7.33300 25.78200
N  8.54600 1.83800 25.89800
C  7.86900 2.55100 24.98300
C  7.96300 1.90700 23.53100
C  9.11300 0.91300 23.75200
C  9.13500 0.76800 25.27800
C  6.58800 1.22000 23.13000
C  10.54700 1.31700 23.14300
C  11.20700 0.16100 22.40000
N  9.66700 0.85500 28.19500
C  10.23000 -0.08400 27.34800
C  11.05800 -1.00700 28.02500
C  11.08600 -0.49300 29.35200
C  10.26900 0.63300 29.36600
C  11.80000 -2.21600 27.48000
C  11.80800 -0.62900 30.66900
O  12.75000 -1.29200 31.12400
C  11.10400 0.53000 31.59400
C  10.55400 -0.18600 32.71200
O  9.48900 -0.76500 32.67900
O  11.34200 -0.08800 33.81900
C  10.76800 -0.43400 35.11300
H  5.85900 5.01700 30.57100
H  6.56500 4.02500 24.36400
H  10.47600 -0.92700 25.41800
H  8.73300 1.98600 33.15800
H  7.57200 4.55300 32.54200
H  6.31700 2.31200 33.65600
H  5.66300 2.21300 32.12600
H  5.50600 3.72000 33.07600
H  10.17800 4.28700 32.03100
H  10.91300 3.08300 33.04300
H  8.68100 4.28100 34.55200
H  9.78100 5.46400 34.01900
H  4.12100 5.78300 29.77500
H  3.26200 6.06400 28.30700
H  4.39900 7.29500 28.74900
H  3.04100 6.89000 26.23300
H  3.53600 7.86900 24.91800
H  4.48900 8.00900 26.42700
H  8.34100 2.58800 22.76800
H  8.73000 -0.01800 23.33200
H  5.74600 1.49800 23.76400
H  6.47000 0.14300 23.24700
H  6.43700 1.66200 22.14500
H  11.22500 1.80200 23.84500
H  10.35900 2.00300 22.31700
H  12.13000 -0.05000 22.94000
H  11.55800 0.45000 21.40900
H  10.54000 -0.69000 22.26200
H  11.17400 -3.03100 27.11400
H  12.36600 -2.53600 28.35400
H  12.51900 -1.79700 26.77600
H  11.71700 1.30400 32.05400
H  10.03500 -1.23000 34.97900
H  10.45000 0.41500 35.71700
H  11.65700 -0.77100 35.64600
Mg 37.12300 49.70700 24.73100
C  37.34000 48.07300 27.84000
C  35.65000 52.35900 26.43400
C  36.83200 51.33900 21.78300
C  38.02700 46.82700 23.08600
N  36.53600 50.05400 26.96700
C  36.87800 49.35300 28.05000
C  36.48000 49.98400 29.38600
C  35.85700 51.36300 28.81400
C  36.00600 51.29700 27.31100
C  34.49100 51.71100 29.34600
C  37.63900 50.10200 30.36000
C  37.59000 49.45000 31.76700
H  36.21900 49.69700 32.34300
N  36.40100 51.63200 24.16300
C  35.80800 52.56100 25.02000
C  35.51100 53.73400 24.20400
C  35.87100 53.45500 22.82900
C  36.46900 52.10500 22.89900
C  34.84000 54.97000 24.85600
C  35.64600 54.35700 21.56600
O  35.85800 53.91600 20.43100
C  35.04000 55.67000 21.80500
N  37.48200 49.16300 22.75000
C  37.29700 50.00600 21.73400
C  37.57800 49.34700 20.36100
C  37.92800 47.88200 20.78200
C  37.87200 48.00000 22.28000
C  36.38000 49.56500 19.30100
C  39.32600 47.40500 20.14100
C  40.58300 47.60500 21.06100
N  37.58300 47.77400 25.27600
C  37.97600 46.71300 24.48500
C  38.19400 45.59000 25.38300
C  37.96000 46.06700 26.66600
C  37.64100 47.39900 26.57500
C  38.62700 44.21800 24.95400
C  38.04800 45.72300 28.01700
O  38.38800 44.65900 28.54700
C  37.60400 47.00200 28.84500
C  36.34400 46.58500 29.55900
O  35.18400 46.52000 29.05700
O  36.75700 46.14100 30.86100
C  35.72200 45.45500 31.65300
H  35.23700 53.19900 26.99600
H  36.88600 51.91600 20.85800
H  38.48600 45.94900 22.62600
H  35.71700 49.34500 29.83000
H  36.47200 52.21700 29.09600
H  34.17300 50.93300 30.04100
H  33.78900 51.70300 28.51200
H  34.51300 52.64700 29.90300
H  37.73100 51.14900 30.64900
H  38.54000 49.66700 29.92600
H  38.44000 49.84200 32.32700
H  37.76000 48.40000 31.52800
H  35.13900 55.92600 24.42600
H  35.00400 54.96200 25.93400
H  33.79300 54.75100 24.64900
H  34.02500 55.55800 22.18600
H  34.93200 56.19000 20.85300
H  35.69300 56.19900 22.50000
H  38.45900 49.81400 19.92000
H  37.11200 47.21400 20.50900
H  35.53900 49.87600 19.92000
H  36.13500 48.62800 18.79900
H  36.58200 50.36800 18.59300
H  39.37400 47.92300 19.18300
H  39.27300 46.33100 19.95900
H  40.57300 48.39900 21.80800
H  41.37000 47.94700 20.38900
H  40.98000 46.66900 21.45300
H  38.12900 43.50000 25.60600
H  39.69700 44.04100 25.06200
H  38.28800 43.81400 24.00000
H  38.43300 47.12500 29.54200
H  35.15700 44.76300 31.02900
H  35.11000 46.18900 32.17800
H  36.24700 44.83000 32.37600

