158

Mg -2.46800 17.34600 26.87300
C  -3.20900 15.10700 29.50300
C  -2.39300 19.81000 29.01900
C  -2.27700 19.34600 24.23400
C  -3.23300 14.66700 24.64900
N  -2.80300 17.32300 29.04200
C  -2.95700 16.37300 29.96700
C  -3.00100 16.89800 31.36900
C  -2.90100 18.44500 31.09800
C  -2.63200 18.55300 29.59400
C  -4.07500 19.27700 31.65200
C  -1.81300 16.25300 32.21500
C  -1.44800 16.97000 33.51800
H  -1.13700 16.15100 34.71700
N  -2.18500 19.28100 26.66500
C  -2.13600 20.17200 27.69300
C  -1.91000 21.50600 27.16000
C  -1.88800 21.42100 25.72200
C  -2.10100 19.97200 25.44500
C  -1.98000 22.68700 28.08800
C  -1.69200 22.47900 24.60900
O  -1.79300 22.20300 23.41600
C  -1.50300 23.83600 24.98700
N  -2.54600 17.06000 24.77700
C  -2.46300 18.02500 23.91300
C  -2.78100 17.54700 22.49400
C  -3.00300 16.00900 22.61300
C  -2.85100 15.90500 24.10700
C  -4.01800 18.11200 21.89300
C  -1.96600 15.17100 21.74800
C  -2.42500 14.33100 20.54600
N  -2.96100 15.25700 26.97200
C  -3.29500 14.31800 26.04800
C  -3.64600 13.04700 26.65700
C  -3.55500 13.30300 27.99700
C  -3.13500 14.67200 28.13200
C  -4.05900 11.79100 25.92800
C  -3.72100 12.69400 29.32000
O  -4.03900 11.57900 29.65100
C  -3.57600 13.84100 30.25600
C  -2.44700 13.30900 31.04500
O  -1.31100 13.57300 30.98700
O  -2.93200 12.51200 32.05700
C  -2.12700 12.14100 33.18900
H  -2.35900 20.62400 29.74700
H  -2.19600 20.01900 23.37800
H  -3.35000 13.84300 23.94300
H  -3.84500 16.65500 32.01500
H  -1.97600 18.77400 31.57300
H  -4.71100 19.45700 30.78500
H  -3.66500 20.13900 32.17800
H  -4.62900 18.68900 32.38400
H  -0.87800 16.08100 31.68100
H  -2.24200 15.30900 32.54900
H  -2.10500 17.82300 33.69200
H  -0.45100 17.40600 33.45500
H  -1.39200 22.39900 28.96000
H  -3.00600 22.79900 28.43700
H  -1.63700 23.61100 27.62300
H  -2.22200 24.08800 25.76600
H  -1.68600 24.43200 24.09300
H  -0.46000 24.08800 25.18200
H  -2.03700 17.73300 21.72000
H  -4.04400 15.76200 22.40800
H  -4.88600 17.52200 22.19100
H  -3.92400 17.91500 20.82500
H  -4.13200 19.15200 22.19800
H  -1.40600 14.48600 22.38500
H  -1.25100 15.83100 21.25700
H  -2.09400 14.76100 19.60100
H  -3.50400 14.20600 20.63400
H  -2.05100 13.30900 20.60400
H  -3.33400 10.97700 25.94000
H  -4.36200 12.00200 24.90300
H  -4.87400 11.33300 26.48900
H  -4.23600 14.02000 31.10500
H  -1.86400 11.08400 33.24400
H  -2.66000 12.46200 34.08300
H  -1.17800 12.67500 33.24100
Mg 1.05900 41.39600 25.17600
C  2.93200 41.90000 28.10300
C  -1.60500 40.46200 27.23700
C  -0.64300 40.57800 22.42800
C  4.09600 41.67300 23.28900
N  0.63500 41.32900 27.49200
C  1.61100 41.51400 28.39600
C  1.04600 41.30800 29.80700
C  -0.42200 40.77200 29.54900
C  -0.51100 40.86700 28.04200
C  -0.64200 39.22100 29.92200
C  1.04200 42.62900 30.65400
C  0.28200 42.71100 31.93100
H  0.07400 41.45400 32.76000
N  -0.82700 40.87600 24.87300
C  -1.77200 40.48200 25.86300
C  -3.02200 40.12300 25.15300
C  -2.75000 40.23700 23.76000
C  -1.34300 40.60400 23.58600
C  -4.34500 39.87600 25.91100
C  -3.79500 40.15400 22.60900
O  -3.43900 40.17400 21.42200
C  -5.25100 39.99400 22.80300
N  1.63200 41.06200 23.14600
C  0.74400 40.82500 22.16600
C  1.35500 40.87500 20.73500
C  2.82700 41.32800 21.03300
C  2.87500 41.44200 22.59400
C  1.33000 39.50500 19.99400
C  3.12500 42.69100 20.28800
C  3.06500 43.98500 21.18100
N  3.05200 41.79400 25.52900
C  4.17800 41.91800 24.66600
C  5.29100 42.20600 25.45900
C  4.91900 42.26000 26.78200
C  3.52100 41.96000 26.73600
C  6.63400 42.43900 24.93800
C  5.32200 42.43800 28.16200
O  6.43000 42.66300 28.59700
C  4.02700 42.19000 29.04200
C  4.29600 41.10500 30.03500
O  4.37600 39.88200 29.77500
O  4.75600 41.70600 31.16700
C  5.33800 40.66200 32.09800
H  -2.43400 40.04500 27.81400
H  -1.26200 40.50700 21.53100
H  5.04700 41.74900 22.75700
H  1.68100 40.61700 30.36100
H  -1.19100 41.36900 30.03900
H  0.24400 38.70600 30.29400
H  -1.04600 38.69100 29.06000
H  -1.39200 39.28800 30.71000
H  0.68600 43.41200 29.98500
H  2.06700 42.91600 30.89000
H  -0.65600 43.26200 31.86700
H  0.85700 43.26600 32.67200
H  -4.34900 39.94900 26.99900
H  -4.73600 38.90900 25.59500
H  -5.05500 40.62000 25.54900
H  -5.70600 40.85700 23.29100
H  -5.43900 39.06000 23.33300
H  -5.61100 39.98200 21.77500
H  0.83900 41.54900 20.05100
H  3.50200 40.54000 20.70000
H  2.27300 38.96900 20.10800
H  1.11900 39.68900 18.94100
H  0.55900 38.84800 20.39800
H  2.30300 42.98600 19.63600
H  4.02600 42.66200 19.67400
H  4.05000 44.15900 21.61300
H  2.35500 43.89300 22.00300
H  2.73300 44.80000 20.53800
H  6.52000 43.17600 24.14400
H  7.00200 41.52600 24.47100
H  7.25700 42.77500 25.76700
H  3.87600 43.11000 29.60700
H  5.95800 40.98300 32.93500
H  5.88400 39.92000 31.51500
H  4.43000 40.27800 32.56300

