158

Mg -2.15500 17.09900 26.55700
C  -2.54500 14.86200 29.33900
C  -3.02600 19.61500 28.68500
C  -2.20800 19.23400 23.91900
C  -1.97500 14.27900 24.45000
N  -2.81500 17.13200 28.69700
C  -2.68500 16.21200 29.75900
C  -2.75700 16.74600 31.19500
C  -3.07000 18.26900 30.84000
C  -2.95900 18.33500 29.32600
C  -4.30200 18.92100 31.51600
C  -1.48100 16.42600 32.03300
C  -1.41200 17.40900 33.22000
H  -0.79300 16.73000 34.45500
N  -2.38100 19.11100 26.38000
C  -2.76400 19.96100 27.36500
C  -2.76100 21.32100 26.87600
C  -2.34400 21.30700 25.51000
C  -2.30300 19.81700 25.18900
C  -3.14100 22.48200 27.78500
C  -2.09400 22.42400 24.62700
O  -1.79100 22.26000 23.46300
C  -2.15100 23.88900 25.07500
N  -1.89100 16.76800 24.48600
C  -2.03200 17.83900 23.59200
C  -1.84200 17.36300 22.09800
C  -1.60800 15.78600 22.33500
C  -1.82100 15.58000 23.83100
C  -3.08500 17.72300 21.29100
C  -0.18700 15.38800 22.01700
C  0.92700 15.95100 22.94000
N  -2.21300 15.05000 26.79000
C  -2.19600 14.05400 25.83600
C  -2.22800 12.78200 26.48800
C  -2.30600 13.05600 27.82100
C  -2.43300 14.43600 27.94200
C  -2.03600 11.48900 25.65200
C  -2.40700 12.40100 29.18400
O  -2.21600 11.25000 29.51000
C  -2.66900 13.59100 30.14800
C  -1.69800 13.31000 31.23000
O  -0.51100 13.49000 31.10400
O  -2.34800 12.87300 32.37200
C  -1.44100 12.78600 33.55700
H  -3.03900 20.40200 29.44200
H  -2.14300 19.80800 22.99200
H  -1.93200 13.35100 23.87600
H  -3.60900 16.35600 31.75100
H  -2.19800 18.82300 31.18800
H  -4.80200 18.24200 32.20600
H  -5.04600 19.18100 30.76300
H  -4.09100 19.80500 32.11900
H  -0.58500 16.67300 31.46300
H  -1.60500 15.45000 32.50300
H  -2.43400 17.71600 33.44500
H  -0.74200 18.24900 33.03900
H  -2.25100 23.10300 27.88800
H  -3.52200 22.25500 28.78100
H  -3.87200 23.18600 27.38800
H  -3.07200 24.23400 25.54600
H  -1.75800 24.58000 24.33000
H  -1.32100 23.80900 25.77800
H  -0.92100 17.85500 21.78600
H  -2.24400 15.22400 21.65100
H  -2.83800 18.51300 20.58200
H  -3.88300 18.01600 21.97400
H  -3.51200 16.88300 20.74300
H  0.09800 15.69600 21.01100
H  -0.03800 14.30900 21.99400
H  0.70600 16.54800 23.82500
H  1.65600 16.38900 22.25800
H  1.43900 15.07400 23.33600
H  -1.37700 11.63000 24.79600
H  -2.99300 11.24500 25.19000
H  -1.76300 10.66600 26.31200
H  -3.67600 13.31700 30.46500
H  -1.77700 13.66800 34.10300
H  -0.37000 12.89700 33.39200
H  -1.52800 11.78200 33.97100
Mg 8.05000 2.63300 28.10800
C  9.76900 1.36900 30.95900
C  6.09300 4.54900 30.25900
C  6.67100 3.96400 25.46200
C  10.02400 0.57000 26.18800
N  7.88800 2.80300 30.36000
C  8.79500 2.34500 31.33600
C  8.61700 2.95400 32.71500
C  7.36500 3.83000 32.46400
C  7.10800 3.76700 30.94300
C  6.03400 3.60500 33.26900
C  9.88100 3.66300 33.20600
C  9.57100 4.43700 34.51900
H  10.52000 4.24300 35.72400
N  6.54500 3.98100 27.85300
C  5.88700 4.75000 28.84800
C  4.84400 5.54600 28.24500
C  4.98300 5.40700 26.84800
C  6.12300 4.46100 26.66300
C  3.79600 6.41200 29.02700
C  4.13000 6.05100 25.74500
O  4.25100 5.80200 24.62500
C  2.92500 6.93000 26.05500
N  8.11500 2.12700 26.17100
C  7.59000 2.93800 25.21400
C  7.94800 2.49700 23.73900
C  8.98200 1.46000 23.96800
C  9.04800 1.39200 25.55700
C  6.71700 2.03100 22.96100
C  10.40500 1.65900 23.31800
C  10.90100 0.43200 22.46500
N  9.51000 1.23500 28.44200
C  10.19100 0.46900 27.58900
C  11.13500 -0.42900 28.25900
C  11.01000 -0.13300 29.60800
C  10.00300 0.89800 29.63700
C  12.15800 -1.32800 27.62600
C  11.57600 -0.26900 30.92100
O  12.42900 -1.04400 31.23400
C  10.73000 0.69200 31.86800
C  10.10900 -0.01100 32.99900
O  9.24100 -0.87700 32.85500
O  10.53600 0.45500 34.18200
C  10.15300 -0.21900 35.43500
H  5.54800 5.23800 30.90700
H  6.38000 4.55800 24.59400
H  10.45000 -0.21500 25.55900
H  8.34700 2.17100 33.42300
H  7.60000 4.87700 32.65400
H  5.18900 3.59300 32.58200
H  5.84000 4.46200 33.91600
H  5.98300 2.70400 33.88100
H  10.24500 4.44500 32.54100
H  10.72900 3.00300 33.38600
H  8.60200 4.06800 34.85700
H  9.61400 5.50200 34.28800
H  4.03200 6.43100 30.09100
H  2.85200 5.92700 28.77700
H  3.88200 7.42500 28.63500
H  2.28800 6.28600 26.66100
H  2.32700 7.40600 25.27800
H  3.33400 7.76100 26.62900
H  8.35900 3.36300 23.22000
H  8.61600 0.46300 23.72100
H  5.75200 2.13600 23.45700
H  6.78800 1.03300 22.52700
H  6.71000 2.74200 22.13500
H  11.08700 2.02100 24.08700
H  10.32000 2.45000 22.57400
H  10.12500 -0.32100 22.60000
H  11.79900 -0.01200 22.89400
H  10.94700 0.61600 21.39200
H  13.13900 -1.01100 27.98100
H  12.17500 -1.25700 26.53800
H  11.89900 -2.36900 27.82000
H  11.56400 1.35100 32.11000
H  11.03300 -0.33600 36.06700
H  9.70300 -1.20600 35.33100
H  9.42500 0.35500 36.00900

