158

Mg 41.68400 40.34500 26.12200
C  40.70100 42.60500 28.73300
C  42.51600 38.10200 28.49900
C  42.61900 38.24300 23.59200
C  40.97000 42.88700 23.82200
N  41.60900 40.41000 28.37700
C  41.07200 41.33400 29.21900
C  41.04700 40.85300 30.71300
C  41.83300 39.48500 30.55100
C  42.02000 39.33200 29.02400
C  43.14800 39.40500 31.38600
C  39.61300 40.72500 31.28800
C  39.41000 40.20600 32.73400
H  38.98000 41.03500 33.99500
N  42.51900 38.44100 26.09000
C  42.72300 37.61200 27.18500
C  43.22700 36.33400 26.76400
C  43.33800 36.34500 25.35800
C  42.81500 37.71800 24.90300
C  43.66800 35.22900 27.83100
C  43.82500 35.36000 24.30500
O  43.69800 35.40300 23.09000
C  44.49600 34.08100 24.82800
N  41.76800 40.58600 24.03000
C  42.09900 39.53800 23.25200
C  42.05400 39.89400 21.78500
C  41.30200 41.24900 21.79000
C  41.26400 41.61000 23.25500
C  43.44200 39.93700 20.95800
C  39.90200 41.15100 21.17500
C  38.92900 40.10400 21.84600
N  41.05500 42.33000 26.16600
C  40.81500 43.21600 25.14300
C  40.37000 44.49900 25.65900
C  40.34500 44.29300 27.02800
C  40.76200 42.96700 27.31200
C  40.06500 45.71800 24.88000
C  40.10500 44.88500 28.21400
O  39.89600 46.08500 28.43600
C  40.12700 43.80700 29.37100
C  41.02200 44.24000 30.53000
O  42.23100 44.46600 30.45900
O  40.30500 44.43000 31.61900
C  41.02500 44.98700 32.73900
H  42.72800 37.38600 29.29500
H  42.93900 37.56200 22.80100
H  40.77400 43.65400 23.07000
H  41.50400 41.54600 31.41900
H  41.19600 38.66700 30.88800
H  43.24600 40.30600 31.99100
H  43.94000 39.50200 30.64300
H  43.31800 38.47400 31.92700
H  39.11200 40.08200 30.56300
H  39.18800 41.72800 31.27300
H  40.31600 39.73700 33.11800
H  38.67300 39.41800 32.58200
H  43.70500 35.62400 28.84700
H  44.69300 34.93900 27.59800
H  43.02900 34.35800 27.68700
H  45.05600 33.59900 24.02700
H  43.62400 33.47400 25.07100
H  45.03900 34.21900 25.76300
H  41.50100 39.12500 21.24500
H  41.95100 42.00600 21.34900
H  43.73800 40.92600 20.60600
H  43.36300 39.35500 20.03900
H  44.11700 39.44600 21.65900
H  40.00300 40.84500 20.13300
H  39.48600 42.15500 21.09200
H  38.49900 39.54800 21.01300
H  38.03400 40.57600 22.25200
H  39.41300 39.42000 22.54300
H  40.80400 46.51700 24.82100
H  39.20900 46.13200 25.41100
H  39.80700 45.37700 23.87700
H  39.08600 43.68800 29.66900
H  41.48100 44.15100 33.27000
H  40.29900 45.50700 33.36400
H  41.83000 45.70300 32.58000
Mg -11.83900 37.84800 42.03400
C  -9.57800 35.51900 41.05100
C  -9.94800 40.27600 40.55100
C  -14.36300 39.96000 42.60500
C  -14.09900 35.22700 42.79000
N  -10.10400 37.83300 40.75500
C  -9.26800 36.79200 40.55400
C  -7.88800 37.19000 39.94900
C  -7.98200 38.74500 40.05600
C  -9.47500 38.97900 40.50700
C  -6.90600 39.35900 40.95700
C  -7.79000 36.57900 38.50700
C  -6.53800 35.80500 38.04800
H  -5.62000 36.44100 36.94600
N  -12.09400 39.87200 41.74400
C  -11.21200 40.66400 41.09100
C  -11.72800 42.03000 41.21300
C  -12.94700 42.02200 41.82800
C  -13.21400 40.61100 42.07100
C  -10.87100 43.15000 40.88800
C  -13.84800 43.21800 42.27100
O  -13.50000 44.34900 41.99000
C  -15.12700 43.01800 43.05100
N  -13.93600 37.58300 42.47100
C  -14.72400 38.63700 42.74000
C  -16.17900 38.26000 43.14000
C  -16.12800 36.69300 43.15000
C  -14.67900 36.50500 42.68100
C  -16.59300 38.86400 44.52500
C  -17.06400 36.12500 42.09200
C  -16.78200 36.52200 40.52800
N  -11.83000 35.78500 42.00000
C  -12.76100 34.84600 42.49900
C  -12.08100 33.57900 42.64800
C  -10.86100 33.71900 41.99600
C  -10.76800 35.10600 41.69500
C  -12.71000 32.30200 43.13300
C  -9.72600 33.09000 41.37400
O  -9.53800 31.90600 41.23700
C  -8.77300 34.29400 40.90700
C  -7.57300 34.24200 41.81600
O  -7.45900 35.00300 42.74400
O  -6.74200 33.27400 41.38600
C  -5.46800 33.05900 42.21900
H  -9.16000 40.98300 40.28300
H  -15.16400 40.63900 42.90200
H  -14.87100 34.58000 43.21100
H  -7.09400 36.77900 40.57300
H  -7.83000 39.13900 39.05100
H  -6.40900 38.63400 41.60200
H  -7.40700 40.02900 41.65500
H  -6.25300 39.96100 40.32600
H  -8.02800 37.40100 37.83300
H  -8.60800 35.86100 38.45300
H  -6.77000 34.77100 37.79200
H  -5.88400 35.73400 38.91700
H  -10.87600 43.15000 39.79800
H  -9.89200 42.98600 41.33800
H  -11.16400 44.10500 41.32500
H  -15.85700 42.51900 42.41500
H  -15.63100 43.90800 43.42800
H  -14.84700 42.47900 43.95700
H  -16.88200 38.72000 42.44600
H  -16.36400 36.29700 44.13800
H  -15.85700 39.43000 45.09500
H  -16.79200 38.04000 45.21000
H  -17.46700 39.50600 44.41100
H  -18.09600 36.35100 42.36200
H  -16.91800 35.04700 42.17100
H  -16.11000 37.37600 40.44900
H  -17.73900 36.66300 40.02600
H  -16.31900 35.72800 39.94200
H  -12.56200 31.59500 42.31800
H  -13.77700 32.37400 43.34400
H  -12.03200 32.00200 43.93200
H  -8.48100 34.20700 39.86000
H  -5.55300 32.09500 42.72000
H  -5.22400 33.82200 42.95800
H  -4.63100 32.91600 41.53600

