158

Mg 6.46200 54.06300 41.50100
C  5.94400 50.53600 41.16400
C  9.71500 53.43800 40.40300
C  6.93300 57.42100 41.12700
C  3.24100 54.45800 42.37600
N  7.66400 52.15600 40.84000
C  7.24500 50.86000 40.70700
C  8.35500 49.99200 40.21700
C  9.58700 50.84300 40.53100
C  8.98300 52.28100 40.57300
C  10.39300 50.66800 41.83000
C  8.34600 49.56000 38.73600
C  7.81500 50.56100 37.73300
H  6.81600 50.10900 36.63000
N  8.08500 55.25400 40.80400
C  9.31300 54.78000 40.45100
C  10.16900 55.94800 40.27600
C  9.45300 57.15100 40.53000
C  8.05700 56.64600 40.74000
C  11.73800 55.88100 40.06100
C  9.92300 58.54400 40.41800
O  11.14300 58.68300 40.21500
C  9.01600 59.66900 40.50000
N  5.26700 55.71900 41.62000
C  5.65800 56.97200 41.54900
C  4.59500 57.95800 41.99800
C  3.41000 56.98000 42.26400
C  3.99800 55.60000 42.10900
C  5.07800 58.91100 43.14300
C  2.05500 57.18600 41.45500
C  2.05800 56.45900 40.04500
N  4.87400 52.75900 41.71500
C  3.57100 53.09000 42.10600
C  2.78100 51.93900 42.31900
C  3.68400 50.86200 41.94000
C  4.93100 51.43700 41.58800
C  1.45800 51.76900 42.92800
C  3.79800 49.40900 41.83600
O  3.00800 48.55600 42.12400
C  5.29000 49.19100 41.43200
C  5.37200 48.40400 40.15900
O  5.12500 48.84300 39.03600
O  5.72800 47.15300 40.51900
C  5.61900 46.15500 39.39400
H  10.79400 53.35300 40.26000
H  6.99600 58.51100 41.08800
H  2.22200 54.67500 42.70400
H  8.33800 49.03400 40.73600
H  10.35300 50.78400 39.75800
H  9.87700 50.00100 42.52000
H  10.53000 51.63800 42.30800
H  11.39000 50.25000 41.68700
H  7.88200 48.57600 38.80300
H  9.41500 49.47300 38.53900
H  8.71100 50.86100 37.18900
H  7.44000 51.46700 38.20900
H  12.00500 56.41000 39.14700
H  12.17000 54.89700 39.87600
H  12.14600 56.21100 41.01600
H  9.49200 60.59200 40.16800
H  8.73300 59.87700 41.53200
H  8.16600 59.46500 39.84900
H  4.37500 58.64000 41.17600
H  3.23800 57.07100 43.33600
H  5.99700 58.53600 43.59300
H  4.19800 59.02000 43.77700
H  5.36400 59.88900 42.75700
H  1.94900 58.25500 41.27000
H  1.12100 56.97900 41.97800
H  2.29600 57.09300 39.19000
H  1.06100 56.08600 39.81400
H  2.66100 55.55200 39.99300
H  1.51800 51.44100 43.96500
H  0.80500 51.04100 42.44700
H  0.84300 52.66600 42.85000
H  5.90100 48.65600 42.15900
H  5.86300 45.16400 39.77800
H  6.29700 46.38200 38.57100
H  4.59200 46.11300 39.03200
Mg 0.57600 44.36300 26.32000
C  2.83400 44.27100 29.06300
C  -1.94900 43.70400 28.68700
C  -1.44500 43.80000 23.84000
C  3.35700 44.55100 24.21000
N  0.50000 44.01200 28.69200
C  1.52000 44.20500 29.56300
C  1.05500 44.05500 30.96100
C  -0.43900 43.57700 30.79200
C  -0.70800 43.78300 29.30300
C  -0.63400 42.07800 31.30400
C  1.23100 45.43300 31.72700
C  1.60400 45.41800 33.24300
H  1.06000 44.23000 34.04400
N  -1.48500 44.08800 26.23700
C  -2.32200 43.77100 27.34500
C  -3.63600 43.89200 26.88300
C  -3.60800 43.74900 25.41800
C  -2.16800 43.87600 25.11100
C  -4.86400 44.12000 27.82300
C  -4.75400 43.60000 24.42700
O  -4.59100 43.50300 23.25200
C  -6.18100 43.50700 25.03300
N  0.94900 43.96600 24.33500
C  -0.06500 43.86900 23.51500
C  0.47500 43.90500 22.05100
C  1.79700 44.68600 22.19200
C  2.07900 44.39000 23.67900
C  0.51400 42.51600 21.38600
C  1.70500 46.16300 21.91400
C  2.40000 46.60900 20.60000
N  2.63600 44.38700 26.50800
C  3.66300 44.49400 25.57200
C  4.94800 44.63800 26.16000
C  4.63900 44.48800 27.52800
C  3.24600 44.35800 27.70800
C  6.26300 44.67300 25.47200
C  5.29500 44.48600 28.81000
O  6.47200 44.51400 29.09300
C  4.14000 44.25300 29.85000
C  4.33900 43.01400 30.70800
O  4.47800 41.90200 30.22200
O  4.22000 43.28200 32.02000
C  4.32900 42.14300 32.98600
H  -2.65600 43.39900 29.46100
H  -2.10200 43.74100 22.97000
H  4.17400 44.92700 23.59100
H  1.54600 43.24100 31.49600
H  -1.16100 44.09900 31.42000
H  0.26900 41.47500 31.40400
H  -1.22600 41.50900 30.58700
H  -1.21400 42.22700 32.21500
H  0.32000 46.00000 31.53400
H  1.94300 45.99500 31.12300
H  1.12700 46.33300 33.59300
H  2.68300 45.55000 33.32600
H  -5.47900 43.22900 27.95500
H  -5.49300 44.89400 27.38500
H  -4.61200 44.60500 28.76700
H  -6.24100 42.93600 25.96000
H  -6.73500 42.82100 24.39200
H  -6.68700 44.47200 25.04700
H  -0.26600 44.47500 21.48900
H  2.52800 44.15600 21.58200
H  -0.11500 41.81400 21.93300
H  1.47900 42.02200 21.49500
H  0.23800 42.66200 20.34100
H  2.06100 46.74600 22.76300
H  0.72400 46.58300 21.69300
H  3.15800 47.35800 20.83100
H  1.69900 47.16900 19.98100
H  2.98600 45.88800 20.03100
H  6.13600 45.52100 24.79900
H  6.55200 43.73600 24.99600
H  7.01500 44.96500 26.20500
H  4.05100 45.10600 30.52300
H  5.25300 41.59000 32.81600
H  3.48900 41.46300 32.83800
H  4.41200 42.54900 33.99300

