158

Mg 30.55100 58.69600 41.03200
C  27.78800 56.89700 39.93600
C  32.55600 56.28800 39.65300
C  33.08500 60.99600 41.01800
C  28.31300 61.40500 41.77700
N  30.12000 56.88400 39.81100
C  28.96600 56.23500 39.65300
C  29.11200 54.76500 39.27700
C  30.64600 54.58400 39.34500
C  31.16700 55.98200 39.67400
C  31.17400 53.39700 40.17900
C  28.40300 54.26700 38.03300
C  28.20200 55.22000 36.80900
H  28.36100 54.82800 35.37800
N  32.53300 58.61900 40.55400
C  33.15300 57.56000 39.92700
C  34.57800 57.88400 39.83100
C  34.78100 59.20800 40.15200
C  33.46400 59.66500 40.59600
C  35.64000 56.94800 39.27800
C  36.13000 59.92400 40.08900
O  37.07600 59.38900 39.49600
C  36.40400 61.29700 40.65200
N  30.61000 60.81000 41.59400
C  31.81700 61.49200 41.52800
C  31.71600 62.98000 41.88000
C  30.18500 63.10400 42.21200
C  29.65700 61.74400 41.81500
C  32.65600 63.39900 43.03300
C  29.35700 64.29000 41.68100
C  29.08600 65.49200 42.69300
N  28.43000 59.06500 41.08200
C  27.64800 60.18500 41.37200
C  26.26800 59.91600 41.15100
C  26.32400 58.61300 40.59400
C  27.62300 58.16900 40.48000
C  25.18600 60.90800 41.35800
C  25.43500 57.54900 40.07600
O  24.23200 57.56700 39.92900
C  26.39200 56.36700 39.76300
C  26.10000 55.32100 40.78100
O  26.58800 55.16800 41.87600
O  25.14800 54.43700 40.26300
C  24.70500 53.22900 41.05300
H  33.24600 55.53600 39.26400
H  33.74900 61.85300 40.89000
H  27.59100 62.21400 41.90600
H  28.68100 54.33100 40.17900
H  31.07300 54.44700 38.35200
H  31.92200 53.72900 40.89800
H  31.55000 52.69100 39.43800
H  30.44700 52.89100 40.81400
H  27.43700 53.88700 38.36500
H  29.00700 53.48100 37.58000
H  28.92800 56.02200 36.94200
H  27.18000 55.57900 36.92600
H  35.68000 57.22400 38.22500
H  35.33700 55.90600 39.38800
H  36.57600 57.08800 39.81800
H  35.92900 61.54600 41.60200
H  36.14200 62.01600 39.87500
H  37.47900 61.36700 40.81400
H  31.80000 63.54000 40.94900
H  30.15700 63.07300 43.30200
H  33.16300 62.52200 43.43600
H  32.19000 63.90200 43.88000
H  33.32700 64.17300 42.66200
H  28.47400 63.91300 41.16500
H  29.93000 64.61200 40.81100
H  29.32000 65.24700 43.72900
H  28.00600 65.63800 42.66200
H  29.56600 66.40300 42.33600
H  25.40500 61.47400 42.26300
H  24.30600 60.29300 41.54800
H  25.04600 61.45500 40.42600
H  26.09600 56.08700 38.75100
H  24.26900 53.60500 41.97900
H  25.51900 52.57500 41.36600
H  24.00200 52.68100 40.42600
Mg 6.52800 53.84500 41.98100
C  5.98200 50.39800 41.86600
C  9.78900 53.27800 41.21000
C  6.94700 57.03900 41.74000
C  3.07600 54.31100 42.42700
N  7.67100 51.99300 41.46300
C  7.28200 50.70900 41.42600
C  8.45400 49.70700 41.13300
C  9.71300 50.68100 41.28000
C  9.02800 52.08300 41.41300
C  10.69000 50.40400 42.48700
C  8.39900 49.03800 39.70200
C  8.45200 50.04200 38.52100
H  7.68700 49.56000 37.25800
N  8.13500 54.99600 41.54400
C  9.41000 54.60100 41.21700
C  10.21700 55.71900 40.96500
C  9.36100 56.88900 41.20500
C  8.08800 56.35300 41.56100
C  11.67100 55.67500 40.60100
C  9.91300 58.25000 40.90900
O  10.95200 58.56500 40.40500
C  8.96900 59.44900 41.04500
N  5.17100 55.45700 41.90800
C  5.64300 56.69200 42.00700
C  4.58500 57.64400 42.30000
C  3.25200 56.82800 42.35700
C  3.81300 55.40100 42.25100
C  4.82800 58.65400 43.42000
C  2.14600 57.09800 41.28700
C  0.69200 57.15200 41.72700
N  4.86800 52.64800 42.31800
C  3.52800 52.96400 42.44500
C  2.76500 51.71900 42.71400
C  3.70900 50.76800 42.48200
C  4.94900 51.35400 42.10500
C  1.32400 51.54100 43.09500
C  3.90800 49.29500 42.43200
O  3.11200 48.40200 42.70300
C  5.38100 49.00400 42.01200
C  5.36700 48.23000 40.79500
O  4.83500 48.67200 39.75400
O  5.97600 47.06800 41.04700
C  5.94300 46.15900 39.84100
H  10.84800 53.12700 40.99000
H  7.06500 58.11500 41.59400
H  2.01700 54.54700 42.54700
H  8.49100 48.95500 41.92100
H  10.30600 50.64500 40.36600
H  10.38300 50.82000 43.44700
H  11.63300 50.86600 42.19400
H  10.73900 49.34600 42.74500
H  7.64700 48.25000 39.68600
H  9.28900 48.43000 39.53400
H  9.49300 50.03300 38.19800
H  8.14400 51.06300 38.74800
H  11.79900 55.79700 39.52500
H  12.03700 54.67200 40.81900
H  12.24000 56.38600 41.20100
H  8.09000 59.26900 40.42500
H  9.51600 60.32500 40.69500
H  8.68200 59.57000 42.08900
H  4.52400 58.25800 41.40200
H  2.90000 56.96700 43.37900
H  4.25600 58.40500 44.31300
H  4.65800 59.67500 43.08000
H  5.86900 58.74500 43.72900
H  2.04800 56.34800 40.50100
H  2.43100 57.97700 40.70900
H  0.30700 58.16600 41.83000
H  0.56600 56.66900 42.69600
H  0.05500 56.71100 40.96000
H  1.27000 51.21900 44.13500
H  0.80300 50.79900 42.48900
H  0.88900 52.53600 43.00100
H  5.90900 48.39700 42.74800
H  6.59200 45.30000 40.01100
H  6.31200 46.71800 38.98100
H  4.91200 45.82400 39.72900

