158

Mg 48.17600 34.31400 26.58100
C  46.31300 32.90100 29.09700
C  48.77400 37.13800 28.56200
C  49.32900 35.94700 23.92900
C  47.31000 31.63400 24.50800
N  47.62600 34.87400 28.52500
C  47.00700 34.07600 29.44900
C  47.22700 34.63600 30.91100
C  47.56900 36.14600 30.65000
C  47.98300 36.05400 29.14200
C  46.43800 37.20100 30.84800
C  48.32400 33.81400 31.57700
C  48.21500 33.82200 33.11300
H  47.04200 34.38400 33.95800
N  48.94600 36.26800 26.34000
C  49.15600 37.22000 27.20200
C  49.95200 38.26900 26.65900
C  50.12800 37.98100 25.29700
C  49.44200 36.67700 25.13000
C  50.31700 39.41200 27.48300
C  50.81200 38.78000 24.22600
O  50.93300 38.41700 23.06100
C  51.50200 40.05200 24.60100
N  48.15700 33.98900 24.44900
C  48.81200 34.71900 23.53300
C  48.97500 34.04500 22.17900
C  48.67400 32.52900 22.53400
C  48.01400 32.69500 23.91200
C  48.17300 34.59000 20.93700
C  49.89500 31.57900 22.50600
C  50.14400 30.78000 21.20400
N  47.08700 32.63100 26.73600
C  46.73400 31.67500 25.74500
C  45.89900 30.69300 26.38900
C  45.66200 31.18200 27.68000
C  46.39600 32.36700 27.76300
C  45.22100 29.55500 25.80000
C  44.95500 30.87400 28.87900
O  44.15000 29.95000 29.18400
C  45.26600 32.07000 29.87000
C  45.84000 31.36000 31.05100
O  46.87300 30.68700 31.04400
O  44.96600 31.41600 32.12400
C  45.31300 30.73400 33.37800
H  49.01200 37.82100 29.37900
H  49.77900 36.47600 23.08700
H  47.18000 30.77300 23.84900
H  46.26400 34.60900 31.42200
H  48.36100 36.41100 31.35000
H  45.65600 36.98200 31.57600
H  45.86000 37.26200 29.92600
H  46.92500 38.15200 31.06300
H  49.33200 34.22200 31.50600
H  48.45900 32.78100 31.25500
H  49.04900 34.30700 33.62000
H  48.12800 32.79800 33.47600
H  49.85000 40.22200 26.92300
H  51.37100 39.60800 27.29100
H  50.06800 39.42700 28.54400
H  51.96300 40.60800 23.78500
H  52.27500 39.92000 25.35800
H  50.71300 40.73500 24.91500
H  50.01200 34.15800 21.86300
H  47.87400 32.16300 21.89000
H  47.12300 34.75800 21.17700
H  48.20200 33.86900 20.12100
H  48.72600 35.48200 20.64400
H  49.73200 30.91000 23.35100
H  50.72800 32.25800 22.68700
H  50.30300 31.41900 20.33600
H  49.30100 30.11100 21.03100
H  51.08300 30.28800 21.45700
H  45.90500 28.73800 26.02900
H  45.09100 29.63100 24.72100
H  44.23800 29.43200 26.25700
H  44.33100 32.61400 30.01000
H  46.30500 30.99400 33.74700
H  45.23400 29.65000 33.29500
H  44.50400 30.93500 34.08000
Mg 26.31200 49.85600 27.09200
C  24.22800 51.39400 29.42000
C  28.43000 49.15800 29.65000
C  28.46500 48.74500 24.76100
C  24.16500 51.05600 24.49400
N  26.28300 50.19900 29.25200
C  25.30000 50.71300 30.00600
C  25.57800 50.53500 31.49200
C  27.08600 50.24000 31.49700
C  27.21700 49.76900 30.08800
C  28.04500 51.39000 31.97100
C  24.64400 49.44800 32.21700
C  23.92400 49.89800 33.50000
H  24.64900 50.48300 34.68400
N  28.15000 49.03500 27.20800
C  28.85900 48.75500 28.36000
C  30.13000 48.17000 28.04300
C  30.19200 48.08400 26.61400
C  28.86300 48.59600 26.10000
C  31.02100 47.68700 29.20800
C  31.33300 47.63900 25.70200
O  31.10300 47.50600 24.49500
C  32.73700 47.39200 26.16800
N  26.45200 50.10900 24.84800
C  27.36300 49.47200 24.17600
C  27.06100 49.54800 22.64300
C  25.55200 49.91400 22.65900
C  25.30700 50.34100 24.06800
C  28.00600 50.54600 21.92500
C  24.61100 48.74200 22.19100
C  24.77400 47.33100 22.97400
N  24.55400 51.08400 26.92300
C  23.78200 51.48800 25.81500
C  22.64100 52.31900 26.26900
C  22.74400 52.20200 27.66100
C  23.91200 51.47400 28.01300
C  21.48700 52.90500 25.41500
C  22.13900 52.67000 28.94600
O  21.21100 53.44200 29.20900
C  23.02400 52.07800 30.12100
C  23.38300 53.26900 31.08800
O  23.94100 54.25500 30.78800
O  22.80900 52.98300 32.35900
C  23.01200 54.13800 33.27500
H  29.14800 48.90700 30.43400
H  29.05700 48.17700 24.04000
H  23.53300 51.35900 23.65700
H  25.38600 51.51400 31.93200
H  27.26100 49.37200 32.13200
H  28.92500 50.99400 32.47800
H  27.46700 52.01600 32.65100
H  28.42700 51.93900 31.11100
H  25.31600 48.65000 32.53000
H  23.99200 49.07000 31.42900
H  23.46200 48.97500 33.84900
H  23.10400 50.56700 33.23700
H  30.50000 47.22400 30.04700
H  31.35000 48.61600 29.67500
H  31.78500 47.05700 28.75300
H  33.45800 47.57600 25.37200
H  32.84700 46.31300 26.28100
H  32.93200 47.92000 27.10200
H  27.16000 48.56300 22.18600
H  25.49000 50.68000 21.88500
H  27.43700 51.41300 21.58700
H  28.55100 50.03700 21.13000
H  28.77300 50.94400 22.58900
H  24.85800 48.64800 21.13400
H  23.56600 48.99400 22.37400
H  25.00100 46.52800 22.27300
H  23.84300 47.21500 23.52800
H  25.57600 47.43900 23.70400
H  21.07900 52.14900 24.74400
H  21.95400 53.66500 24.78900
H  20.66200 53.39200 25.93500
H  22.35500 51.41900 30.67600
H  22.96000 55.08600 32.74000
H  24.05800 54.23100 33.56900
H  22.34800 54.01500 34.13100

