158

Mg 47.46300 15.84800 27.78100
C  45.41800 16.13800 30.67500
C  49.78800 17.74300 29.45200
C  49.04500 16.03300 24.94200
C  44.63500 14.55400 26.13100
N  47.55400 16.87400 29.77900
C  46.73100 16.68200 30.82300
C  47.33700 17.26600 32.14200
C  48.54400 18.02800 31.60900
C  48.66500 17.56900 30.20900
C  48.57900 19.55300 31.89500
C  47.64100 16.24500 33.18100
C  47.34800 16.58100 34.61700
H  46.90400 18.02500 34.87100
N  49.28200 16.51800 27.34600
C  50.14900 17.27000 28.15100
C  51.37800 17.40100 27.45100
C  51.22300 16.90600 26.07900
C  49.82500 16.42400 26.06300
C  52.65400 17.96100 27.96200
C  52.20300 16.73100 24.89200
O  51.83100 16.20700 23.81900
C  53.52600 17.40600 24.85900
N  47.01300 15.11200 25.77200
C  47.82800 15.42700 24.79200
C  47.08900 15.27600 23.43200
C  45.84000 14.39600 23.80400
C  45.74800 14.69900 25.34600
C  46.52000 16.71800 22.89600
C  46.10100 12.89100 23.61600
C  45.17600 12.18200 22.56900
N  45.42300 15.35900 28.23800
C  44.44500 14.85600 27.45400
C  43.24200 14.62800 28.24300
C  43.62000 15.01600 29.53600
C  44.89900 15.56300 29.44900
C  41.97400 14.08200 27.70900
C  43.18100 15.10700 30.86900
O  42.23100 14.60600 31.47200
C  44.25700 15.91600 31.68700
C  43.67400 17.14600 32.19700
O  43.67300 18.27600 31.63000
O  43.19900 16.91700 33.44400
C  42.60900 18.06600 34.03600
H  50.57000 18.31600 29.95500
H  49.56900 16.09400 23.98600
H  43.93900 14.02400 25.47600
H  46.59900 17.96000 32.54600
H  49.46500 17.73000 32.11000
H  49.27100 19.68200 32.72700
H  47.60600 19.83700 32.29700
H  48.88700 20.10100 31.00600
H  48.67100 15.92500 33.02500
H  47.00100 15.40300 32.92100
H  48.11900 16.32400 35.34300
H  46.42100 16.05400 34.84300
H  53.47400 17.26600 27.77900
H  52.50200 18.00000 29.04100
H  52.79800 18.98600 27.62200
H  54.25500 16.91600 25.50500
H  53.39200 18.48500 24.92800
H  53.95500 17.30300 23.86300
H  47.77400 14.83100 22.71000
H  44.95900 14.70500 23.24000
H  46.87400 17.51700 23.54700
H  45.43600 16.79100 22.98500
H  46.85500 16.98400 21.89400
H  45.94000 12.36400 24.55700
H  47.11500 12.80700 23.22500
H  44.46300 12.88900 22.14500
H  44.71900 11.36500 23.12700
H  45.60800 11.75500 21.66400
H  41.83700 13.04600 28.01800
H  41.95800 14.05800 26.61900
H  41.21200 14.70200 28.18100
H  44.65700 15.34200 32.52300
H  41.57100 18.09700 33.70800
H  43.07700 19.01200 33.76400
H  42.59100 18.02700 35.12500
Mg -10.33000 16.82500 40.98700
C  -6.77900 16.64100 41.09300
C  -9.95300 20.36100 40.58800
C  -13.50800 17.11000 40.11200
C  -10.33200 13.23300 40.79900
N  -8.61300 18.27500 40.98000
C  -7.29300 17.91700 40.88700
C  -6.41300 19.15200 40.55900
C  -7.39300 20.32300 40.96300
C  -8.74700 19.59200 40.77800
C  -7.10100 20.94700 42.33900
C  -6.02100 19.11100 39.02400
C  -4.63900 18.69300 38.57200
H  -4.40700 17.47000 37.74700
N  -11.61800 18.56200 40.43900
C  -11.25500 19.89200 40.40700
C  -12.42100 20.65100 40.07400
C  -13.53100 19.78600 39.95300
C  -12.92600 18.42700 40.17300
C  -12.36400 22.12300 39.93500
C  -14.98100 20.13000 39.59200
O  -15.36100 21.31400 39.57900
C  -15.97200 19.06500 39.21400
N  -11.75700 15.38200 40.48700
C  -13.02600 15.77600 40.28700
C  -13.99300 14.53700 40.27700
C  -12.91900 13.32200 40.26200
C  -11.58400 13.94600 40.53000
C  -15.03500 14.53000 41.36500
C  -12.79900 12.70500 38.80800
C  -13.90200 11.74000 38.41900
N  -8.93300 15.26300 41.16200
C  -9.06000 13.90100 41.12000
C  -7.74700 13.25100 41.24300
C  -6.87200 14.30300 41.21600
C  -7.58800 15.50800 41.17200
C  -7.43400 11.77400 41.28300
C  -5.46900 14.61400 41.11600
O  -4.51400 13.88400 40.98300
C  -5.34000 16.15400 41.17500
C  -4.82000 16.54100 42.53000
O  -5.33900 16.33200 43.62400
O  -3.54400 17.06600 42.29600
C  -2.62500 17.29100 43.41600
H  -9.87800 21.42600 40.35800
H  -14.57000 17.19000 39.87100
H  -10.43600 12.15300 40.92900
H  -5.46300 19.13500 41.09400
H  -7.29600 21.14000 40.24800
H  -7.73200 20.39800 43.03700
H  -7.36400 21.99600 42.47200
H  -6.03600 20.80900 42.52700
H  -6.18000 20.11300 38.62500
H  -6.69000 18.41200 38.52200
H  -3.95700 18.65400 39.42100
H  -4.24400 19.49500 37.94900
H  -13.31900 22.64700 39.93700
H  -11.96300 22.40300 38.96100
H  -11.76000 22.60300 40.70500
H  -15.41000 18.35600 38.60700
H  -16.93300 19.39100 38.81700
H  -16.22900 18.66300 40.19400
H  -14.46500 14.63100 39.29900
H  -13.28700 12.54800 40.93500
H  -15.06100 15.42400 41.98700
H  -14.89200 13.72900 42.09000
H  -16.07400 14.31100 41.11800
H  -11.86600 12.19000 38.57600
H  -12.95700 13.45300 38.03100
H  -13.41700 10.92500 37.88200
H  -14.65200 12.17700 37.75900
H  -14.35700 11.33500 39.32200
H  -6.65600 11.64200 42.03500
H  -6.97200 11.58400 40.31400
H  -8.45500 11.41800 41.41700
H  -4.72000 16.59200 40.39300
H  -1.97100 16.45300 43.65700
H  -3.10700 17.75300 44.27800
H  -2.07100 18.17900 43.11300

