158

Mg 1.97900 -2.07300 44.59300
C  5.35600 -1.02500 44.10000
C  1.02900 0.55000 42.62400
C  -1.19800 -3.27300 44.68100
C  3.25300 -5.10000 45.90400
N  3.18300 -0.37300 43.45700
C  4.50800 -0.14700 43.48000
C  4.78500 1.15800 42.80000
C  3.34900 1.63900 42.28500
C  2.44800 0.56300 42.81100
C  2.97900 2.99800 42.84200
C  5.93000 1.07700 41.68300
C  6.05700 -0.13900 40.80800
H  6.95500 0.02300 39.61600
N  0.20900 -1.46500 43.79100
C  0.04100 -0.36500 42.95200
C  -1.38500 -0.14900 42.70600
C  -2.11900 -1.20100 43.37000
C  -1.03000 -2.00600 44.02900
C  -1.84400 1.11700 41.90900
C  -3.63900 -1.34200 43.41000
O  -4.43600 -0.54400 42.86300
C  -4.29300 -2.59100 43.89700
N  1.21000 -4.02000 44.96300
C  -0.14600 -4.15300 45.12800
C  -0.38700 -5.43300 45.95200
C  0.95300 -6.20100 45.97800
C  1.86700 -5.06200 45.60400
C  -1.01200 -5.16800 47.37200
C  1.17400 -7.45300 45.13000
C  1.64800 -8.67500 45.81200
N  3.90100 -2.95800 44.91700
C  4.26100 -4.20400 45.42800
C  5.73400 -4.24900 45.53600
C  6.15800 -3.04500 44.99700
C  5.04100 -2.26000 44.60700
C  6.64600 -5.27800 46.18300
C  7.35200 -2.21300 44.81000
O  8.50500 -2.50100 45.06700
C  6.87100 -0.85500 44.27300
C  7.16700 0.20500 45.26400
O  6.81900 0.26200 46.45300
O  7.95800 1.19300 44.67700
C  8.34600 2.33400 45.44900
H  0.74600 1.47700 42.12200
H  -2.21200 -3.59100 44.93000
H  3.52400 -6.02900 46.41100
H  5.13500 1.88900 43.52900
H  3.30400 1.68900 41.19700
H  2.28000 2.82700 43.66200
H  2.45200 3.57800 42.08400
H  3.81300 3.59300 43.21500
H  6.87900 1.22100 42.19900
H  5.79100 1.92400 41.01200
H  5.01400 -0.27200 40.52100
H  6.37600 -1.03800 41.33400
H  -1.55300 1.10900 40.85800
H  -1.28200 1.97700 42.27400
H  -2.90700 1.35300 41.95500
H  -3.94900 -3.56000 43.53400
H  -5.37300 -2.66700 43.76600
H  -4.19900 -2.39200 44.96400
H  -1.07400 -5.99400 45.31800
H  1.09500 -6.41800 47.03700
H  -0.77700 -5.99300 48.04500
H  -2.09300 -5.08800 47.25800
H  -0.59400 -4.24300 47.76700
H  2.06000 -7.23400 44.53400
H  0.26800 -7.61300 44.54500
H  1.56600 -8.70800 46.89800
H  2.70400 -8.86300 45.61300
H  1.06200 -9.49700 45.40300
H  6.67500 -6.24700 45.68400
H  6.62300 -5.31300 47.27200
H  7.61400 -4.94100 45.81200
H  7.48900 -0.67100 43.39400
H  9.41700 2.33900 45.65500
H  7.82500 2.50300 46.39100
H  8.04400 3.21300 44.88000
Mg 1.39600 42.11900 25.72100
C  2.92900 42.38900 28.91800
C  -1.30800 40.64700 27.24000
C  0.10800 41.88200 22.80300
C  4.48000 43.23800 24.41300
N  0.86900 41.46700 27.93300
C  1.55800 41.96100 28.99200
C  0.69800 41.67600 30.27400
C  -0.59100 40.99000 29.77700
C  -0.35100 40.99800 28.24800
C  -0.98600 39.70600 30.51100
C  0.51000 42.97000 31.07800
C  0.82300 42.88800 32.60400
H  0.69100 41.53800 33.29100
N  -0.18200 41.15400 25.08200
C  -1.20300 40.66800 25.81400
C  -2.29700 40.26000 24.97000
C  -1.98700 40.76600 23.68200
C  -0.64000 41.29700 23.79900
C  -3.57200 39.59500 25.39600
C  -2.89600 40.83000 22.44900
O  -2.47600 41.32100 21.38100
C  -4.29000 40.49300 22.45000
N  2.25500 42.48000 23.92200
C  1.47600 42.28200 22.78500
C  2.13900 42.84300 21.54500
C  3.43100 43.47700 22.09400
C  3.40200 43.08300 23.54300
C  2.35000 41.87000 20.36400
C  3.48400 45.06500 22.02900
C  4.15600 45.54500 20.76100
N  3.31100 42.70900 26.45800
C  4.45100 43.11100 25.80300
C  5.48800 43.32800 26.76300
C  4.96000 43.00400 27.94200
C  3.63500 42.62700 27.74500
C  7.02400 43.78400 26.55500
C  5.30300 43.01600 29.32600
O  6.28000 43.32500 29.92300
C  3.92900 42.63600 30.13600
C  4.29800 41.41900 30.93000
O  4.37800 40.31600 30.44900
O  4.33500 41.73700 32.24900
C  4.44000 40.60100 33.17400
H  -2.20300 40.31200 27.76700
H  -0.31200 42.04800 21.80900
H  5.41400 43.62800 24.00300
H  1.33000 40.95000 30.78600
H  -1.44900 41.64100 29.94600
H  -1.04600 38.89300 29.78700
H  -1.96600 39.76900 30.98300
H  -0.29600 39.53500 31.33800
H  -0.54400 43.24800 31.06700
H  1.17900 43.74700 30.70800
H  0.01600 43.56100 32.89500
H  1.74500 43.40800 32.86400
H  -4.40900 40.29200 25.35400
H  -3.40700 39.20300 26.40000
H  -3.70200 38.73800 24.73500
H  -4.52100 39.52700 22.90000
H  -4.62800 40.44100 21.41500
H  -4.90300 41.18100 23.03200
H  1.50700 43.67900 21.24600
H  4.33600 43.14600 21.58500
H  1.37700 41.75000 19.88800
H  2.62700 40.87200 20.70400
H  2.96100 42.24700 19.54400
H  3.85300 45.38100 23.00500
H  2.42700 45.33100 22.00400
H  4.42000 44.68400 20.14800
H  5.08500 46.09800 20.90300
H  3.44600 46.20100 20.25700
H  7.58100 42.90000 26.86600
H  7.22700 44.49500 27.35600
H  7.27200 44.14100 25.55500
H  3.64100 43.40200 30.85600
H  5.49800 40.40700 33.34900
H  4.06600 39.70100 32.68600
H  3.85400 40.76000 34.07900

