158

Mg 24.36300 -5.36300 46.68100
C  26.72900 -3.40300 44.87900
C  22.01900 -4.29100 44.36800
C  22.43000 -7.95400 47.57100
C  27.14100 -6.68400 48.43200
N  24.35500 -4.02800 44.87100
C  25.42700 -3.36800 44.36300
C  25.06800 -2.52600 43.07500
C  23.45500 -2.62700 43.08400
C  23.25700 -3.71800 44.14900
C  22.77700 -1.31500 43.38400
C  25.58900 -3.21600 41.77900
C  26.61600 -2.54000 40.93000
H  26.21900 -2.11700 39.50400
N  22.38100 -5.87700 46.27800
C  21.60500 -5.23500 45.27900
C  20.36300 -5.96400 45.25400
C  20.44200 -7.13800 46.07000
C  21.73800 -7.02300 46.70600
C  19.21200 -5.53100 44.42800
C  19.35000 -8.19200 46.22000
O  18.24400 -8.03500 45.69800
C  19.57400 -9.33100 47.04500
N  24.75800 -7.11200 47.74600
C  23.74700 -7.98300 48.10600
C  24.36400 -9.19900 48.88900
C  25.78100 -8.71000 49.22300
C  25.88800 -7.45300 48.39700
C  23.54100 -9.77800 50.09600
C  26.88500 -9.82300 49.01100
C  27.36400 -10.54100 50.28200
N  26.47700 -4.92600 46.91000
C  27.43700 -5.53900 47.63600
C  28.68700 -4.88400 47.46200
C  28.45400 -4.08000 46.30700
C  27.12000 -4.12200 46.06300
C  29.95100 -5.13200 48.23400
C  29.13700 -3.13800 45.39500
O  30.28800 -2.76600 45.41600
C  27.97900 -2.57300 44.38800
C  27.91600 -1.09700 44.58400
O  27.05800 -0.47300 45.24100
O  28.83400 -0.42100 43.81300
C  28.79400 0.99400 43.71700
H  21.24400 -4.01900 43.64900
H  21.85300 -8.84300 47.83200
H  27.74800 -7.22000 49.16400
H  25.33000 -1.46900 43.04300
H  23.05000 -3.02200 42.15200
H  22.59100 -1.43700 44.45100
H  21.85500 -1.34300 42.80200
H  23.43800 -0.45900 43.25400
H  24.71900 -3.42700 41.15800
H  26.09900 -4.15100 42.01200
H  27.49600 -3.18400 40.92400
H  26.91200 -1.56100 41.30900
H  18.50900 -4.98000 45.05200
H  18.55000 -6.35600 44.16400
H  19.46200 -4.93100 43.55300
H  18.71900 -9.98800 47.20400
H  19.84800 -8.92800 48.02000
H  20.39300 -9.94200 46.66600
H  24.27100 -9.97100 48.12400
H  25.79200 -8.32200 50.24200
H  22.63900 -9.19100 50.26600
H  24.14400 -9.71000 51.00100
H  23.37200 -10.82400 49.84000
H  27.77600 -9.28400 48.69300
H  26.64600 -10.57200 48.25600
H  27.37600 -11.62000 50.12400
H  26.79500 -10.28800 51.17700
H  28.34100 -10.18300 50.60700
H  30.69300 -5.86900 47.92500
H  29.48600 -5.39100 49.18500
H  30.41600 -4.15600 48.37600
H  28.10100 -2.77700 43.32400
H  28.85900 1.08700 42.63300
H  29.62300 1.42200 44.28000
H  27.90600 1.51000 44.08300
Mg 29.82600 57.09400 40.99300
C  27.26300 55.12700 39.45200
C  32.15200 54.65800 39.49400
C  32.35800 59.09000 41.66400
C  27.45700 59.53100 41.40700
N  29.64000 55.14000 39.54100
C  28.51600 54.52800 39.18900
C  28.81700 53.17800 38.43100
C  30.42100 53.04300 38.53300
C  30.80100 54.35100 39.24700
C  31.03700 51.82300 39.23000
C  28.27900 53.09100 36.96200
C  28.67800 54.20900 36.00900
H  27.58100 54.94600 35.22400
N  31.87100 56.80900 40.76800
C  32.59900 55.84500 40.16800
C  34.00200 56.16600 40.27300
C  34.18800 57.32800 41.07100
C  32.76700 57.80600 41.21600
C  35.17500 55.30300 39.71600
C  35.48400 58.03100 41.44200
O  36.52600 57.63400 41.05900
C  35.42500 59.16600 42.41400
N  29.89600 59.06000 41.30400
C  31.08600 59.62300 41.75600
C  30.84800 61.03000 42.34300
C  29.27800 61.22900 42.20200
C  28.82000 59.89100 41.56200
C  31.34600 61.42700 43.72000
C  28.97400 62.45100 41.26000
C  29.89300 63.71700 41.47400
N  27.75300 57.29400 40.62700
C  26.90400 58.31600 40.92200
C  25.51300 57.98100 40.83200
C  25.63900 56.69300 40.25000
C  26.97100 56.36800 40.05900
C  24.32000 58.89800 41.01500
C  24.84800 55.66000 39.52600
O  23.64900 55.67400 39.19300
C  25.87700 54.52000 39.17800
C  25.55100 53.37400 40.08900
O  25.98900 53.30300 41.25200
O  24.56200 52.55400 39.56000
C  24.04800 51.46800 40.38200
H  32.90900 53.94700 39.15500
H  33.13300 59.79200 41.97800
H  26.81400 60.38700 41.62000
H  28.28200 52.43600 39.02400
H  30.85200 52.94500 37.53700
H  31.91200 51.54800 38.64100
H  30.31300 51.01200 39.15200
H  31.38800 51.91000 40.25900
H  27.20600 52.90400 36.94200
H  28.60900 52.17900 36.46400
H  29.49100 53.89100 35.35600
H  29.07800 55.03600 36.59600
H  35.95500 55.94800 39.31300
H  34.92000 54.77200 38.79900
H  35.50800 54.46900 40.33400
H  35.22200 60.11100 41.91000
H  36.42400 59.26100 42.84000
H  34.80800 58.91200 43.27600
H  31.50200 61.60600 41.68900
H  28.74400 61.46800 43.12200
H  30.48700 61.49100 44.38800
H  31.86500 62.38500 43.75600
H  32.07600 60.68300 44.03900
H  27.96700 62.86400 41.32300
H  29.19100 62.26200 40.20900
H  30.68100 63.78000 40.72300
H  30.32200 63.61200 42.47100
H  29.36100 64.64700 41.27500
H  23.87100 59.03200 41.99900
H  23.53500 58.60900 40.31700
H  24.45300 59.91000 40.63400
H  25.67200 54.31600 38.12700
H  23.55300 50.78300 39.69300
H  23.37200 51.98800 41.06100
H  24.78600 50.90600 40.95400

