158

Mg 0.83800 8.75900 26.83100
C  1.43500 11.01700 29.30600
C  0.65600 6.16600 29.17200
C  0.61000 6.47600 24.38700
C  1.14600 11.34100 24.47400
N  0.93300 8.60300 28.93000
C  1.19700 9.70300 29.78100
C  1.04700 9.27200 31.23100
C  1.19900 7.69300 31.14000
C  0.83900 7.48200 29.70200
C  2.61800 7.21200 31.66100
C  -0.34000 9.64300 31.84800
C  -0.55000 9.35400 33.32200
H  0.69800 9.05200 34.13700
N  0.61800 6.65400 26.75100
C  0.50800 5.76700 27.82200
C  0.19000 4.41100 27.33700
C  0.20900 4.46500 25.90500
C  0.51800 5.83100 25.62500
C  -0.02900 3.31500 28.24700
C  -0.17400 3.33100 24.86200
O  -0.25600 3.50100 23.61100
C  -0.55200 1.85900 25.30000
N  0.90400 8.91600 24.74200
C  0.70500 7.82100 23.97800
C  0.73300 8.25200 22.47600
C  0.44900 9.81300 22.56500
C  0.94200 10.06900 24.00400
C  1.99900 7.85100 21.73700
C  -1.10400 10.15900 22.50900
C  -1.52000 11.35100 21.56700
N  1.24500 10.78700 26.77600
C  1.38700 11.70600 25.80300
C  1.70300 12.97100 26.32400
C  1.82300 12.77800 27.68700
C  1.42400 11.43400 27.92100
C  1.90900 14.19000 25.41600
C  2.08700 13.38100 29.04200
O  2.42900 14.53800 29.31600
C  1.76600 12.27400 30.09700
C  2.92900 12.06000 30.97000
O  4.00200 11.46400 30.79600
O  2.61000 12.65200 32.21300
C  3.66900 12.50800 33.17900
H  0.62700 5.36500 29.91300
H  0.39400 5.92000 23.47200
H  1.08700 12.12700 23.71900
H  1.91100 9.72700 31.71500
H  0.49500 7.20000 31.81000
H  3.00800 7.69100 32.55900
H  3.36600 7.26600 30.87100
H  2.47400 6.20900 32.06400
H  -1.05000 8.96200 31.37900
H  -0.63400 10.63900 31.51700
H  -1.07900 8.40100 33.29300
H  -1.10000 10.17600 33.78000
H  -1.06600 3.23700 28.57400
H  0.57500 3.35000 29.15300
H  0.25300 2.42600 27.68200
H  0.33100 1.48600 25.81800
H  -0.71000 1.30700 24.37300
H  -1.44200 1.94200 25.92400
H  -0.14000 7.68400 22.15500
H  0.98800 10.42900 21.84400
H  2.75100 7.45500 22.41900
H  2.38900 8.71500 21.19900
H  1.69000 7.05600 21.05800
H  -1.33600 10.51000 23.51400
H  -1.68600 9.28100 22.23100
H  -2.14400 10.98900 20.75000
H  -0.70000 11.95000 21.17200
H  -2.02300 12.16300 22.09300
H  1.76200 15.12300 25.96000
H  1.12500 14.30700 24.66800
H  2.92200 14.18500 25.01300
H  0.86400 12.41000 30.69400
H  3.58400 13.15000 34.05600
H  4.59800 12.80100 32.68900
H  3.86600 11.48100 33.48600
Mg 25.86700 0.98500 29.15900
C  27.88700 0.84800 32.11700
C  23.11200 1.41400 31.23900
C  24.07400 1.39900 26.40100
C  28.70500 0.17800 27.22200
N  25.54100 0.98100 31.38900
C  26.50000 1.05900 32.41400
C  25.91200 1.34500 33.84300
C  24.38800 1.37200 33.56500
C  24.32900 1.25200 31.94900
C  23.58100 0.25700 34.30900
C  26.42900 2.61400 34.58600
C  27.02000 2.41700 35.95900
H  26.78100 3.50500 37.07700
N  23.86500 1.35700 28.87300
C  22.85400 1.43600 29.80800
C  21.60000 1.65400 29.16500
C  21.82500 1.59300 27.72100
C  23.30300 1.46700 27.63800
C  20.27500 1.83200 29.89300
C  20.89900 1.65800 26.54500
O  21.25400 1.61900 25.39200
C  19.54200 2.08400 26.86900
N  26.31400 0.73900 27.12900
C  25.46800 1.03200 26.15700
C  26.04000 0.85800 24.74100
C  27.54700 0.51300 25.06500
C  27.54500 0.51100 26.53800
C  25.30100 -0.01000 23.84800
C  28.65500 1.41400 24.48300
C  29.76100 0.64400 23.79300
N  27.86900 0.55500 29.53600
C  28.87800 0.36700 28.64500
C  30.08100 0.10000 29.35400
C  29.73800 0.35200 30.71900
C  28.38600 0.66500 30.79400
C  31.38600 -0.24500 28.75900
C  30.28400 0.48100 32.09400
O  31.44700 0.30900 32.45300
C  29.05900 0.63500 33.08900
C  28.88800 -0.57300 33.94800
O  28.89400 -1.73000 33.53800
O  28.80000 -0.23400 35.28700
C  28.79100 -1.43100 36.21700
H  22.25700 1.57400 31.90000
H  23.59700 1.72600 25.47500
H  29.47200 -0.30300 26.61100
H  26.19000 0.46100 34.41800
H  23.87900 2.29600 33.84000
H  22.69800 0.82800 34.59600
H  24.14700 -0.12900 35.15700
H  23.27700 -0.59300 33.69800
H  25.73000 3.45100 34.61700
H  27.21400 3.02300 33.94900
H  28.10100 2.52700 35.87800
H  26.80500 1.40800 36.31200
H  20.44900 1.93700 30.96300
H  19.66700 0.94800 29.69900
H  19.58900 2.59600 29.52700
H  18.92300 1.71600 26.05100
H  19.68000 3.16500 26.91000
H  19.16300 1.72900 27.82800
H  26.13200 1.87100 24.34900
H  27.74700 -0.54500 24.89500
H  24.28300 -0.13200 24.21800
H  25.87700 -0.93400 23.80100
H  25.31600 0.49400 22.88200
H  29.01700 2.04600 25.29300
H  28.31900 2.09900 23.70500
H  30.49000 0.27800 24.51600
H  30.22300 1.27400 23.03300
H  29.40100 -0.23700 23.26100
H  32.18500 -0.30500 29.49800
H  31.59600 0.49500 27.98600
H  31.45100 -1.19000 28.21900
H  29.35800 1.54800 33.60500
H  28.68300 -2.40200 35.73400
H  28.03800 -1.17300 36.96200
H  29.66800 -1.34000 36.85800

