158

Mg 2.51900 -1.96500 44.54900
C  5.62100 -1.04100 43.35800
C  1.04300 0.27700 42.32700
C  -0.37000 -3.34800 45.20000
C  4.18000 -4.59400 46.38500
N  3.24500 -0.66200 42.84300
C  4.57300 -0.32800 42.71400
C  4.76400 0.78700 41.70900
C  3.29200 1.34300 41.56800
C  2.44100 0.31100 42.28400
C  3.04100 2.72300 42.12700
C  5.43200 0.28200 40.42600
C  6.76700 0.90900 40.01000
H  6.75000 1.80600 38.74800
N  0.54700 -1.50100 43.91000
C  0.18100 -0.58300 43.05000
C  -1.27500 -0.54000 43.02200
C  -1.71500 -1.58100 43.85800
C  -0.48000 -2.21100 44.39600
C  -2.05100 0.37300 42.19800
C  -3.09600 -1.89100 44.24900
O  -4.04800 -1.27300 43.77300
C  -3.50200 -2.94500 45.24800
N  2.02900 -3.74300 45.67900
C  0.70700 -4.05700 45.74200
C  0.49200 -5.37200 46.50800
C  1.98900 -5.85300 46.84400
C  2.80700 -4.67700 46.28700
C  -0.41600 -5.22100 47.79500
C  2.31700 -7.27400 46.23000
C  2.05600 -8.54500 47.01600
N  4.47900 -2.62500 44.93200
C  4.97100 -3.70200 45.65900
C  6.45900 -3.63000 45.60100
C  6.74700 -2.57200 44.76400
C  5.48700 -2.06500 44.32200
C  7.37700 -4.68300 46.23300
C  7.77000 -1.76800 44.15900
O  9.02900 -1.80800 44.27900
C  7.00100 -0.68000 43.34500
C  7.40700 0.64700 43.91500
O  6.72900 1.32000 44.66200
O  8.60500 1.03700 43.36100
C  9.10700 2.22300 44.04000
H  0.54300 1.09700 41.80600
H  -1.31400 -3.88100 45.33100
H  4.67900 -5.30500 47.04700
H  5.39600 1.59100 42.08700
H  2.87100 1.46900 40.57000
H  3.89300 3.32500 41.81200
H  3.02800 2.66500 43.21500
H  2.11100 3.05700 41.66600
H  4.82400 0.80200 39.68600
H  5.26800 -0.79500 40.39600
H  7.42400 0.04000 39.97200
H  7.11100 1.59700 40.78300
H  -1.59400 1.35600 42.08400
H  -3.00800 0.61700 42.65900
H  -2.34300 -0.07300 41.24800
H  -2.92900 -2.65000 46.12700
H  -3.35400 -3.98500 44.96100
H  -4.56000 -2.86200 45.49900
H  -0.02400 -5.96600 45.75400
H  2.08400 -6.04000 47.91300
H  -0.72300 -4.18700 47.95600
H  0.10700 -5.44400 48.72600
H  -1.23500 -5.93400 47.88600
H  3.32000 -7.29000 45.80300
H  1.56600 -7.30800 45.44100
H  1.50300 -8.15000 47.86800
H  2.96200 -9.07700 47.30700
H  1.46400 -9.24300 46.42500
H  6.98600 -4.90000 47.22700
H  8.36100 -4.22300 46.14100
H  7.29500 -5.61400 45.67200
H  7.40600 -0.75300 42.33600
H  9.22600 2.08000 45.11400
H  8.58100 3.13500 43.76100
H  10.11600 2.27800 43.63000
Mg -0.19800 42.62500 26.35600
C  2.04100 42.77400 29.04900
C  -2.76400 42.02100 28.56400
C  -2.20200 42.04500 23.75900
C  2.55100 43.02000 24.21800
N  -0.30800 42.40800 28.61800
C  0.70900 42.61600 29.49000
C  0.10000 42.87000 30.95500
C  -1.39500 42.49200 30.69800
C  -1.51900 42.32300 29.20400
C  -1.80900 41.18100 31.41900
C  0.41700 44.25800 31.48600
C  0.86000 44.33700 33.00800
H  0.66800 43.09500 33.86100
N  -2.16700 42.19300 26.15000
C  -3.12200 42.00700 27.16900
C  -4.43000 41.85800 26.62700
C  -4.26500 41.85600 25.17600
C  -2.82700 42.00600 24.99900
C  -5.73500 41.66000 27.46400
C  -5.28100 41.72100 24.13700
O  -5.00100 41.58200 22.96200
C  -6.74600 41.77100 24.46100
N  0.19700 42.43000 24.28000
C  -0.82100 42.20600 23.40800
C  -0.28500 42.29000 21.92300
C  1.21900 42.68100 22.06700
C  1.35600 42.70200 23.62700
C  -0.54500 40.88100 21.27600
C  1.48200 44.10900 21.37700
C  0.97800 45.30800 22.19900
N  1.86300 42.81700 26.55200
C  2.84700 43.03500 25.58900
C  4.13200 43.24000 26.21600
C  3.85300 43.02800 27.59300
C  2.48000 42.85300 27.73100
C  5.39700 43.64100 25.60100
C  4.49400 42.90200 28.85400
O  5.68200 42.88400 29.11600
C  3.32100 42.75000 29.85700
C  3.52400 41.38300 30.49000
O  2.70700 40.49800 30.33100
O  4.42900 41.42200 31.46200
C  4.15900 40.51400 32.59900
H  -3.60100 42.04000 29.26400
H  -2.73100 42.06400 22.80400
H  3.42900 43.28900 23.62600
H  0.58400 42.06600 31.50800
H  -2.10300 43.26900 30.98400
H  -1.12200 40.88200 32.21100
H  -1.87200 40.24900 30.85700
H  -2.73600 41.38500 31.95300
H  -0.45000 44.88400 31.27700
H  1.24500 44.54800 30.83900
H  0.24400 45.16200 33.36500
H  1.86900 44.72400 33.15100
H  -6.13200 42.67200 27.54300
H  -5.53400 41.22500 28.44300
H  -6.39300 40.90800 27.02700
H  -7.34000 42.02800 23.58400
H  -6.80000 42.45000 25.31200
H  -7.13500 40.77500 24.67100
H  -0.81800 42.98000 21.27000
H  1.90700 41.99700 21.57000
H  0.35200 40.41300 20.87000
H  -1.16200 41.11000 20.40700
H  -1.13900 40.20800 21.89400
H  0.99000 44.09800 20.40400
H  2.52200 44.19400 21.06400
H  1.76000 46.02900 22.44000
H  0.46300 44.88800 23.06200
H  0.24200 45.66800 21.48000
H  5.39900 44.72300 25.73700
H  5.37500 43.37900 24.54400
H  6.32900 43.21100 25.96700
H  3.38300 43.50000 30.64500
H  4.12200 39.44700 32.38000
H  3.19200 40.77900 33.02600
H  4.86500 40.73100 33.40100

