158

Mg 40.29700 9.49200 29.26100
C  42.60400 10.75000 31.88500
C  38.32700 8.18100 31.74500
C  38.42100 8.16200 26.80400
C  42.78200 10.14300 27.00600
N  40.48500 9.45800 31.56800
C  41.34500 10.18400 32.38100
C  40.80300 10.20300 33.88100
C  39.57300 9.21600 33.80700
C  39.40400 8.95400 32.26300
C  39.65500 7.95900 34.70400
C  40.62100 11.65500 34.38400
C  41.09800 12.09900 35.74800
H  39.90300 12.36000 36.70400
N  38.54900 8.46200 29.35500
C  37.86900 7.94600 30.44800
C  36.81600 7.11200 30.00100
C  36.75200 7.19300 28.51600
C  37.91500 7.94000 28.17400
C  35.99900 6.29600 30.97300
C  35.75300 6.54900 27.60200
O  35.77800 6.60500 26.35800
C  34.72100 5.71100 28.19800
N  40.46900 9.37900 27.15000
C  39.54500 8.85300 26.30100
C  39.98000 8.96400 24.82100
C  41.51500 9.35400 24.99700
C  41.64200 9.63900 26.48700
C  39.72700 7.70800 24.04800
C  41.84600 10.52900 24.08300
C  41.48800 11.99100 24.49900
N  42.19600 10.30300 29.35200
C  43.10900 10.45100 28.29300
C  44.33300 11.15400 28.81700
C  44.10600 11.19500 30.13400
C  42.85100 10.63500 30.43800
C  45.46200 11.61600 27.91700
C  44.77800 11.60300 31.41500
O  45.90500 12.09000 31.60400
C  43.71700 11.50600 32.48700
C  44.30100 10.85200 33.69500
O  44.52400 9.64200 33.83500
O  44.54200 11.77500 34.70900
C  44.75000 11.45200 36.10600
H  37.70400 7.76800 32.54200
H  37.94700 7.52800 26.05200
H  43.54600 10.45600 26.29100
H  41.58600 9.67200 34.42200
H  38.67100 9.69500 34.18800
H  39.57800 7.07600 34.06900
H  38.79500 7.91400 35.37200
H  40.50200 7.98500 35.38900
H  39.56100 11.90200 34.43200
H  40.99000 12.34000 33.62100
H  41.61300 13.01300 35.45200
H  41.78000 11.31500 36.07700
H  35.92400 5.29100 30.55700
H  35.08100 6.87900 31.04600
H  36.34300 6.20500 32.00400
H  34.28500 6.16900 29.08600
H  35.21600 4.78600 28.49700
H  33.93300 5.47600 27.48200
H  39.51300 9.80700 24.31300
H  42.13500 8.49900 24.72700
H  38.75500 7.78800 23.56000
H  39.69600 6.95800 24.83900
H  40.52000 7.47900 23.33600
H  41.43600 10.32200 23.09400
H  42.93000 10.47400 23.98300
H  41.25600 12.01000 25.56300
H  40.68800 12.38900 23.87500
H  42.31300 12.70300 24.45500
H  44.85400 12.05900 27.12800
H  46.06800 10.86500 27.41100
H  46.02900 12.33100 28.51400
H  43.37500 12.44400 32.92400
H  45.27100 10.51400 36.30200
H  43.88000 11.41800 36.76200
H  45.50300 12.20800 36.32800
Mg 42.63100 41.17100 26.09100
C  41.63900 43.41300 28.72100
C  43.56600 39.00900 28.53900
C  43.65000 39.15800 23.66600
C  41.93500 43.65600 23.83600
N  42.65500 41.26500 28.50700
C  42.07200 42.17200 29.28000
C  42.10500 41.61800 30.77800
C  42.92000 40.27000 30.68600
C  43.07500 40.18700 29.18100
C  44.22700 40.18000 31.58200
C  40.71800 41.66100 31.53800
C  40.77400 41.24300 33.02000
H  40.64200 42.32700 34.00900
N  43.50300 39.32500 26.08100
C  43.81800 38.59000 27.20000
C  44.46800 37.38000 26.76500
C  44.42100 37.31900 25.33300
C  43.80300 38.60300 24.97000
C  45.13800 36.50600 27.77200
C  44.92100 36.20500 24.37300
O  44.88600 36.27000 23.19000
C  45.60300 34.94600 24.93100
N  42.97300 41.45000 23.99700
C  43.24300 40.41000 23.23500
C  43.15200 40.84800 21.73300
C  42.43900 42.27100 21.83400
C  42.45600 42.50000 23.31700
C  44.55500 40.65700 21.12600
C  41.11400 42.37800 21.15000
C  40.00900 41.50100 21.61200
N  41.96000 43.11500 26.22700
C  41.84100 43.98900 25.21200
C  41.40400 45.29800 25.76100
C  41.25100 45.08700 27.11000
C  41.64900 43.72300 27.33200
C  41.19800 46.57700 24.95000
C  40.75700 45.67800 28.43000
O  40.22700 46.75700 28.66300
C  40.93800 44.54800 29.46900
C  41.85600 44.97800 30.53600
O  43.11900 44.86800 30.52700
O  41.10700 45.69900 31.50100
C  41.92600 46.26300 32.56800
H  43.60800 38.23300 29.30700
H  43.97700 38.66300 22.74900
H  41.65200 44.40900 23.09700
H  42.74600 42.31900 31.31100
H  42.17100 39.52200 30.94500
H  44.42900 41.11800 32.10000
H  45.06100 40.05500 30.89200
H  44.14800 39.39100 32.32900
H  40.10200 40.88200 31.08900
H  40.17600 42.58600 31.34200
H  41.67800 40.66600 33.21600
H  39.94800 40.54900 33.17600
H  44.57500 35.58700 27.93300
H  45.21900 37.02700 28.72700
H  46.14900 36.18400 27.52600
H  45.65700 34.11700 24.22500
H  44.91500 34.57800 25.69100
H  46.50800 35.24800 25.45900
H  42.43400 40.18900 21.24500
H  43.17400 42.99100 21.47200
H  44.68000 39.84100 20.41400
H  45.17300 40.38100 21.98000
H  44.89200 41.60600 20.71000
H  41.24700 42.14100 20.09500
H  40.73400 43.39500 21.25100
H  39.30500 42.12500 22.16200
H  40.46300 40.72900 22.23400
H  39.40200 41.12200 20.78900
H  41.40700 46.47300 23.88500
H  41.95400 47.20600 25.42000
H  40.21500 46.91500 25.27600
H  39.98500 44.22300 29.88800
H  42.37300 45.44400 33.13100
H  41.39300 47.04100 33.11500
H  42.80200 46.77500 32.17000

