158

Mg 39.62700 10.38400 29.16700
C  41.65200 11.86400 31.65700
C  37.68200 9.09000 31.75600
C  38.06900 8.67500 26.83700
C  42.20000 11.03400 26.90200
N  39.58400 10.62800 31.43800
C  40.49200 11.36800 32.21000
C  40.13000 11.32300 33.69500
C  38.98200 10.19900 33.69000
C  38.76800 9.86000 32.22400
C  39.16600 8.91200 34.57900
C  39.61300 12.62200 34.35000
C  39.11800 12.48100 35.80300
H  39.90300 13.26500 36.80200
N  37.98000 9.21400 29.24900
C  37.33600 8.68000 30.35800
C  36.23500 7.87200 29.89500
C  36.28400 7.89000 28.46000
C  37.50900 8.57000 28.10900
C  35.25500 7.16000 30.80000
C  35.23700 7.34000 27.47700
O  35.29200 7.55500 26.28500
C  34.03800 6.65200 28.01900
N  40.15400 9.83400 27.10800
C  39.26800 9.18300 26.35000
C  39.73900 9.26100 24.85300
C  40.99300 10.24700 24.93600
C  41.12800 10.36900 26.39300
C  40.14100 7.85500 24.20600
C  40.81900 11.53200 24.16700
C  40.08100 12.79000 24.96500
N  41.50900 11.20400 29.23200
C  42.41500 11.41900 28.18900
C  43.59000 12.15600 28.69700
C  43.34500 12.35000 30.06200
C  42.11600 11.77100 30.33500
C  44.82000 12.64200 27.92300
C  43.85800 12.90900 31.25200
O  44.88700 13.60400 31.40400
C  42.75600 12.73000 32.28100
C  43.32200 12.17800 33.61000
O  43.72500 11.05300 33.78900
O  43.19900 13.08900 34.60400
C  43.56600 12.70600 35.91800
H  37.00200 8.77000 32.54900
H  37.53700 8.08900 26.08400
H  42.96100 11.35500 26.18800
H  40.95500 10.87100 34.24500
H  38.04600 10.60800 34.06900
H  38.28400 8.67500 35.17400
H  39.96700 9.11600 35.29000
H  39.37800 8.02900 33.97700
H  38.86200 13.09800 33.71900
H  40.50900 13.24100 34.41100
H  39.08900 11.50200 36.28100
H  38.09800 12.84300 35.66900
H  34.35500 7.77500 30.82400
H  35.71100 7.17900 31.79000
H  34.94400 6.14700 30.54700
H  33.47000 6.32000 27.15000
H  33.47400 7.24000 28.74300
H  34.41400 5.72000 28.44200
H  38.90500 9.67300 24.28600
H  41.80000 9.74800 24.39900
H  41.22800 7.78000 24.17600
H  39.74200 7.75900 23.19700
H  39.52800 7.21400 24.84000
H  40.12800 11.42500 23.33000
H  41.75600 11.82800 23.69500
H  40.11000 12.51700 26.02000
H  39.12800 13.12300 24.55300
H  40.69700 13.68400 24.87200
H  44.65800 13.52400 27.30400
H  45.28000 11.84300 27.34000
H  45.56400 12.82200 28.69900
H  42.22800 13.66900 32.44700
H  44.64900 12.66000 36.03100
H  43.11700 11.76600 36.23700
H  43.24500 13.45000 36.64700
Mg 17.58200 53.05400 26.58300
C  19.47400 51.30000 29.00600
C  14.97300 53.26800 28.90500
C  15.63000 54.33400 24.24100
C  19.88000 52.00200 24.15800
N  17.36000 52.40400 28.69200
C  18.36400 51.95600 29.53400
C  17.93300 52.00500 31.01100
C  16.38500 52.27500 30.86700
C  16.26200 52.73100 29.40500
C  15.39400 51.12600 31.25700
C  18.71600 53.06600 31.77500
C  18.60900 53.35400 33.33700
H  17.82200 52.33600 34.12300
N  15.62200 53.96200 26.61700
C  14.75200 53.96300 27.66900
C  13.55000 54.57800 27.23300
C  13.68700 54.89600 25.87500
C  15.01000 54.44000 25.52400
C  12.34500 54.76200 28.18200
C  12.71400 55.60300 24.96600
O  12.99600 55.95500 23.77200
C  11.38000 56.02000 25.42300
N  17.68100 53.16300 24.45900
C  16.78800 53.76800 23.74900
C  17.19400 53.75900 22.22100
C  18.58100 53.15600 22.26000
C  18.76600 52.71800 23.69900
C  16.18000 52.92100 21.33500
C  19.74100 54.12200 21.82700
C  20.32600 55.19500 22.83600
N  19.24900 51.67800 26.55500
C  20.15100 51.47400 25.48100
C  21.23500 50.65000 25.94800
C  21.03300 50.49300 27.33800
C  19.82800 51.25700 27.68100
C  22.36100 50.13000 25.08600
C  21.61400 49.94400 28.55400
O  22.61300 49.27800 28.72500
C  20.53100 50.47900 29.71200
C  20.09600 49.24800 30.44600
O  19.51900 48.24800 29.93600
O  20.38100 49.37900 31.74300
C  20.06100 48.34700 32.74300
H  14.12900 53.16800 29.58900
H  15.25300 54.96700 23.43600
H  20.58600 51.85900 23.33800
H  18.13200 51.01100 31.41100
H  16.05000 53.18400 31.36600
H  15.04300 50.61400 30.36100
H  14.53200 51.59500 31.73200
H  15.83500 50.43400 31.97400
H  18.39400 53.98900 31.29200
H  19.77200 52.86200 31.59700
H  18.23500 54.36000 33.52800
H  19.67100 53.27600 33.57000
H  12.01100 55.79000 28.04200
H  12.65400 54.50200 29.19400
H  11.58100 54.06600 27.83500
H  10.89200 55.13000 25.82000
H  10.90500 56.36100 24.50300
H  11.44600 56.85900 26.11600
H  17.31500 54.80300 21.93300
H  18.79500 52.30000 21.62000
H  16.62100 52.14100 20.71500
H  15.67400 53.60300 20.65200
H  15.35200 52.49600 21.90200
H  19.38300 54.77100 21.02700
H  20.47700 53.46700 21.36100
H  20.08600 54.96400 23.87400
H  19.95000 56.21200 22.72400
H  21.40900 55.18600 22.70700
H  22.00100 49.17900 24.69400
H  23.27800 49.99800 25.66200
H  22.61400 50.84000 24.30000
H  21.11300 51.06400 30.42500
H  20.85900 47.61000 32.82800
H  19.11700 47.88200 32.45900
H  19.93300 48.99500 33.61000

