158

Mg 49.40500 45.20800 43.01100
C  45.93200 45.09700 42.45900
C  49.40900 41.78300 42.68300
C  52.69400 45.32600 43.21600
C  49.10900 48.71300 43.04500
N  47.81200 43.65500 42.62200
C  46.49900 43.85100 42.41600
C  45.67200 42.53600 42.16700
C  46.88200 41.48100 42.43000
C  48.13000 42.33500 42.61500
C  46.61400 40.49600 43.60800
C  45.01100 42.41700 40.73100
C  45.67500 43.00600 39.48800
H  45.77000 42.27700 38.16800
N  50.87000 43.72100 42.97200
C  50.68900 42.42200 42.88000
C  51.93000 41.69600 42.92000
C  52.91300 42.73500 42.99100
C  52.21100 44.00900 43.05200
C  52.06100 40.19000 42.84000
C  54.43600 42.48700 42.99700
O  54.96300 41.37700 43.09800
C  55.50200 43.60900 42.99500
N  50.76600 46.77900 43.08600
C  52.09700 46.61700 43.18100
C  52.76800 47.92800 43.44400
C  51.69700 49.03100 43.07000
C  50.44800 48.11600 43.04900
C  53.33900 48.04200 44.85800
C  51.87800 49.77000 41.71400
C  51.25900 51.20600 41.77500
N  47.88000 46.68300 42.77700
C  47.91400 48.06700 42.86800
C  46.65000 48.60400 42.60500
C  45.81300 47.52800 42.48800
C  46.59300 46.35100 42.58800
C  46.28900 50.01700 42.38900
C  44.45100 47.17600 42.19200
O  43.46600 47.82200 41.89200
C  44.47400 45.54500 42.16800
C  43.35400 44.93500 42.94700
O  42.67300 44.01800 42.50800
O  43.20800 45.51100 44.19800
C  42.11400 44.92900 44.92200
H  49.58300 40.70600 42.69700
H  53.75300 45.32800 43.48100
H  49.04900 49.80400 43.02900
H  44.82500 42.44400 42.84600
H  47.03600 40.92800 41.50300
H  45.54300 40.63000 43.75900
H  47.13300 40.74000 44.53500
H  46.74200 39.46400 43.28200
H  43.95400 42.68200 40.76400
H  44.91800 41.34100 40.57900
H  46.64800 43.37300 39.81500
H  45.18500 43.95200 39.26000
H  53.09200 39.88600 42.65700
H  51.46500 39.73900 42.04600
H  51.73100 39.66700 43.73700
H  55.23600 44.34200 42.23400
H  56.45800 43.18000 42.69300
H  55.63300 44.00900 44.00100
H  53.57900 47.91000 42.71500
H  51.66000 49.81200 43.82900
H  52.81200 48.76700 45.47900
H  54.35900 48.42400 44.81000
H  53.31500 47.03700 45.28000
H  51.43800 49.16100 40.92400
H  52.95200 49.72800 41.53200
H  50.85000 51.59200 40.84100
H  51.98800 51.94300 42.11100
H  50.48300 51.20100 42.54100
H  46.33100 50.62400 43.29300
H  45.34700 50.14100 41.85400
H  47.08300 50.39100 41.74300
H  44.19100 45.29500 41.14600
H  42.06900 45.29300 45.94800
H  42.13800 43.84200 44.84200
H  41.17300 45.22200 44.45600
Mg 1.39400 41.24600 26.54400
C  3.95900 41.97300 28.77500
C  -0.39900 39.95000 29.23900
C  -0.95300 40.25600 24.37200
C  3.54600 42.18300 23.92900
N  1.68500 41.04500 28.75700
C  2.79700 41.52900 29.45700
C  2.56700 41.55200 31.03600
C  1.28000 40.63500 31.07300
C  0.81300 40.50500 29.56700
C  1.54200 39.40800 31.92300
C  2.29900 42.96000 31.59800
C  2.52300 43.18700 33.09700
H  2.59300 41.95800 34.09500
N  -0.47800 40.36400 26.76300
C  -0.97300 39.83100 27.94200
C  -2.16800 39.20000 27.61600
C  -2.48500 39.41300 26.20000
C  -1.29100 39.99900 25.69300
C  -2.99200 38.57000 28.66900
C  -3.79400 39.11800 25.34200
O  -3.90700 39.38500 24.12800
C  -4.82800 38.10800 25.80500
N  1.38900 41.10400 24.51700
C  0.21400 40.84800 23.81400
C  0.41100 41.04700 22.28800
C  1.70100 41.84500 22.31200
C  2.33400 41.59100 23.64300
C  0.40500 39.83600 21.38600
C  1.49900 43.35400 21.86100
C  2.48400 43.74000 20.69300
N  3.38000 41.97000 26.30200
C  4.15300 42.29000 25.20500
C  5.51400 42.66400 25.56300
C  5.39500 42.56600 26.94600
C  4.11300 42.18200 27.33900
C  6.64200 43.03800 24.73700
C  6.21300 42.78800 28.12500
O  7.37400 43.09100 28.26400
C  5.30500 42.38000 29.35200
C  5.94900 41.26800 30.09300
O  5.95300 40.13600 29.65900
O  6.32900 41.66900 31.32700
C  6.57000 40.51700 32.22900
H  -0.85600 39.54100 30.14200
H  -1.69400 40.07300 23.59200
H  4.16400 42.41800 23.06000
H  3.47300 41.20900 31.53600
H  0.58000 41.22500 31.66500
H  1.01000 39.55100 32.86400
H  2.60500 39.17100 31.96600
H  1.03600 38.51300 31.56300
H  1.33400 43.30800 31.23100
H  3.10200 43.54400 31.14900
H  1.70800 43.81400 33.45800
H  3.44600 43.76300 33.16800
H  -3.99400 38.54400 28.24000
H  -3.00100 39.09600 29.62300
H  -2.72200 37.51700 28.74700
H  -5.38400 38.53500 26.63900
H  -4.29200 37.22300 26.14700
H  -5.51200 37.79100 25.01900
H  -0.40600 41.70400 21.99000
H  2.45600 41.36300 21.69200
H  1.37300 39.58200 20.95300
H  -0.29900 40.00700 20.57100
H  0.10000 38.94500 21.93400
H  1.67700 44.01700 22.70800
H  0.44200 43.52600 21.65800
H  2.00500 44.42400 19.99300
H  2.79100 42.81000 20.21400
H  3.36000 44.25200 21.09200
H  7.33900 43.51200 25.42800
H  6.39800 43.91700 24.14100
H  6.98300 42.17500 24.16400
H  5.17000 43.23200 30.01800
H  7.49400 39.99500 31.98200
H  5.77100 39.77500 32.25100
H  6.61600 41.03600 33.18700

