158

Mg 34.75900 2.50600 29.29900
C  32.87400 3.50800 31.94500
C  37.46700 1.89800 31.48600
C  36.86800 1.88700 26.68000
C  32.33200 3.60200 27.06100
N  35.13800 2.76300 31.51200
C  34.17400 3.20900 32.42300
C  34.82000 3.11000 33.82900
C  36.33200 2.67200 33.57800
C  36.36800 2.44700 32.11900
C  37.40900 3.61800 34.14400
C  34.04600 2.20700 34.77700
C  33.93700 2.72400 36.21500
H  35.04600 3.76300 36.73100
N  36.87400 1.81600 29.14300
C  37.73800 1.70800 30.18800
C  38.98900 1.23800 29.57400
C  38.86200 1.21500 28.15800
C  37.48000 1.64500 27.94300
C  40.22300 1.18500 30.37500
C  39.89000 0.70600 27.10600
O  39.61900 0.63400 25.92300
C  41.25800 0.20900 27.54400
N  34.56900 2.57500 27.17400
C  35.57800 2.28500 26.33100
C  35.15900 2.74300 24.90100
C  33.65200 3.14000 24.99100
C  33.47200 3.14400 26.49000
C  36.05000 3.83700 24.34000
C  32.58300 2.19100 24.34700
C  32.10600 0.87500 25.04800
N  32.96700 3.33800 29.43900
C  31.99000 3.62500 28.43400
C  30.77800 4.07900 29.05800
C  31.04500 4.04900 30.42200
C  32.40400 3.63100 30.67100
C  29.51200 4.49400 28.41700
C  30.51600 4.29400 31.78800
O  29.36500 4.54700 32.15600
C  31.64800 4.00800 32.79900
C  31.97200 5.31000 33.46900
O  32.64800 6.22600 32.95100
O  31.45800 5.27100 34.73400
C  31.51200 6.55500 35.51100
H  38.19500 1.53600 32.21600
H  37.50900 1.64500 25.83000
H  31.47000 3.85900 26.44200
H  34.76200 4.16500 34.10000
H  36.51000 1.70300 34.04500
H  37.99400 4.03900 33.32600
H  38.02800 3.04400 34.83400
H  37.07400 4.52500 34.64700
H  34.48100 1.22900 34.57200
H  33.07700 2.01000 34.31900
H  34.05600 1.88800 36.90400
H  32.96800 3.19500 36.37800
H  40.95900 1.78900 29.84400
H  40.60500 0.16500 30.34100
H  40.07000 1.63300 31.35700
H  41.17500 -0.68300 28.16500
H  41.92100 0.95200 27.98700
H  41.76300 0.09400 26.58500
H  35.07900 1.89900 24.21600
H  33.40100 4.09700 24.53400
H  36.95800 4.00600 24.91900
H  35.56500 4.81000 24.25600
H  36.50700 3.58200 23.38400
H  32.95900 1.86700 23.37700
H  31.69000 2.71900 24.01300
H  32.89500 0.35400 25.59100
H  31.83900 0.16700 24.26400
H  31.27300 1.01800 25.73700
H  29.71300 5.03500 27.49200
H  29.08300 5.22300 29.10500
H  28.87100 3.63100 28.23700
H  31.45100 3.27300 33.57900
H  31.57900 6.20800 36.54200
H  30.56800 7.03000 35.24600
H  32.43600 7.10800 35.34200
Mg 41.92500 41.81600 26.98100
C  41.02800 44.22600 29.43200
C  42.96500 39.76000 29.44400
C  42.72500 39.58300 24.51700
C  41.41800 44.32600 24.50400
N  41.79500 42.00500 29.10100
C  41.32600 42.99000 29.86900
C  41.37600 42.56600 31.32400
C  42.27600 41.32700 31.43200
C  42.42300 41.00900 29.89500
C  43.58800 41.45500 32.18500
C  39.94500 42.40600 31.93900
C  39.80100 42.85800 33.48700
H  39.26100 41.87000 34.43800
N  42.70500 39.91400 27.02500
C  43.05200 39.25000 28.13000
C  43.63600 38.02200 27.73000
C  43.50700 37.92100 26.27600
C  42.88200 39.14900 25.89600
C  44.07900 36.94000 28.70700
C  43.92000 36.79500 25.32100
O  43.83100 36.83600 24.08200
C  44.56200 35.62700 25.80100
N  42.13500 41.96300 24.79700
C  42.51900 40.89200 24.08800
C  42.36400 41.21200 22.64000
C  42.03000 42.76700 22.59100
C  41.80200 43.08500 24.04700
C  43.58300 40.87100 21.80100
C  40.77900 42.93700 21.69400
C  41.03200 43.20700 20.19500
N  41.40800 43.82900 26.92200
C  41.17800 44.65800 25.86700
C  40.67400 45.92200 26.31800
C  40.61300 45.84900 27.73300
C  41.14800 44.54900 28.02400
C  40.42300 47.18400 25.37400
C  40.37800 46.58900 28.95300
O  40.12200 47.75500 29.14200
C  40.51600 45.49000 30.15800
C  41.48600 46.06400 31.15400
O  42.57900 46.65200 30.85000
O  40.92600 46.04300 32.45400
C  41.86100 46.60200 33.46400
H  43.24200 39.15800 30.31100
H  42.77700 38.78500 23.77300
H  41.20500 45.06900 23.73200
H  41.84400 43.37100 31.89000
H  41.77500 40.46500 31.87200
H  43.52500 40.88600 33.11200
H  43.75800 42.52300 32.31800
H  44.52400 41.18900 31.69300
H  39.72700 41.34000 32.00400
H  39.25300 43.04900 31.39500
H  39.24300 43.79400 33.52100
H  40.78100 43.15400 33.86200
H  43.32800 36.16500 28.85900
H  44.40900 37.41100 29.63300
H  45.03900 36.64200 28.28700
H  45.47400 35.83900 26.36000
H  44.82200 34.98900 24.95600
H  43.69100 35.34300 26.39100
H  41.52400 40.58600 22.33900
H  42.91000 43.34600 22.31100
H  44.16600 41.78300 21.67800
H  43.26500 40.67500 20.77600
H  44.25500 40.11700 22.21100
H  40.11800 43.66800 22.16100
H  40.08900 42.10500 21.83800
H  40.48900 44.09500 19.87100
H  40.60500 42.36800 19.64500
H  42.06900 43.31200 19.87500
H  39.63000 47.78600 25.81800
H  40.07700 47.03400 24.35100
H  41.27100 47.86400 25.29700
H  39.57700 45.35300 30.69500
H  42.87700 46.38700 33.13300
H  41.82200 46.09300 34.42700
H  41.77200 47.66900 33.67300

