158

Mg 51.05500 46.26700 42.66700
C  48.10000 47.76800 41.63300
C  50.17800 43.53100 40.74100
C  54.13400 44.95100 43.14000
C  52.12700 49.30200 44.11000
N  49.30200 45.73200 41.33300
C  48.26800 46.48300 41.03800
C  47.23300 45.85600 40.16700
C  47.84300 44.45500 39.93900
C  49.14300 44.51600 40.71600
C  46.97800 43.17400 40.27900
C  47.02600 46.71700 38.87100
C  45.60000 46.91600 38.41600
H  45.21400 46.38500 37.00200
N  51.96400 44.39800 42.07800
C  51.46200 43.46100 41.30500
C  52.37600 42.33100 41.28000
C  53.52700 42.67700 41.98900
C  53.25200 44.05800 42.38100
C  52.12000 40.98700 40.53800
C  54.74400 41.92700 42.11000
O  54.83700 40.86400 41.52800
C  55.80900 42.34500 42.94900
N  52.86900 46.99500 43.51800
C  54.00800 46.30300 43.55000
C  55.10200 47.11200 44.20800
C  54.48900 48.54600 44.41500
C  53.07300 48.31000 43.95200
C  55.63700 46.37500 45.45500
C  55.10500 49.80600 43.74900
C  54.72800 50.10500 42.27400
N  50.30900 48.19000 42.89200
C  50.82100 49.38300 43.41100
C  49.83800 50.38400 43.30000
C  48.71300 49.81000 42.75900
C  49.05400 48.46900 42.47200
C  49.94500 51.84800 43.51000
C  47.31100 50.08000 42.35300
O  46.64900 51.04900 42.46000
C  46.94900 48.75500 41.48700
C  45.63000 48.29900 41.97900
O  45.57900 47.63600 42.96500
O  44.64900 48.67200 41.15800
C  43.26700 48.41500 41.52800
H  49.88600 42.60000 40.25100
H  55.14700 44.57600 43.30200
H  52.21400 50.27800 44.59200
H  46.28100 45.75600 40.68800
H  47.90900 44.36400 38.85500
H  45.92000 43.43300 40.24900
H  47.22500 43.00300 41.32700
H  47.17200 42.28500 39.68000
H  47.46600 46.12300 38.07000
H  47.62300 47.62800 38.82300
H  45.39400 47.98400 38.49300
H  44.93300 46.39100 39.10000
H  52.13900 41.14100 39.46000
H  51.20800 40.57300 40.96900
H  52.78200 40.12200 40.50900
H  56.53300 41.54000 43.07000
H  55.40500 42.62000 43.92300
H  56.43500 43.16100 42.58700
H  55.99100 47.19000 43.58400
H  54.38500 48.70000 45.48900
H  55.58200 46.93700 46.38700
H  56.66800 46.02600 45.40200
H  55.12500 45.43900 45.67800
H  56.19000 49.69900 43.73200
H  54.76900 50.65000 44.35100
H  53.91200 50.82400 42.20900
H  54.44300 49.22500 41.69800
H  55.56200 50.57200 41.74900
H  49.65100 52.17500 44.50800
H  49.22000 52.24500 42.80000
H  50.96900 52.07800 43.21700
H  46.83200 48.88400 40.41100
H  43.00300 47.36400 41.40700
H  42.54100 49.04600 41.01600
H  43.14600 48.70800 42.57100
Mg 36.46600 49.47000 24.73100
C  36.38600 47.86900 27.83600
C  34.96400 52.14600 26.18100
C  35.94900 50.84700 21.61700
C  37.46900 46.42900 23.25600
N  35.74000 49.94900 26.80500
C  35.95200 49.20000 27.91400
C  35.63600 50.01200 29.15000
C  34.93000 51.35500 28.59300
C  35.29900 51.15900 27.11400
C  33.39700 51.43100 28.88100
C  36.94500 50.28800 30.02500
C  36.76100 49.83900 31.52100
H  35.38100 49.75700 32.15600
N  35.75800 51.37800 24.02900
C  35.23800 52.30900 24.76300
C  34.92400 53.51000 23.89500
C  35.16200 53.10100 22.54900
C  35.64900 51.70200 22.70800
C  34.44900 54.81400 24.45100
C  34.93600 53.91600 21.24000
O  35.30900 53.45400 20.19200
C  34.23300 55.30800 21.23600
N  36.61000 48.71500 22.84000
C  36.31100 49.46300 21.71500
C  36.54600 48.63700 20.47900
C  37.43600 47.53400 20.93000
C  37.23500 47.56700 22.41900
C  35.17200 48.08100 19.95700
C  38.91900 47.50100 20.54900
C  39.47000 46.07500 20.30100
N  36.86100 47.51300 25.37600
C  37.25500 46.42400 24.65200
C  37.59500 45.38800 25.64000
C  37.30800 45.95200 26.88700
C  36.76700 47.23300 26.66800
C  38.26400 44.15500 25.26900
C  37.38200 45.69500 28.31800
O  37.78400 44.75900 28.99000
C  36.82200 46.96200 29.06900
C  35.64000 46.58700 29.97600
O  34.46600 46.59900 29.69300
O  36.14500 46.19800 31.23600
C  35.15300 45.74500 32.22400
H  34.49700 53.00600 26.66500
H  35.78600 51.17300 20.58700
H  37.65700 45.50500 22.70400
H  34.94600 49.38800 29.71900
H  35.40800 52.22800 29.03700
H  33.02800 52.34300 29.35200
H  33.24300 50.69400 29.66900
H  32.81900 51.27200 27.97100
H  36.97900 51.37700 30.04500
H  37.80700 49.84300 29.52700
H  37.54500 50.40700 32.02200
H  37.13600 48.81500 31.54300
H  34.76500 54.78400 25.49400
H  33.36700 54.80100 24.58200
H  34.74900 55.69900 23.89000
H  33.69900 55.49500 20.30500
H  35.08200 55.99100 21.21000
H  33.50000 55.44800 22.03000
H  36.89200 49.28700 19.67600
H  37.04500 46.54900 20.67500
H  34.60100 47.47700 20.66200
H  35.35800 47.47400 19.07100
H  34.54300 48.89400 19.59500
H  39.45100 48.00700 21.35500
H  38.94000 48.05700 19.61200
H  39.77500 46.14300 19.25700
H  38.69900 45.31900 20.44900
H  40.39900 45.78800 20.79300
H  37.79200 43.73000 24.38300
H  37.90700 43.46200 26.03000
H  39.34700 44.16300 25.14600
H  37.63500 47.39200 29.65400
H  34.91500 44.71600 31.95500
H  34.18400 46.24100 32.28000
H  35.63800 45.64400 33.19500

