158

Mg 35.73400 49.55600 24.85800
C  36.07800 47.86400 27.97800
C  34.54700 52.25700 26.46800
C  35.22800 50.97400 21.85200
C  36.93100 46.62400 23.34900
N  35.54900 50.00600 27.08200
C  35.71600 49.27200 28.16400
C  35.32200 50.04700 29.44000
C  34.70400 51.38700 28.89900
C  34.94800 51.22600 27.34900
C  33.17600 51.65100 29.24100
C  36.43800 50.17500 30.50200
C  36.10900 49.47600 31.86500
H  34.65800 49.55800 32.33500
N  35.01800 51.41000 24.27600
C  34.48100 52.36700 25.08100
C  33.92300 53.41100 24.31300
C  34.16400 53.13600 22.92500
C  34.81900 51.78500 22.93900
C  33.14200 54.57700 24.89800
C  33.65200 53.88900 21.68800
O  33.61500 53.37600 20.57100
C  33.05200 55.30600 21.91100
N  35.84500 48.84600 22.89400
C  35.72800 49.66200 21.75900
C  35.99700 48.89700 20.44500
C  36.56400 47.51700 20.98600
C  36.45300 47.64900 22.52100
C  34.84300 48.77200 19.41500
C  37.93600 47.10500 20.47900
C  39.14300 47.75400 21.20100
N  36.46000 47.65200 25.52900
C  36.74800 46.50100 24.76700
C  37.11000 45.43100 25.56900
C  36.72300 45.83400 26.85300
C  36.41800 47.23900 26.77500
C  37.65400 44.12800 25.14100
C  36.70100 45.47900 28.21700
O  36.93700 44.41600 28.73300
C  36.38700 46.80700 29.00500
C  35.30500 46.54400 29.98800
O  34.08600 46.57700 29.79700
O  35.88200 46.01200 31.13700
C  35.07200 45.35600 32.19600
H  34.06600 53.13900 26.89600
H  34.98300 51.48300 20.91700
H  37.35300 45.76200 22.83000
H  34.44300 49.55700 29.85900
H  35.31200 52.26900 29.09900
H  32.91300 51.25700 30.22300
H  32.47400 51.18500 28.55000
H  33.01600 52.72500 29.32900
H  36.48800 51.22200 30.80100
H  37.34500 49.76500 30.05800
H  36.70000 50.03200 32.59400
H  36.50600 48.46900 31.99200
H  33.02200 54.56400 25.98200
H  32.13600 54.55600 24.48000
H  33.59000 55.53800 24.64800
H  33.58900 55.98900 22.56800
H  32.01700 55.19400 22.23600
H  32.90600 55.73900 20.92100
H  36.79900 49.39900 19.90400
H  35.81200 46.78900 20.68200
H  33.92300 49.13400 19.87400
H  34.72500 47.71300 19.18600
H  34.98000 49.39400 18.53100
H  37.83500 47.29600 19.41100
H  37.97400 46.02700 20.64100
H  38.84900 48.55300 21.88100
H  39.82400 48.29100 20.54100
H  39.70700 47.05200 21.81600
H  38.50200 44.32800 24.48600
H  36.99100 43.45600 24.59800
H  37.91800 43.60100 26.05800
H  37.21400 47.04700 29.67500
H  34.95400 44.32500 31.86400
H  34.05800 45.75200 32.25700
H  35.56900 45.48800 33.15700
Mg -12.69700 37.65300 42.18800
C  -10.22500 35.28800 41.54400
C  -10.66900 40.10200 40.99300
C  -15.24200 39.70700 42.66100
C  -14.67300 34.95300 43.46500
N  -10.67600 37.70100 41.12300
C  -9.83000 36.61100 41.13500
C  -8.44300 37.04700 40.54900
C  -8.50200 38.62900 40.84100
C  -9.99600 38.85600 40.94400
C  -7.76800 39.07800 42.16000
C  -8.37300 36.55100 39.01500
C  -7.23400 35.53100 38.69700
H  -6.35400 35.93800 37.56200
N  -13.00000 39.59200 41.78100
C  -12.05300 40.46700 41.30900
C  -12.62600 41.83900 41.29000
C  -13.86700 41.72000 41.90300
C  -14.13300 40.31200 42.14900
C  -11.91800 43.05000 40.81400
C  -14.80500 42.97900 42.13100
O  -14.45500 44.09300 41.73300
C  -16.06500 42.85100 42.83200
N  -14.91900 37.36700 42.73100
C  -15.67200 38.39200 42.92700
C  -16.95600 38.01600 43.71000
C  -16.78800 36.41000 43.74700
C  -15.35500 36.17100 43.34300
C  -17.24900 38.61800 45.11200
C  -17.81200 35.58500 42.85800
C  -17.32300 35.14800 41.42000
N  -12.58200 35.56500 42.33800
C  -13.44000 34.63600 42.93100
C  -12.77700 33.36600 42.94800
C  -11.53100 33.51200 42.39100
C  -11.43200 34.89500 42.04000
C  -13.33100 32.04800 43.44600
C  -10.30700 32.89600 41.97300
O  -9.88300 31.72500 42.14900
C  -9.38100 34.04800 41.47800
C  -8.03600 34.03600 42.26300
O  -6.93000 33.86000 41.76300
O  -8.30900 34.13300 43.60400
C  -7.26200 34.15700 44.56900
H  -10.08600 40.92100 40.56800
H  -15.98900 40.46900 42.89000
H  -15.32100 34.20800 43.93300
H  -7.65800 36.58800 41.14900
H  -8.10800 39.19000 39.99300
H  -8.50700 39.18400 42.95400
H  -7.26400 40.02000 41.94200
H  -6.98500 38.36900 42.42900
H  -8.28000 37.38400 38.31900
H  -9.28900 36.06200 38.68300
H  -7.55800 34.50700 38.51300
H  -6.58000 35.44000 39.56500
H  -12.13800 43.83400 41.53900
H  -12.38600 43.36600 39.88100
H  -10.83300 42.95500 40.78400
H  -16.40100 43.86200 43.06300
H  -15.97200 42.31200 43.77500
H  -16.80300 42.29100 42.25700
H  -17.79000 38.31500 43.07500
H  -16.87800 36.04300 44.77000
H  -17.96000 39.42800 44.94900
H  -16.34100 38.96900 45.60400
H  -17.69500 37.76500 45.62200
H  -18.72700 36.15000 42.67900
H  -18.19500 34.72300 43.40300
H  -17.66000 34.11200 41.38100
H  -16.24000 35.24400 41.34600
H  -17.90000 35.49900 40.56400
H  -14.35100 31.94500 43.07600
H  -13.15000 31.96100 44.51700
H  -12.79500 31.20800 43.00300
H  -9.12000 33.78700 40.45200
H  -6.40800 33.49000 44.44800
H  -7.79800 34.11400 45.51700
H  -6.96800 35.18600 44.77700

