158

Mg 0.61000 7.74800 27.53800
C  1.33900 9.86900 30.10300
C  0.34000 5.20500 29.56000
C  -0.00800 5.97300 24.72400
C  1.04900 10.61300 25.29900
N  0.92300 7.62100 29.56100
C  1.18600 8.57900 30.51600
C  1.01700 8.05500 31.88700
C  1.17200 6.51000 31.63100
C  0.76500 6.40700 30.15500
C  2.61700 5.93000 31.83700
C  -0.42500 8.41400 32.37200
C  -0.42900 9.00500 33.76700
H  0.64100 8.66900 34.90000
N  0.34500 5.80000 27.21300
C  0.26900 4.85200 28.18300
C  0.13700 3.58100 27.62300
C  0.21700 3.72200 26.20900
C  0.16500 5.22000 25.99500
C  0.01500 2.36700 28.44400
C  0.34900 2.64100 25.05500
O  0.30400 3.00100 23.89300
C  0.32400 1.17400 25.42500
N  0.45600 8.27200 25.31300
C  0.06700 7.35400 24.43000
C  -0.13800 7.85200 23.01300
C  0.08100 9.43300 23.25800
C  0.55300 9.47100 24.70500
C  0.76300 7.40700 21.75000
C  -1.12300 10.42400 22.90600
C  -1.24400 10.90200 21.51700
N  1.05400 9.87600 27.56200
C  1.21300 10.87100 26.64700
C  1.52400 12.10700 27.32800
C  1.54300 11.77700 28.67800
C  1.24500 10.39200 28.84000
C  1.68400 13.47300 26.77600
C  1.73500 12.33500 29.96500
O  2.13800 13.46900 30.26800
C  1.64400 11.07400 30.99900
C  2.96700 10.90600 31.71900
O  4.01700 10.39100 31.32400
O  2.82100 11.60700 32.85700
C  3.77500 11.47400 33.93500
H  0.30200 4.38300 30.27800
H  -0.22200 5.37500 23.83600
H  1.15200 11.45300 24.60900
H  1.74000 8.49800 32.57100
H  0.46900 5.97500 32.26900
H  3.05700 5.75400 30.85500
H  2.48500 4.95200 32.29900
H  3.26400 6.60100 32.40100
H  -1.13800 7.59400 32.46300
H  -0.93800 8.99100 31.60300
H  -1.41800 8.89300 34.21100
H  -0.38000 10.06100 33.49900
H  -0.79300 1.67800 28.20000
H  -0.37400 2.60100 29.43500
H  0.92400 1.76800 28.49500
H  -0.56800 0.88500 25.98100
H  1.18800 0.98400 26.06300
H  0.47900 0.49500 24.58700
H  -1.19800 7.62600 22.89500
H  0.85100 9.86300 22.61700
H  1.15500 8.15900 21.06400
H  0.23200 6.68000 21.13600
H  1.72200 6.95700 22.00700
H  -0.95600 11.29900 23.53400
H  -2.04700 9.93200 23.20900
H  -2.14800 10.58400 20.99900
H  -0.44200 10.62100 20.83400
H  -1.29200 11.98400 21.64400
H  1.66700 13.51100 25.68700
H  2.61100 13.92200 27.13400
H  0.80600 14.00100 27.14800
H  0.79800 11.23800 31.66700
H  4.17100 12.47000 34.13400
H  4.59700 10.81700 33.65100
H  3.40300 10.93800 34.80800
Mg 8.48500 3.86300 27.72100
C  10.05400 2.48900 30.40200
C  6.63600 5.86600 29.86200
C  7.10900 5.31500 24.94900
C  10.26200 1.76800 25.53900
N  8.42100 4.13200 29.85400
C  9.16500 3.46000 30.77700
C  8.94200 3.98100 32.21100
C  7.67800 4.98000 32.02300
C  7.51800 5.00800 30.49500
C  6.43400 4.75600 32.85000
C  10.17000 4.62800 32.89500
C  9.82100 5.16400 34.29000
H  10.69000 4.70000 35.42900
N  7.11900 5.41500 27.47200
C  6.46800 6.10900 28.47800
C  5.48900 7.01100 27.79200
C  5.61700 6.86700 26.38200
C  6.66100 5.80100 26.18300
C  4.52600 7.82000 28.60100
C  4.85200 7.60300 25.32200
O  4.88700 7.39800 24.13300
C  3.95400 8.67200 25.70800
N  8.65600 3.61500 25.53600
C  8.06300 4.39500 24.62200
C  8.39100 3.98900 23.11300
C  9.56300 3.00400 23.32000
C  9.46000 2.74800 24.89800
C  7.13600 3.52000 22.32000
C  10.94900 3.43100 22.83700
C  11.63100 4.62000 23.64100
N  9.80600 2.38400 27.84400
C  10.45000 1.60600 26.92000
C  11.27000 0.70100 27.66100
C  11.20200 0.94900 28.99000
C  10.31200 2.03300 29.07700
C  12.07300 -0.38800 26.97100
C  11.62300 0.60200 30.34200
O  12.34400 -0.31400 30.79700
C  10.99000 1.69900 31.30200
C  10.31300 0.97800 32.35600
O  9.15800 0.53800 32.14600
O  11.07000 0.88000 33.46100
C  10.53900 0.03700 34.59600
H  5.97500 6.27800 30.62800
H  6.54800 5.56900 24.04800
H  10.78000 1.19600 24.76600
H  8.72800 3.13100 32.85900
H  8.06400 5.93200 32.38900
H  5.73500 4.10900 32.31800
H  5.91100 5.69700 33.01900
H  6.70600 4.35000 33.82400
H  10.40700 5.51300 32.30500
H  11.04400 3.99700 33.05600
H  8.82300 4.89600 34.63500
H  9.82400 6.25400 34.28800
H  4.63600 7.51700 29.64200
H  3.50700 7.64200 28.25500
H  4.68400 8.89800 28.63100
H  3.01700 8.34200 26.15700
H  3.65000 9.38100 24.93700
H  4.47900 9.22100 26.48900
H  8.82900 4.86300 22.63000
H  9.38200 2.03700 22.85100
H  6.25300 3.89500 22.83800
H  6.96700 2.44900 22.20200
H  7.17000 3.97100 21.32900
H  10.86500 3.58700 21.76100
H  11.54300 2.53300 23.00600
H  12.10500 4.20100 24.52900
H  10.79300 5.26400 23.90900
H  12.25500 5.24000 22.99700
H  12.35600 -0.09000 25.96100
H  11.41300 -1.24700 26.84800
H  12.94800 -0.65900 27.56100
H  11.85800 2.29000 31.59300
H  10.02600 0.81800 35.15800
H  11.29100 -0.38500 35.26300
H  9.82800 -0.67300 34.17300

