158

Mg 47.79400 14.61800 28.85400
C  45.67200 14.63400 31.59200
C  49.93300 16.80600 30.68000
C  49.34800 15.63000 26.02800
C  45.32200 12.93400 27.00300
N  47.77000 15.64700 30.91500
C  46.86700 15.38900 31.89300
C  47.32700 15.98400 33.18300
C  48.50100 16.91300 32.78500
C  48.71600 16.52000 31.34100
C  48.25600 18.49700 32.98100
C  47.66500 14.98100 34.36000
C  46.96200 15.25300 35.70700
H  47.46700 16.46700 36.51600
N  49.49600 15.94700 28.36300
C  50.24700 16.60000 29.33400
C  51.38100 17.19100 28.62800
C  51.24000 16.97900 27.19800
C  50.01600 16.14200 27.08700
C  52.51600 17.95500 29.39700
C  52.10700 17.46800 26.06700
O  51.90500 17.26700 24.89100
C  53.38800 18.26800 26.29200
N  47.42700 14.34600 26.84500
C  48.19900 14.89800 25.89200
C  47.81000 14.30100 24.51700
C  46.70400 13.25400 24.92700
C  46.44000 13.47300 26.35400
C  47.42200 15.46000 23.46100
C  47.12800 11.74000 24.68800
C  47.89300 11.10300 25.85200
N  45.85700 13.95800 29.13700
C  44.94300 13.25400 28.29200
C  43.76600 12.85700 29.09700
C  44.00700 13.36400 30.39500
C  45.28700 14.02500 30.38100
C  42.65200 12.04100 28.69500
C  43.39400 13.60600 31.67800
O  42.35900 13.27800 32.22000
C  44.56200 14.28800 32.54100
C  44.00800 15.40200 33.25300
O  43.98700 16.58500 32.85000
O  43.48400 15.01800 34.42200
C  42.44100 16.02000 34.97400
H  50.67200 17.37300 31.24900
H  49.78400 15.97700 25.08900
H  44.59000 12.29400 26.50700
H  46.46600 16.53900 33.55600
H  49.43600 16.71500 33.30900
H  48.95100 18.95500 33.68500
H  47.26100 18.59100 33.41600
H  48.33800 19.04800 32.04500
H  48.74300 14.96600 34.52500
H  47.42800 13.93400 34.17100
H  47.24900 14.39000 36.30700
H  45.88600 15.39100 35.59500
H  52.58400 18.91000 28.87800
H  53.43600 17.37900 29.29200
H  52.35300 18.25200 30.43300
H  53.25500 19.32000 26.54100
H  54.03800 18.19700 25.42000
H  53.80900 17.68800 27.11300
H  48.63500 13.68500 24.16100
H  45.75300 13.49900 24.45500
H  46.34500 15.38800 23.30800
H  47.90800 15.26300 22.50500
H  47.80900 16.43400 23.76000
H  47.61700 11.63400 23.72000
H  46.20200 11.18500 24.53200
H  48.50900 11.89300 26.28300
H  48.68700 10.49800 25.41600
H  47.23800 10.78600 26.66400
H  42.62200 11.85200 27.62200
H  41.80200 12.58200 29.11000
H  42.64300 11.10300 29.25000
H  44.88900 13.55100 33.27400
H  42.52500 17.01400 34.53400
H  42.56200 16.06900 36.05600
H  41.41800 15.70500 34.76600
Mg 8.78700 47.86600 26.99100
C  7.28800 47.54500 30.16000
C  11.76400 48.41500 28.52700
C  9.89900 48.85200 24.09000
C  5.46800 47.64300 25.65900
N  9.43700 47.97700 29.16300
C  8.68600 47.68900 30.22800
C  9.55000 47.80200 31.52300
C  10.95900 48.35200 30.98900
C  10.72300 48.26100 29.47500
C  11.42800 49.82300 31.44300
C  9.68800 46.53100 32.43400
C  9.48300 46.90300 33.91300
H  9.64100 45.84300 34.94800
N  10.56700 48.33900 26.35400
C  11.69400 48.58600 27.16200
C  12.79700 48.75100 26.24600
C  12.32400 48.79100 24.95200
C  10.89600 48.76000 25.04400
C  14.23700 48.69000 26.74700
C  13.09700 48.82600 23.55200
O  12.51400 48.90300 22.45900
C  14.58700 48.83000 23.59100
N  7.86000 48.03200 25.10200
C  8.54700 48.60500 24.07300
C  7.63100 48.92000 22.86500
C  6.23100 48.44600 23.35300
C  6.52400 47.96400 24.79900
C  7.74700 50.39000 22.34400
C  5.63800 47.37200 22.36800
C  5.12000 47.83700 21.03700
N  6.78800 47.62900 27.68600
C  5.61300 47.53900 27.04000
C  4.55300 47.49800 28.04300
C  5.20200 47.52900 29.24100
C  6.56900 47.64400 28.97700
C  3.07800 47.33700 27.76100
C  4.90900 47.56300 30.63000
O  3.85600 47.48000 31.19800
C  6.29900 47.43900 31.27600
C  6.33400 46.11100 31.95100
O  6.64400 45.01800 31.46400
O  5.96000 46.32800 33.17900
C  6.14300 45.23100 34.12700
H  12.73700 48.60000 28.98500
H  10.27000 49.19900 23.12400
H  4.45700 47.76600 25.26500
H  9.14400 48.60200 32.14100
H  11.75300 47.61800 31.12600
H  12.48700 49.79900 31.69900
H  10.89200 50.13800 32.33700
H  11.18300 50.60600 30.72500
H  10.67600 46.08300 32.32800
H  8.91600 45.83000 32.11400
H  8.49000 47.33500 34.03800
H  10.26500 47.63100 34.12700
H  14.59800 49.64300 26.36000
H  14.83600 47.82500 26.46400
H  14.25100 48.65800 27.83600
H  14.99300 49.58000 24.27000
H  15.03500 48.98000 22.60800
H  14.86600 47.83300 23.93100
H  7.94200 48.29100 22.03100
H  5.59400 49.32600 23.45100
H  8.32100 51.06000 22.98500
H  6.76200 50.73200 22.02600
H  8.17000 50.39400 21.33900
H  4.76900 46.96900 22.88800
H  6.28600 46.51300 22.19700
H  5.39300 48.88700 20.92700
H  4.03100 47.79200 21.01100
H  5.63800 47.30000 20.24200
H  2.64300 46.71900 28.54600
H  2.90400 46.76300 26.85100
H  2.76000 48.38000 27.75600
H  6.42400 48.27800 31.96100
H  6.27500 45.64900 35.12500
H  7.02500 44.63100 33.90600
H  5.30600 44.55600 34.30800

