158

Mg -0.41900 7.28300 27.27200
C  0.57700 9.36400 29.99000
C  -0.40100 4.64500 29.33100
C  -0.62900 5.31000 24.55400
C  0.28600 10.08200 25.24400
N  0.16500 7.05000 29.37700
C  0.27500 8.03700 30.31900
C  0.07400 7.44200 31.75800
C  0.09600 5.91200 31.49500
C  -0.01900 5.82500 29.96200
C  1.31600 5.13100 32.11500
C  -1.18800 8.10500 32.37600
C  -1.10700 8.50000 33.83600
H  -0.21800 7.64100 34.80700
N  -0.62700 5.25000 27.06100
C  -0.62500 4.32300 28.00500
C  -1.04800 3.02300 27.50900
C  -1.17800 3.22300 26.04800
C  -0.73300 4.61300 25.84300
C  -1.44900 1.79100 28.36300
C  -1.52700 2.26700 25.03600
O  -1.49100 2.55900 23.82000
C  -1.98100 0.96800 25.44900
N  -0.49400 7.65600 25.12400
C  -0.52200 6.68900 24.22100
C  -0.49900 7.23100 22.77500
C  -0.37100 8.80600 23.09500
C  -0.15300 8.86900 24.59100
C  0.49200 6.70400 21.73300
C  -1.68600 9.57400 22.68600
C  -1.69700 11.11900 22.79300
N  0.20400 9.34900 27.49900
C  0.47200 10.34800 26.61200
C  0.74200 11.62200 27.25800
C  0.79500 11.21800 28.58700
C  0.52700 9.82200 28.69300
C  0.84100 12.93100 26.55800
C  1.12500 11.77800 29.94500
O  1.55200 12.88800 30.23400
C  0.84100 10.57700 30.91000
C  2.03000 10.39700 31.81900
O  3.02000 9.90400 31.35400
O  1.90900 11.00400 33.03100
C  3.03300 10.73200 33.92700
H  -0.44100 3.76300 29.97300
H  -0.88000 4.73300 23.66200
H  0.49100 10.93900 24.59900
H  0.96700 7.62200 32.35600
H  -0.75400 5.37700 31.92100
H  0.89400 4.19700 32.48600
H  1.76000 5.72200 32.91500
H  2.09500 4.84200 31.40900
H  -1.99000 7.36900 32.31700
H  -1.42600 9.03700 31.86400
H  -2.12100 8.42000 34.22900
H  -0.85500 9.56000 33.88600
H  -2.52800 1.66600 28.27600
H  -1.35700 1.91700 29.44200
H  -0.99600 0.87300 27.99000
H  -1.21500 0.31800 25.87100
H  -2.27400 0.58000 24.47400
H  -2.87200 0.99000 26.07800
H  -1.44800 6.98400 22.29900
H  0.46200 9.34600 22.64400
H  0.95200 7.58800 21.29100
H  0.01700 6.03700 21.01300
H  1.29000 6.15800 22.23600
H  -2.48100 9.40800 23.41300
H  -1.99800 9.22100 21.70300
H  -2.14200 11.51100 23.70700
H  -2.22100 11.49200 21.91300
H  -0.68100 11.43600 22.55600
H  0.23900 12.97800 25.65100
H  1.84700 13.25500 26.29000
H  0.37200 13.67200 27.20700
H  -0.00800 10.94900 31.48300
H  3.37500 11.65700 34.39200
H  3.87000 10.19900 33.47600
H  2.63000 10.07000 34.69400
Mg 24.63600 -5.53200 46.12200
C  26.71700 -3.18300 44.37700
C  22.03400 -4.36800 44.36100
C  23.12500 -8.44000 46.80300
C  27.63700 -6.69200 47.68000
N  24.44300 -3.97900 44.62400
C  25.39800 -3.23500 43.91600
C  24.82900 -2.38300 42.83500
C  23.29400 -2.50500 43.01100
C  23.26400 -3.69900 44.09100
C  22.61800 -1.16100 43.57500
C  25.48900 -2.74300 41.45900
C  25.88000 -1.63200 40.49500
H  25.38000 -1.74400 39.03300
N  22.74200 -6.22100 45.83600
C  21.80800 -5.54600 45.12700
C  20.57300 -6.29900 45.12200
C  20.95000 -7.59600 45.66000
C  22.29900 -7.46900 46.21100
C  19.31100 -5.85500 44.43000
C  19.97800 -8.82200 45.66900
O  18.75000 -8.80500 45.37000
C  20.44000 -10.14500 46.15300
N  25.31200 -7.24800 47.13800
C  24.47300 -8.36100 47.18500
C  25.24700 -9.49000 47.84300
C  26.63600 -8.91300 48.31400
C  26.53000 -7.52600 47.69500
C  24.43300 -10.26300 49.00000
C  27.91400 -9.71500 47.93100
C  28.85400 -9.85200 49.14800
N  26.77900 -5.10300 46.07100
C  27.82200 -5.50000 46.90500
C  28.97900 -4.67800 46.73800
C  28.63500 -3.77800 45.68900
C  27.29100 -4.11900 45.31900
C  30.38200 -4.88500 47.33500
C  29.14300 -2.66600 44.91800
O  30.16700 -2.07100 44.91800
C  27.90700 -2.29500 43.95600
C  27.63200 -0.84800 44.16700
O  27.01800 -0.33000 45.07300
O  28.14600 -0.13600 43.16700
C  28.32800 1.27900 43.50700
H  21.18100 -4.14000 43.71900
H  22.81000 -9.47500 46.95100
H  28.47900 -6.94300 48.32900
H  24.95000 -1.30000 42.85600
H  22.73100 -2.78000 42.11900
H  23.16300 -0.24700 43.34100
H  22.46300 -1.16800 44.65400
H  21.67100 -0.92900 43.08800
H  24.79200 -3.41900 40.96400
H  26.34900 -3.37600 41.67900
H  26.96000 -1.54700 40.37900
H  25.69700 -0.63400 40.89500
H  18.36200 -6.38900 44.39300
H  19.50000 -5.78000 43.35900
H  19.07100 -4.84300 44.75900
H  19.64500 -10.88800 46.08400
H  20.74100 -10.00600 47.19100
H  21.25400 -10.37400 45.46500
H  25.53600 -10.25400 47.12100
H  26.58900 -8.75900 49.39200
H  24.17900 -11.28900 48.73600
H  23.49100 -9.72400 49.10600
H  25.01600 -10.14200 49.91400
H  28.46600 -9.26400 47.10700
H  27.83500 -10.77400 47.68600
H  29.72200 -9.21800 48.96900
H  29.16000 -10.89700 49.21600
H  28.42900 -9.52700 50.09800
H  30.86100 -5.85400 47.19400
H  30.18400 -4.70300 48.39100
H  30.95200 -4.14100 46.77700
H  28.28600 -2.39600 42.93900
H  29.33200 1.60400 43.23400
H  28.35800 1.49000 44.57700
H  27.55200 1.90800 43.07000

