158

Mg 7.04600 2.87500 27.94800
C  8.65500 1.44200 30.88700
C  5.23100 4.78700 30.08800
C  5.50700 4.20300 25.26400
C  8.71300 0.67000 26.04700
N  6.91900 3.00400 30.32000
C  7.77200 2.44600 31.23000
C  7.46100 3.09900 32.60100
C  6.10400 4.01100 32.38200
C  6.14300 3.99900 30.82400
C  4.81200 3.44100 32.85000
C  8.61300 3.99600 33.01900
C  8.42200 4.72700 34.40000
H  9.34900 4.25000 35.47400
N  5.60600 4.28500 27.70000
C  4.91300 4.96300 28.70000
C  3.93400 5.91000 28.17700
C  4.10600 5.85500 26.74600
C  5.11700 4.80900 26.49200
C  3.08900 6.76700 29.10100
C  3.35200 6.65300 25.76400
O  3.61200 6.52100 24.59300
C  2.27700 7.73000 26.11800
N  6.99300 2.46200 25.96700
C  6.39200 3.14800 24.97700
C  6.72800 2.65400 23.54800
C  7.91500 1.66800 23.90000
C  7.82000 1.53300 25.43500
C  5.45200 2.04500 22.88400
C  9.27800 2.21800 23.39000
C  10.06200 3.18800 24.33600
N  8.25600 1.28300 28.35700
C  8.96300 0.54100 27.47700
C  9.82500 -0.34700 28.10400
C  9.72800 -0.09700 29.48700
C  8.82100 0.98800 29.58400
C  10.69100 -1.37300 27.33800
C  10.28100 -0.35900 30.79800
O  11.16200 -1.16500 31.12600
C  9.66000 0.68900 31.75200
C  9.07200 -0.01000 32.86800
O  7.95500 -0.44500 32.87500
O  9.96900 -0.18100 33.90700
C  9.50500 -0.56400 35.27800
H  4.87900 5.50900 30.82800
H  4.92500 4.58500 24.42200
H  9.21900 -0.06700 25.42000
H  7.21800 2.32300 33.32800
H  6.27300 4.99200 32.82600
H  4.57900 4.00600 33.75200
H  4.90500 2.36900 33.03000
H  4.00400 3.67100 32.15600
H  8.70600 4.81800 32.30900
H  9.53800 3.42000 33.05900
H  7.42500 4.43600 34.73000
H  8.52400 5.77700 34.12600
H  3.13800 7.80700 28.77800
H  3.50300 6.73400 30.10900
H  2.04300 6.45800 29.11000
H  1.57400 7.32900 26.84800
H  1.78700 8.08300 25.21100
H  2.79600 8.51900 26.66300
H  7.11800 3.60000 23.17300
H  7.57900 0.71700 23.48600
H  4.52300 2.34900 23.36700
H  5.52200 0.96000 22.95200
H  5.37200 2.27000 21.82000
H  9.03900 2.66000 22.42300
H  9.83600 1.32700 23.10000
H  9.90000 4.19500 23.95300
H  11.13900 3.02000 24.34500
H  9.80900 3.14500 25.39500
H  11.63200 -1.68400 27.79100
H  10.98600 -1.06200 26.33600
H  10.04500 -2.23600 27.17600
H  10.35000 1.48800 32.02200
H  8.58900 -1.15400 35.28700
H  9.21600 0.38300 35.73500
H  10.24200 -1.07100 35.90000
Mg 1.53100 41.99300 25.24000
C  2.82900 42.03100 28.62400
C  -1.33900 40.52300 26.45700
C  0.66200 41.51500 22.07200
C  4.80000 42.84000 24.29600
N  0.71000 41.67700 27.37700
C  1.45000 41.59600 28.56200
C  0.56000 41.16500 29.75400
C  -0.71500 40.69100 28.99000
C  -0.43200 40.95400 27.48300
C  -1.09400 39.20100 29.25900
C  0.24000 42.23800 30.83300
C  -0.14200 41.83700 32.22500
H  -1.19800 40.69500 32.41400
N  -0.08100 41.27900 24.32100
C  -1.21300 40.76700 24.99100
C  -2.14100 40.21600 24.03300
C  -1.64500 40.52100 22.72900
C  -0.30200 41.17700 23.00100
C  -3.39900 39.56000 24.49100
C  -2.10200 40.10500 21.35400
O  -1.47700 40.36700 20.29600
C  -3.36100 39.34600 21.22600
N  2.64800 42.05900 23.48300
C  2.02500 41.87800 22.23200
C  2.95100 42.18000 21.07500
C  4.11900 42.85600 21.82600
C  3.86400 42.56700 23.29300
C  3.30700 40.86600 20.24800
C  4.19600 44.34800 21.55300
C  3.04500 45.22400 21.97100
N  3.45100 42.33100 26.22700
C  4.65800 42.68200 25.66800
C  5.72100 42.75900 26.70000
C  5.00300 42.55400 27.91600
C  3.64100 42.26500 27.56100
C  7.18400 42.93600 26.55900
C  5.20600 42.37500 29.30400
O  6.17800 42.49900 30.02800
C  3.75300 42.03200 29.88700
C  3.74200 40.69400 30.55600
O  4.43800 39.71000 30.21200
O  2.90500 40.69600 31.65000
C  2.94400 39.47800 32.45200
H  -2.23600 40.02400 26.83200
H  0.38300 41.23100 21.05500
H  5.72900 43.25300 23.89800
H  0.98200 40.21600 30.08400
H  -1.50700 41.43600 29.06800
H  -0.37700 38.76700 29.95500
H  -0.93300 38.52200 28.42200
H  -2.06900 39.06600 29.72700
H  -0.56500 42.87600 30.47000
H  1.13400 42.85700 30.91100
H  -0.38500 42.73000 32.80000
H  0.79200 41.50800 32.68000
H  -3.66600 39.77600 25.52600
H  -3.28100 38.48200 24.38000
H  -4.27700 39.84500 23.91100
H  -3.25000 38.39700 21.75000
H  -3.39900 39.15600 20.15300
H  -4.26800 39.87500 21.51700
H  2.43100 42.75600 20.30900
H  5.03100 42.32900 21.54800
H  4.31000 40.51100 20.48400
H  3.27800 41.26500 19.23400
H  2.61800 40.03500 20.40300
H  4.45800 44.62400 20.53200
H  5.09200 44.71300 22.05700
H  2.63300 45.69900 21.08100
H  3.39700 45.93400 22.71900
H  2.24000 44.70200 22.48800
H  7.75800 42.12400 27.00600
H  7.38700 43.82100 27.16200
H  7.42200 43.07400 25.50400
H  3.43500 42.84700 30.53800
H  3.61400 38.70100 32.08200
H  1.91400 39.12900 32.51200
H  3.30300 39.64200 33.46800

