158

Mg 43.51100 3.79700 48.59500
C  41.28000 6.27500 47.67700
C  41.06300 1.47100 48.13100
C  45.93200 1.34800 48.28300
C  46.17600 6.24100 48.41500
N  41.45400 3.91800 47.81200
C  40.71900 5.06600 47.59200
C  39.22100 4.69100 47.31000
C  39.16100 3.20400 47.84800
C  40.67400 2.83100 47.93300
C  38.55400 3.01400 49.28600
C  38.93400 4.69500 45.76000
C  37.75300 5.47600 45.19800
H  37.91500 6.46200 44.07200
N  43.49400 1.69200 48.50200
C  42.33300 0.95400 48.23700
C  42.66500 -0.42900 48.28800
C  44.09200 -0.55700 48.37700
C  44.60200 0.83400 48.40300
C  41.59000 -1.53800 48.27400
C  44.85000 -1.83000 48.45000
O  44.31900 -2.89800 48.32300
C  46.33900 -1.87500 48.71700
N  45.69500 3.79500 48.36600
C  46.45200 2.67100 48.29100
C  47.95300 2.93200 48.21700
C  48.03500 4.47100 48.41800
C  46.53600 4.89300 48.46400
C  48.77900 2.10500 49.23400
C  48.85500 5.27700 47.32800
C  49.88300 6.22900 47.93700
N  43.70700 5.81200 48.21300
C  44.86000 6.61300 48.17500
C  44.43100 7.94900 48.03400
C  43.02800 7.88300 47.82000
C  42.65900 6.53400 47.90700
C  45.28600 9.22400 48.00300
C  41.76000 8.67600 47.53900
O  41.54800 9.90600 47.45700
C  40.56600 7.59700 47.44200
C  39.60400 7.93700 48.46200
O  39.54700 7.56100 49.64700
O  38.60800 8.59500 47.85500
C  37.40400 8.81100 48.55900
H  40.27900 0.73400 48.31700
H  46.66300 0.55200 48.13000
H  46.95900 6.99700 48.50400
H  38.61400 5.36600 47.91400
H  38.67900 2.48300 47.18800
H  39.30400 3.23500 50.04600
H  38.12400 2.01200 49.29000
H  37.77200 3.73800 49.51800
H  38.80200 3.63100 45.56100
H  39.78700 5.05500 45.18500
H  37.38100 6.05000 46.04600
H  37.02000 4.76400 44.81800
H  41.84100 -2.13100 47.39500
H  40.55100 -1.25200 48.43900
H  41.81900 -2.11800 49.16800
H  46.75200 -1.55400 47.76100
H  46.64000 -2.92100 48.77800
H  46.44700 -1.35800 49.67100
H  48.23400 2.62800 47.20900
H  48.30700 4.82100 49.41300
H  48.10700 1.71400 49.99800
H  49.45100 2.71900 49.83400
H  49.35700 1.30400 48.77300
H  48.18300 5.93900 46.78000
H  49.40700 4.50100 46.79700
H  49.53500 7.25300 47.80900
H  50.78000 6.14700 47.32200
H  50.09300 6.14600 49.00300
H  45.61800 9.42400 46.98400
H  46.18300 9.24300 48.62200
H  44.60300 9.99900 48.35000
H  40.16000 7.64200 46.43100
H  36.66800 9.14300 47.82700
H  37.41200 9.56400 49.34700
H  36.87200 7.92600 48.90800
Mg -0.54500 43.49500 25.99900
C  1.60000 43.37600 28.86500
C  -3.11400 42.38900 28.10500
C  -2.47500 43.50900 23.29100
C  2.32000 44.16800 24.08400
N  -0.69700 43.00100 28.27100
C  0.26400 43.10400 29.23100
C  -0.28700 42.74800 30.60300
C  -1.70700 42.14100 30.26700
C  -1.89100 42.57000 28.83500
C  -1.83400 40.60800 30.58600
C  -0.17300 44.00700 31.51200
C  0.53600 43.72600 32.93400
H  0.43400 42.33000 33.66800
N  -2.54100 43.00800 25.74800
C  -3.45300 42.56200 26.71300
C  -4.76400 42.45800 26.04300
C  -4.52500 42.79500 24.65700
C  -3.10500 43.09300 24.54500
C  -5.99300 41.90800 26.68900
C  -5.55500 42.76200 23.52600
O  -5.33000 43.31100 22.43100
C  -6.85400 42.07900 23.77000
N  -0.12700 43.68200 23.84700
C  -1.17600 43.78600 22.96800
C  -0.66600 44.41900 21.64200
C  0.87100 44.60000 21.86900
C  1.07600 44.13100 23.32900
C  -1.11700 43.48600 20.47200
C  1.33700 46.04100 21.70700
C  1.84700 46.51200 20.34700
N  1.52200 43.62500 26.29300
C  2.55900 43.88600 25.40200
C  3.85900 43.76300 26.07600
C  3.52400 43.67000 27.35800
C  2.12300 43.54300 27.51100
C  5.21600 43.75300 25.45800
C  4.07700 43.65400 28.72100
O  5.29000 43.68700 29.05200
C  2.86600 43.46800 29.73900
C  3.10200 42.23800 30.44600
O  2.96900 41.05400 30.00500
O  3.60500 42.66700 31.70600
C  4.07400 41.55600 32.53600
H  -3.84100 41.76200 28.62500
H  -3.20300 43.59800 22.48200
H  3.17500 44.36400 23.43400
H  0.36200 42.02900 31.10400
H  -2.55100 42.47000 30.87300
H  -2.70900 40.49300 31.22600
H  -1.03200 40.25600 31.23500
H  -1.90000 39.97600 29.70000
H  -1.21000 44.32300 31.63400
H  0.45000 44.81300 31.12400
H  0.24600 44.46200 33.68400
H  1.61200 43.86900 32.83200
H  -5.82500 41.87700 27.76500
H  -6.41900 40.94300 26.41500
H  -6.82400 42.60200 26.55600
H  -6.46800 41.10300 24.06400
H  -7.30500 42.03800 22.77800
H  -7.40200 42.53000 24.59700
H  -1.27800 45.31500 21.53200
H  1.42400 43.97300 21.16900
H  -0.71500 43.82900 19.51800
H  -2.20400 43.40000 20.45300
H  -0.67200 42.49800 20.59000
H  1.99600 46.43600 22.48000
H  0.48100 46.66400 21.96500
H  2.27200 45.80200 19.63700
H  2.55000 47.29400 20.63200
H  1.05800 47.04800 19.81900
H  5.88600 44.04800 26.26600
H  5.16300 44.56300 24.73100
H  5.44800 42.80200 24.97800
H  2.91100 44.34900 30.38100
H  5.10100 41.30100 32.27600
H  3.55500 40.61200 32.37100
H  4.17700 41.77900 33.59800

