158

Mg 25.63300 0.05700 28.85600
C  27.37000 0.24100 31.83200
C  22.78300 0.28600 30.58600
C  24.09900 0.14600 25.81600
C  28.63900 -0.67000 27.29400
N  25.21100 0.24200 31.03400
C  26.02000 0.41200 32.02900
C  25.25700 0.66300 33.34200
C  23.78800 0.64000 32.91100
C  23.92400 0.36000 31.44100
C  22.92300 -0.42600 33.56300
C  25.69100 1.92900 34.13500
C  26.22500 1.71800 35.55200
H  25.39500 2.39700 36.64400
N  23.74600 0.15300 28.28900
C  22.70500 0.20000 29.17600
C  21.45300 0.21500 28.36400
C  21.84300 0.26300 26.99400
C  23.33200 0.20000 26.98200
C  20.09200 0.23800 29.01000
C  20.95400 0.47700 25.76500
O  21.36400 0.43600 24.62000
C  19.45100 0.87500 25.90400
N  26.31500 -0.13300 26.76300
C  25.47600 -0.06100 25.71200
C  26.24700 -0.02900 24.41800
C  27.64400 -0.49200 24.85400
C  27.54000 -0.49700 26.40000
C  25.53900 -0.95400 23.37800
C  28.80900 0.37800 24.31500
C  28.69500 1.87600 24.43200
N  27.54300 -0.29600 29.41000
C  28.68500 -0.63400 28.68500
C  29.82300 -0.87800 29.54600
C  29.30500 -0.49600 30.78700
C  27.95200 -0.11900 30.62600
C  31.07500 -1.48700 29.08400
C  29.75900 -0.42900 32.17600
O  30.83500 -0.73800 32.61100
C  28.44100 0.09700 32.90200
C  28.11900 -1.05400 33.83000
O  27.65100 -2.15000 33.44400
O  28.49700 -0.71500 35.06700
C  28.58900 -1.82700 36.07800
H  21.80400 0.53900 31.00000
H  23.70600 0.35300 24.81800
H  29.58300 -0.88400 26.78900
H  25.36500 -0.27400 33.88800
H  23.41700 1.65500 33.05400
H  23.01800 -0.25000 34.63500
H  23.27000 -1.44600 33.39800
H  21.84900 -0.43700 33.37700
H  24.94500 2.72400 34.13900
H  26.50100 2.40900 33.58600
H  27.22800 2.14100 35.61700
H  26.45100 0.67400 35.77300
H  19.60000 1.16000 28.70100
H  20.02800 0.20600 30.09700
H  19.50300 -0.60400 28.64600
H  18.96800 0.01700 26.37100
H  19.11500 1.16700 24.90900
H  19.36500 1.72100 26.58700
H  26.23300 0.98100 24.00800
H  27.86800 -1.54900 24.71500
H  25.25300 -1.84500 23.93700
H  26.18100 -1.33100 22.58100
H  24.71600 -0.48200 22.84100
H  28.91000 -0.02300 23.30700
H  29.59900 0.06200 24.99600
H  27.84200 2.28100 24.97600
H  28.76100 2.41800 23.48900
H  29.62400 2.18200 24.91300
H  31.82700 -1.38100 29.86600
H  31.45200 -1.01300 28.17800
H  30.76000 -2.52100 28.94200
H  28.59000 0.97700 33.52800
H  28.50400 -2.83900 35.68000
H  27.76900 -1.55800 36.74300
H  29.44400 -1.86100 36.75300
Mg 36.13500 48.85900 24.10200
C  36.44900 47.30100 27.30800
C  34.61900 51.55300 25.71200
C  35.87200 50.18800 21.15700
C  37.64200 46.06800 22.68700
N  35.56600 49.31100 26.35400
C  35.88200 48.56000 27.44700
C  35.45200 49.30000 28.74400
C  34.95000 50.73600 28.17800
C  34.98600 50.52600 26.62000
C  33.47600 51.14200 28.69600
C  36.70900 49.37200 29.74500
C  36.34300 49.20100 31.26900
H  34.90000 49.11100 31.73000
N  35.25400 50.59500 23.51700
C  34.74500 51.59900 24.24200
C  34.40300 52.70300 23.40200
C  34.79600 52.39500 22.06200
C  35.31900 50.98600 22.14600
C  33.87300 53.93500 23.92400
C  34.82200 53.18800 20.74900
O  34.95900 52.62600 19.64600
C  34.60100 54.69600 20.79800
N  36.51000 48.16200 22.18500
C  36.39400 48.95900 21.14600
C  36.80300 48.30400 19.86100
C  37.46900 47.00600 20.36100
C  37.24900 47.09800 21.82300
C  35.57900 48.07700 18.90500
C  38.91500 46.91700 20.08900
C  39.84000 47.93000 20.79500
N  36.89100 47.00300 24.78400
C  37.41300 45.94900 24.07800
C  37.74300 44.86000 24.97100
C  37.34600 45.34200 26.22900
C  36.95100 46.69600 26.10400
C  38.26300 43.51400 24.63700
C  37.14000 44.99500 27.62500
O  37.31400 43.89800 28.19500
C  36.64500 46.25200 28.40100
C  35.42200 46.00300 29.29500
O  34.25400 45.84400 28.90000
O  35.84300 45.96100 30.58800
C  34.96700 45.21200 31.54900
H  34.30400 52.47900 26.19700
H  35.84800 50.55900 20.13000
H  38.25300 45.27700 22.24700
H  34.58100 48.78300 29.14800
H  35.71600 51.48700 28.37000
H  33.46800 52.15600 29.09700
H  33.15800 50.44800 29.47400
H  32.75200 51.11700 27.88200
H  37.05500 50.40200 29.65800
H  37.47600 48.67500 29.40700
H  36.62900 50.15200 31.71800
H  36.91300 48.51400 31.89500
H  34.20000 54.78700 23.32900
H  34.28600 54.07900 24.92300
H  32.78400 53.89800 23.89300
H  34.75200 55.01300 19.76600
H  35.38900 55.16000 21.39100
H  33.58100 54.88600 21.13300
H  37.50600 49.03400 19.46100
H  36.96000 46.10100 20.02900
H  34.72500 48.02900 19.58100
H  35.63400 47.16700 18.30700
H  35.47900 48.84100 18.13400
H  39.00700 46.91900 19.00300
H  39.16300 45.89000 20.35600
H  39.21700 48.62700 21.35500
H  40.51200 48.43600 20.10200
H  40.41000 47.43700 21.58200
H  39.33200 43.62400 24.45900
H  37.64200 43.06700 23.86000
H  38.02200 42.94100 25.53300
H  37.43100 46.53800 29.09900
H  34.36700 45.84800 32.19900
H  35.49200 44.52200 32.21000
H  34.25900 44.59300 31.00000

