158

Mg 43.40200 2.81100 48.02400
C  41.23000 5.48200 47.15000
C  40.95200 0.50600 47.65000
C  45.73800 0.41100 48.28200
C  46.05500 5.26000 47.84100
N  41.32000 3.01000 47.23100
C  40.58700 4.18100 47.20800
C  39.06500 3.82100 47.05900
C  39.02000 2.26800 47.38300
C  40.53200 1.87100 47.47000
C  38.18100 2.02300 48.80200
C  38.55900 4.19500 45.59500
C  37.66500 5.45300 45.60800
H  37.77100 6.38600 44.35600
N  43.38800 0.75500 47.90000
C  42.24700 0.00800 47.74800
C  42.57500 -1.38400 47.97300
C  43.97100 -1.44300 48.21500
C  44.49000 -0.11400 48.10100
C  41.67300 -2.47900 47.89300
C  44.75300 -2.72900 48.56200
O  44.16400 -3.79000 48.60300
C  46.22000 -2.82200 48.61600
N  45.52800 2.83300 47.82600
C  46.20500 1.72000 48.13100
C  47.71000 2.03500 48.34800
C  47.83600 3.42500 47.73100
C  46.40000 3.90100 47.79300
C  48.14600 1.98900 49.83000
C  48.33500 3.41800 46.25700
C  49.79800 3.65100 46.04300
N  43.64400 5.03100 47.70600
C  44.76400 5.80300 47.77100
C  44.33000 7.25100 47.72100
C  42.97600 7.15700 47.46200
C  42.61400 5.78000 47.34600
C  45.21600 8.43800 48.06500
C  41.79400 7.96400 47.35000
O  41.51500 9.16300 47.29400
C  40.60100 6.84800 47.10600
C  39.60400 7.00300 48.14900
O  39.70500 6.58300 49.31600
O  38.66200 7.89000 47.70900
C  37.81200 8.40000 48.77900
H  40.11200 -0.19200 47.64600
H  46.60100 -0.22200 48.49500
H  46.86000 5.98900 47.72700
H  38.47900 4.35800 47.80500
H  38.46500 1.70400 46.63300
H  37.50300 2.84600 49.02600
H  38.84400 1.99000 49.66700
H  37.71200 1.03900 48.78300
H  37.97400 3.39000 45.15200
H  39.42400 4.38400 44.95800
H  37.67900 6.12600 46.46500
H  36.62600 5.12600 45.57300
H  41.82900 -2.94700 46.92100
H  40.62600 -2.21500 48.03600
H  41.83200 -3.23400 48.66400
H  46.52900 -2.30700 47.70600
H  46.48700 -3.87700 48.68500
H  46.54200 -2.35400 49.54600
H  48.30400 1.38400 47.70600
H  48.52900 4.06400 48.27900
H  47.28800 1.69000 50.43200
H  48.74800 2.81900 50.20100
H  48.83700 1.15100 49.92300
H  47.71400 4.14700 45.73700
H  47.98200 2.51300 45.76300
H  49.84800 4.43700 45.28900
H  50.33800 2.98700 45.36800
H  50.42600 3.86200 46.90800
H  45.97700 8.54200 47.29100
H  45.59400 8.17900 49.05300
H  44.56000 9.30200 47.95200
H  40.22700 7.03100 46.09800
H  37.09100 8.97000 48.19300
H  38.28000 9.09200 49.47900
H  37.25600 7.58900 49.25000
Mg 6.87800 54.56600 41.15100
C  6.27700 51.16500 41.28400
C  10.09800 53.97800 39.92700
C  7.14300 57.87000 40.26300
C  3.48800 55.18400 42.17300
N  8.00700 52.70400 40.43400
C  7.57000 51.45200 40.77900
C  8.76300 50.49900 40.58700
C  10.01400 51.38500 40.33700
C  9.37700 52.80300 40.35500
C  11.15600 51.23600 41.43300
C  8.61600 49.39700 39.60800
C  8.55500 49.70800 38.14800
H  7.25700 49.28900 37.48600
N  8.44000 55.77500 40.33400
C  9.68900 55.33400 39.95700
C  10.47800 56.48100 39.53000
C  9.59100 57.56600 39.37700
C  8.33100 57.10900 40.03000
C  11.91100 56.47700 39.06700
C  9.85700 58.87200 38.59600
O  10.94600 58.95400 38.11700
C  8.86300 59.84000 38.33000
N  5.47700 56.25900 41.08400
C  5.92000 57.48400 40.80500
C  4.81400 58.55500 41.23300
C  3.56000 57.68800 41.47800
C  4.20900 56.26200 41.57800
C  5.25100 59.48600 42.34200
C  2.43200 57.73000 40.32100
C  1.65900 59.00400 40.37300
N  5.23600 53.44900 41.70100
C  4.03200 53.81000 42.19900
C  3.37100 52.67700 42.69800
C  4.15900 51.60300 42.38300
C  5.27300 52.11300 41.66800
C  1.98000 52.52800 43.31800
C  4.39100 50.19900 42.42700
O  3.83400 49.29900 43.05100
C  5.60000 49.82900 41.55500
C  5.18200 49.11700 40.32700
O  4.26600 49.48000 39.59800
O  5.69200 47.77200 40.20500
C  4.71500 46.91500 39.42800
H  11.02600 53.71400 39.41600
H  7.18400 58.95800 40.17400
H  2.48200 55.30100 42.58300
H  8.91500 49.88100 41.47200
H  10.41400 51.24600 39.33300
H  10.89600 50.39200 42.07300
H  11.12800 52.14400 42.03500
H  12.06700 51.02000 40.87600
H  7.72600 48.78800 39.76700
H  9.44200 48.69500 39.72100
H  9.38700 49.21300 37.64800
H  8.68900 50.78000 38.00400
H  12.22300 56.59200 38.02900
H  12.32300 55.52800 39.41000
H  12.37400 57.35300 39.52000
H  8.10700 59.54500 37.60300
H  9.46600 60.64800 37.91700
H  8.53100 60.10100 39.33500
H  4.56600 59.18300 40.37700
H  3.14600 57.92100 42.45900
H  6.26400 59.20900 42.63300
H  4.64700 59.39500 43.24500
H  5.20200 60.51900 41.99800
H  1.72000 56.91700 40.46200
H  2.82700 57.82300 39.30900
H  1.73500 59.60900 39.47000
H  1.95600 59.56100 41.26200
H  0.63300 58.71200 40.59600
H  1.20200 53.10700 42.82000
H  2.03700 52.85700 44.35600
H  1.76200 51.46100 43.27400
H  6.23700 49.18200 42.15900
H  4.93100 45.84700 39.42500
H  4.64100 47.16900 38.37100
H  3.76900 46.99000 39.96300

