158

Mg -1.92500 17.13500 25.59600
C  -2.03900 15.08000 28.45600
C  -2.79200 19.73000 27.53500
C  -1.91700 18.97600 22.81400
C  -1.50500 14.22100 23.65400
N  -2.23200 17.26500 27.75100
C  -2.23700 16.37000 28.73100
C  -2.53300 17.01200 30.19700
C  -2.93300 18.46100 29.74300
C  -2.58700 18.54400 28.23400
C  -4.41700 18.86100 29.97000
C  -1.30400 16.89900 31.12700
C  -1.52000 16.15600 32.45100
H  -2.22500 16.87300 33.58000
N  -2.20400 19.11900 25.26600
C  -2.54600 20.05300 26.23200
C  -2.49000 21.35500 25.55600
C  -2.20800 21.18100 24.17700
C  -1.99700 19.70100 24.06000
C  -2.63800 22.72200 26.32500
C  -1.99600 22.22000 23.06500
O  -2.09200 21.97400 21.87400
C  -1.76200 23.70700 23.45700
N  -1.75700 16.66000 23.54900
C  -1.86000 17.60600 22.55900
C  -1.80700 16.99000 21.12100
C  -1.33900 15.59100 21.41800
C  -1.58800 15.45000 22.94600
C  -3.02300 17.17600 20.25500
C  0.09500 15.39900 20.88900
C  1.16100 16.04400 21.80600
N  -1.78600 15.02000 25.98500
C  -1.62300 13.95100 25.07700
C  -1.53400 12.71300 25.73500
C  -1.76700 13.05300 27.08200
C  -1.86800 14.43300 27.17900
C  -1.38500 11.29800 25.20500
C  -1.92100 12.53700 28.45700
O  -1.94100 11.37000 28.82100
C  -1.97500 13.77600 29.35300
C  -0.65600 13.70700 30.10200
O  0.40800 14.20500 29.72200
O  -0.87600 12.91900 31.22100
C  0.24800 12.65900 32.19100
H  -3.14800 20.55100 28.16100
H  -1.90800 19.50800 21.86100
H  -1.23900 13.37400 23.01700
H  -3.36900 16.54800 30.72100
H  -2.27500 19.19300 30.21100
H  -4.41300 19.87400 30.37400
H  -4.91900 18.23900 30.71100
H  -4.92600 18.87000 29.00600
H  -1.05200 17.89800 31.48300
H  -0.46800 16.43200 30.60700
H  -0.55100 15.80000 32.80100
H  -2.14500 15.28700 32.24500
H  -2.72200 22.53100 27.39500
H  -3.40700 23.37900 25.92000
H  -1.66400 23.18100 26.15700
H  -1.83200 24.23200 22.50400
H  -0.77300 23.91600 23.86600
H  -2.64400 24.09700 23.96400
H  -0.96300 17.53300 20.69500
H  -1.94600 14.80100 20.97700
H  -2.64200 17.56500 19.31000
H  -3.67700 17.90100 20.74000
H  -3.51300 16.21500 20.10000
H  0.29800 15.69300 19.85900
H  0.38900 14.34900 20.86200
H  0.68300 16.85200 22.35900
H  2.04300 16.44700 21.30900
H  1.47800 15.30200 22.53900
H  -0.87500 10.65900 25.92600
H  -0.71000 11.31300 24.34900
H  -2.40300 10.92800 25.08800
H  -2.79100 13.61200 30.05600
H  0.00300 11.71700 32.68100
H  0.22900 13.46800 32.92000
H  1.25500 12.61300 31.77600
Mg -4.71000 24.88500 25.89800
C  -2.89500 26.44500 28.51000
C  -5.74400 22.63400 28.13800
C  -6.36400 23.56000 23.47800
C  -3.11000 27.13100 23.59900
N  -4.38200 24.69000 28.05300
C  -3.73700 25.46100 28.90800
C  -4.07600 25.15900 30.39300
C  -4.71200 23.78900 30.22100
C  -5.03000 23.67700 28.69900
C  -3.79800 22.64000 30.70000
C  -5.09600 26.25700 30.88800
C  -5.02300 26.43000 32.44500
H  -4.62300 25.24700 33.33500
N  -5.95700 23.33100 25.82300
C  -6.18600 22.45900 26.80500
C  -6.88600 21.29000 26.27300
C  -7.15200 21.52100 24.88800
C  -6.50300 22.84300 24.68500
C  -7.47300 20.16700 27.20700
C  -7.97400 20.77300 23.87000
O  -8.26500 21.27700 22.79500
C  -8.54000 19.38100 24.18300
N  -4.89400 25.48400 23.85500
C  -5.60800 24.67200 23.08000
C  -5.41300 24.85400 21.57000
C  -4.45400 26.09600 21.58900
C  -4.14200 26.31500 23.10200
C  -4.76600 23.59500 20.95100
C  -5.03800 27.31400 20.89200
C  -4.20500 27.76200 19.70800
N  -3.25400 26.41700 25.96600
C  -2.73200 27.24400 24.96000
C  -1.81700 28.22400 25.60100
C  -1.89100 27.99400 26.96000
C  -2.70600 26.81700 27.16700
C  -1.15400 29.33600 24.90500
C  -1.31900 28.43300 28.27200
O  -0.48100 29.30400 28.51300
C  -2.11000 27.48400 29.37200
C  -1.12500 26.79200 30.22600
O  -0.24700 26.06900 29.92100
O  -1.44600 27.11700 31.52900
C  -0.58300 26.72300 32.66100
H  -6.19400 21.91500 28.82500
H  -6.88100 23.15500 22.60600
H  -2.74800 27.77800 22.79800
H  -3.20600 25.19000 31.04900
H  -5.58100 23.72400 30.87500
H  -4.41900 22.01600 31.34300
H  -3.02700 22.96900 31.39700
H  -3.37200 22.06800 29.87500
H  -6.11700 26.03300 30.57900
H  -4.87600 27.24400 30.48100
H  -5.99400 26.69100 32.86800
H  -4.25600 27.17400 32.65800
H  -6.79500 19.31400 27.22400
H  -8.48300 20.06100 26.81200
H  -7.56900 20.64600 28.18100
H  -7.72700 18.71800 24.47700
H  -8.98600 19.06900 23.23800
H  -9.25800 19.37500 25.00300
H  -6.42100 24.99700 21.18000
H  -3.50400 25.85900 21.10900
H  -4.70600 22.74900 21.63600
H  -3.78200 23.71000 20.49700
H  -5.38900 23.37600 20.08400
H  -5.10600 28.16900 21.56400
H  -6.06800 27.18200 20.56000
H  -4.82600 28.36900 19.04900
H  -3.96900 26.88800 19.10000
H  -3.36100 28.31900 20.11500
H  -0.08400 29.24000 25.08800
H  -1.34700 30.35600 25.23800
H  -1.28700 29.15600 23.83800
H  -2.73100 28.17300 29.94600
H  0.22300 27.45300 32.73700
H  -0.05100 25.81200 32.38400
H  -0.98800 26.68500 33.67200

