158

Mg 46.49600 25.73100 29.24800
C  47.35000 27.80400 31.73000
C  45.70600 23.21500 31.71200
C  46.24100 23.18700 26.95100
C  48.13500 27.59200 26.87500
N  46.58400 25.55200 31.43700
C  46.77300 26.60600 32.27400
C  46.51900 26.31500 33.77900
C  46.36800 24.75100 33.73800
C  46.17300 24.44600 32.23200
C  47.49700 23.85700 34.38200
C  45.43000 27.21800 34.36200
C  45.69000 27.94200 35.69100
H  46.33500 27.22500 36.95900
N  45.72800 23.69600 29.24100
C  45.48000 22.87400 30.35700
C  44.81000 21.68300 29.90400
C  45.13300 21.62300 28.47700
C  45.66100 22.92100 28.16100
C  44.20000 20.65000 30.85400
C  45.00700 20.42700 27.56700
O  45.24500 20.36600 26.39300
C  44.37000 19.19700 28.11000
N  47.09400 25.41500 27.13700
C  46.89700 24.33600 26.42300
C  47.44900 24.35300 25.04400
C  47.97300 25.87500 24.99000
C  47.75100 26.31100 26.42300
C  48.45300 23.17800 24.81800
C  47.32900 26.84900 23.88400
C  48.32500 27.37900 22.84900
N  47.44900 27.44500 29.21100
C  47.98300 28.16900 28.18400
C  48.68700 29.33100 28.76000
C  48.35700 29.27700 30.12900
C  47.63600 28.09100 30.36300
C  49.36100 30.48600 28.14300
C  48.47300 29.93800 31.40000
O  48.95000 31.04300 31.57500
C  47.91400 28.98500 32.44100
C  49.06500 28.62000 33.26300
O  49.91000 27.80500 32.89700
O  49.00200 29.28600 34.45700
C  50.10200 29.14000 35.42500
H  45.35200 22.67000 32.59000
H  46.20500 22.46200 26.13600
H  48.76300 28.22700 26.24600
H  47.39900 26.72500 34.27400
H  45.48000 24.68300 34.36500
H  48.47100 24.27500 34.12600
H  47.41100 22.87600 33.91300
H  47.37400 23.77400 35.46200
H  44.43800 26.76900 34.41500
H  45.31700 28.11000 33.74700
H  44.67700 28.21800 35.98400
H  46.30500 28.81900 35.48900
H  43.23100 20.58400 30.36000
H  44.00400 21.08100 31.83600
H  44.84700 19.78000 30.96500
H  45.11800 18.83200 28.81400
H  44.29800 18.44700 27.32300
H  43.37400 19.30600 28.54100
H  46.64100 24.26700 24.31800
H  49.05800 25.92800 24.90100
H  48.04000 22.52800 24.04700
H  48.66900 22.64600 25.74400
H  49.39500 23.62100 24.49400
H  46.91900 27.74100 24.35600
H  46.50200 26.33100 23.39700
H  47.99700 27.16100 21.83200
H  49.37700 27.10500 22.92700
H  48.39200 28.46100 22.95700
H  48.80200 31.40500 28.32300
H  49.52700 30.29200 27.08400
H  50.24900 30.67000 28.74700
H  47.13700 29.54000 32.96700
H  51.00900 28.71000 35.00000
H  49.84900 28.71000 36.39400
H  50.43600 30.16100 35.61400
Mg 43.30500 42.44400 26.20300
C  41.84300 44.71700 28.72200
C  44.21400 40.48700 28.81500
C  44.39900 40.33500 23.90600
C  42.21800 44.76600 23.81200
N  43.10600 42.68000 28.48900
C  42.46800 43.60400 29.27900
C  42.54800 43.26800 30.77200
C  43.63400 42.09100 30.76400
C  43.68800 41.71700 29.26800
C  44.97000 42.46100 31.38200
C  41.19700 42.69200 31.14700
C  40.68600 43.05700 32.59900
H  41.75100 43.27300 33.78900
N  44.18400 40.63400 26.33700
C  44.37600 39.96100 27.49100
C  44.91600 38.67000 27.12400
C  44.86100 38.55200 25.77100
C  44.48500 39.85100 25.28100
C  45.48200 37.65500 28.02500
C  45.14700 37.30100 24.86700
O  45.13800 37.41000 23.63100
C  45.18800 35.90500 25.32000
N  43.51200 42.63500 24.22200
C  43.90700 41.57700 23.45900
C  43.81900 41.95600 21.97400
C  43.01300 43.27100 21.93800
C  42.85300 43.59900 23.43900
C  45.22600 41.97300 21.30800
C  41.64900 43.19300 21.19100
C  40.69400 42.12800 21.85400
N  42.37200 44.39400 26.23700
C  42.09200 45.18300 25.14700
C  41.64000 46.44400 25.60300
C  41.44600 46.34500 26.98800
C  41.91800 45.04000 27.35800
C  41.35400 47.70200 24.83400
C  41.02400 46.96100 28.21300
O  40.49300 48.04300 28.31600
C  41.16500 45.87400 29.33400
C  42.05100 46.49100 30.40900
O  43.24800 46.68200 30.19900
O  41.38000 46.68000 31.59800
C  42.23300 47.03000 32.70000
H  44.62300 39.92200 29.65500
H  44.56100 39.63200 23.08600
H  41.84800 45.26500 22.91400
H  42.80500 44.13500 31.38000
H  43.38500 41.13500 31.22600
H  45.84200 42.34300 30.73900
H  45.16100 41.86900 32.27700
H  45.01500 43.51300 31.66400
H  41.21800 41.61200 30.99800
H  40.51800 43.23200 30.48700
H  39.93200 42.32200 32.88000
H  40.08100 43.96300 32.61000
H  45.69900 38.13100 28.98100
H  46.42600 37.26300 27.64700
H  44.65500 36.97400 28.23000
H  45.52500 35.16900 24.59000
H  44.25800 35.61500 25.81100
H  46.00600 35.87800 26.04000
H  43.32200 41.13600 21.45700
H  43.69200 43.97000 21.45000
H  46.12400 42.14200 21.90200
H  45.18500 42.76200 20.55800
H  45.28700 41.06700 20.70500
H  41.81300 42.74600 20.21100
H  41.20000 44.17200 21.02400
H  41.12900 41.63900 22.72600
H  40.27000 41.29600 21.29300
H  39.72300 42.55400 22.10600
H  41.45000 47.50100 23.76700
H  42.04500 48.51000 25.07200
H  40.43700 48.23400 25.08800
H  40.14500 45.72200 29.68600
H  42.86600 46.18200 32.96100
H  41.52400 47.30500 33.48100
H  42.91300 47.84100 32.44200

