158

Mg 47.15100 24.99200 28.98600
C  48.26500 27.38400 31.45100
C  46.20500 23.00200 31.63200
C  46.89700 22.49400 26.69600
C  48.67700 26.98600 26.61800
N  47.15700 25.25400 31.32500
C  47.49100 26.34500 32.05200
C  47.00400 26.14900 33.49300
C  46.54500 24.65900 33.52700
C  46.60500 24.26600 32.08700
C  47.33800 23.73900 34.47600
C  45.81400 27.21800 33.91000
C  45.86000 27.78000 35.37600
H  46.65000 26.95500 36.39800
N  46.51400 23.12200 29.13400
C  46.19700 22.48300 30.29700
C  45.75400 21.20400 29.92200
C  45.90000 20.96400 28.52500
C  46.44200 22.24900 28.02900
C  45.26400 20.20100 30.98400
C  45.55500 19.82200 27.66900
O  45.71900 19.82600 26.45200
C  44.83700 18.67000 28.24700
N  47.82100 24.78800 27.08100
C  47.44600 23.72300 26.28900
C  47.91100 23.85800 24.84900
C  48.21700 25.33700 24.79500
C  48.22200 25.75600 26.22100
C  49.06400 22.89300 24.60700
C  47.24500 26.19700 23.92800
C  47.89600 27.00400 22.75200
N  48.26200 26.85600 28.90300
C  48.75500 27.57100 27.88300
C  49.57300 28.61400 28.37400
C  49.37300 28.58700 29.74400
C  48.58800 27.49400 30.04500
C  50.35000 29.60600 27.46700
C  49.72500 29.29900 30.96000
O  50.43300 30.25900 31.13200
C  49.00200 28.54500 32.05700
C  50.04000 28.04700 32.92900
O  50.75700 27.05200 32.76600
O  49.97100 28.81700 34.04300
C  50.90200 28.34100 35.09100
H  45.81200 22.24900 32.31900
H  46.75300 21.78200 25.88100
H  49.09800 27.48800 25.74400
H  47.80100 26.26500 34.22800
H  45.48500 24.60000 33.77600
H  47.82400 24.34500 35.24000
H  48.23600 23.24500 34.10300
H  46.68000 22.98600 34.91100
H  44.86800 26.75500 33.62800
H  46.04000 28.11200 33.32800
H  44.81700 27.99300 35.60900
H  46.39300 28.72100 35.24300
H  45.84800 19.32000 30.71700
H  44.18700 20.04000 30.95600
H  45.54000 20.36300 32.02600
H  45.49100 18.08100 28.88900
H  44.50300 18.06900 27.40100
H  43.94600 18.99400 28.78500
H  47.12600 23.52400 24.17000
H  49.20100 25.61000 24.41500
H  48.81400 22.40600 23.66400
H  49.22400 22.20900 25.44000
H  49.98500 23.47200 24.53700
H  46.87400 26.92200 24.65300
H  46.38800 25.67000 23.50800
H  47.44800 26.91700 21.76200
H  48.93100 26.66500 22.70400
H  47.80100 28.06500 22.98300
H  51.25400 29.04000 27.24200
H  50.62600 30.46100 28.08500
H  49.72700 30.00400 26.66700
H  48.35500 29.33300 32.44200
H  51.96800 28.35900 34.86600
H  50.59200 27.31200 35.27300
H  50.69600 28.87400 36.02000
Mg -5.46000 25.40600 25.54200
C  -3.55800 26.91100 28.19500
C  -6.64800 23.09400 27.82700
C  -6.93400 23.73600 23.08700
C  -3.80100 27.52000 23.30400
N  -5.00200 24.97000 27.67100
C  -4.34100 25.81100 28.55200
C  -4.68800 25.48300 30.02100
C  -5.38200 24.10600 29.96800
C  -5.71700 23.99300 28.40500
C  -4.44500 22.87400 30.29200
C  -5.66400 26.49900 30.68600
C  -5.23600 26.96100 32.07400
H  -4.50700 25.94400 32.91600
N  -6.62000 23.71700 25.44600
C  -7.07300 22.93000 26.52100
C  -8.09200 21.95000 26.05300
C  -8.14400 22.10400 24.70500
C  -7.19700 23.19700 24.33400
C  -8.90200 21.03200 27.09600
C  -9.20900 21.56400 23.74400
O  -9.29400 21.98700 22.60700
C  -10.12500 20.45600 24.21400
N  -5.30600 25.53500 23.45100
C  -6.10700 24.77400 22.61500
C  -5.96200 25.15900 21.18200
C  -5.10100 26.44800 21.28500
C  -4.65300 26.55900 22.78000
C  -5.26400 23.93600 20.47900
C  -5.72100 27.81600 20.76800
C  -5.16300 28.48200 19.53100
N  -3.93100 26.92000 25.70000
C  -3.42200 27.66800 24.66000
C  -2.56300 28.66000 25.28500
C  -2.61200 28.43400 26.67700
C  -3.40800 27.31800 26.85600
C  -1.74100 29.68700 24.50100
C  -2.16300 28.84600 28.02100
O  -1.34200 29.65300 28.30300
C  -2.84000 27.89900 29.06700
C  -1.78100 27.25800 29.81400
O  -0.99400 26.37500 29.39300
O  -1.85400 27.62700 31.14500
C  -0.78600 27.08400 32.00600
H  -7.05000 22.36300 28.53100
H  -7.34100 23.26000 22.19300
H  -3.46500 28.26600 22.58100
H  -3.79800 25.30400 30.62300
H  -6.28200 23.97600 30.57000
H  -4.68700 22.53300 31.29800
H  -3.39900 23.18100 30.32000
H  -4.43900 22.13700 29.48900
H  -6.61300 25.98900 30.85100
H  -5.64100 27.43500 30.12900
H  -6.01700 27.38200 32.70700
H  -4.55700 27.81300 32.04600
H  -9.11300 19.98600 26.87200
H  -9.80300 21.53100 27.45200
H  -8.40700 20.89900 28.05800
H  -10.81700 20.07300 23.46400
H  -10.78000 20.93500 24.94300
H  -9.58500 19.63400 24.68300
H  -6.92300 25.44400 20.75400
H  -4.14500 26.30500 20.78200
H  -6.00500 23.66100 19.72800
H  -5.10300 23.05300 21.09900
H  -4.35700 24.24400 19.95900
H  -5.58500 28.54400 21.56800
H  -6.79600 27.82600 20.59000
H  -4.23500 28.87700 19.94600
H  -5.88400 29.22700 19.19500
H  -4.93100 27.74800 18.76000
H  -0.93300 29.20600 23.95000
H  -1.22800 30.31000 25.23300
H  -2.33800 30.29900 23.82600
H  -3.41000 28.55600 29.72400
H  0.19800 27.26400 31.57200
H  -0.93500 26.03200 32.24900
H  -0.80200 27.62600 32.95200

