158

Mg 41.24300 8.51800 29.38900
C  43.34000 9.36000 32.17600
C  39.18200 7.11500 31.60800
C  39.42200 7.61700 26.76800
C  43.89900 9.45900 27.19900
N  41.32500 8.20500 31.62600
C  42.16700 8.66800 32.52700
C  41.61100 8.51800 33.95500
C  40.56000 7.44000 33.77800
C  40.28900 7.57900 32.27100
C  41.00000 6.00500 34.06100
C  41.25000 9.90400 34.65700
C  40.79200 9.87100 36.18800
H  41.76700 10.40300 37.25300
N  39.54700 7.55100 29.25800
C  38.81700 7.01500 30.27700
C  37.53000 6.48900 29.73600
C  37.47300 6.81600 28.37700
C  38.84300 7.34700 28.06900
C  36.41800 5.78100 30.59200
C  36.34800 6.66000 27.30000
O  36.64100 6.79500 26.03700
C  34.92800 6.28400 27.64200
N  41.76400 8.27200 27.22300
C  40.72500 7.97700 26.41400
C  41.14300 8.33900 24.96200
C  42.57800 9.00800 25.10600
C  42.73600 8.92100 26.63700
C  41.21700 7.09500 24.14500
C  42.55500 10.50600 24.66900
C  43.70000 10.71500 23.57800
N  43.20600 9.18800 29.56500
C  44.16800 9.56200 28.60500
C  45.24500 10.19100 29.33700
C  44.96200 10.15100 30.65400
C  43.74300 9.50800 30.76600
C  46.49100 10.73300 28.65300
C  45.45900 10.45200 31.96600
O  46.49600 10.97900 32.26200
C  44.42600 9.99200 32.99800
C  45.05500 9.07800 33.96900
O  44.89600 7.88500 33.95600
O  45.78900 9.73800 34.90800
C  46.40900 8.84700 35.89900
H  38.46100 6.72600 32.33000
H  38.71700 7.56300 25.93600
H  44.62800 9.81900 26.46900
H  42.41600 8.10800 34.56600
H  39.66500 7.53800 34.39200
H  42.07600 5.85800 33.97400
H  40.48000 5.25800 33.46000
H  40.71500 5.69200 35.06500
H  40.49100 10.37000 34.02800
H  42.13700 10.53600 34.67300
H  40.47800 8.87600 36.50200
H  39.90600 10.49700 36.29700
H  36.69100 5.50400 31.61100
H  36.09100 4.88400 30.06700
H  35.53800 6.42300 30.63200
H  34.13500 6.60100 26.96400
H  34.73100 6.65000 28.65000
H  35.00600 5.19900 27.70200
H  40.36100 8.92600 24.48000
H  43.34900 8.36800 24.67700
H  41.15500 6.15300 24.69000
H  42.12000 7.06100 23.53500
H  40.43600 7.03500 23.38600
H  42.63600 11.03600 25.61800
H  41.58300 10.92500 24.40800
H  44.25300 9.80000 23.36400
H  44.37700 11.49000 23.93600
H  43.18500 11.01700 22.66600
H  46.19600 11.59600 28.05500
H  46.94000 10.00100 27.98200
H  47.17100 11.20100 29.36400
H  44.15500 10.96500 33.40800
H  46.92700 7.99900 35.45000
H  45.57100 8.59200 36.54700
H  47.17100 9.36800 36.47900
Mg 29.64400 58.73100 40.03400
C  26.85600 56.83500 38.80300
C  31.70100 56.13900 38.98700
C  32.29600 60.75700 40.12600
C  27.49100 61.46400 40.54000
N  29.30900 56.84000 38.65400
C  28.06100 56.18100 38.54300
C  28.25500 54.62800 38.27200
C  29.77500 54.44600 38.67100
C  30.29800 55.86700 38.85800
C  29.94500 53.39900 39.86800
C  27.81200 54.18000 36.88000
C  28.50000 54.91200 35.74500
H  27.56700 55.75900 34.76800
N  31.76600 58.46100 39.71100
C  32.38800 57.33000 39.27400
C  33.84300 57.54800 39.22400
C  34.02700 58.92800 39.56400
C  32.64200 59.46700 39.79700
C  34.76300 56.36500 38.87800
C  35.41300 59.57000 39.77500
O  36.40300 58.89000 39.62800
C  35.66600 61.04600 40.14400
N  29.83500 60.75200 40.40700
C  31.09400 61.38300 40.43300
C  30.95000 62.85600 40.88100
C  29.40000 63.11600 40.98300
C  28.87700 61.70200 40.61900
C  31.73400 63.37400 42.12000
C  28.74100 64.18100 40.05200
C  27.53500 64.97400 40.69100
N  27.48200 59.06500 39.98800
C  26.82500 60.19400 40.18500
C  25.40100 59.92100 40.03400
C  25.37500 58.63700 39.42400
C  26.64600 58.13300 39.39700
C  24.26400 60.84200 40.41500
C  24.46500 57.59500 38.87800
O  23.26500 57.68100 38.61200
C  25.42200 56.36400 38.52100
C  24.92300 55.16000 39.31600
O  25.51800 54.65500 40.25900
O  23.72700 54.73300 38.81400
C  23.04800 53.59200 39.48400
H  32.37700 55.30800 38.77500
H  33.13500 61.45500 40.17300
H  26.76200 62.20700 40.86900
H  27.62900 54.10000 38.99100
H  30.27400 54.11700 37.76000
H  30.56700 52.54900 39.58500
H  28.97400 52.94200 40.05800
H  30.36700 53.79900 40.78900
H  26.74100 54.32600 36.74300
H  27.97300 53.11900 36.68800
H  29.05400 54.19200 35.14300
H  29.26500 55.54300 36.19700
H  34.67600 55.97400 37.86500
H  34.64600 55.53700 39.57700
H  35.83200 56.58100 38.86700
H  35.46600 61.57000 39.20900
H  36.71600 61.11800 40.42500
H  35.10900 61.39400 41.01400
H  31.14300 63.43600 39.97900
H  29.08500 63.27100 42.01500
H  32.44700 62.59700 42.39600
H  31.03200 63.56800 42.93100
H  32.23000 64.31700 41.89000
H  28.32100 63.59500 39.23400
H  29.60100 64.81300 39.83400
H  26.56600 64.79600 40.22200
H  27.86000 66.01400 40.66900
H  27.23900 64.66700 41.69400
H  24.51300 61.46500 41.27400
H  23.48600 60.09500 40.56700
H  24.03900 61.54400 39.61200
H  25.13900 56.11200 37.49900
H  22.98100 53.75100 40.56000
H  23.40900 52.62100 39.14600
H  22.07700 53.56500 38.98900

