158

Mg 53.64700 24.24900 44.18400
C  50.89400 26.53900 43.87700
C  51.53600 21.79900 43.12300
C  56.33800 22.28200 43.90400
C  55.63700 26.98600 45.03400
N  51.54500 24.24800 43.29800
C  50.58600 25.26200 43.42900
C  49.19000 24.72700 43.17600
C  49.36400 23.18900 43.42100
C  50.91800 23.04900 43.32900
C  48.68100 22.77200 44.76500
C  48.64500 25.23500 41.82700
C  48.56500 24.28200 40.59900
H  48.60700 24.84200 39.18800
N  53.91200 22.25300 43.61500
C  52.91800 21.43700 43.20500
C  53.50700 20.10200 43.01000
C  54.94000 20.22300 43.03800
C  55.13400 21.65000 43.51800
C  52.75300 18.91300 42.70900
C  55.98700 19.13600 42.81600
O  55.61900 17.97900 42.40900
C  57.38800 19.47800 42.87200
N  55.70600 24.66200 44.28300
C  56.66200 23.62600 44.21500
C  58.02200 24.12600 44.65700
C  57.74800 25.63100 45.01100
C  56.31000 25.79600 44.72500
C  58.84800 23.30400 45.66400
C  58.57000 26.67900 44.22100
C  59.53400 27.46800 45.12800
N  53.36800 26.27100 44.53700
C  54.28900 27.24100 44.89900
C  53.61200 28.46100 45.17200
C  52.26400 28.16300 44.90800
C  52.17500 26.86100 44.34000
C  54.16700 29.77600 45.72700
C  50.97100 28.73100 44.75300
O  50.59400 29.88500 45.03400
C  50.02800 27.73500 44.05500
C  49.49200 28.34600 42.75100
O  50.17700 28.58800 41.73700
O  48.17600 28.46900 42.92500
C  47.45400 28.98000 41.70600
H  50.92400 20.92700 42.88400
H  57.18300 21.61500 44.09200
H  56.28500 27.74700 45.47300
H  48.60700 25.16900 43.98300
H  48.97600 22.52000 42.65300
H  47.95700 23.50800 45.11300
H  49.53100 22.61700 45.43000
H  48.08300 21.87900 44.58600
H  49.39200 25.94000 41.46000
H  47.83400 25.94700 41.98100
H  47.70100 23.65100 40.80400
H  49.35900 23.53500 40.58200
H  53.04100 18.64300 41.69300
H  51.68600 19.12800 42.77600
H  53.09300 18.12100 43.37500
H  57.60500 20.46000 42.45200
H  57.88600 18.68800 42.31000
H  57.75200 19.38800 43.89500
H  58.55700 24.17500 43.70900
H  57.89600 25.65400 46.09100
H  59.91400 23.17200 45.47400
H  58.58500 22.25700 45.81400
H  58.81100 23.84400 46.61000
H  57.90700 27.40600 43.75100
H  59.15100 26.17700 43.44700
H  59.34400 27.14900 46.15300
H  59.33800 28.53900 45.07500
H  60.55100 27.22500 44.82100
H  53.40100 30.51700 45.50100
H  55.12800 29.87100 45.22000
H  54.26100 29.70200 46.81000
H  49.19200 27.66000 44.75100
H  47.72400 30.01200 41.47700
H  46.39800 28.71900 41.78200
H  47.70800 28.51000 40.75600
Mg 47.17400 15.40100 27.60600
C  45.18100 15.59300 30.54600
C  49.41500 17.63900 29.24200
C  48.67300 15.81200 24.78600
C  44.60900 13.60900 26.11200
N  47.39100 16.35100 29.75300
C  46.37100 16.30900 30.72800
C  46.78900 17.12500 31.95200
C  47.94300 18.06300 31.36800
C  48.31700 17.30800 30.07100
C  47.57300 19.56000 31.31800
C  47.39900 16.12800 33.08700
C  47.12100 16.68000 34.51500
H  48.16600 16.40800 35.57600
N  48.87700 16.35700 27.14500
C  49.69900 17.13100 27.94700
C  50.98600 17.42200 27.20100
C  50.76300 16.92300 25.88000
C  49.33800 16.32400 25.89600
C  52.08500 18.18500 27.77000
C  51.76700 16.90300 24.65900
O  51.45700 16.31100 23.66700
C  53.20200 17.42500 24.79000
N  46.63100 14.78200 25.69600
C  47.44300 15.15800 24.66500
C  46.98600 14.46900 23.39700
C  45.68300 13.74000 23.86100
C  45.58500 14.10500 25.26500
C  46.71500 15.58900 22.23700
C  45.65800 12.16800 23.59700
C  46.31900 11.23500 24.53900
N  45.30700 14.68500 28.12400
C  44.40400 13.92200 27.46000
C  43.33600 13.55600 28.31600
C  43.59400 14.10700 29.54300
C  44.78700 14.84200 29.39300
C  42.28800 12.45400 27.95600
C  43.21100 14.20400 30.90500
O  42.26700 13.73600 31.54400
C  44.19800 15.20100 31.60400
C  43.50700 16.40700 32.13500
O  43.11000 17.29900 31.41000
O  43.60600 16.42800 33.50300
C  43.54000 17.81400 34.01000
H  50.12400 18.24400 29.81100
H  49.14900 16.06100 23.83500
H  43.82500 12.98500 25.67700
H  45.95400 17.73700 32.29200
H  48.87700 18.07500 31.92900
H  47.63900 20.04600 30.34500
H  48.24600 20.00800 32.04900
H  46.55600 19.81900 31.61300
H  48.47500 16.01000 32.95400
H  46.91800 15.15800 32.96400
H  46.19300 16.20700 34.83600
H  46.89400 17.74600 34.53100
H  53.01700 17.75700 27.40000
H  52.09800 18.23000 28.85900
H  51.99400 19.18600 27.35000
H  53.67400 17.58000 23.81900
H  53.83700 16.74300 25.35600
H  53.23800 18.35900 25.35000
H  47.70800 13.73500 23.04000
H  44.92100 14.24300 23.26500
H  45.70100 15.99000 22.23800
H  46.95200 15.20300 21.24600
H  47.46100 16.36700 22.39500
H  46.07600 11.95700 22.61300
H  44.59600 11.93100 23.53400
H  46.86400 11.62600 25.39800
H  47.06600 10.74700 23.91300
H  45.59400 10.55100 24.98100
H  42.25600 11.91500 28.90200
H  42.80200 11.68200 27.38400
H  41.32900 12.81100 27.58200
H  44.78400 14.75800 32.41000
H  42.53700 18.08800 34.33700
H  43.72200 18.57400 33.25100
H  44.22000 17.96600 34.84800

