158

Mg 35.76800 49.50600 25.25300
C  35.83700 47.52100 28.12100
C  35.04100 52.30800 27.22800
C  35.38200 51.20700 22.39100
C  36.36400 46.61600 23.36500
N  35.24100 49.81600 27.30100
C  35.54800 48.86700 28.33600
C  35.41200 49.56900 29.72800
C  34.83000 51.01800 29.42100
C  35.14000 51.07800 27.85300
C  33.32500 51.07500 29.90900
C  36.85000 49.57600 30.36900
C  36.84100 49.42700 31.89800
H  35.68000 49.93600 32.74300
N  35.43500 51.47000 24.88300
C  35.15700 52.52600 25.80600
C  35.01000 53.76500 25.07800
C  35.12000 53.45100 23.67800
C  35.34300 51.97900 23.58300
C  34.88900 55.05700 25.73900
C  35.05200 54.38200 22.53100
O  35.07600 53.98000 21.34200
C  35.05700 55.88000 22.83000
N  36.03500 49.03700 23.20000
C  35.63200 49.86100 22.19200
C  35.64800 49.21300 20.83300
C  36.21600 47.83800 21.14900
C  36.26500 47.84200 22.68900
C  34.29200 49.19400 19.92000
C  37.61800 47.50000 20.63800
C  38.03200 46.00400 20.40800
N  36.01800 47.42900 25.61000
C  36.28600 46.38600 24.75900
C  36.40800 45.21600 25.51000
C  36.22600 45.61300 26.86300
C  35.95900 46.96100 26.85400
C  36.72300 43.88300 24.90000
C  36.29900 45.16100 28.20300
O  36.63100 44.06500 28.62300
C  35.98300 46.35600 29.07400
C  34.71100 46.12400 29.79600
O  33.60400 46.36300 29.36200
O  35.05100 45.72000 31.03900
C  33.91000 45.76000 31.96800
H  34.76800 53.17200 27.83600
H  35.16600 51.76900 21.48000
H  36.60700 45.78600 22.69900
H  34.77900 48.98900 30.40000
H  35.43600 51.71800 29.99700
H  33.09300 52.11100 30.15600
H  33.26800 50.57600 30.87700
H  32.50300 50.80300 29.24800
H  37.36700 50.45100 29.97400
H  37.41800 48.75400 29.93400
H  37.69000 50.05400 32.17200
H  37.21200 48.44300 32.18400
H  35.73500 55.71500 25.53800
H  34.77300 55.05700 26.82300
H  33.99600 55.59500 25.42000
H  34.11800 56.11100 23.33400
H  35.03900 56.43200 21.89100
H  35.99100 56.10100 23.34500
H  36.36000 49.64400 20.12900
H  35.57400 47.10800 20.65700
H  33.43000 49.67300 20.38400
H  34.00800 48.17600 19.65400
H  34.48600 49.61900 18.93500
H  38.40000 47.94100 21.25500
H  37.77700 47.89500 19.63500
H  38.87500 45.97500 19.71800
H  37.29200 45.49800 19.78900
H  38.22800 45.47500 21.34100
H  37.24800 43.24200 25.60800
H  37.46400 43.92700 24.10200
H  35.89700 43.37500 24.40400
H  36.83400 46.36400 29.75400
H  34.23000 45.27800 32.89200
H  33.01300 45.20700 31.68800
H  33.61200 46.76300 32.27500
Mg 0.18100 43.29200 25.53600
C  2.65800 42.80900 27.86900
C  -2.16000 42.29100 27.67800
C  -1.99800 43.74100 22.97100
C  2.76100 43.61000 23.09900
N  0.26300 42.47500 27.54400
C  1.39400 42.49200 28.34400
C  0.92800 42.28100 29.81800
C  -0.65600 42.04100 29.71200
C  -0.90800 42.38000 28.20400
C  -1.08400 40.64000 30.07900
C  1.24500 43.55000 30.70700
C  1.82400 43.16100 32.15100
H  1.51100 41.81500 32.83500
N  -1.79900 43.08400 25.41200
C  -2.58800 42.62300 26.38600
C  -3.93900 42.61300 25.96900
C  -3.97600 43.10400 24.58700
C  -2.52900 43.33600 24.26300
C  -5.07600 41.98100 26.86900
C  -5.19900 43.26800 23.69400
O  -5.15100 43.60400 22.47700
C  -6.52600 42.95800 24.26900
N  0.33200 43.46500 23.29500
C  -0.70600 43.78300 22.51900
C  -0.34400 44.09600 21.06900
C  1.19300 44.08700 21.16200
C  1.47700 43.73600 22.62900
C  -1.09100 43.16200 20.06900
C  1.79200 45.34500 20.64500
C  2.29000 46.43800 21.61200
N  2.30300 43.16500 25.42200
C  3.25400 43.34600 24.39100
C  4.64200 43.26300 24.82200
C  4.39300 43.12400 26.21900
C  3.01800 43.03900 26.51100
C  5.84000 43.35900 23.85900
C  5.08000 42.95600 27.51300
O  6.28800 42.81500 27.75500
C  3.90800 42.84800 28.63400
C  4.29300 41.64100 29.45100
O  4.11100 40.45600 29.18900
O  4.71600 42.06200 30.67600
C  5.18100 40.98100 31.56000
H  -2.97300 42.14900 28.39300
H  -2.73300 43.83000 22.16800
H  3.49300 43.92800 22.35400
H  1.38600 41.38300 30.23100
H  -1.14600 42.78300 30.34300
H  -1.25200 40.02500 29.19400
H  -1.94200 40.67600 30.75000
H  -0.24600 40.16300 30.58600
H  0.37900 44.19300 30.86100
H  1.95200 44.25300 30.26700
H  1.42700 44.01100 32.70800
H  2.90000 43.24500 32.30000
H  -5.80600 41.37600 26.33100
H  -5.65600 42.68400 27.46600
H  -4.70900 41.32900 27.66200
H  -7.38000 43.26800 23.66600
H  -6.66500 43.56200 25.16600
H  -6.57900 41.87500 24.38000
H  -0.61100 45.14100 20.91000
H  1.41000 43.19800 20.56900
H  -1.27300 43.71500 19.14800
H  -2.10600 42.86800 20.33700
H  -0.49900 42.28500 19.80500
H  1.05300 45.78200 19.97400
H  2.54000 45.17500 19.87000
H  1.84000 47.36900 21.26600
H  3.37900 46.46200 21.60500
H  1.86500 46.48600 22.61400
H  5.66400 44.06400 23.04600
H  6.19200 42.41000 23.45500
H  6.66000 43.76000 24.45400
H  4.03100 43.70300 29.29900
H  5.98100 40.37400 31.13700
H  4.27400 40.46800 31.88200
H  5.69300 41.42500 32.41400

