158

Mg 45.77700 3.92800 47.50200
C  43.96600 6.85100 47.17800
C  42.94200 2.13900 46.77900
C  47.73400 1.19600 47.31400
C  48.77700 6.01100 47.38700
N  43.67200 4.45100 47.15800
C  43.16300 5.69800 47.05000
C  41.80800 5.65800 46.41600
C  41.37900 4.18500 46.65800
C  42.74600 3.51100 46.87600
C  40.45000 4.07200 47.97500
C  41.82600 6.08900 44.91500
C  40.63200 6.90700 44.43400
H  40.34100 6.70500 42.98100
N  45.36900 1.92500 47.10900
C  44.11000 1.37600 46.92000
C  44.24000 -0.07500 46.80900
C  45.59700 -0.38100 47.08500
C  46.33400 0.91000 47.14300
C  43.10500 -1.09400 46.51900
C  46.18300 -1.75800 47.26800
O  45.42900 -2.75500 47.32100
C  47.66900 -2.03200 47.24900
N  47.92500 3.64700 47.39800
C  48.47200 2.41900 47.47600
C  50.03500 2.44800 47.62200
C  50.33000 3.91200 47.24800
C  48.95300 4.64000 47.36400
C  50.43800 1.87400 49.04800
C  51.17500 4.00200 45.97000
C  52.34000 5.04200 45.85400
N  46.34300 6.05100 47.41700
C  47.50000 6.74800 47.36000
C  47.24400 8.16600 47.44100
C  45.86700 8.25100 47.25200
C  45.37700 6.94400 47.24800
C  48.27500 9.25800 47.50600
C  44.74600 9.14600 47.14400
O  44.82300 10.36100 47.08700
C  43.48000 8.25600 47.06300
C  42.48300 8.71400 48.13600
O  42.33900 8.15200 49.25500
O  41.67000 9.79000 47.69400
C  40.52900 10.25400 48.40600
H  42.02100 1.56200 46.67100
H  48.39100 0.32500 47.34900
H  49.63500 6.68500 47.41100
H  41.19800 6.36500 46.97800
H  40.81200 3.77700 45.82100
H  40.02700 4.98800 48.38900
H  40.98000 3.52900 48.75700
H  39.60600 3.45800 47.66200
H  41.84100 5.11800 44.41900
H  42.71600 6.62600 44.58800
H  40.94600 7.93600 44.61000
H  39.74100 6.79300 45.05200
H  42.12500 -0.61600 46.51100
H  43.22200 -1.90000 47.24300
H  43.37000 -1.55000 45.56500
H  48.00700 -1.55000 48.16600
H  48.03100 -1.59000 46.32100
H  47.87400 -3.09300 47.10700
H  50.50300 1.73800 46.94000
H  50.91000 4.41900 48.01900
H  49.57100 1.67900 49.68000
H  50.91800 2.69600 49.58100
H  51.10400 1.01200 49.01700
H  50.50600 4.21400 45.13600
H  51.53400 3.02400 45.64800
H  51.96200 5.90200 45.30100
H  53.13900 4.62900 45.23800
H  52.69800 5.37900 46.82700
H  47.80600 10.14200 47.07500
H  49.12100 8.95100 46.89300
H  48.57100 9.50700 48.52500
H  42.99300 8.44800 46.10600
H  39.68000 9.64900 48.08700
H  40.25400 11.26600 48.10900
H  40.55300 10.20600 49.49400
Mg -10.41100 17.12900 41.20800
C  -6.97200 17.21300 41.30600
C  -10.37300 20.50100 40.40400
C  -13.68200 16.83400 40.19500
C  -10.23400 13.60700 41.52500
N  -8.81700 18.64700 40.82100
C  -7.49400 18.46800 40.85700
C  -6.69600 19.85000 40.66500
C  -7.88100 20.89600 40.88700
C  -9.10800 19.96600 40.78000
C  -7.77500 21.69700 42.26700
C  -5.94600 20.03600 39.32200
C  -4.54400 19.51400 39.20200
H  -4.24600 18.32100 38.34800
N  -11.87000 18.46500 40.59700
C  -11.65100 19.83200 40.34400
C  -12.92200 20.42100 40.11000
C  -13.94800 19.35700 40.06000
C  -13.17400 18.12800 40.26400
C  -13.14600 21.89800 39.76300
C  -15.38500 19.53800 39.75400
O  -15.78600 20.67400 39.59000
C  -16.36100 18.43100 39.63200
N  -11.73500 15.37800 40.77700
C  -13.03000 15.55600 40.47500
C  -13.80900 14.22700 40.38000
C  -12.64700 13.17900 40.75500
C  -11.43700 14.05100 41.03500
C  -15.08600 14.13600 41.28100
C  -12.27200 12.22600 39.65900
C  -11.56300 12.72200 38.37500
N  -8.96800 15.69700 41.47100
C  -9.04100 14.31800 41.68600
C  -7.66400 13.77100 41.95600
C  -6.85900 14.95700 41.86600
C  -7.70900 16.02000 41.51700
C  -7.29700 12.37300 42.34200
C  -5.46300 15.39700 41.93700
O  -4.45500 14.76200 42.12200
C  -5.52900 16.94300 41.57400
C  -4.92500 17.72400 42.74800
O  -3.72800 17.89300 42.96700
O  -5.90000 18.23800 43.50700
C  -5.51100 19.02200 44.67600
H  -10.38100 21.59200 40.36200
H  -14.68600 16.67500 39.79500
H  -10.16800 12.56300 41.83900
H  -5.88900 20.01500 41.37900
H  -8.04900 21.50600 40.00000
H  -8.62800 21.55200 42.93000
H  -7.49600 22.74700 42.18300
H  -6.97800 21.22900 42.84600
H  -6.03000 21.06100 38.96200
H  -6.48400 19.47200 38.56000
H  -4.14400 19.22600 40.17500
H  -4.06900 20.35400 38.69500
H  -13.70300 21.97900 38.83000
H  -12.16500 22.31200 39.52900
H  -13.62200 22.49300 40.54300
H  -16.21600 17.92700 38.67700
H  -17.37300 18.83100 39.56900
H  -16.19100 17.75500 40.47000
H  -13.99000 14.10600 39.31200
H  -12.92300 12.63400 41.65700
H  -15.16100 13.23000 41.88300
H  -15.99000 14.21600 40.67700
H  -15.14400 15.03000 41.90100
H  -13.16500 11.70600 39.31300
H  -11.66700 11.42400 40.08300
H  -10.48500 12.56500 38.37000
H  -11.87100 13.74200 38.14600
H  -11.87400 12.05000 37.57500
H  -8.00300 11.73300 42.87100
H  -6.33900 12.31500 42.86000
H  -7.18300 11.88300 41.37500
H  -4.84700 16.94800 40.72400
H  -6.42200 19.47100 45.07200
H  -4.77600 19.79900 44.46900
H  -5.12900 18.28400 45.38100

