158

Mg 25.23600 1.33900 29.96700
C  27.62700 1.37900 32.59600
C  22.73500 1.62700 32.30900
C  23.08800 1.30100 27.41200
C  27.87800 0.63000 27.83500
N  25.18300 1.60000 32.15500
C  26.30000 1.53500 33.10800
C  25.76600 1.90200 34.53300
C  24.20800 2.04700 34.39300
C  23.98500 1.68900 32.85300
C  23.36500 1.06700 35.34400
C  26.42600 3.20900 35.07000
C  27.41900 3.04100 36.29400
H  27.16000 4.03000 37.38900
N  23.14900 1.38100 29.85300
C  22.32600 1.43500 30.93300
C  20.94400 1.49000 30.39200
C  21.04400 1.44700 28.96200
C  22.46700 1.34700 28.68700
C  19.65700 1.58200 31.20800
C  19.90800 1.28800 27.98000
O  20.04600 1.12100 26.78800
C  18.53100 1.46900 28.50300
N  25.41900 0.86900 27.97900
C  24.41700 1.03700 27.06400
C  24.94400 1.05700 25.65000
C  26.44700 0.87600 25.75600
C  26.61600 0.76900 27.25900
C  24.26700 -0.08700 24.76700
C  27.29600 1.91600 24.98600
C  27.42900 3.33200 25.74100
N  27.31900 0.94000 30.14000
C  28.21400 0.62300 29.19500
C  29.48200 0.36600 29.78200
C  29.35100 0.70800 31.13000
C  27.97200 1.08800 31.28700
C  30.74900 0.18300 28.95800
C  30.02900 0.79000 32.38700
O  31.19400 0.58400 32.70100
C  28.94800 1.23600 33.38800
C  28.89000 0.16600 34.44500
O  28.20000 -0.78600 34.39000
O  29.67900 0.56200 35.51100
C  29.60600 -0.26500 36.73800
H  21.93400 1.70100 33.04700
H  22.38100 1.46700 26.59700
H  28.72300 0.57300 27.14600
H  26.12300 1.13400 35.21900
H  23.78000 3.04500 34.48200
H  22.67400 1.55200 36.03400
H  24.04300 0.59800 36.05700
H  22.87000 0.31700 34.72700
H  25.71000 4.01100 35.24500
H  27.05500 3.65000 34.29700
H  28.43100 3.21900 35.92900
H  27.44400 2.04400 36.73200
H  20.00700 1.64300 32.23900
H  19.02900 0.69200 31.17100
H  19.03500 2.45800 31.02600
H  18.22600 0.68800 29.19900
H  17.78800 1.32300 27.71800
H  18.55300 2.49000 28.88500
H  24.70000 2.05000 25.27300
H  26.76000 -0.09700 25.37700
H  23.38700 -0.42600 25.31500
H  25.02500 -0.80600 24.46000
H  24.01600 0.39600 23.82300
H  26.75500 2.01300 24.04500
H  28.27700 1.51900 24.72300
H  28.46800 3.66000 25.76100
H  27.10100 3.25300 26.77800
H  26.77800 3.94500 25.11700
H  31.68300 0.38500 29.48100
H  30.56600 0.87000 28.13200
H  30.88900 -0.84300 28.61900
H  29.18000 2.17200 33.89800
H  29.67100 -1.33700 36.55400
H  28.58100 -0.10700 37.07500
H  30.28600 0.09400 37.51000
Mg -0.78000 34.23600 26.77100
C  -2.77900 32.59300 29.30600
C  0.83200 35.97600 29.27300
C  0.29200 36.31600 24.37900
C  -2.63900 32.52000 24.37400
N  -1.08700 34.31500 29.04000
C  -1.87600 33.53000 29.85900
C  -1.59500 33.83300 31.35100
C  -0.52600 35.05900 31.28800
C  -0.19600 35.10700 29.77000
C  -0.98600 36.42500 31.98000
C  -1.16800 32.54300 32.26800
C  -1.80100 32.37300 33.65200
H  -0.82900 32.62600 34.90800
N  0.40400 35.87100 26.84200
C  1.12500 36.38000 27.92600
C  2.10400 37.39200 27.44400
C  1.86300 37.51400 26.07300
C  0.76200 36.59000 25.72500
C  3.02100 38.09900 28.41600
C  2.54600 38.50000 25.11400
O  2.19500 38.65800 23.94000
C  3.71600 39.25800 25.56400
N  -1.04700 34.42400 24.62000
C  -0.56000 35.38000 23.90900
C  -0.87700 35.12200 22.44000
C  -1.64800 33.72700 22.37900
C  -1.77400 33.51700 23.87800
C  -1.61200 36.30800 21.89200
C  -0.94000 32.66700 21.61800
C  0.18200 31.80600 22.20700
N  -2.29100 32.75500 26.75900
C  -2.88300 32.15100 25.74100
C  -3.78900 31.11400 26.23000
C  -3.76700 31.31800 27.59700
C  -2.85800 32.35500 27.88500
C  -4.61700 30.14200 25.47900
C  -4.37100 30.86600 28.80900
O  -5.24300 30.02100 28.97700
C  -3.76700 31.63900 30.01800
C  -4.83700 32.25500 30.78400
O  -5.49500 33.20700 30.41700
O  -4.99300 31.61200 32.01000
C  -6.01100 32.06300 32.93200
H  1.26800 36.60600 30.05000
H  0.77100 36.91700 23.60400
H  -3.13900 31.97100 23.57400
H  -2.51200 34.15100 31.84700
H  0.35900 34.70400 31.81800
H  -0.82300 36.37600 33.05700
H  -2.04800 36.49200 31.74300
H  -0.51500 37.30900 31.55200
H  -0.08800 32.65600 32.36700
H  -1.23300 31.62200 31.68800
H  -2.28600 31.39900 33.71100
H  -2.62100 33.09100 33.66000
H  2.80200 37.71700 29.41300
H  2.94500 39.18000 28.30100
H  4.06900 37.97000 28.14900
H  4.25800 39.79100 24.78400
H  4.37100 38.67800 26.21400
H  3.37500 40.12100 26.13600
H  0.13300 35.19100 22.03500
H  -2.60400 33.92500 21.89600
H  -0.85400 36.94300 21.43400
H  -2.35600 36.79700 22.52100
H  -2.14800 35.84900 21.06000
H  -0.50400 33.25800 20.81300
H  -1.69600 32.03400 21.15200
H  -0.05400 30.77700 22.48000
H  0.78100 32.27000 22.99000
H  0.96700 31.66700 21.46300
H  -4.38100 29.15000 25.86200
H  -4.39400 30.11600 24.41200
H  -5.63100 30.43400 25.75000
H  -3.22000 31.03800 30.74500
H  -5.46500 32.21800 33.86300
H  -6.85300 31.38200 33.05200
H  -6.48300 32.93800 32.48600

