158

Mg 40.54200 8.02200 29.28400
C  42.19600 9.44200 31.94200
C  38.37600 6.67900 31.51400
C  38.79700 6.86500 26.78300
C  43.25000 8.72500 27.26600
N  40.34900 8.06400 31.51400
C  41.03500 8.84200 32.34800
C  40.43900 8.78700 33.75500
C  39.36300 7.61200 33.59600
C  39.36600 7.37600 32.11000
C  39.73900 6.33700 34.42200
C  39.87100 10.20100 34.21400
C  39.85100 10.43100 35.75500
H  40.92700 11.36200 36.35900
N  38.80600 7.01400 29.18000
C  38.03800 6.45500 30.18800
C  37.00700 5.63300 29.61400
C  37.07800 5.81000 28.20600
C  38.24700 6.63400 27.98400
C  36.05000 4.88400 30.60500
C  36.13300 5.33100 27.13900
O  36.29700 5.74200 25.99400
C  34.97600 4.45800 27.44100
N  40.97000 7.89500 27.30100
C  40.02600 7.51000 26.38700
C  40.67000 7.25800 24.92800
C  41.98300 8.09600 25.07200
C  42.07700 8.29300 26.63000
C  40.88300 5.79900 24.39000
C  41.87700 9.46800 24.30000
C  41.07300 10.61300 25.00600
N  42.41600 8.95200 29.44000
C  43.44000 9.10600 28.61800
C  44.54500 9.76900 29.23600
C  44.11900 9.98900 30.53200
C  42.79300 9.37700 30.64000
C  45.84500 9.99700 28.55700
C  44.41200 10.49300 31.87000
O  45.43300 11.01600 32.19100
C  43.22100 10.24300 32.80200
C  43.72200 9.45300 34.00200
O  44.03800 8.26500 34.04100
O  43.71000 10.27200 35.09400
C  43.88700 9.52500 36.30000
H  37.78900 6.18600 32.29200
H  38.42400 6.41600 25.86000
H  44.11100 8.95100 26.63300
H  41.16800 8.54800 34.52900
H  38.41400 8.03600 33.92400
H  38.99700 6.07000 35.17400
H  40.69700 6.51900 34.91100
H  39.89200 5.58600 33.64700
H  38.79900 10.19000 34.01900
H  40.31400 11.02300 33.65000
H  39.74300 9.45300 36.22500
H  38.87300 10.86400 35.96900
H  36.21400 5.16500 31.64500
H  36.33100 3.83100 30.59900
H  34.98900 4.87100 30.35500
H  35.27900 3.76500 28.22500
H  34.67600 4.00900 26.49500
H  34.15200 5.08300 27.78600
H  40.11700 7.86000 24.20700
H  42.79600 7.49700 24.66200
H  41.04100 5.07000 25.18500
H  41.72600 5.75600 23.70100
H  39.97000 5.43700 23.91800
H  41.44600 9.25800 23.32100
H  42.88400 9.84600 24.12300
H  40.21100 10.95600 24.43500
H  41.78100 11.43600 25.10200
H  40.59200 10.35600 25.95000
H  45.81800 10.99800 28.12700
H  46.09800 9.28700 27.77000
H  46.58100 9.87000 29.35100
H  42.79100 11.18600 33.13900
H  43.53800 10.12500 37.14100
H  44.94500 9.27500 36.37500
H  43.15800 8.71500 36.31900
Mg -5.27000 25.00500 26.80600
C  -3.75700 26.51100 29.56800
C  -6.97300 22.88000 28.81000
C  -6.45500 23.61700 23.99200
C  -3.17000 27.13300 24.78000
N  -5.30600 24.74200 28.93500
C  -4.67800 25.48000 29.88600
C  -5.17700 25.03800 31.23300
C  -5.84900 23.67400 30.96200
C  -6.10400 23.71400 29.48200
C  -5.04400 22.46800 31.46800
C  -6.13800 26.11100 31.78600
C  -6.01100 26.37100 33.22800
H  -5.41100 25.29700 34.14400
N  -6.57300 23.49600 26.46900
C  -7.29100 22.77200 27.40000
C  -8.19300 21.90400 26.74300
C  -8.04600 22.14700 25.36900
C  -6.94900 23.11100 25.19200
C  -9.28600 21.13100 27.52300
C  -8.88900 21.48500 24.21000
O  -8.67100 21.74200 23.06300
C  -9.98800 20.48000 24.41900
N  -4.87600 25.34200 24.73000
C  -5.51900 24.57900 23.76200
C  -5.25100 25.14400 22.40400
C  -4.27100 26.39700 22.68800
C  -4.05200 26.27300 24.15000
C  -4.75700 24.09700 21.22700
C  -4.85800 27.81800 22.18500
C  -3.86900 28.55500 21.26200
N  -3.71200 26.44900 27.01100
C  -2.97900 27.15300 26.10800
C  -1.95500 27.93500 26.93600
C  -2.33700 27.82000 28.24800
C  -3.37000 26.90700 28.23100
C  -0.90100 28.88000 26.44800
C  -1.96100 28.23200 29.57500
O  -1.18600 29.05100 30.00400
C  -2.96500 27.40700 30.53500
C  -2.02800 26.67700 31.37100
O  -1.54300 25.62500 31.09000
O  -1.85000 27.35000 32.60000
C  -0.99300 26.75600 33.63300
H  -7.49200 22.23900 29.52600
H  -6.63800 23.10100 23.04700
H  -2.51800 27.78300 24.19200
H  -4.27100 24.83700 31.80400
H  -6.83500 23.74300 31.42100
H  -4.03200 22.67100 31.82000
H  -4.99100 21.79000 30.61600
H  -5.63600 21.97600 32.23800
H  -7.16900 25.78400 31.65500
H  -6.07100 27.06800 31.26800
H  -7.03000 26.45100 33.60800
H  -5.49900 27.28300 33.53200
H  -10.29200 21.35800 27.17000
H  -9.16100 21.17200 28.60500
H  -9.08100 20.09500 27.25400
H  -9.96700 19.89500 23.49900
H  -10.97500 20.90500 24.60300
H  -9.70900 19.78700 25.21300
H  -6.19700 25.55600 22.04900
H  -3.36000 26.12300 22.15600
H  -5.44900 24.07600 20.38500
H  -5.03500 23.15000 21.68900
H  -3.72300 24.17200 20.89000
H  -5.11700 28.44900 23.03400
H  -5.71200 27.74100 21.51200
H  -3.66000 29.53000 21.70400
H  -4.38500 28.84000 20.34500
H  -2.99800 27.93200 21.05900
H  -0.62100 28.59200 25.43400
H  0.02600 28.72200 26.99900
H  -1.26600 29.90500 26.37900
H  -3.37600 28.19100 31.17200
H  0.00600 26.67100 33.20600
H  -1.50900 25.81500 33.82300
H  -0.93700 27.26700 34.59500

