158

Mg 17.76300 -1.93700 28.31700
C  16.61800 0.01100 31.18400
C  19.46000 -3.77400 30.44500
C  19.24800 -3.16200 25.51500
C  16.20900 0.59200 26.36200
N  18.13000 -1.77300 30.64700
C  17.48700 -1.03700 31.53200
C  17.82900 -1.42600 32.91000
C  18.95100 -2.61700 32.69200
C  18.84300 -2.76800 31.14300
C  20.49300 -2.30600 33.04300
C  16.64400 -1.68500 33.88100
C  16.46000 -0.72800 35.15000
H  17.69600 -0.09900 35.74000
N  19.14100 -3.39500 28.02200
C  19.63700 -4.12200 29.06600
C  20.46100 -5.22800 28.51800
C  20.47700 -4.97000 27.05400
C  19.59800 -3.78100 26.73500
C  21.02100 -6.32300 29.35400
C  21.28100 -5.70300 26.01700
O  21.24300 -5.35000 24.79600
C  22.00300 -6.89600 26.42100
N  17.90600 -1.29200 26.22000
C  18.54400 -2.03000 25.27900
C  18.33200 -1.37700 23.91300
C  17.32200 -0.24400 24.20800
C  17.06900 -0.33100 25.67900
C  19.59300 -1.10200 23.09100
C  16.11100 0.01200 23.38900
C  16.20900 1.04200 22.29000
N  16.51400 -0.18500 28.62100
C  15.82800 0.65500 27.75900
C  14.99100 1.63900 28.38700
C  15.31600 1.45000 29.73200
C  16.24600 0.35700 29.82300
C  14.10200 2.67700 27.67000
C  15.03400 1.81100 31.06300
O  14.15200 2.57100 31.41100
C  15.80600 0.99400 32.06000
C  16.63300 1.90100 32.84100
O  17.79400 2.25000 32.64800
O  15.86800 2.46200 33.81900
C  16.37600 3.53200 34.63400
H  19.92300 -4.44300 31.17400
H  19.55700 -3.57900 24.55400
H  15.58700 1.32600 25.84600
H  18.42400 -0.66800 33.41900
H  18.60000 -3.55200 33.12900
H  21.11100 -1.98700 32.20400
H  20.92500 -3.23000 33.42600
H  20.56800 -1.58900 33.86100
H  16.88100 -2.68800 34.23600
H  15.73800 -1.64400 33.27600
H  16.14100 -1.55200 35.78900
H  15.67400 -0.01300 34.90800
H  20.56300 -7.29700 29.18300
H  20.86500 -6.19500 30.42500
H  22.11100 -6.30500 29.38200
H  21.42800 -7.69400 26.89000
H  22.67300 -6.50700 27.18800
H  22.40800 -7.33100 25.50700
H  17.98400 -2.18400 23.26900
H  17.80000 0.73200 24.13300
H  19.55900 -0.07700 22.72100
H  19.67400 -1.69900 22.18300
H  20.47600 -1.33300 23.68700
H  15.26100 0.22500 24.03700
H  15.91400 -0.95800 22.93300
H  17.13900 1.60200 22.18900
H  15.43400 1.77400 22.51300
H  16.01700 0.52000 21.35200
H  13.98600 2.44400 26.61100
H  14.43600 3.70200 27.82900
H  13.15200 2.61300 28.20100
H  15.10600 0.41300 32.66000
H  16.31800 4.52100 34.18000
H  17.43700 3.42100 34.85800
H  15.79200 3.56700 35.55300
Mg 54.35800 24.36700 45.10800
C  51.54100 26.28800 43.96100
C  52.68500 21.50500 43.97700
C  57.17800 22.73100 45.35400
C  55.86600 27.47100 45.81400
N  52.46700 23.97700 43.81400
C  51.46900 24.91900 43.64200
C  50.19400 24.26100 43.03300
C  50.42400 22.79100 43.50400
C  51.94600 22.74300 43.72200
C  49.62200 22.38600 44.77700
C  50.11600 24.36800 41.44300
C  48.75400 24.14200 40.87700
H  48.59300 23.10100 39.73600
N  54.83200 22.37800 44.76600
C  54.02400 21.30800 44.40100
C  54.77300 20.04700 44.62800
C  56.07700 20.37200 45.00200
C  56.04800 21.89200 45.08700
C  54.17500 18.66500 44.53400
C  57.19400 19.39400 45.39900
O  57.08100 18.13000 45.41600
C  58.60900 19.85200 45.68700
N  56.29100 25.03300 45.30800
C  57.28100 24.10800 45.49700
C  58.62200 24.82800 45.86200
C  58.19800 26.33000 45.58800
C  56.65700 26.30400 45.70000
C  59.05900 24.69900 47.35500
C  58.60000 26.77000 44.11900
C  59.26400 28.10400 43.88400
N  53.82600 26.44700 45.09500
C  54.50100 27.52800 45.53400
C  53.62700 28.60000 45.62700
C  52.40000 28.26700 45.01100
C  52.65400 26.89900 44.66300
C  53.96700 29.91600 46.16700
C  51.09200 28.64500 44.54500
O  50.38900 29.62900 44.63700
C  50.50400 27.37400 43.89500
C  50.21800 27.72200 42.50100
O  51.10500 28.02300 41.64400
O  48.90800 27.59800 42.22300
C  48.51200 27.90700 40.84200
H  52.17400 20.54100 44.00300
H  58.09600 22.15400 45.48800
H  56.41900 28.38900 46.02200
H  49.39000 24.74600 43.58500
H  50.24900 22.06400 42.71200
H  48.78500 21.73300 44.53000
H  49.21000 23.25200 45.29400
H  50.30200 21.93000 45.49700
H  50.56600 23.49200 40.97600
H  50.55500 25.29900 41.08300
H  48.37500 25.08100 40.47300
H  48.12900 23.79000 41.69700
H  54.88900 17.84300 44.49400
H  53.45100 18.62100 43.72000
H  53.59700 18.38500 45.41400
H  59.09200 20.27800 44.80800
H  59.16000 18.98800 46.05800
H  58.53100 20.53700 46.53200
H  59.41400 24.48400 45.19700
H  58.62000 27.01600 46.32300
H  60.14500 24.67700 47.43900
H  58.61900 23.79700 47.77900
H  58.72400 25.52700 47.98000
H  57.70400 26.61500 43.51800
H  59.22500 26.03500 43.61200
H  58.66600 28.70400 43.19800
H  60.25100 27.97100 43.44200
H  59.47200 28.61600 44.82400
H  54.55700 29.81000 47.07800
H  52.97700 30.33400 46.35200
H  54.44600 30.52700 45.40300
H  49.62500 27.03800 44.44500
H  47.94300 28.83700 40.82500
H  47.74900 27.17000 40.59100
H  49.25600 28.06000 40.06000

