158

Mg 9.36300 4.93800 28.39300
C  10.75200 3.20900 31.11100
C  7.36700 6.59400 30.44200
C  8.10400 6.58900 25.75400
C  11.27400 2.97700 26.15100
N  9.32900 4.99000 30.62900
C  9.91200 4.18900 31.55700
C  9.40200 4.46500 32.96000
C  8.31700 5.59700 32.75800
C  8.26200 5.69000 31.17800
C  6.89200 5.33500 33.44500
C  10.60400 4.90300 33.82300
C  10.31500 5.88100 34.97500
H  11.01100 5.73600 36.34500
N  7.80100 6.34500 28.08700
C  7.12400 6.91000 29.08000
C  6.10600 7.76100 28.49000
C  6.42900 7.86700 27.07700
C  7.47400 6.90700 26.92200
C  5.09200 8.36400 29.41500
C  5.82700 8.71700 26.02300
O  6.22900 8.87800 24.91600
C  4.65900 9.51700 26.50900
N  9.45900 4.61300 26.18200
C  9.00500 5.61100 25.40900
C  9.35900 5.41300 23.97000
C  10.67600 4.49500 24.07600
C  10.48600 3.95300 25.54500
C  8.21300 4.98700 23.06100
C  11.99100 5.26000 23.80000
C  12.28000 6.48200 24.67400
N  10.61700 3.34200 28.55200
C  11.30700 2.62700 27.53900
C  12.06100 1.60800 28.17100
C  11.89600 1.83200 29.55500
C  11.04100 2.89900 29.71700
C  12.77200 0.37000 27.57000
C  12.24400 1.28500 30.83000
O  12.97800 0.30600 31.10100
C  11.51600 2.17500 31.95600
C  10.57900 1.23900 32.65300
O  9.85100 0.46300 32.01900
O  10.88900 1.11400 33.98200
C  10.04000 0.22100 34.66400
H  6.75600 7.28200 31.02900
H  7.92000 7.19900 24.86700
H  11.88700 2.40000 25.45500
H  9.02700 3.51300 33.33500
H  8.75100 6.53700 33.10000
H  6.15200 5.19400 32.65800
H  6.71000 6.20100 34.08200
H  6.97900 4.43300 34.05100
H  11.23200 5.46200 33.13000
H  11.12100 3.99900 34.14300
H  9.28300 6.09800 35.25000
H  10.64900 6.87600 34.68200
H  4.92700 7.80700 30.33700
H  4.12400 8.43000 28.91900
H  5.48100 9.33300 29.72800
H  4.31300 10.12400 25.67300
H  4.86700 10.27100 27.26900
H  3.85400 8.87900 26.87300
H  9.73400 6.39600 23.68600
H  10.60300 3.77200 23.26400
H  8.15100 3.98600 22.63300
H  8.18500 5.71400 22.24900
H  7.26100 5.05800 23.58600
H  11.91500 5.66500 22.79100
H  12.75500 4.48900 23.69900
H  11.48700 6.66300 25.40000
H  12.42100 7.31300 23.98300
H  13.22000 6.25700 25.17900
H  12.07800 -0.05200 26.84300
H  13.06800 -0.35000 28.33300
H  13.68200 0.65100 27.04200
H  12.25700 2.65600 32.59400
H  9.16500 0.63000 35.16800
H  10.62700 -0.19700 35.48200
H  9.82600 -0.63600 34.02600
Mg 56.42000 24.89700 44.74900
C  53.70000 26.92700 43.57100
C  54.81000 22.23800 43.42500
C  59.16000 23.25700 45.05100
C  58.12500 27.97900 45.47900
N  54.56800 24.64000 43.53300
C  53.58200 25.58000 43.17800
C  52.28000 24.87400 42.93600
C  52.57500 23.43400 43.29500
C  54.10100 23.43500 43.42000
C  51.88700 22.79100 44.57200
C  51.92500 25.00100 41.46000
C  50.58400 24.47500 41.03600
H  50.68000 23.24900 40.10800
N  56.90400 22.98400 44.28600
C  56.14400 21.99300 43.69400
C  56.87200 20.70500 43.69300
C  58.08600 20.92000 44.41400
C  58.15300 22.43700 44.61100
C  56.36000 19.44600 43.03000
C  59.23500 19.98800 44.62100
O  59.08800 18.76300 44.34000
C  60.47700 20.39600 45.20700
N  58.41300 25.57600 45.12000
C  59.34300 24.64100 45.17500
C  60.72000 25.29900 45.50700
C  60.40200 26.85300 45.57900
C  58.88900 26.82900 45.34500
C  61.32400 24.84700 46.81900
C  61.20000 27.71100 44.51100
C  62.42400 28.56100 45.01700
N  55.98100 26.96200 44.69000
C  56.75200 28.05900 45.18100
C  55.87000 29.21300 45.16800
C  54.67800 28.83200 44.54800
C  54.81200 27.47500 44.25600
C  56.27300 30.55400 45.60200
C  53.37900 29.25900 44.07100
O  52.93000 30.38300 44.08700
C  52.62800 28.09300 43.45500
C  52.19500 28.54800 42.09700
O  52.86600 29.16900 41.29900
O  50.90900 28.18500 41.86100
C  50.18500 28.70100 40.64500
H  54.13300 21.45400 43.08000
H  60.16800 22.83600 45.06000
H  58.79200 28.79400 45.76900
H  51.43900 25.31100 43.47400
H  52.31300 22.78500 42.46000
H  51.16700 23.56200 44.84700
H  52.60500 22.62200 45.37500
H  51.47300 21.84200 44.23100
H  52.70500 24.53800 40.85600
H  51.96200 26.03700 41.12300
H  50.01300 25.21200 40.47200
H  49.91400 24.14900 41.83200
H  57.19100 18.78700 42.78100
H  55.86500 19.85900 42.15000
H  55.58700 19.05300 43.69000
H  61.15700 20.82200 44.46800
H  61.01500 19.53300 45.59800
H  60.34100 21.02800 46.08400
H  61.31300 24.98500 44.64800
H  60.52000 27.29700 46.56700
H  62.09200 24.11500 46.57000
H  60.55300 24.41300 47.45500
H  61.94800 25.64700 47.21900
H  60.54500 28.49100 44.12300
H  61.51300 27.06000 43.69500
H  62.36700 29.55600 44.57700
H  63.35000 28.03000 44.79300
H  62.34400 28.57800 46.10400
H  56.11300 30.58400 46.68000
H  55.53300 31.18100 45.10600
H  57.25400 30.89700 45.27200
H  51.68500 27.97500 43.98900
H  50.82400 28.63900 39.76400
H  49.83800 29.73000 40.74000
H  49.34800 28.01200 40.53300

