158

Mg -10.05900 39.81200 40.29800
C  -9.27800 36.55400 39.40500
C  -7.02100 40.95800 39.24600
C  -11.27600 43.03600 40.36900
C  -13.48100 38.75200 40.62000
N  -8.36500 38.88200 39.24100
C  -8.24800 37.50300 39.13000
C  -6.74000 37.12800 38.97200
C  -6.02300 38.49200 39.11200
C  -7.13300 39.53500 39.23100
C  -4.90500 38.58800 40.26700
C  -6.50500 36.33500 37.65400
C  -6.98200 37.05200 36.39900
H  -7.69900 36.25500 35.32400
N  -9.26900 41.81700 39.83300
C  -7.98600 41.98300 39.34500
C  -7.76200 43.43600 39.11000
C  -9.06200 44.07700 39.39900
C  -9.97600 42.97100 39.89700
C  -6.41800 44.04300 38.59400
C  -9.44700 45.50000 39.30300
O  -8.56600 46.34700 39.06400
C  -10.87600 46.05300 39.57900
N  -12.10400 40.72500 40.58500
C  -12.24300 42.04600 40.58500
C  -13.75600 42.41900 40.85100
C  -14.51900 41.05500 41.00000
C  -13.27500 40.13800 40.77800
C  -13.93100 43.46100 42.00100
C  -15.61700 40.78600 39.99400
C  -16.99400 40.68100 40.48700
N  -11.17200 38.00800 40.22800
C  -12.51000 37.77200 40.31400
C  -12.71600 36.41700 40.09100
C  -11.46300 35.87200 39.84600
C  -10.54400 36.91700 39.87100
C  -14.01700 35.72000 40.11500
C  -10.78400 34.65600 39.53100
O  -11.23300 33.47700 39.36400
C  -9.24600 35.00200 39.43700
C  -8.60000 34.38900 40.59700
O  -9.06800 34.23800 41.72600
O  -7.29700 34.07700 40.34800
C  -6.53200 33.56000 41.50000
H  -6.09700 41.49900 39.46200
H  -11.55600 44.07900 40.52800
H  -14.47100 38.30400 40.51000
H  -6.31600 36.56600 39.80400
H  -5.41800 38.75000 38.24300
H  -5.22600 39.32300 41.00600
H  -3.99900 38.92400 39.76400
H  -4.68100 37.61200 40.69700
H  -6.87800 35.31800 37.77400
H  -5.41500 36.29700 37.64000
H  -6.07900 37.45500 35.94000
H  -7.59600 37.91100 36.67000
H  -6.53200 44.99400 38.07300
H  -5.89000 43.39400 37.89500
H  -5.70800 44.17500 39.41000
H  -11.06600 46.15300 40.64800
H  -11.68300 45.53600 39.06000
H  -10.90400 47.04800 39.13600
H  -14.18900 42.88700 39.96700
H  -14.91500 41.00200 42.01500
H  -14.53700 43.12400 42.84300
H  -14.37700 44.32700 41.51300
H  -12.96400 43.76900 42.39700
H  -15.36900 39.90700 39.39900
H  -15.48700 41.57100 39.25000
H  -16.93800 40.90300 41.55200
H  -17.50800 39.75000 40.24600
H  -17.59500 41.50100 40.09300
H  -14.33300 35.81500 41.15400
H  -13.99800 34.70300 39.72300
H  -14.64600 36.38900 39.52700
H  -9.02700 34.59900 38.44800
H  -5.58500 33.12000 41.18800
H  -7.15400 32.75200 41.88500
H  -6.30200 34.32000 42.24800
Mg -3.19500 34.44500 26.81500
C  -4.95800 32.92200 29.44000
C  -1.93500 36.64500 29.03400
C  -1.47900 35.63700 24.33400
C  -4.85200 32.23900 24.49400
N  -3.41500 34.68200 29.04800
C  -4.13800 33.96000 29.92800
C  -4.04800 34.54400 31.35500
C  -3.27400 35.86500 31.05700
C  -2.83700 35.74700 29.65000
C  -4.13300 37.22300 31.22900
C  -3.53900 33.53200 32.43400
C  -4.25500 33.48500 33.80600
H  -3.52300 33.08200 35.08300
N  -1.95200 35.98600 26.64800
C  -1.54700 36.78400 27.64300
C  -0.64600 37.79800 27.08900
C  -0.49600 37.53600 25.72900
C  -1.35800 36.38400 25.48700
C  -0.09400 38.95000 27.86500
C  0.38000 38.25900 24.67500
O  0.29400 37.92700 23.50100
C  1.31900 39.33000 25.03900
N  -3.42200 34.19400 24.67300
C  -2.39800 34.69700 23.92900
C  -2.31100 34.05000 22.57500
C  -3.27300 32.84900 22.68500
C  -3.99100 33.20700 23.99000
C  -2.79500 35.06300 21.38900
C  -2.55000 31.47000 22.56500
C  -3.31900 30.41100 21.67800
N  -4.59600 32.93100 26.94200
C  -5.16200 32.12500 25.87700
C  -5.93300 31.04700 26.46000
C  -5.92000 31.37500 27.88000
C  -5.09200 32.52200 28.09200
C  -6.54400 29.79900 25.77100
C  -6.43900 30.98700 29.20000
O  -7.09400 30.04600 29.57000
C  -5.83100 31.96200 30.17800
C  -6.93600 32.65000 30.90400
O  -7.37600 33.74900 30.63600
O  -7.33200 31.96500 31.99700
C  -8.34100 32.54300 32.90700
H  -1.57000 37.34500 29.78900
H  -0.73800 35.88200 23.56900
H  -5.14900 31.47200 23.77600
H  -5.02400 34.94300 31.63100
H  -2.40800 35.80000 31.71600
H  -3.48400 38.01300 31.60700
H  -4.99900 36.98000 31.84600
H  -4.61300 37.61500 30.33200
H  -2.48300 33.71400 32.63500
H  -3.54900 32.50600 32.06600
H  -5.10800 32.84300 33.58600
H  -4.68300 34.48400 33.88200
H  -0.18000 38.85200 28.94800
H  -0.71300 39.81100 27.61200
H  0.97200 39.12900 27.72500
H  1.91800 39.55200 24.15600
H  1.87700 38.85800 25.84800
H  0.88100 40.24600 25.43600
H  -1.27400 33.76900 22.39200
H  -4.03700 32.93500 21.91200
H  -3.56500 34.69400 20.71200
H  -1.80900 35.12300 20.92800
H  -3.17300 36.02100 21.74700
H  -2.42200 31.06200 23.56700
H  -1.58100 31.59900 22.08300
H  -2.54400 29.92200 21.08600
H  -4.13500 30.81100 21.07700
H  -3.68900 29.57700 22.27400
H  -6.32600 29.93100 24.71100
H  -7.61500 29.97200 25.87600
H  -6.18100 28.87000 26.21100
H  -5.21700 31.42800 30.90400
H  -8.98400 33.29300 32.44600
H  -7.79700 32.93200 33.76700
H  -8.93200 31.69000 33.23900

