158

Mg 4.65300 54.20000 41.41700
C  3.57600 50.88600 41.13500
C  7.33500 53.23100 39.29700
C  5.57500 57.43200 41.12400
C  1.66400 55.00900 42.88400
N  5.30700 52.26600 40.23800
C  4.72000 51.10000 40.37300
C  5.47000 50.07800 39.55000
C  6.78100 50.74000 39.25800
C  6.48000 52.23600 39.58900
C  7.98600 50.06700 40.00800
C  4.64800 49.86800 38.13800
C  4.71700 48.42900 37.62800
H  5.38400 48.23200 36.31000
N  6.20900 55.18700 40.41700
C  7.25000 54.59000 39.65800
C  8.17400 55.56100 39.30800
C  7.78000 56.83800 39.80700
C  6.48800 56.58600 40.46500
C  9.38400 55.19900 38.50300
C  8.50100 58.20000 39.70500
O  9.57400 58.19300 39.14500
C  7.96700 59.39200 40.34300
N  3.75200 55.99500 41.85300
C  4.32100 57.17700 41.69900
C  3.45900 58.29700 42.41700
C  2.20500 57.50600 42.96800
C  2.55700 56.07900 42.49700
C  4.12900 59.23500 43.43200
C  0.75700 57.95700 42.55900
C  0.37700 57.35500 41.21600
N  2.97900 53.18800 42.01400
C  1.82000 53.60400 42.64500
C  1.00700 52.52900 43.01200
C  1.66600 51.37300 42.51100
C  2.80700 51.87500 41.84400
C  -0.28800 52.63600 43.70000
C  1.64900 49.90700 42.34700
O  0.81500 49.08200 42.69900
C  2.90200 49.51400 41.47900
C  2.53900 48.66100 40.40300
O  1.75500 48.94400 39.52700
O  3.05700 47.43300 40.61200
C  2.48600 46.29500 39.94000
H  8.24400 52.98300 38.74500
H  5.80800 58.49200 41.23900
H  0.75400 55.21500 43.45100
H  5.64300 49.12200 40.04400
H  7.15900 50.63200 38.24100
H  8.56700 50.82000 40.53900
H  8.70800 49.59100 39.34400
H  7.61500 49.41300 40.79700
H  5.02000 50.59200 37.41300
H  3.63200 50.24500 38.26000
H  3.66200 48.15800 37.59500
H  5.28000 47.79000 38.30800
H  9.94400 54.38600 38.96300
H  10.05900 55.98900 38.17300
H  9.03700 54.80300 37.54800
H  7.03100 59.72400 39.89300
H  8.65800 60.22000 40.18500
H  7.97200 59.21700 41.41900
H  3.04200 58.91700 41.62300
H  2.32900 57.48800 44.05100
H  5.10600 58.83400 43.70300
H  3.46200 59.43400 44.27100
H  4.41000 60.12700 42.87200
H  0.72700 59.03100 42.37500
H  0.07100 57.71600 43.37000
H  -0.28600 58.06400 40.72100
H  -0.34000 56.53600 41.27300
H  1.05100 57.10700 40.39600
H  -0.10200 52.24200 44.69900
H  -1.04900 52.15000 43.08900
H  -0.53500 53.67300 43.92500
H  3.56300 48.93600 42.12400
H  2.79400 46.24700 38.89500
H  1.41600 46.39700 40.11800
H  2.74200 45.31800 40.34900
Mg -13.19200 16.22300 42.96000
C  -10.08900 14.44300 42.61200
C  -11.81500 18.81900 41.05800
C  -16.27200 17.52300 42.40400
C  -14.67600 13.16900 43.83900
N  -11.17100 16.63300 41.94800
C  -10.09900 15.76800 42.03500
C  -8.87500 16.44900 41.26500
C  -9.35300 17.92300 41.07800
C  -10.87900 17.81800 41.28100
C  -8.71100 19.10600 41.87700
C  -8.49400 15.71500 39.97800
C  -7.14800 15.02700 39.89400
H  -6.49000 14.86600 38.50500
N  -13.91100 18.03700 42.09300
C  -13.16800 18.90100 41.31900
C  -13.97900 20.01100 40.91600
C  -15.29500 19.68400 41.31300
C  -15.17500 18.32900 41.97000
C  -13.45100 21.21500 40.14700
C  -16.51500 20.50000 41.14600
O  -16.44600 21.64300 40.68600
C  -17.86800 20.22600 41.69500
N  -15.17500 15.44600 42.99900
C  -16.29600 16.28900 42.86000
C  -17.60200 15.60000 43.22000
C  -17.06000 14.19400 43.69400
C  -15.55500 14.25200 43.55600
C  -18.47600 16.31400 44.22700
C  -17.70100 12.95500 42.82000
C  -18.31100 11.74800 43.63600
N  -12.54500 14.20200 43.30700
C  -13.26000 13.10900 43.74800
C  -12.37100 11.99300 43.90800
C  -11.11700 12.45900 43.45300
C  -11.23000 13.81700 43.07800
C  -12.60000 10.59400 44.59000
C  -9.68000 12.06200 43.25000
O  -9.02400 11.08500 43.48900
C  -8.99600 13.40900 42.60900
C  -7.86900 13.70900 43.44300
O  -8.01000 14.03000 44.63600
O  -6.65000 13.67200 42.81200
C  -5.44800 13.85200 43.66800
H  -11.33200 19.53500 40.39000
H  -17.27400 17.88600 42.16400
H  -15.08900 12.24900 44.25800
H  -7.97000 16.40500 41.87100
H  -9.32200 18.16500 40.01500
H  -8.24300 19.87100 41.25800
H  -7.87500 18.85400 42.52900
H  -9.40700 19.66400 42.50300
H  -8.41600 16.43400 39.16300
H  -9.15100 14.90000 39.67400
H  -7.23600 14.00700 40.26800
H  -6.50900 15.53200 40.61800
H  -13.69900 21.06500 39.09600
H  -12.36100 21.20900 40.17200
H  -13.80600 22.16900 40.53700
H  -18.19900 19.43100 41.02600
H  -18.42300 21.16200 41.63300
H  -17.93300 19.90200 42.73300
H  -18.18200 15.49000 42.30400
H  -17.47900 13.98000 44.67700
H  -17.90500 16.98600 44.86800
H  -18.78800 15.51300 44.89800
H  -19.29200 16.90200 43.80800
H  -16.94600 12.56600 42.13600
H  -18.50800 13.35300 42.20500
H  -17.43300 11.16600 43.91400
H  -19.03500 11.11000 43.12900
H  -18.84400 12.16100 44.49200
H  -11.85900 10.48700 45.38200
H  -12.39700 9.77100 43.90600
H  -13.63100 10.54400 44.94200
H  -8.79900 13.24500 41.54900
H  -5.41600 13.09100 44.44800
H  -5.31300 14.89600 43.95400
H  -4.52800 13.67400 43.11200

