158

Mg 0.00300 43.84200 25.88500
C  2.17300 44.10300 28.71100
C  -2.47600 43.06000 28.03400
C  -1.49100 42.90900 23.27600
C  2.96200 44.46300 23.92700
N  -0.22100 43.71400 28.13100
C  0.81200 43.93500 29.02100
C  0.20000 43.92500 30.49000
C  -1.26000 43.45500 30.27900
C  -1.34400 43.42400 28.76300
C  -1.59800 42.06600 30.96300
C  0.33500 45.29100 31.17000
C  0.43400 45.21200 32.67500
H  -0.12500 44.01500 33.44300
N  -1.75300 43.10300 25.73200
C  -2.72300 42.79400 26.64600
C  -3.79600 42.17600 26.06300
C  -3.58600 42.27400 24.65700
C  -2.23300 42.76900 24.46100
C  -4.95800 41.73200 26.86500
C  -4.61800 41.95100 23.44500
O  -4.37100 41.87200 22.24500
C  -6.06400 41.75300 23.88300
N  0.62300 43.89000 23.87000
C  -0.28800 43.43300 22.99200
C  0.29000 43.42600 21.55400
C  1.62300 44.13400 21.77100
C  1.74800 44.31400 23.25900
C  0.39200 42.01800 20.91000
C  1.71400 45.56100 21.14000
C  0.79200 46.62800 21.82200
N  2.17800 44.37900 26.21100
C  3.16000 44.48700 25.31000
C  4.45400 44.50800 26.02700
C  4.09900 44.42100 27.36300
C  2.71600 44.29000 27.41800
C  5.73800 44.63500 25.40900
C  4.60200 44.16300 28.75400
O  5.76700 44.01900 29.11800
C  3.34400 44.14600 29.62800
C  3.37600 43.01700 30.52100
O  2.97000 41.92700 30.20100
O  3.84000 43.36900 31.82500
C  3.99600 42.31400 32.79400
H  -3.30000 42.77100 28.69000
H  -2.08400 42.46700 22.47200
H  3.81200 44.50900 23.24200
H  0.78900 43.24300 31.10200
H  -2.01900 44.16700 30.60100
H  -0.78600 41.53900 31.46400
H  -1.92200 41.32100 30.23700
H  -2.42500 42.30300 31.63300
H  -0.48600 45.95500 30.90200
H  1.16700 45.85200 30.74500
H  -0.03800 46.09300 33.10900
H  1.51200 45.13900 32.82400
H  -5.78500 42.43200 26.74200
H  -4.70700 41.64300 27.92200
H  -5.37100 40.80900 26.45800
H  -6.85100 42.00800 23.17300
H  -6.32500 42.36200 24.74900
H  -6.21700 40.70200 24.12900
H  -0.24400 44.15200 20.94100
H  2.49000 43.54900 21.46400
H  0.11700 41.24400 21.62700
H  1.30900 41.72200 20.40000
H  -0.30900 41.92200 20.08200
H  1.42000 45.51300 20.09200
H  2.72200 45.97300 21.20000
H  -0.19500 46.28100 22.12900
H  0.47200 47.27500 21.00500
H  1.40800 47.21900 22.50000
H  6.02100 45.66900 25.60600
H  5.69300 44.32500 24.36500
H  6.45800 43.95700 25.86800
H  3.43400 45.07200 30.19600
H  5.08000 42.20800 32.83300
H  3.48700 41.43800 32.39300
H  3.63800 42.55800 33.79400
Mg -12.27300 16.34700 41.26400
C  -8.85100 15.34900 40.57900
C  -11.54800 19.36000 39.70400
C  -15.49400 16.88600 41.13500
C  -12.93500 12.90900 42.09000
N  -10.40000 17.18400 40.19200
C  -9.11800 16.64000 40.32000
C  -8.07400 17.72400 39.83500
C  -8.99700 19.06500 39.61800
C  -10.40500 18.54500 39.80700
C  -8.73400 20.25700 40.48500
C  -7.35800 17.33800 38.50100
C  -5.92300 17.75800 38.23400
H  -5.65500 18.66500 37.02000
N  -13.34200 17.91500 40.62800
C  -12.89900 19.07400 39.96900
C  -14.11700 19.94100 39.69400
C  -15.24200 19.19600 40.09400
C  -14.72300 17.94800 40.66900
C  -14.02600 21.19800 38.97900
C  -16.81400 19.69700 39.93700
O  -17.08700 20.72700 39.35600
C  -17.99600 18.90900 40.47100
N  -13.97300 15.03400 41.71900
C  -15.16500 15.65100 41.62300
C  -16.30500 14.61500 42.03800
C  -15.49000 13.37200 42.52500
C  -14.06200 13.72900 42.06000
C  -17.47000 15.07000 42.98900
C  -15.85400 12.01600 41.90200
C  -15.71200 11.78200 40.38000
N  -11.14800 14.51000 41.37100
C  -11.60100 13.25500 41.82200
C  -10.47000 12.38200 41.78200
C  -9.35100 13.20300 41.37400
C  -9.79200 14.45900 41.06300
C  -10.51800 11.02300 42.24000
C  -7.90000 13.14200 41.17400
O  -7.10400 12.26700 41.39200
C  -7.52900 14.62200 40.67900
C  -6.60400 15.32100 41.66200
O  -6.69200 15.21500 42.84200
O  -5.55700 15.94100 40.98700
C  -4.60500 16.60400 41.89100
H  -11.34800 20.35400 39.29900
H  -16.58200 16.95500 41.19900
H  -13.09900 11.85600 42.32900
H  -7.37500 17.81300 40.66600
H  -8.74400 19.42600 38.62100
H  -9.26700 21.15900 40.18500
H  -7.65600 20.36200 40.36300
H  -8.85600 20.10600 41.55700
H  -7.81000 17.73600 37.59300
H  -7.39000 16.25800 38.36000
H  -5.24700 16.91500 38.09100
H  -5.59900 18.28300 39.13200
H  -13.01700 21.55000 38.76500
H  -14.66300 21.97700 39.39800
H  -14.46200 20.88600 38.03000
H  -18.88800 19.44800 40.15400
H  -17.98000 18.90300 41.56100
H  -18.01600 17.88900 40.08800
H  -16.75900 14.33200 41.08900
H  -15.53900 13.30300 43.61100
H  -18.40000 14.84600 42.46700
H  -17.53100 16.11700 43.28800
H  -17.40500 14.39100 43.84000
H  -16.91600 12.12900 42.12000
H  -15.53100 11.06000 42.31500
H  -16.66700 12.07000 39.94000
H  -15.54400 10.72600 40.16800
H  -14.94600 12.39600 39.90600
H  -10.84600 10.35600 41.44300
H  -11.22000 11.08300 43.07200
H  -9.51400 10.67300 42.48000
H  -7.04200 14.40600 39.72800
H  -3.97000 15.90000 42.42800
H  -5.16900 17.31600 42.49300
H  -3.90300 17.23000 41.34100

