158

Mg 48.60000 44.84600 44.43300
C  45.09300 44.99000 43.74900
C  48.53800 41.47000 43.32900
C  51.90500 44.90800 44.06200
C  48.43300 48.28700 44.82800
N  46.96400 43.46200 43.55300
C  45.64600 43.70300 43.40900
C  44.88700 42.48400 42.83800
C  45.89800 41.33300 43.03400
C  47.22600 42.09300 43.34100
C  45.60200 40.23200 44.05200
C  44.49300 42.67500 41.37000
C  43.38000 41.69700 40.81900
H  43.24500 41.42300 39.33500
N  50.04900 43.31800 43.93000
C  49.75500 42.03200 43.46900
C  50.97500 41.37400 43.30600
C  52.06300 42.31500 43.64200
C  51.37100 43.55200 43.94500
C  51.03300 39.96800 42.83200
C  53.54000 42.08000 43.67600
O  54.03400 40.97100 43.32900
C  54.51100 43.02200 44.32400
N  49.97400 46.38700 44.14500
C  51.34200 46.17700 44.28300
C  52.14300 47.42000 44.62300
C  51.00400 48.46800 44.75400
C  49.73500 47.66600 44.61000
C  52.97400 47.25700 45.91300
C  51.10400 49.62700 43.77500
C  51.13100 50.98200 44.39600
N  47.08800 46.40800 44.40100
C  47.17400 47.77600 44.51100
C  45.85700 48.38000 44.45700
C  44.98100 47.32100 44.25200
C  45.78000 46.12900 44.15100
C  45.51400 49.79200 44.78300
C  43.56700 46.93200 44.04000
O  42.55400 47.62700 43.99800
C  43.59700 45.38800 43.66800
C  42.81700 44.71100 44.71800
O  42.15000 43.71900 44.44700
O  43.13400 45.13300 46.01600
C  42.50700 44.45700 47.17000
H  48.51400 40.41900 43.03600
H  52.99100 45.02600 44.09400
H  48.49500 49.32000 45.17600
H  44.10100 42.11200 43.49400
H  46.09400 40.78900 42.11000
H  44.60500 40.35500 44.47400
H  46.41800 40.11600 44.76500
H  45.36200 39.31800 43.50900
H  45.30100 42.41100 40.68800
H  44.17000 43.69700 41.17400
H  42.46200 42.21200 41.10200
H  43.35000 40.78500 41.41500
H  52.05900 39.59900 42.80900
H  50.60100 39.87000 41.83600
H  50.53400 39.37100 43.59500
H  54.85300 43.85800 43.71500
H  55.43200 42.50400 44.59100
H  54.02100 43.49200 45.17700
H  52.93200 47.54800 43.88100
H  50.95300 48.87900 45.76200
H  52.70300 46.32100 46.40300
H  52.87600 48.10100 46.59500
H  54.03700 47.13100 45.70500
H  50.25400 49.64100 43.09200
H  51.99700 49.50100 43.16300
H  51.25400 51.70800 43.59300
H  52.00800 50.89300 45.03700
H  50.14800 51.15400 44.83600
H  45.99800 50.28100 45.62900
H  44.44700 49.80100 45.00100
H  45.73800 50.31900 43.85500
H  43.15400 45.22700 42.68500
H  42.92800 43.45200 47.14400
H  41.42100 44.50300 47.09800
H  42.72000 44.84100 48.16700
Mg -0.58000 42.74800 24.81100
C  1.94800 42.16900 27.26500
C  -2.88400 42.19400 27.30000
C  -2.89800 42.75100 22.45800
C  1.95800 42.98500 22.45200
N  -0.48900 42.26900 27.00100
C  0.60400 42.13400 27.80400
C  0.24400 41.99000 29.35400
C  -1.33900 41.62200 29.16600
C  -1.63000 42.03300 27.75000
C  -1.62600 40.06800 29.38200
C  0.66400 43.20800 30.25600
C  0.03200 43.38800 31.68200
H  -0.45400 42.11100 32.38300
N  -2.66900 42.54900 24.83400
C  -3.41700 42.32900 25.95300
C  -4.87700 42.26400 25.60200
C  -4.82900 42.31100 24.22400
C  -3.45100 42.54000 23.79000
C  -6.07100 42.02600 26.57500
C  -5.93200 42.17400 23.12600
O  -5.77000 42.14900 21.93100
C  -7.31400 42.12700 23.61600
N  -0.47000 42.82700 22.69200
C  -1.58300 42.79900 21.87900
C  -1.14000 42.98200 20.38600
C  0.41000 43.29200 20.53300
C  0.68000 43.09900 21.98900
C  -1.57500 41.77700 19.58500
C  0.89700 44.66800 19.91700
C  0.74400 45.94700 20.81200
N  1.54400 42.70000 24.85100
C  2.39000 42.91700 23.82600
C  3.79000 42.72500 24.32200
C  3.61100 42.62300 25.71100
C  2.28200 42.46000 25.93400
C  5.02200 42.83300 23.46900
C  4.31600 42.42800 26.94800
O  5.49300 42.35200 27.15200
C  3.21800 42.32000 28.03500
C  3.50400 41.22400 28.92400
O  3.43500 40.02200 28.70500
O  3.98600 41.75500 30.05600
C  4.31200 40.75100 31.08400
H  -3.64700 42.18500 28.08200
H  -3.61100 42.51300 21.66600
H  2.67200 43.30300 21.68800
H  0.83700 41.20200 29.81800
H  -1.97200 42.25000 29.79300
H  -2.40200 39.91800 30.13300
H  -0.70200 39.59300 29.71000
H  -1.78800 39.60500 28.40900
H  0.69400 44.16900 29.74300
H  1.71800 43.05100 30.48300
H  -0.87500 43.94400 31.44700
H  0.66200 43.94100 32.38000
H  -5.78900 41.90500 27.62100
H  -6.64900 41.12500 26.36800
H  -6.77100 42.85700 26.49000
H  -7.36000 42.96500 24.31000
H  -7.45900 41.20000 24.17100
H  -8.04300 42.23300 22.81200
H  -1.71800 43.86200 20.10400
H  0.95800 42.51900 19.99300
H  -0.68400 41.27400 19.21000
H  -2.43400 41.91100 18.92700
H  -1.92500 41.03000 20.29700
H  0.41800 44.93500 18.97600
H  1.94800 44.63300 19.63000
H  1.74700 46.36200 20.91500
H  0.25700 45.68900 21.75200
H  0.20100 46.79200 20.38800
H  4.88500 42.00600 22.77200
H  5.99400 42.63900 23.92200
H  5.09200 43.82900 23.03200
H  3.26100 43.28400 28.54100
H  3.52200 40.02100 31.26000
H  4.49000 41.26300 32.02900
H  5.28200 40.38900 30.74300

