158

Mg 47.40100 16.00900 28.19300
C  45.68100 15.37300 31.20100
C  49.73700 17.75100 30.11200
C  48.99600 16.80000 25.42100
C  45.01600 14.26100 26.39500
N  47.62800 16.46900 30.43700
C  46.82500 16.05800 31.46300
C  47.20600 16.69400 32.78000
C  48.50300 17.55100 32.36500
C  48.70900 17.25600 30.83500
C  48.59500 19.05900 32.72800
C  47.33700 15.66000 34.01000
C  48.52200 15.81200 34.96700
H  48.61300 17.12600 35.74900
N  49.10900 17.25100 27.80300
C  49.94700 17.82900 28.71100
C  50.96000 18.62000 27.96500
C  50.59300 18.47100 26.57500
C  49.49300 17.49600 26.52700
C  51.99200 19.47100 28.60100
C  51.08900 19.17100 25.34800
O  50.66600 18.83800 24.22200
C  52.12700 20.19800 25.47300
N  47.07300 15.45900 26.19300
C  47.89400 15.94200 25.23700
C  47.32300 15.60800 23.78500
C  46.05200 14.64600 24.11400
C  46.07400 14.76400 25.65800
C  46.97400 16.80100 22.87500
C  46.04800 13.25300 23.48700
C  45.36300 13.19900 22.09800
N  45.75000 14.90900 28.64200
C  44.85600 14.29200 27.79200
C  43.74200 13.84700 28.62500
C  44.00600 14.16200 29.95900
C  45.27200 14.81700 29.92900
C  42.52400 13.20900 28.17900
C  43.52300 14.10400 31.27600
O  42.46600 13.65200 31.69500
C  44.55100 14.86600 32.12500
C  43.84100 15.96200 32.83300
O  43.29900 16.89300 32.34100
O  43.89300 15.88000 34.24500
C  43.37900 16.93400 35.06600
H  50.48700 18.34100 30.64300
H  49.34800 16.97000 24.40200
H  44.17500 13.95600 25.76900
H  46.45800 17.47200 32.93100
H  49.33400 17.00200 32.80800
H  47.78900 19.58000 32.21100
H  49.62000 19.28300 32.43000
H  48.43200 19.19500 33.79700
H  47.51000 14.72500 33.47700
H  46.39900 15.79200 34.54900
H  49.45000 15.68900 34.40800
H  48.55700 14.93400 35.61200
H  52.92100 19.43800 28.03000
H  52.03100 19.17100 29.64800
H  51.68000 20.51300 28.66800
H  51.77100 20.97100 26.15500
H  52.09800 20.73600 24.52600
H  53.11200 19.80600 25.72600
H  48.11600 14.97200 23.39300
H  45.09200 15.04900 23.79100
H  47.18200 17.75300 23.36500
H  45.93500 16.82000 22.54600
H  47.59700 16.81500 21.98100
H  45.65400 12.59700 24.26400
H  47.08500 12.92800 23.41100
H  46.18600 13.15700 21.38300
H  44.73500 14.06300 21.88200
H  44.71700 12.32100 22.11700
H  42.49300 12.93500 27.12400
H  41.61500 13.77500 28.38100
H  42.40900 12.32600 28.80800
H  44.93900 14.14500 32.84400
H  43.16300 17.84100 34.50200
H  44.14500 17.10800 35.82100
H  42.50600 16.69100 35.67100
Mg -11.96000 17.76800 40.48300
C  -8.82800 16.03300 40.10800
C  -10.16700 20.63700 39.48700
C  -14.82700 19.34500 39.86200
C  -13.52700 14.75000 40.95200
N  -9.74900 18.19300 39.67900
C  -8.67900 17.38000 39.72100
C  -7.39800 18.07700 39.09300
C  -7.86500 19.58500 39.08300
C  -9.36300 19.48300 39.43400
C  -7.15400 20.40100 40.21600
C  -7.01600 17.45800 37.70600
C  -5.62100 16.88000 37.44100
H  -5.61500 15.45400 36.89600
N  -12.40900 19.77600 39.91300
C  -11.54600 20.78900 39.58500
C  -12.33500 22.00400 39.52300
C  -13.75700 21.59700 39.48400
C  -13.71400 20.17200 39.74400
C  -11.67600 23.35500 39.35800
C  -14.93600 22.58400 39.34300
O  -14.75500 23.74700 38.97400
C  -16.35700 22.18100 39.67400
N  -13.87400 17.07700 40.40700
C  -14.88100 17.96100 40.10300
C  -16.21000 17.20400 39.99500
C  -15.87300 15.82900 40.74400
C  -14.33500 15.88400 40.72500
C  -17.34600 17.94400 40.61100
C  -16.40400 14.57200 39.98000
C  -17.02300 13.36200 40.79500
N  -11.33800 15.78300 40.59600
C  -12.08800 14.67900 40.85700
C  -11.24500 13.51200 40.93600
C  -9.94900 14.01500 40.66200
C  -10.04700 15.41100 40.45900
C  -11.64300 12.03700 41.21300
C  -8.55300 13.67200 40.70200
O  -8.05500 12.67500 41.13800
C  -7.75800 14.96400 40.18500
C  -6.77100 15.34100 41.26900
O  -7.09100 15.98400 42.28800
O  -5.49600 14.83300 40.93900
C  -4.45300 14.79300 41.97500
H  -9.60700 21.55500 39.29300
H  -15.79600 19.73900 39.55000
H  -14.13500 13.87100 41.17700
H  -6.47100 17.90200 39.63900
H  -7.78100 20.17600 38.17000
H  -6.22200 19.96100 40.56800
H  -7.69100 20.50300 41.15900
H  -6.85600 21.38000 39.84100
H  -7.25900 18.19700 36.94200
H  -7.74300 16.67900 37.47400
H  -4.86600 16.99000 38.21900
H  -5.21000 17.55700 36.69200
H  -10.86300 23.55000 40.05800
H  -12.40200 24.12800 39.61000
H  -11.28600 23.47300 38.34700
H  -16.70800 21.49200 38.90700
H  -16.99600 23.06100 39.74700
H  -16.45700 21.65500 40.62400
H  -16.50600 17.09800 38.95200
H  -16.23700 15.91300 41.76800
H  -17.13600 18.96800 40.91800
H  -17.75100 17.37900 41.45000
H  -18.21200 17.93200 39.94900
H  -15.53500 14.15000 39.47400
H  -17.00500 14.98400 39.16900
H  -16.98800 13.55900 41.86700
H  -16.52600 12.42600 40.53700
H  -17.98700 13.20800 40.31200
H  -12.42100 11.82200 40.48000
H  -12.01200 11.85900 42.22300
H  -10.85300 11.33700 40.93900
H  -7.25200 14.65800 39.26900
H  -4.94700 14.62900 42.93200
H  -3.86100 15.69900 41.83900
H  -3.88300 13.91800 41.66200

