158

Mg 24.96600 -7.23600 47.89600
C  27.24300 -5.03400 46.76100
C  22.77900 -6.13000 45.39300
C  22.85700 -9.80300 48.55500
C  27.24500 -8.69700 50.11500
N  25.06900 -5.87800 46.09100
C  26.11700 -4.97600 45.95200
C  25.73300 -3.84500 45.00000
C  24.24200 -4.15800 44.62600
C  24.06300 -5.49400 45.34200
C  23.16100 -3.08000 45.07200
C  26.70100 -3.77100 43.74700
C  27.20100 -2.33400 43.30500
H  27.15500 -1.95500 41.90400
N  23.15500 -7.88400 47.10700
C  22.35800 -7.26600 46.05500
C  21.10500 -7.97500 45.83900
C  21.16300 -9.00800 46.74800
C  22.42800 -8.92700 47.47700
C  19.98500 -7.53800 44.82900
C  20.06700 -10.11500 46.81700
O  19.13400 -10.19600 46.04500
C  20.09600 -11.17800 47.84300
N  24.92700 -8.87200 49.33600
C  23.93500 -9.75700 49.39600
C  24.21300 -10.90900 50.28900
C  25.62000 -10.54300 50.85000
C  26.00100 -9.34200 49.99800
C  23.10900 -11.26700 51.38300
C  26.70900 -11.64500 50.89200
C  26.31600 -13.01800 51.50700
N  26.84900 -6.93900 48.40900
C  27.65800 -7.64100 49.27700
C  28.96600 -7.01800 49.23600
C  28.83600 -5.95700 48.31200
C  27.54000 -5.99200 47.81900
C  30.10000 -7.61300 49.97300
C  29.48400 -4.76900 47.67300
O  30.62900 -4.30800 47.84100
C  28.48400 -4.17400 46.70800
C  28.22000 -2.76900 47.19200
O  27.89000 -2.45300 48.32800
O  28.39800 -1.86700 46.20000
C  28.18300 -0.44700 46.44900
H  22.02500 -5.69300 44.73400
H  22.30000 -10.73500 48.66900
H  27.97000 -9.03000 50.86100
H  25.80800 -2.86200 45.46500
H  24.23200 -4.24300 43.53900
H  23.76100 -2.30300 45.54600
H  22.53500 -3.60500 45.79400
H  22.59100 -2.83700 44.17500
H  26.28000 -4.21300 42.84500
H  27.58100 -4.35900 44.00900
H  28.27600 -2.21000 43.43000
H  26.88300 -1.53400 43.97400
H  20.18400 -8.00800 43.86600
H  19.94300 -6.45000 44.79200
H  19.07900 -7.96600 45.25800
H  20.61100 -11.97600 47.30800
H  19.02500 -11.37700 47.83700
H  20.42500 -11.02800 48.87200
H  24.31700 -11.82400 49.70700
H  25.45300 -10.14000 51.84900
H  23.53100 -11.43000 52.37400
H  22.64600 -12.20400 51.07100
H  22.28200 -10.55700 51.36200
H  27.50100 -11.30000 51.55600
H  27.14400 -11.83100 49.91000
H  26.41900 -13.82400 50.78100
H  25.27900 -13.04900 51.84300
H  26.89000 -13.27800 52.39600
H  30.91800 -6.90800 49.82500
H  30.40900 -8.56300 49.53800
H  29.97300 -7.83400 51.03200
H  28.94600 -4.18100 45.72000
H  27.09900 -0.36100 46.52300
H  28.61600 0.26100 45.74300
H  28.56500 -0.24000 47.44900
Mg 36.86100 49.10000 24.60900
C  36.96100 47.42300 27.64300
C  34.89700 51.57600 26.17100
C  36.31600 50.54900 21.69400
C  38.34000 46.37300 23.11700
N  36.14000 49.54000 26.69900
C  36.30300 48.67000 27.72300
C  35.79800 49.24300 29.03000
C  35.08400 50.54500 28.56800
C  35.39400 50.60800 27.08100
C  33.60100 50.77700 29.02600
C  37.00200 49.41300 30.01500
C  36.76800 49.19200 31.59400
H  35.28300 49.07800 32.03200
N  35.84300 50.85400 24.09000
C  35.11600 51.70700 24.79400
C  34.64100 52.81700 23.98200
C  35.17400 52.60300 22.65600
C  35.84200 51.30000 22.76500
C  33.70600 53.91100 24.53100
C  34.86300 53.37900 21.38300
O  35.22500 53.02000 20.28600
C  34.20800 54.74500 21.50500
N  37.30800 48.52600 22.69300
C  36.95100 49.25600 21.66200
C  37.32500 48.61900 20.32300
C  38.23700 47.40300 20.71900
C  37.94100 47.35000 22.29000
C  36.08000 48.14300 19.47700
C  39.78500 47.71100 20.30400
C  40.84000 48.06500 21.38800
N  37.62500 47.25700 25.22800
C  38.06900 46.19100 24.48000
C  38.29000 44.98600 25.27700
C  37.83800 45.47100 26.57200
C  37.51500 46.81900 26.45200
C  38.91100 43.70000 24.71300
C  37.69400 45.15800 27.90800
O  37.71100 44.04000 28.43600
C  37.19400 46.34200 28.75600
C  36.00600 45.84400 29.52300
O  34.82000 45.78600 29.13200
O  36.48300 45.41200 30.77400
C  35.44200 44.75000 31.68400
H  34.28600 52.30700 26.70300
H  36.11400 50.91100 20.68400
H  38.78900 45.54200 22.57000
H  35.08900 48.51000 29.41500
H  35.58200 51.38900 29.04600
H  33.47900 51.78700 29.41800
H  33.36000 50.07300 29.82200
H  32.85600 50.64100 28.24200
H  37.46400 50.39000 29.86900
H  37.78800 48.73800 29.67600
H  37.28700 49.96000 32.16700
H  37.27100 48.25300 31.82500
H  34.18800 54.78000 24.08300
H  33.76100 53.99800 25.61600
H  32.67500 53.81100 24.19300
H  33.23800 54.66400 21.99600
H  34.24500 55.26800 20.55000
H  34.88600 55.26500 22.18100
H  37.89300 49.27700 19.66500
H  37.79200 46.48500 20.33400
H  35.25300 48.37100 20.15000
H  36.01800 47.09100 19.19900
H  36.03300 48.85000 18.64900
H  39.81200 48.55200 19.61200
H  40.06600 46.84900 19.69900
H  41.72500 47.45000 21.22200
H  40.45300 48.04300 22.40600
H  41.16200 49.10400 21.31400
H  39.53100 43.78500 23.82100
H  38.02600 43.21600 24.30100
H  39.39300 43.10800 25.49100
H  37.95300 46.53900 29.51200
H  34.77000 45.52800 32.04700
H  35.80800 44.28000 32.59700
H  34.96300 44.02300 31.02900

