158

Mg 48.41500 34.33500 27.34500
C  46.92000 33.03600 30.11300
C  49.01100 37.24200 29.14500
C  49.31700 35.78700 24.42000
C  47.53700 31.50700 25.55300
N  48.14500 35.00600 29.51800
C  47.52500 34.28300 30.46800
C  47.64000 35.01700 31.83800
C  47.91200 36.52800 31.29200
C  48.47600 36.24400 29.95200
C  46.65800 37.52300 31.30800
C  48.75100 34.47200 32.67500
C  48.58000 34.52000 34.21100
H  47.51600 35.37400 34.87400
N  49.02300 36.20900 26.82700
C  49.26900 37.25100 27.70900
C  49.98000 38.30700 27.09100
C  49.94800 38.03500 25.67800
C  49.41000 36.63000 25.59300
C  50.41000 39.54100 27.83100
C  50.47600 38.82200 24.49300
O  50.30200 38.43700 23.34400
C  51.06300 40.20800 24.65500
N  48.42300 33.72000 25.28100
C  48.87700 34.48800 24.28800
C  48.76200 33.77300 22.92300
C  48.18400 32.44200 23.31700
C  48.12600 32.51600 24.78300
C  47.96400 34.52200 21.77700
C  48.96900 31.24500 22.76300
C  50.16500 30.58200 23.47600
N  47.41700 32.62500 27.65100
C  47.11700 31.53300 26.89800
C  46.44100 30.56400 27.70300
C  46.21700 31.12300 28.92800
C  46.84500 32.38300 28.85600
C  45.95800 29.19000 27.28400
C  45.58600 30.86400 30.14800
O  44.90000 29.89300 30.60600
C  45.90000 32.18900 30.99600
C  46.20100 31.80300 32.40000
O  47.23300 31.23600 32.85300
O  45.06500 32.21900 33.09200
C  44.80900 31.75500 34.44100
H  49.26100 38.15600 29.68900
H  49.66900 36.26400 23.50300
H  47.43900 30.52100 25.09400
H  46.73000 34.78600 32.39100
H  48.71800 36.99100 31.86100
H  46.45000 37.78700 30.27100
H  47.03300 38.43000 31.78300
H  45.79500 37.14900 31.85900
H  49.67100 34.99700 32.41600
H  48.83300 33.41400 32.42700
H  49.63600 34.66100 34.43900
H  48.39700 33.47200 34.44700
H  50.72000 39.25100 28.83500
H  49.61700 40.27100 27.99800
H  51.28300 40.05900 27.43400
H  50.33200 40.92200 25.03500
H  51.61900 40.60200 23.80500
H  51.80300 40.15600 25.45400
H  49.77100 33.57800 22.56000
H  47.15800 32.40300 22.95200
H  48.65100 34.57500 20.93300
H  47.55700 35.50900 21.99600
H  47.08200 33.94500 21.49900
H  49.27700 31.47100 21.74300
H  48.20600 30.46700 22.73000
H  50.43400 31.14700 24.36800
H  50.98700 30.49800 22.76400
H  49.91500 29.54700 23.70800
H  46.35300 28.91000 26.30700
H  44.87900 29.13200 27.14100
H  46.27500 28.40900 27.97500
H  44.96700 32.74500 30.90600
H  44.70600 32.66700 35.02900
H  45.50800 31.04800 34.88900
H  43.87300 31.24700 34.20800
Mg 35.85200 49.10900 25.60300
C  36.17700 47.58900 28.66700
C  34.24500 51.87400 27.26700
C  35.16200 50.59200 22.58500
C  37.09800 46.39500 24.06700
N  35.22700 49.66200 27.78000
C  35.59000 48.88000 28.86000
C  35.17100 49.59200 30.14900
C  34.53100 50.96300 29.72600
C  34.65000 50.82500 28.14300
C  33.02100 51.08200 30.15700
C  36.45700 49.65500 31.14000
C  36.10200 49.50400 32.63900
H  34.62400 49.53400 33.08900
N  34.85400 51.00300 25.00400
C  34.34200 51.97600 25.84300
C  33.98700 53.15000 25.01700
C  34.25500 52.80300 23.62500
C  34.69900 51.40600 23.70000
C  33.59300 54.53100 25.69300
C  34.17500 53.69700 22.42300
O  34.54800 53.36000 21.29600
C  33.63600 55.12200 22.56200
N  35.99100 48.52700 23.58100
C  35.77600 49.33400 22.55500
C  36.24200 48.70500 21.27300
C  36.92800 47.33300 21.76500
C  36.74800 47.42600 23.20300
C  35.15400 48.47700 20.14000
C  38.39600 47.23000 21.40500
C  39.46800 48.03500 22.09200
N  36.53000 47.32600 26.18300
C  37.04100 46.26100 25.44400
C  37.40400 45.18100 26.27900
C  37.07700 45.65700 27.56300
C  36.51100 46.97400 27.47400
C  37.94900 43.83500 25.86900
C  36.98300 45.26900 28.99200
O  37.27100 44.23200 29.52800
C  36.48000 46.48900 29.71000
C  35.19800 46.12200 30.44200
O  34.13400 45.96100 29.88900
O  35.46900 45.76700 31.73500
C  34.43200 44.96400 32.42300
H  33.64400 52.63100 27.77600
H  34.90400 51.03300 21.62100
H  37.55100 45.53600 23.56900
H  34.41000 48.92100 30.54800
H  35.05500 51.80300 30.18200
H  32.88800 52.03200 30.67400
H  32.61300 50.38100 30.88500
H  32.33000 51.06100 29.31400
H  37.04400 50.56700 31.02800
H  37.15200 48.87300 30.83000
H  36.68100 50.19000 33.25700
H  36.48900 48.49700 32.79500
H  32.52500 54.75100 25.66100
H  34.14400 55.32500 25.18800
H  34.03100 54.54100 26.69100
H  33.55300 55.59800 21.58500
H  34.41200 55.64700 23.11900
H  32.75000 55.06700 23.19500
H  37.03200 49.34300 20.87600
H  36.43600 46.49100 21.28000
H  34.17100 48.55700 20.60500
H  35.34500 47.49900 19.69700
H  35.38100 49.26900 19.42700
H  38.44500 47.56900 20.37100
H  38.57300 46.17200 21.59900
H  39.56900 47.83800 23.15900
H  39.33800 49.09400 21.86500
H  40.44700 47.83400 21.65700
H  38.73300 44.06400 25.14700
H  37.13500 43.21800 25.48700
H  38.48800 43.43300 26.72700
H  37.22000 46.75800 30.46300
H  34.83200 43.96400 32.58900
H  33.48300 44.94400 31.88700
H  34.12800 45.50800 33.31800

