158

Mg 24.42300 -5.08900 46.33600
C  26.26400 -2.41500 44.82400
C  21.81900 -4.24600 44.43800
C  23.10100 -8.11600 47.18100
C  27.46200 -6.06200 47.80900
N  24.15200 -3.54900 44.80900
C  25.02700 -2.62400 44.27500
C  24.33500 -1.70900 43.17100
C  22.83800 -2.21900 43.19800
C  22.88800 -3.44500 44.29700
C  21.91400 -1.09400 43.66200
C  24.91800 -1.77700 41.67900
C  25.44300 -0.44000 41.03900
H  25.26500 -0.37200 39.51200
N  22.66400 -5.98800 45.98400
C  21.67600 -5.42300 45.20100
C  20.43100 -6.30400 45.36800
C  20.77300 -7.40400 46.15900
C  22.18100 -7.22400 46.50500
C  19.03900 -5.99300 44.76500
C  19.83300 -8.49900 46.68200
O  18.62000 -8.50800 46.41100
C  20.31300 -9.61400 47.42500
N  25.16600 -6.81000 47.30800
C  24.44600 -7.93000 47.53400
C  25.31500 -8.99600 48.29000
C  26.63400 -8.32700 48.53000
C  26.38900 -6.97900 47.78500
C  24.54200 -9.39800 49.63400
C  27.85700 -9.07700 48.05700
C  29.03500 -9.07300 49.00400
N  26.48200 -4.38100 46.44100
C  27.57000 -4.84300 47.09500
C  28.64800 -3.95600 47.01800
C  28.17100 -3.03600 46.12700
C  26.85400 -3.28900 45.78400
C  29.96700 -3.96000 47.77100
C  28.50900 -1.84500 45.40700
O  29.52100 -1.16800 45.42200
C  27.32700 -1.37500 44.53000
C  26.96100 0.02600 44.70200
O  26.41700 0.55300 45.66500
O  27.27900 0.81000 43.60700
C  26.84300 2.27900 43.56700
H  20.94000 -4.03600 43.82500
H  22.64100 -9.07700 47.41900
H  28.37600 -6.37800 48.31700
H  24.48400 -0.67600 43.48400
H  22.49200 -2.66100 42.26400
H  21.19900 -0.93800 42.85500
H  22.37100 -0.10800 43.74700
H  21.39400 -1.29900 44.59800
H  24.16200 -2.17600 41.00300
H  25.76400 -2.45600 41.79200
H  26.42600 -0.06600 41.32700
H  24.75600 0.31600 41.41900
H  18.49400 -6.81100 44.29400
H  19.22400 -5.29800 43.94600
H  18.28300 -5.52500 45.39500
H  19.45700 -10.28700 47.44700
H  20.54600 -9.36200 48.46000
H  21.14000 -10.07400 46.88300
H  25.46800 -9.82700 47.60200
H  26.75400 -7.96300 49.55100
H  25.15100 -9.15600 50.50500
H  24.34600 -10.46900 49.58400
H  23.57600 -8.90700 49.75700
H  28.15500 -8.49700 47.18300
H  27.74100 -10.07300 47.63100
H  29.67800 -8.27400 48.63500
H  29.59100 -10.00700 48.92200
H  28.86400 -8.95400 50.07400
H  30.50300 -3.05200 47.49300
H  30.58200 -4.81100 47.48200
H  29.88800 -4.07900 48.85200
H  27.62200 -1.49900 43.48800
H  27.67000 2.89700 43.21700
H  26.47800 2.69500 44.50500
H  26.02100 2.35800 42.85600
Mg 37.01400 49.76400 24.96800
C  36.95000 48.02800 27.88000
C  35.69300 52.55100 26.43400
C  36.50300 51.18200 21.92700
C  38.05800 46.83100 23.28700
N  36.25400 50.16500 26.86500
C  36.52500 49.33200 28.04500
C  36.29700 50.07800 29.36500
C  35.64900 51.50600 28.80600
C  35.79900 51.45000 27.23200
C  34.23800 51.86400 29.37900
C  37.61600 50.19700 30.12200
C  37.52100 49.70200 31.62700
H  36.33600 49.99600 32.55000
N  36.49100 51.69500 24.27300
C  35.96000 52.66700 25.07600
C  35.61400 53.83400 24.29300
C  35.97600 53.53000 22.90300
C  36.31400 52.09200 22.99100
C  34.85300 55.06200 24.82300
C  36.10200 54.37900 21.66600
O  36.41000 53.86800 20.56200
C  35.73600 55.76400 21.67500
N  37.12800 49.02200 22.86200
C  36.94900 49.83400 21.80700
C  37.42500 49.23600 20.47700
C  38.26500 48.06100 20.99100
C  37.86100 47.96000 22.51100
C  36.26800 48.88100 19.48100
C  39.74900 48.38200 20.88800
C  40.76800 47.31700 20.88400
N  37.24600 47.73400 25.38500
C  37.69900 46.68800 24.56500
C  37.88500 45.55400 25.46700
C  37.59000 46.02700 26.79700
C  37.29100 47.38000 26.65700
C  38.50900 44.24300 25.05200
C  37.54900 45.58400 28.18700
O  37.88900 44.54500 28.71000
C  37.14000 46.90300 28.95900
C  35.95400 46.46300 29.65100
O  34.74000 46.37700 29.29000
O  36.30300 46.31700 30.95000
C  35.19400 45.97300 31.87000
H  35.21700 53.37000 26.97800
H  36.43400 51.70200 20.96900
H  38.57300 45.96600 22.86300
H  35.62800 49.44700 29.95100
H  36.31700 52.28200 29.18000
H  34.23400 52.76700 29.99000
H  33.86900 51.08100 30.04100
H  33.49700 52.08900 28.61200
H  38.03700 51.20200 30.15200
H  38.36900 49.62000 29.58500
H  38.45600 50.02600 32.08400
H  37.58100 48.61400 31.59800
H  35.57500 55.85900 25.00200
H  34.39500 54.89500 25.79800
H  34.12000 55.42600 24.10400
H  35.96200 56.35700 20.78900
H  36.30500 56.23800 22.47600
H  34.68200 55.88200 21.92700
H  38.08500 50.00800 20.08100
H  38.02300 47.10700 20.52200
H  35.95400 47.85100 19.65200
H  36.62300 48.98800 18.45600
H  35.43100 49.57100 19.58900
H  39.89500 48.99200 21.77900
H  39.90900 49.12500 20.10700
H  41.65100 47.63100 21.44100
H  41.03600 47.25400 19.82900
H  40.42300 46.31800 21.15000
H  38.98000 43.70600 25.87500
H  39.30000 44.24800 24.30100
H  37.66900 43.64800 24.69500
H  37.88200 47.21100 29.69600
H  34.92600 44.91700 31.91000
H  34.38900 46.67100 31.64200
H  35.41800 46.20300 32.91100

