158

Mg 40.55000 8.83500 29.77700
C  42.25000 10.34700 32.57600
C  38.23700 7.67500 32.10900
C  38.90000 7.55800 27.23300
C  43.05400 9.96400 27.78100
N  40.38100 8.92500 32.14100
C  41.10900 9.61900 33.00800
C  40.53900 9.50800 34.40900
C  39.21900 8.66300 34.26700
C  39.26400 8.40700 32.72500
C  39.29600 7.46800 35.22800
C  40.36200 10.89200 35.15400
C  39.37400 10.82400 36.38600
H  39.60900 11.84800 37.57800
N  38.80600 7.79200 29.76000
C  37.96200 7.41300 30.73700
C  36.88000 6.74800 30.12700
C  36.98700 6.72000 28.68800
C  38.27000 7.32000 28.50000
C  35.82200 6.07300 31.08000
C  36.04000 6.29100 27.55700
O  36.31400 6.38500 26.38100
C  34.73100 5.82400 27.99700
N  41.04800 8.58600 27.92500
C  40.17800 8.02800 26.98700
C  40.82700 7.95000 25.62300
C  42.12100 8.69600 25.77400
C  42.09400 9.16800 27.28600
C  40.89300 6.58800 24.92400
C  42.34400 9.82000 24.60900
C  41.58100 11.04900 24.85300
N  42.28200 9.91300 30.03100
C  43.13200 10.37300 29.13500
C  44.14800 11.24200 29.73300
C  43.79200 11.29100 31.10100
C  42.70300 10.47800 31.22400
C  45.26600 11.83700 29.03100
C  44.21200 11.72400 32.37800
O  45.19200 12.39500 32.69400
C  43.11100 11.15700 33.33900
C  43.76100 10.50400 34.55200
O  44.33300 9.42900 34.54900
O  43.71600 11.40000 35.59700
C  44.33100 10.86900 36.75600
H  37.47400 7.30000 32.79300
H  38.47600 7.06300 26.35600
H  43.87700 10.09900 27.07500
H  41.26300 8.86500 34.91000
H  38.34600 9.22300 34.60500
H  39.99500 7.57500 36.05700
H  39.65900 6.57400 34.71900
H  38.34500 7.31600 35.73700
H  40.11400 11.76500 34.55100
H  41.32400 11.14500 35.59900
H  39.29700 9.81800 36.80000
H  38.47700 11.13000 35.84800
H  35.37900 5.18000 30.63800
H  35.00400 6.77100 31.25700
H  36.30200 5.65400 31.96400
H  34.69900 4.85600 28.49700
H  34.06700 5.87200 27.13400
H  34.35600 6.57300 28.69400
H  40.28000 8.59300 24.93400
H  43.00700 8.06300 25.72300
H  40.11000 6.45500 24.17800
H  40.75500 5.76900 25.63100
H  41.83500 6.33600 24.43800
H  41.92100 9.53500 23.64500
H  43.39800 10.00600 24.40400
H  41.01800 11.55100 24.06600
H  42.24100 11.83100 25.22800
H  40.74100 10.80600 25.50300
H  45.14700 11.80000 27.94800
H  46.11300 11.16700 29.17800
H  45.44800 12.79500 29.51800
H  42.58000 12.03500 33.70600
H  44.61400 9.81700 36.72200
H  43.65300 10.95400 37.60500
H  45.16900 11.48000 37.09100
Mg 0.50800 43.15400 25.84400
C  1.84000 43.04900 29.08000
C  -2.43600 42.01800 27.04200
C  -0.39900 42.65700 22.68300
C  3.81400 43.85900 24.68400
N  -0.19300 42.54000 27.86900
C  0.47300 42.77100 29.07400
C  -0.50900 42.66000 30.28300
C  -1.81600 42.26900 29.57000
C  -1.48000 42.38800 28.01900
C  -2.45900 40.85900 29.86400
C  -0.66000 43.95900 31.11000
C  -0.35900 43.77600 32.60700
H  -0.77300 42.50200 33.32400
N  -1.21600 42.43200 24.95600
C  -2.35400 42.00500 25.65500
C  -3.27100 41.58200 24.64200
C  -2.72800 41.84300 23.36000
C  -1.40500 42.39100 23.61200
C  -4.76000 41.09000 24.96000
C  -3.39900 41.66800 21.98300
O  -2.86400 41.97000 20.89600
C  -4.82400 41.16000 21.83600
N  1.63800 43.24900 23.92800
C  0.93700 43.03100 22.73800
C  1.95000 42.98700 21.54800
C  3.11300 43.84200 22.20400
C  2.91000 43.58600 23.71300
C  2.19300 41.53400 20.93700
C  2.91500 45.34100 21.86900
C  3.47300 45.96500 20.55100
N  2.41100 43.60300 26.63500
C  3.65700 43.87300 26.09900
C  4.57100 43.99400 27.12800
C  3.95800 43.71100 28.33000
C  2.59000 43.51300 27.97200
C  6.03300 44.39000 26.90200
C  4.16900 43.45000 29.66200
O  5.17400 43.39200 30.34100
C  2.73000 43.14800 30.28000
C  2.86900 41.89900 31.13500
O  2.95600 40.72600 30.76600
O  3.04000 42.20600 32.45100
C  3.06300 41.09400 33.35000
H  -3.41600 41.83900 27.49000
H  -0.77100 42.47200 21.67400
H  4.80600 44.05000 24.26900
H  -0.10000 41.86700 30.90900
H  -2.65600 42.87900 29.90500
H  -1.82000 40.18800 30.43700
H  -2.70300 40.19400 29.03600
H  -3.35200 41.00800 30.47100
H  -1.61700 44.45700 30.96100
H  0.10600 44.66100 30.77900
H  -1.04400 44.44900 33.12200
H  0.62900 44.15500 32.87000
H  -5.43900 41.89100 24.67100
H  -4.70100 41.01700 26.04600
H  -5.01200 40.13800 24.49200
H  -5.50000 41.67800 22.51700
H  -4.77700 40.07300 21.78500
H  -5.05900 41.43000 20.80700
H  1.62000 43.64400 20.74300
H  4.08300 43.57000 21.78600
H  1.56400 41.34700 20.06600
H  1.82600 40.78400 21.63700
H  3.27000 41.46600 20.78300
H  3.25500 45.96400 22.69600
H  1.82700 45.38500 21.81500
H  3.94300 45.16600 19.97900
H  4.29400 46.64900 20.76900
H  2.74200 46.60800 20.06000
H  6.23300 45.30900 26.35200
H  6.55400 43.64600 26.29900
H  6.53000 44.42700 27.87200
H  2.34800 43.98200 30.86800
H  4.03200 40.59400 33.33600
H  2.28600 40.37200 33.09800
H  2.83800 41.52000 34.32800

