158

Mg 47.80500 25.58500 29.76500
C  48.38500 28.03500 32.32400
C  46.79200 23.42700 32.33100
C  47.44800 23.20000 27.44200
C  49.27100 27.72200 27.45200
N  47.59100 25.67800 31.98200
C  47.84200 26.81400 32.79600
C  47.47600 26.54200 34.32700
C  47.36000 24.93500 34.30200
C  47.25400 24.64200 32.75700
C  48.45100 24.13400 35.00400
C  46.13400 27.17500 34.78900
C  46.08100 28.15000 35.90300
H  46.74700 27.78100 37.29700
N  47.06000 23.63000 29.86000
C  46.61100 22.99000 30.95900
C  46.03500 21.72900 30.57400
C  46.19600 21.61700 29.12700
C  46.92000 22.86300 28.74600
C  45.35100 20.78300 31.51100
C  45.71900 20.52400 28.22600
O  45.78800 20.67800 27.03600
C  44.99000 19.32700 28.78800
N  48.41200 25.38300 27.78900
C  48.15000 24.27600 27.00100
C  48.74300 24.44900 25.60100
C  49.21900 26.00200 25.61700
C  48.95700 26.44100 27.00300
C  49.90600 23.45400 25.29700
C  48.53400 26.92300 24.56500
C  48.76000 26.49000 23.10300
N  48.61400 27.51000 29.80400
C  49.19300 28.21300 28.79500
C  49.70900 29.43300 29.30000
C  49.42000 29.47200 30.64800
C  48.81000 28.18800 30.95900
C  50.50900 30.46400 28.54000
C  49.49600 30.32700 31.93800
O  49.89300 31.48900 32.09200
C  48.92600 29.30800 33.13900
C  50.00600 28.88800 34.12000
O  51.16500 28.56200 33.77100
O  49.58600 28.83400 35.45100
C  50.64800 28.57300 36.52000
H  46.40200 22.68400 33.03000
H  47.32200 22.53200 26.58700
H  49.61700 28.50300 26.77200
H  48.36400 26.67800 34.94500
H  46.44600 24.57200 34.77200
H  48.99700 24.56100 35.84600
H  49.21700 23.93300 34.25500
H  47.98200 23.25500 35.44700
H  45.40200 26.37700 34.91800
H  45.84200 27.72300 33.89400
H  45.00700 28.22400 36.07500
H  46.32400 29.15300 35.55100
H  44.36300 20.52500 31.12700
H  45.35900 21.18600 32.52300
H  45.92300 19.86800 31.66200
H  45.40900 18.89600 29.69800
H  44.73100 18.58000 28.03700
H  44.06200 19.83800 29.04200
H  47.95900 24.29200 24.86100
H  50.27700 26.13500 25.38900
H  50.04600 22.83700 26.18500
H  50.86900 23.94300 25.14900
H  49.69600 22.70500 24.53300
H  48.92200 27.94000 24.63000
H  47.46500 26.97500 24.77200
H  47.77200 26.22800 22.72400
H  49.41500 25.62000 23.08000
H  49.21300 27.37200 22.64900
H  50.05000 30.68800 27.57700
H  51.45200 29.95800 28.33500
H  50.54300 31.37200 29.14200
H  48.17100 29.67300 33.83500
H  51.27400 27.76500 36.14000
H  50.04700 28.34100 37.39900
H  51.20600 29.45400 36.83700
Mg 48.97900 44.57900 43.22600
C  45.68200 44.40200 42.19800
C  49.13600 41.09100 42.90200
C  52.37600 44.73100 43.19000
C  48.82500 48.00000 43.20800
N  47.59200 42.94000 42.67200
C  46.24800 43.12400 42.32800
C  45.55900 41.76900 42.09900
C  46.57600 40.75900 42.69200
C  47.84400 41.61000 42.78400
C  46.17600 40.18200 44.01100
C  45.17900 41.58000 40.55700
C  46.05400 42.37000 39.49100
H  46.14900 41.74000 38.04600
N  50.50800 43.08800 43.07600
C  50.37000 41.71900 42.94500
C  51.63200 41.11600 42.88200
C  52.60700 42.15500 42.96800
C  51.86300 43.36400 43.14400
C  51.82300 39.66700 42.60900
C  54.18200 41.92300 43.02000
O  54.65000 40.84100 42.75800
C  55.10700 43.00200 43.31400
N  50.39900 46.14300 43.20500
C  51.71100 45.96200 43.30300
C  52.49500 47.30400 43.44200
C  51.36700 48.34600 43.58300
C  50.11000 47.44900 43.29100
C  53.63800 47.42200 44.49000
C  51.56600 49.60500 42.69500
C  51.23300 49.47700 41.18300
N  47.52600 45.97600 42.95600
C  47.60200 47.36300 42.96500
C  46.35000 47.87900 42.58600
C  45.45600 46.76200 42.29300
C  46.29300 45.63200 42.47000
C  46.03200 49.32800 42.31500
C  44.18200 46.26500 41.89600
O  43.15800 46.86400 41.70600
C  44.20600 44.66900 41.96400
C  43.26400 44.18600 42.96300
O  42.37100 43.39100 42.73600
O  43.35500 44.92800 44.18600
C  42.14100 44.74700 45.04100
H  49.17700 40.00600 42.78600
H  53.46500 44.77800 43.26100
H  48.79500 49.09000 43.26600
H  44.58000 41.73800 42.57600
H  46.75800 40.01200 41.91900
H  45.95700 39.12300 43.87300
H  45.36000 40.64900 44.56300
H  46.96600 40.18000 44.76100
H  44.16600 41.95800 40.42300
H  45.15800 40.51300 40.33200
H  47.09900 42.52200 39.76100
H  45.59100 43.33100 39.26800
H  52.05500 39.53000 41.55300
H  50.92100 39.17600 42.97400
H  52.64500 39.26900 43.20500
H  55.20100 43.79600 42.57300
H  56.12300 42.63100 43.44900
H  54.88100 43.37600 44.31300
H  53.03700 47.50500 42.51800
H  51.09600 48.70500 44.57600
H  53.32300 48.07400 45.30500
H  54.49300 47.95800 44.07900
H  53.78100 46.41900 44.89400
H  52.63100 49.84000 42.69400
H  51.05000 50.45300 43.14500
H  50.95000 48.43300 41.04500
H  52.03900 49.68500 40.48000
H  50.47900 50.23700 40.97800
H  45.06600 49.32900 41.81000
H  46.84900 49.88500 41.85600
H  45.76600 49.94500 43.17300
H  43.90100 44.40300 40.95200
H  42.09500 45.51500 45.81300
H  42.07400 43.76300 45.50500
H  41.21000 44.87700 44.48900

