158

Mg 1.48100 -1.23000 44.43500
C  4.87600 -0.83800 43.52500
C  0.70700 1.52500 42.55400
C  -1.72700 -2.04100 44.67900
C  2.42200 -4.25500 45.94400
N  2.62700 0.04400 43.01200
C  4.00400 0.05200 42.93000
C  4.49800 1.13900 41.94800
C  3.17200 2.09900 41.81800
C  2.09100 1.16500 42.50000
C  3.28200 3.47700 42.48100
C  5.05100 0.54900 40.60700
C  6.45700 1.27100 40.19700
H  6.49700 2.15700 39.01600
N  -0.25600 -0.38300 43.76800
C  -0.38400 0.74700 43.05100
C  -1.80400 1.05800 42.76600
C  -2.57200 -0.06100 43.26800
C  -1.51000 -0.86500 43.95400
C  -2.26300 2.31500 42.03200
C  -4.10300 -0.11400 43.24100
O  -4.80800 0.80800 42.84400
C  -4.81700 -1.34300 43.62900
N  0.44400 -2.90700 45.24900
C  -0.91200 -2.94800 45.27100
C  -1.37200 -4.24500 45.91800
C  -0.07400 -4.88200 46.47100
C  1.01500 -4.00600 45.87200
C  -2.62700 -4.18400 46.95000
C  0.14500 -6.45200 46.18800
C  0.57800 -7.16100 47.45400
N  3.23800 -2.33400 44.80100
C  3.47600 -3.51700 45.45500
C  4.86100 -3.85800 45.46700
C  5.47600 -2.73100 44.80700
C  4.39100 -1.90800 44.34700
C  5.46700 -5.05800 46.15000
C  6.71500 -2.14000 44.36700
O  7.88100 -2.46700 44.51400
C  6.34500 -0.81900 43.57300
C  6.84500 0.38300 44.35000
O  6.78500 0.58100 45.54100
O  7.32900 1.34600 43.52200
C  7.87300 2.52800 44.22000
H  0.43400 2.43700 42.01900
H  -2.79900 -2.18700 44.82300
H  2.69800 -5.06800 46.61900
H  5.35300 1.68100 42.35400
H  3.01000 2.06400 40.74000
H  2.97500 4.24800 41.77400
H  4.27400 3.71300 42.86600
H  2.59800 3.51600 43.32900
H  4.26400 0.59000 39.85400
H  5.31900 -0.48800 40.80600
H  7.31400 0.61700 40.03600
H  6.84700 1.85700 41.02900
H  -1.60500 2.35600 41.16300
H  -1.91800 3.08600 42.72100
H  -3.32900 2.34600 41.80700
H  -4.96100 -1.41100 44.70800
H  -4.17900 -2.17000 43.31800
H  -5.76200 -1.53600 43.12200
H  -1.65100 -4.85200 45.05600
H  -0.08600 -4.66000 47.53800
H  -3.04600 -3.18700 47.08800
H  -2.35400 -4.59700 47.92100
H  -3.47000 -4.74400 46.54600
H  0.77500 -6.70800 45.33600
H  -0.82800 -6.91700 46.02900
H  1.44700 -7.72600 47.11800
H  -0.25600 -7.81700 47.70100
H  1.02700 -6.62200 48.28900
H  5.59500 -5.86700 45.43100
H  4.77600 -5.58700 46.80600
H  6.43600 -4.81000 46.58300
H  6.73400 -0.63100 42.57300
H  7.12100 3.17300 44.67400
H  8.50700 3.04800 43.50100
H  8.61700 2.17500 44.93500
Mg -11.26500 38.00700 42.69500
C  -9.06800 35.40100 41.46800
C  -9.42100 40.19100 40.98600
C  -13.83000 40.00400 42.96700
C  -13.26300 35.32200 44.16400
N  -9.54800 37.74000 41.26100
C  -8.81100 36.61900 40.96700
C  -7.61900 36.97300 40.09900
C  -7.60700 38.57500 40.24600
C  -8.97400 38.89500 40.85600
C  -6.40700 39.13000 41.08400
C  -7.78900 36.46100 38.65400
C  -6.62600 35.60900 38.24200
H  -5.54000 36.26800 37.38200
N  -11.65300 39.88100 42.06400
C  -10.71100 40.66100 41.45700
C  -11.17000 41.97100 41.38800
C  -12.43100 41.99400 42.06600
C  -12.73900 40.59300 42.40900
C  -10.36800 42.96500 40.69200
C  -13.23300 43.21400 42.30200
O  -12.87000 44.34700 41.87500
C  -14.53600 43.14100 43.04000
N  -13.25500 37.65000 43.43600
C  -14.12700 38.70100 43.38100
C  -15.49000 38.28700 43.98200
C  -15.35800 36.72800 44.15900
C  -13.85300 36.52400 43.91000
C  -16.00600 39.11800 45.18500
C  -16.20700 35.81200 43.18700
C  -17.21300 34.86800 43.82000
N  -11.11600 35.85100 42.98100
C  -11.95500 34.94800 43.68800
C  -11.22200 33.64500 43.67400
C  -10.10800 33.78900 42.82800
C  -10.10200 35.13000 42.40200
C  -11.71700 32.49000 44.33900
C  -9.03700 33.05000 42.21300
O  -8.79400 31.82500 42.29500
C  -8.28200 34.08400 41.27300
C  -6.80400 34.02900 41.64000
O  -6.23200 34.83900 42.38700
O  -6.21000 32.98000 41.01000
C  -4.76100 32.75100 41.36100
H  -8.80100 41.03100 40.66600
H  -14.68900 40.67600 43.01800
H  -13.87300 34.52300 44.59100
H  -6.71000 36.55100 40.52700
H  -7.45000 39.08200 39.29400
H  -5.93300 39.78400 40.35200
H  -5.63700 38.42500 41.39800
H  -6.68400 39.73100 41.95000
H  -7.70200 37.33400 38.00800
H  -8.78600 36.04200 38.51600
H  -7.03800 34.70900 37.78400
H  -6.20900 35.18300 39.15500
H  -9.42700 43.19700 41.19000
H  -10.86600 43.91600 40.50200
H  -10.13200 42.69200 39.66300
H  -15.26200 42.66100 42.38300
H  -14.73100 44.18800 43.27300
H  -14.37800 42.67900 44.01500
H  -16.30000 38.38600 43.26000
H  -15.63200 36.38000 45.15500
H  -16.84600 39.63800 44.72500
H  -15.27100 39.86700 45.47900
H  -16.38600 38.49300 45.99200
H  -15.50300 35.22500 42.59600
H  -16.69600 36.37000 42.38800
H  -17.56500 35.37600 44.71900
H  -16.77100 33.92800 44.14800
H  -18.13200 34.79600 43.23900
H  -12.29900 32.49700 45.26100
H  -10.86700 31.96500 44.77500
H  -12.07700 31.66900 43.72100
H  -8.42800 33.78200 40.23600
H  -4.52600 31.73700 41.03600
H  -4.64400 32.89200 42.43500
H  -4.06200 33.47200 40.93700

