158

Mg 2.25300 -1.64900 44.06500
C  5.71900 -1.16400 43.63700
C  1.70000 1.22100 42.35500
C  -1.05400 -2.46600 43.85700
C  2.89800 -4.82900 45.33400
N  3.57200 -0.19500 43.05000
C  4.95300 -0.14000 43.09500
C  5.40900 1.16800 42.44200
C  4.09900 1.95100 42.09500
C  3.02300 0.96500 42.53600
C  4.05500 3.40300 42.59600
C  6.31800 0.76600 41.15800
C  7.62000 1.57500 40.91400
H  7.65900 2.38900 39.60500
N  0.55100 -0.75800 43.20100
C  0.56500 0.44900 42.59000
C  -0.80100 0.96600 42.38500
C  -1.65300 -0.09600 42.83900
C  -0.72200 -1.15600 43.36000
C  -1.12400 2.33800 41.80100
C  -3.23700 -0.13700 42.72500
O  -3.94600 0.87200 42.51100
C  -4.05100 -1.44100 42.86300
N  1.12500 -3.39700 44.45700
C  -0.21600 -3.50100 44.26800
C  -0.80000 -4.90300 44.63400
C  0.48700 -5.60700 45.06600
C  1.59700 -4.54600 44.94800
C  -1.98100 -4.91200 45.68500
C  0.87300 -6.94900 44.30000
C  0.81800 -8.28900 45.08700
N  3.95400 -2.77800 44.59700
C  4.07400 -4.02100 45.16500
C  5.48500 -4.28600 45.36400
C  6.17700 -3.15400 44.85800
C  5.21000 -2.29900 44.31900
C  6.09500 -5.53500 46.00300
C  7.51800 -2.57400 44.67900
O  8.61700 -2.94700 44.97900
C  7.18900 -1.24500 43.77800
C  7.77600 0.01200 44.45400
O  7.56600 0.34300 45.57800
O  8.68800 0.60400 43.64600
C  9.34400 1.88800 44.01600
H  1.39200 2.18200 41.93600
H  -2.11200 -2.73000 43.79300
H  3.04700 -5.85700 45.66800
H  6.06500 1.58900 43.20400
H  4.08400 2.08700 41.01400
H  3.35800 3.59300 43.41200
H  3.63800 3.98800 41.77700
H  5.02800 3.79300 42.89700
H  5.83000 0.87500 40.18900
H  6.39600 -0.32200 41.15900
H  8.34000 0.75700 40.89200
H  7.87400 2.16400 41.79600
H  -0.57400 2.31400 40.86000
H  -0.64700 3.10200 42.41400
H  -2.16000 2.67100 41.73300
H  -3.99700 -1.78200 43.89700
H  -3.61300 -2.24100 42.26600
H  -5.08000 -1.18500 42.61100
H  -1.24200 -5.36800 43.75200
H  0.38800 -5.91100 46.10800
H  -2.08500 -3.87800 46.01500
H  -1.90500 -5.56100 46.55800
H  -2.91400 -5.10100 45.15500
H  1.89500 -6.97900 43.92100
H  0.27800 -6.91100 43.38800
H  0.11000 -8.94900 44.58400
H  0.34200 -8.13800 46.05600
H  1.74500 -8.85300 45.18900
H  5.95200 -6.32200 45.26200
H  5.48000 -5.85700 46.84300
H  7.12000 -5.42700 46.35800
H  7.64500 -1.46200 42.81300
H  10.24900 1.61400 44.55800
H  8.71200 2.52200 44.63800
H  9.71400 2.45000 43.15900
Mg 47.33300 15.91300 28.27700
C  45.18400 15.78400 30.96100
C  49.63300 17.41800 30.38800
C  49.06800 16.58400 25.56200
C  44.79600 14.57500 26.25100
N  47.32000 16.71900 30.39900
C  46.33000 16.41600 31.31600
C  46.70000 16.99900 32.67500
C  48.05900 17.72700 32.37100
C  48.40200 17.25900 30.97000
C  47.90600 19.31300 32.38800
C  46.91100 15.89100 33.71000
C  46.66400 16.32000 35.23900
H  46.28100 17.71300 35.56200
N  49.11300 16.74300 28.08200
C  49.95500 17.19100 29.08000
C  51.22300 17.55700 28.40200
C  51.06500 17.40400 26.98100
C  49.75000 16.85700 26.82000
C  52.39900 18.04600 29.23100
C  52.04500 17.76700 25.81700
O  51.81000 17.56500 24.66400
C  53.39100 18.41500 26.07600
N  46.86600 15.78300 26.09600
C  47.80400 16.07100 25.22900
C  47.42200 15.70400 23.79500
C  46.01600 15.01900 24.03500
C  45.88400 15.10400 25.54600
C  47.38400 16.88900 22.83300
C  45.93700 13.54000 23.53100
C  44.96900 13.46200 22.38600
N  45.45100 15.24300 28.53600
C  44.51200 14.71900 27.62400
C  43.29300 14.27700 28.27400
C  43.50700 14.66000 29.63700
C  44.82100 15.26700 29.70900
C  41.99000 13.83100 27.58500
C  42.95300 14.73000 30.96400
O  41.86200 14.35900 31.42600
C  43.99300 15.42000 31.87400
C  43.23300 16.55800 32.44200
O  43.06100 17.62900 31.86400
O  42.67200 16.33800 33.65600
C  41.84600 17.43900 34.23200
H  50.43100 17.82900 31.01000
H  49.68700 16.69300 24.67000
H  44.06900 13.99700 25.67700
H  45.81600 17.59800 32.89400
H  48.76100 17.44500 33.15700
H  48.79300 19.89500 32.63900
H  47.18000 19.71400 33.09500
H  47.63700 19.61100 31.37500
H  47.96900 15.64700 33.61600
H  46.31000 14.98400 33.64100
H  47.65500 16.09100 35.62900
H  46.00700 15.58400 35.70100
H  52.82100 18.89600 28.69500
H  53.04500 17.16900 29.18800
H  52.22900 18.39900 30.24900
H  53.29100 19.49700 25.98600
H  54.13700 18.19200 25.31400
H  53.89200 18.17600 27.01400
H  48.08600 14.89900 23.47900
H  45.17600 15.61700 23.68300
H  47.39500 17.83100 23.38200
H  46.42900 16.83900 22.31100
H  48.24800 16.91400 22.16900
H  45.70800 12.81700 24.31400
H  46.90000 13.20600 23.14500
H  45.58600 12.94000 21.65500
H  44.59000 14.42300 22.03900
H  44.05700 12.90700 22.60700
H  41.96500 12.78800 27.26900
H  41.94000 14.44600 26.68600
H  41.12600 13.97400 28.23400
H  44.20100 14.67800 32.64400
H  42.04000 18.47900 33.96900
H  41.91400 17.27300 35.30700
H  40.79000 17.40300 33.96300

