158

Mg 36.93900 49.14600 24.69600
C  36.70200 47.45400 27.74400
C  35.21000 51.84900 25.97500
C  36.61500 50.36300 21.50600
C  38.03600 46.13000 23.24700
N  35.91000 49.54200 26.61800
C  36.14500 48.78200 27.75200
C  35.56400 49.53000 28.97600
C  35.27000 50.98800 28.42300
C  35.41400 50.80000 26.91100
C  33.94500 51.61600 28.82600
C  36.58100 49.60700 30.18500
C  36.08900 49.08500 31.54500
H  36.02800 50.20100 32.61400
N  36.11400 50.91400 23.86800
C  35.58500 51.91500 24.60300
C  35.23900 53.02500 23.65100
C  35.69000 52.66500 22.34300
C  36.17300 51.29200 22.51100
C  34.60100 54.30800 24.15200
C  35.68400 53.45200 21.07400
O  36.29100 53.03800 20.15500
C  34.88400 54.79400 20.89500
N  37.30600 48.36000 22.68200
C  37.05600 49.05300 21.52500
C  37.19400 48.13400 20.37300
C  38.13500 47.00500 20.99200
C  37.74700 47.14900 22.40700
C  35.91400 47.60400 19.66100
C  39.67300 47.25900 20.56500
C  40.40400 46.06500 20.16600
N  37.35700 47.21900 25.31000
C  37.81600 46.13000 24.59300
C  37.95700 44.97300 25.47600
C  37.56600 45.44000 26.74400
C  37.17100 46.79000 26.58300
C  38.39800 43.58900 25.10700
C  37.34100 45.11800 28.14800
O  37.57100 44.08300 28.78000
C  36.84600 46.43200 28.79700
C  35.51200 46.12400 29.40600
O  34.42500 45.91500 28.89800
O  35.72300 46.01600 30.72500
C  34.68900 45.39200 31.48000
H  34.87600 52.76700 26.46400
H  36.49200 50.66600 20.46400
H  38.53100 45.21800 22.90800
H  34.63800 49.07700 29.33100
H  36.10800 51.66600 28.58200
H  34.14700 52.68400 28.90200
H  33.51600 51.31200 29.78100
H  33.24100 51.36400 28.03300
H  37.03300 50.59200 30.29800
H  37.45500 49.00300 29.94000
H  36.69200 48.25700 31.91800
H  35.02700 48.86200 31.43900
H  33.86000 54.67900 23.44500
H  35.33200 55.07400 24.41100
H  34.06600 53.96400 25.03700
H  35.46700 55.49200 21.49500
H  33.85000 54.61200 21.18800
H  35.04200 55.19700 19.89500
H  37.68400 48.70700 19.58600
H  37.91900 45.95900 20.77600
H  35.81100 46.52300 19.75600
H  36.00400 47.88000 18.61000
H  35.04600 48.04700 20.14900
H  40.23900 47.66600 21.40300
H  39.57500 47.92600 19.70800
H  39.90700 45.19700 20.59900
H  41.46400 46.06700 20.42200
H  40.50300 45.94600 19.08700
H  39.29100 43.56500 24.48200
H  37.66000 43.02000 24.54200
H  38.59600 43.06400 26.04200
H  37.58200 46.72500 29.54500
H  34.55700 44.42600 30.99300
H  33.88000 46.12300 31.48300
H  35.03900 45.15400 32.48500
Mg 17.02700 52.82200 26.39600
C  19.27600 51.53500 28.76800
C  14.75800 53.19300 28.93200
C  14.77500 53.81100 24.11700
C  19.18600 51.87100 23.83400
N  17.05500 52.46300 28.48600
C  18.08700 51.97300 29.31300
C  17.79300 52.28000 30.75900
C  16.23800 52.35000 30.77600
C  16.01400 52.69700 29.29500
C  15.52500 51.05300 31.21100
C  18.58000 53.55700 31.24100
C  19.03800 53.54700 32.70800
H  18.20300 52.83200 33.75900
N  14.98900 53.44600 26.49000
C  14.24700 53.52800 27.64500
C  13.06500 54.24600 27.33200
C  12.97300 54.28900 25.88100
C  14.27700 53.85900 25.41900
C  12.15900 54.75800 28.38000
C  11.79600 54.77800 24.94300
O  11.80400 54.62700 23.73600
C  10.69900 55.56500 25.46500
N  17.09100 52.93400 24.29600
C  15.96300 53.30300 23.58100
C  16.18700 53.20100 22.05200
C  17.69700 52.68300 21.96800
C  18.03400 52.53700 23.41300
C  15.22000 52.35900 21.27300
C  18.56200 53.73700 21.16900
C  19.32700 54.82200 22.02400
N  18.92300 51.93100 26.24200
C  19.66400 51.56400 25.12600
C  20.80200 50.73000 25.66700
C  20.74700 50.88700 27.03600
C  19.55500 51.48800 27.33300
C  21.83100 50.14800 24.84000
C  21.41000 50.45300 28.27500
O  22.40500 49.82800 28.46300
C  20.48400 51.06700 29.51400
C  20.20400 49.96600 30.47500
O  19.32900 49.09400 30.30900
O  20.90000 50.10700 31.62400
C  20.58900 49.17800 32.68400
H  14.03000 53.40000 29.71900
H  14.04900 54.07200 23.34400
H  19.85900 51.48100 23.06800
H  18.07000 51.34400 31.24300
H  15.94000 53.08000 31.52800
H  15.42400 51.13700 32.29300
H  16.05200 50.11900 31.01600
H  14.55800 51.04900 30.70800
H  17.96800 54.41500 30.96000
H  19.49100 53.58700 30.64300
H  19.14100 54.55900 33.09900
H  20.06300 53.21000 32.86000
H  12.59600 54.64600 29.37200
H  11.11800 54.43600 28.39000
H  12.01300 55.81700 28.16500
H  10.23100 54.72400 25.97700
H  10.03500 55.87000 24.65600
H  11.00900 56.32500 26.18200
H  16.09800 54.20500 21.63900
H  17.72800 51.69500 21.50800
H  15.73400 51.63000 20.64700
H  14.61800 52.93900 20.57400
H  14.57800 51.76400 21.92300
H  17.99800 54.33300 20.45200
H  19.38700 53.28600 20.61600
H  19.81500 54.39900 22.90200
H  18.81900 55.69000 22.44400
H  20.11000 55.18100 21.35700
H  22.30700 51.03800 24.42700
H  21.48400 49.34900 24.18600
H  22.64300 49.69200 25.40700
H  21.02300 51.86600 30.02200
H  19.61600 49.34800 33.14400
H  21.36200 49.24500 33.45000
H  20.61000 48.17400 32.26000

