158

Mg 26.03800 1.59900 28.63000
C  27.81900 1.22200 31.59300
C  23.20400 1.97500 30.70300
C  24.18100 1.90700 25.85200
C  28.96400 1.14400 26.82500
N  25.68200 1.64600 30.90000
C  26.51500 1.43700 31.90300
C  25.86700 1.48400 33.29800
C  24.40400 1.85500 32.97400
C  24.38400 1.79800 31.44800
C  23.35900 0.87700 33.67000
C  26.51200 2.53900 34.23500
C  25.73200 2.93800 35.52800
H  26.42000 2.83400 36.87900
N  23.92200 1.79400 28.30800
C  22.97300 1.93400 29.27700
C  21.67000 1.99300 28.58400
C  21.93300 2.13200 27.19300
C  23.39900 1.94000 27.04100
C  20.41500 1.94500 29.32500
C  20.92600 2.30700 26.07200
O  21.31700 2.28600 24.91100
C  19.51000 2.51800 26.41100
N  26.42300 1.32000 26.61900
C  25.54900 1.63900 25.66700
C  26.17200 1.60100 24.27200
C  27.63800 1.11000 24.58400
C  27.72900 1.35800 26.14600
C  25.53400 0.70300 23.17100
C  28.65400 1.80700 23.64500
C  29.93000 1.07800 23.40200
N  27.98900 1.25400 29.05100
C  29.11200 1.08700 28.21100
C  30.28500 0.80500 28.98400
C  29.89600 0.99200 30.23200
C  28.45900 1.14800 30.29700
C  31.65300 0.53100 28.50600
C  30.36000 1.01300 31.67500
O  31.48600 0.92700 32.14300
C  29.06300 1.13200 32.51300
C  29.05000 -0.07200 33.39500
O  28.62600 -1.17500 33.13200
O  29.44400 0.29600 34.68100
C  29.16100 -0.57200 35.81700
H  22.32600 2.02400 31.35100
H  23.67300 2.27600 24.95800
H  29.81500 0.95300 26.16900
H  26.03000 0.51300 33.76600
H  24.07800 2.85000 33.27600
H  22.65200 1.34300 34.35700
H  23.88100 0.17100 34.31700
H  22.86200 0.33900 32.86300
H  26.67300 3.44000 33.64300
H  27.45300 2.14900 34.62200
H  24.93800 2.19300 35.58100
H  25.27800 3.91400 35.35800
H  19.78200 1.19300 28.85500
H  19.91900 2.89700 29.13400
H  20.30800 1.68800 30.37800
H  18.91800 2.57600 25.49800
H  19.33500 3.45100 26.94600
H  19.03200 1.71100 26.96700
H  26.10200 2.60300 23.84900
H  27.55500 0.02300 24.55800
H  25.79400 -0.34000 23.35000
H  25.85400 1.13900 22.22500
H  24.47200 0.79000 23.40400
H  28.94400 2.79200 24.01300
H  28.25700 1.95200 22.64100
H  29.89800 0.11800 23.91700
H  30.72600 1.74600 23.73400
H  30.02200 0.98300 22.32000
H  31.77600 1.20000 27.65400
H  31.69600 -0.51500 28.20200
H  32.42800 0.72200 29.24800
H  29.07000 2.05800 33.08800
H  30.00400 -0.45300 36.49700
H  29.18400 -1.62000 35.51600
H  28.14400 -0.40800 36.17300
Mg 0.99600 42.93600 26.22400
C  2.65700 42.63500 29.41100
C  -2.07200 42.38600 27.80700
C  -0.29700 42.45400 23.22100
C  4.10900 43.39300 24.81800
N  0.37400 42.57000 28.32100
C  1.24100 42.56300 29.53100
C  0.36800 42.61200 30.78400
C  -1.02300 42.05100 30.13600
C  -0.92600 42.36500 28.63700
C  -1.44600 40.53200 30.20900
C  0.27300 44.07500 31.40200
C  0.73200 44.42300 32.79100
H  0.60000 43.31900 33.89100
N  -0.96500 42.70400 25.56700
C  -2.03500 42.53800 26.42400
C  -3.18400 42.33000 25.57200
C  -2.74100 42.26600 24.18300
C  -1.25100 42.40700 24.27200
C  -4.62200 42.30900 26.17200
C  -3.46500 41.96900 22.89100
O  -2.95200 41.93800 21.80500
C  -5.00000 41.76400 22.87600
N  1.77200 42.81600 24.31700
C  1.01200 42.82500 23.19400
C  1.91800 42.97000 21.88200
C  3.24900 43.56900 22.51500
C  3.00300 43.28900 23.99400
C  1.94000 41.62800 20.97600
C  3.24600 45.15400 22.32100
C  3.38700 45.71900 20.90200
N  3.01100 42.99400 26.90200
C  4.19500 43.23600 26.21700
C  5.30100 43.41600 27.17800
C  4.70600 43.14700 28.38400
C  3.34300 42.84900 28.23100
C  6.72800 43.65700 26.93000
C  5.04600 42.95000 29.82800
O  6.11400 42.96600 30.40300
C  3.66800 42.81400 30.51600
C  3.76600 41.64600 31.41200
O  3.46500 40.50400 31.04400
O  4.12800 42.05400 32.66500
C  4.27700 40.97600 33.61500
H  -3.06500 42.29300 28.25200
H  -0.70000 42.39700 22.20700
H  5.06600 43.60700 24.33800
H  0.68100 41.91500 31.56100
H  -1.91500 42.56700 30.49200
H  -2.46600 40.55100 30.59500
H  -0.86600 40.13600 31.04200
H  -1.22000 40.03800 29.26300
H  -0.70000 44.53400 31.23200
H  0.92000 44.67300 30.75900
H  -0.05100 45.09900 33.13600
H  1.75400 44.79800 32.84200
H  -5.50600 42.27900 25.53600
H  -4.67700 43.24500 26.72700
H  -4.78600 41.48600 26.86800
H  -5.26100 41.65000 21.82400
H  -5.32500 42.70200 23.32500
H  -5.35400 40.86400 23.37800
H  1.60300 43.80600 21.25800
H  4.14600 43.13700 22.07100
H  1.06900 41.04200 21.26900
H  2.76500 40.91600 20.95100
H  1.78800 41.94800 19.94500
H  4.03200 45.63900 22.90100
H  2.28400 45.51400 22.68600
H  3.49100 44.86400 20.23300
H  4.25400 46.37900 20.89000
H  2.52100 46.27600 20.54600
H  7.28600 43.14400 27.71300
H  6.99300 44.71000 27.03300
H  7.05000 43.30700 25.94900
H  3.46700 43.77500 30.98900
H  5.14500 40.36100 33.37700
H  3.41600 40.30800 33.63900
H  4.49300 41.42000 34.58700

