158

Mg 47.76500 15.86700 27.97900
C  45.72000 15.35200 30.93400
C  49.96900 17.61500 29.96500
C  49.63400 16.39500 25.27600
C  45.28000 14.31900 26.12700
N  47.78100 16.45900 30.21100
C  46.91100 16.08000 31.23000
C  47.47600 16.62500 32.58400
C  48.57100 17.61400 32.09900
C  48.82100 17.21100 30.68200
C  48.25300 19.13100 32.34500
C  47.79100 15.48100 33.60400
C  47.30200 15.67200 35.04700
H  47.09500 17.05700 35.66600
N  49.52700 16.82200 27.67800
C  50.33200 17.31300 28.68300
C  51.56700 17.66000 27.98900
C  51.48200 17.40100 26.65000
C  50.20000 16.81300 26.46200
C  52.74600 18.26200 28.76000
C  52.53300 17.74100 25.52500
O  52.41400 17.32600 24.38500
C  53.78900 18.56300 25.97900
N  47.39700 15.52200 25.92400
C  48.41400 15.72000 25.04700
C  47.89000 15.32500 23.63900
C  46.52400 14.61600 23.91800
C  46.41100 14.72100 25.40700
C  47.80400 16.54500 22.73400
C  46.43900 13.16100 23.46100
C  46.95500 11.99400 24.25500
N  45.83700 15.10200 28.38000
C  44.92400 14.55800 27.46700
C  43.80800 14.00300 28.22700
C  44.04500 14.29600 29.58700
C  45.27200 14.95200 29.62400
C  42.69500 13.11000 27.78400
C  43.65300 14.11300 30.96600
O  42.69700 13.56000 31.40100
C  44.70300 14.85700 31.91000
C  43.95700 15.95000 32.60400
O  43.76900 17.04200 32.20100
O  43.54400 15.50700 33.88000
C  42.73200 16.46100 34.68700
H  50.68400 18.22900 30.51600
H  50.27400 16.54100 24.40300
H  44.62600 13.71100 25.49800
H  46.66500 17.22900 32.99000
H  49.47600 17.52200 32.70000
H  49.02200 19.69200 32.87600
H  47.39400 19.34100 32.98200
H  48.21800 19.71300 31.42500
H  48.86600 15.30700 33.55100
H  47.42100 14.54100 33.19400
H  48.09400 15.21500 35.64100
H  46.43300 15.02300 35.15600
H  53.69000 17.73100 28.63600
H  52.54900 18.05800 29.81300
H  52.88100 19.33300 28.60900
H  54.34900 18.84000 25.08600
H  54.48900 17.96900 26.56700
H  53.48500 19.46900 26.50400
H  48.62600 14.58000 23.33500
H  45.74300 15.24900 23.49700
H  48.66100 16.55700 22.06000
H  47.85300 17.48600 23.28300
H  46.96600 16.49500 22.03800
H  46.86500 13.06100 22.46300
H  45.37200 13.00500 23.29900
H  47.08800 11.15200 23.57600
H  46.17700 11.70300 24.96100
H  47.87100 12.26500 24.78000
H  41.94300 13.64800 27.20700
H  42.28300 12.61500 28.66300
H  43.10400 12.39100 27.07400
H  45.06300 14.11100 32.62000
H  41.69400 16.50000 34.35700
H  43.10200 17.48600 34.71600
H  42.79800 16.18200 35.73900
Mg 48.92900 34.97200 27.62400
C  46.78500 33.43800 29.93800
C  49.36600 37.64500 29.97300
C  50.88700 36.50400 25.42800
C  48.22300 32.40900 25.39300
N  48.18600 35.48900 29.64600
C  47.42500 34.58700 30.45400
C  47.50600 35.08600 31.84700
C  47.73500 36.61300 31.67300
C  48.49500 36.60600 30.37000
C  46.47300 37.46200 31.59900
C  48.59800 34.35300 32.68700
C  48.25000 33.91300 34.10200
H  47.08100 34.68900 34.80800
N  49.92900 36.77400 27.67900
C  50.04600 37.69700 28.74200
C  50.98100 38.75100 28.39500
C  51.53600 38.37500 27.13900
C  50.79600 37.15900 26.71600
C  51.34700 40.00300 29.16400
C  52.74900 38.98300 26.28700
O  53.14800 38.56500 25.21700
C  53.58800 40.15000 26.78200
N  49.22600 34.67500 25.57700
C  50.20800 35.42300 24.92500
C  50.57400 34.77600 23.58400
C  49.87400 33.35900 23.62900
C  49.07000 33.41600 24.96800
C  50.18700 35.76800 22.35900
C  50.92800 32.25000 23.56600
C  50.45100 31.00200 22.79800
N  47.66300 33.32000 27.56500
C  47.54100 32.35300 26.61700
C  46.58100 31.32200 27.11400
C  46.24000 31.76100 28.37600
C  46.90900 32.90200 28.63500
C  46.09400 30.11900 26.37700
C  45.39600 31.49900 29.45600
O  44.50700 30.71500 29.66300
C  45.73200 32.52300 30.54700
C  46.10700 31.79100 31.76200
O  46.99200 30.97000 31.78500
O  45.28500 31.99200 32.79400
C  45.33700 31.02400 33.94800
H  49.38000 38.42100 30.74100
H  51.61900 36.89900 24.72000
H  48.27900 31.58400 24.68000
H  46.50800 34.99400 32.27500
H  48.42300 37.05300 32.39500
H  46.37900 37.92300 30.61600
H  46.38900 38.13000 32.45700
H  45.60000 36.81500 31.68300
H  49.52200 34.92600 32.61300
H  48.88400 33.47100 32.11400
H  49.07000 34.07400 34.80200
H  47.94500 32.87100 34.20500
H  50.72700 39.87600 30.05100
H  51.15000 40.86400 28.52500
H  52.37100 39.88500 29.51600
H  53.09600 40.95800 27.32400
H  54.09200 40.68600 25.97900
H  54.43300 39.80700 27.37900
H  51.65000 34.71200 23.42500
H  49.14700 33.29300 22.82000
H  49.70300 36.63200 22.81300
H  49.64100 35.21000 21.59700
H  51.10200 36.13200 21.89200
H  51.09700 32.05900 24.62600
H  51.86100 32.59100 23.11800
H  50.55100 30.04000 23.29900
H  50.98300 30.99700 21.84600
H  49.38200 31.02600 22.59000
H  46.63400 30.01700 25.43500
H  45.07500 30.15800 25.99100
H  46.37900 29.31000 27.04800
H  44.88400 33.13500 30.85700
H  44.85300 31.57800 34.75300
H  46.30800 30.70500 34.32800
H  44.90700 30.08600 33.59900

