158

Mg 9.13800 2.81700 26.66900
C  10.52200 1.15500 29.51800
C  7.28900 4.70700 28.75300
C  7.96400 4.04700 24.07300
C  10.74600 0.15200 24.77600
N  9.00700 2.95100 28.90200
C  9.67000 2.23400 29.90500
C  9.23900 2.68400 31.29800
C  8.03600 3.72300 31.01000
C  8.18800 3.88200 29.50200
C  6.61400 3.19600 31.45000
C  10.48300 3.09500 32.23000
C  10.39100 4.14400 33.37500
H  10.96000 3.86700 34.76000
N  7.81900 4.17400 26.43900
C  7.15900 4.94200 27.36500
C  6.34900 5.95500 26.70700
C  6.57700 5.86400 25.27400
C  7.45200 4.61800 25.21300
C  5.72100 7.00900 27.44600
C  6.08600 6.75900 24.13900
O  6.45000 6.56900 22.98900
C  5.07800 7.89300 24.40800
N  9.39800 2.22800 24.69500
C  8.79400 2.93700 23.75300
C  9.15800 2.48600 22.32100
C  10.02200 1.23200 22.57400
C  10.15500 1.25600 24.12400
C  7.97500 2.24800 21.36500
C  11.39300 1.20800 21.84400
C  11.19700 1.07900 20.31600
N  10.39100 1.08800 27.03200
C  10.92800 0.10000 26.15600
C  11.56100 -0.95200 26.90600
C  11.52200 -0.46200 28.24600
C  10.81800 0.71800 28.27000
C  12.11900 -2.16800 26.38300
C  11.92900 -0.83900 29.53900
O  12.56700 -1.79200 29.87300
C  11.23600 0.18900 30.49900
C  10.30800 -0.56600 31.39100
O  9.24000 -1.02800 31.09800
O  10.84200 -0.60400 32.64400
C  10.08800 -1.30100 33.71700
H  6.63700 5.31200 29.38600
H  7.48800 4.44500 23.17400
H  11.21700 -0.61600 24.15900
H  8.73200 1.80600 31.69900
H  8.15900 4.63700 31.59100
H  5.97200 3.06600 30.57900
H  6.19400 3.93100 32.13600
H  6.83000 2.26600 31.97600
H  11.22200 3.64300 31.64500
H  10.92900 2.20500 32.67500
H  9.33100 4.39000 33.44400
H  10.91900 5.02500 33.01200
H  6.22300 7.96500 27.29600
H  5.71900 6.69800 28.49100
H  4.74000 7.12200 26.98400
H  4.16800 7.43300 24.79500
H  4.85000 8.30600 23.42500
H  5.55000 8.58000 25.11000
H  9.80100 3.26700 21.91500
H  9.40300 0.39600 22.24900
H  7.02700 2.64400 21.73000
H  7.93100 1.21000 21.03500
H  8.20400 2.77800 20.44100
H  11.85500 0.25600 22.10800
H  12.00900 2.07700 22.07700
H  10.16800 1.34600 20.07600
H  11.37300 0.05100 19.99900
H  11.85600 1.76300 19.78100
H  11.35000 -2.49900 25.68500
H  12.14500 -2.84400 27.23800
H  13.04200 -1.95700 25.84300
H  11.90800 0.74600 31.15300
H  10.48100 -2.28900 33.95700
H  9.05200 -1.39900 33.39300
H  9.97400 -0.73800 34.64400
Mg 9.50200 47.31900 25.85600
C  7.38700 47.02400 28.48900
C  12.05100 48.12300 27.95600
C  11.48500 47.71600 23.14900
C  6.76700 46.99400 23.54300
N  9.75700 47.56900 27.94600
C  8.72900 47.28400 28.88700
C  9.23100 47.57700 30.35100
C  10.75000 47.83400 30.15800
C  10.87900 47.82300 28.58000
C  11.21700 49.20700 30.81600
C  8.80900 46.46200 31.29300
C  9.80300 46.06500 32.38200
H  9.23600 45.43900 33.68500
N  11.50800 47.89500 25.55300
C  12.41100 48.18300 26.56700
C  13.71100 48.42500 25.99800
C  13.57700 48.21200 24.52300
C  12.14500 47.91900 24.34500
C  14.97700 48.62700 26.84000
C  14.68600 48.23400 23.31800
O  14.40100 48.09000 22.10000
C  16.15700 48.46600 23.72000
N  9.15600 47.48700 23.58800
C  10.17100 47.61300 22.74200
C  9.77700 47.47600 21.27900
C  8.15000 47.37800 21.41100
C  8.03400 47.25400 22.94000
C  10.19100 48.72500 20.33300
C  7.49900 46.18300 20.65700
C  6.84500 46.65100 19.37200
N  7.48200 47.05700 25.91000
C  6.47000 46.94000 24.96900
C  5.20100 46.84400 25.58500
C  5.51200 46.83300 26.96600
C  6.91000 46.93000 27.13800
C  3.83400 46.77300 24.87100
C  4.91600 46.71700 28.30000
O  3.75800 46.47200 28.54700
C  6.12400 46.96400 29.31600
C  6.01900 45.82500 30.32800
O  6.22600 44.68500 30.08500
O  5.54100 46.36400 31.48300
C  5.18400 45.35700 32.51000
H  12.89200 48.19700 28.64800
H  12.11400 47.66600 22.25900
H  5.85800 47.03500 22.93800
H  8.77000 48.52100 30.64200
H  11.36200 47.06500 30.62900
H  10.49400 49.69800 31.46700
H  11.49600 49.83000 29.96600
H  11.98500 49.17000 31.58800
H  8.66300 45.60000 30.64200
H  7.91000 46.73300 31.84600
H  10.42000 46.92200 32.65100
H  10.47600 45.25300 32.10800
H  14.78800 48.47600 27.90300
H  15.31300 49.62200 26.54700
H  15.78400 47.97300 26.51100
H  16.24600 49.35600 24.34200
H  16.62000 48.59000 22.74100
H  16.59000 47.49500 23.96000
H  10.25900 46.54300 20.98500
H  7.69500 48.34400 21.19300
H  10.44600 49.55500 20.99300
H  9.39600 49.07200 19.67300
H  11.04500 48.56500 19.67500
H  6.77500 45.69700 21.31100
H  8.21800 45.44500 20.29900
H  7.22200 46.05300 18.54200
H  7.06300 47.70400 19.19300
H  5.75800 46.58100 19.34800
H  3.21000 46.16800 25.52900
H  4.02400 46.23200 23.94400
H  3.48000 47.78300 24.66900
H  5.90600 47.95300 29.71800
H  4.73900 44.42400 32.16700
H  4.53600 45.87800 33.21500
H  6.17400 45.18800 32.93400

