158

Mg 41.24100 41.36900 26.67300
C  40.74700 44.11800 29.01900
C  41.87100 39.31700 29.35900
C  42.06500 39.10400 24.52000
C  41.14300 43.77200 24.19000
N  41.27500 41.73900 28.92600
C  40.91900 42.80900 29.64100
C  40.96600 42.55500 31.10700
C  41.43700 41.02600 31.32500
C  41.63600 40.70700 29.80200
C  42.74500 40.60500 32.12800
C  39.64700 42.86300 31.92500
C  39.81400 43.78900 33.19400
H  39.32100 43.25900 34.54800
N  41.80500 39.48300 26.93000
C  42.00500 38.80600 28.08700
C  42.41300 37.45800 27.82800
C  42.38400 37.33000 26.42300
C  42.07600 38.70300 25.88200
C  42.90200 36.42200 28.90400
C  42.58400 36.14000 25.53000
O  42.46600 36.17500 24.31700
C  43.12900 34.89700 26.08000
N  41.69200 41.39000 24.65000
C  41.85600 40.31200 23.94900
C  41.67800 40.56600 22.43500
C  41.35700 42.10600 22.35000
C  41.41600 42.48000 23.82900
C  42.90400 40.10300 21.57500
C  40.01100 42.48300 21.69700
C  38.69300 42.26200 22.46500
N  40.94900 43.53400 26.56500
C  41.00500 44.31700 25.45000
C  40.83100 45.66500 25.90600
C  40.78000 45.62500 27.31500
C  40.84100 44.32300 27.66700
C  40.79200 46.85300 25.09700
C  40.70600 46.40800 28.46600
O  40.69100 47.61900 28.62500
C  40.68600 45.42300 29.65800
C  41.81700 45.79500 30.52900
O  42.96600 45.34000 30.40400
O  41.42100 46.79900 31.37600
C  42.56200 47.30500 32.17500
H  42.06300 38.79000 30.29600
H  42.11900 38.45200 23.64600
H  41.05200 44.57000 23.45000
H  41.77400 43.09500 31.60000
H  40.67700 40.33200 31.68300
H  42.69300 39.60800 32.56500
H  42.70700 41.36100 32.91200
H  43.59500 40.70600 31.45200
H  39.26800 41.92100 32.32100
H  38.89300 43.39400 31.34300
H  39.15900 44.64900 33.05800
H  40.86100 43.98700 33.42400
H  43.92300 36.07400 28.74100
H  42.32200 35.50500 29.01100
H  42.89500 36.87400 29.89600
H  42.41600 34.49600 26.80000
H  44.01000 35.08700 26.69400
H  43.38000 34.22100 25.26200
H  40.76300 40.02000 22.20500
H  42.15900 42.62000 21.82000
H  43.64400 39.53700 22.14000
H  43.57300 40.77500 21.03700
H  42.52200 39.33300 20.90500
H  39.85400 42.01000 20.72800
H  40.06500 43.52700 21.38700
H  38.80100 42.03500 23.52600
H  38.17300 41.48800 21.90000
H  38.15800 43.20300 22.34300
H  40.04300 47.57100 25.42900
H  40.57100 46.69100 24.04200
H  41.75800 47.34700 24.98800
H  39.69700 45.61000 30.07500
H  43.34900 47.72400 31.54800
H  43.06900 46.48900 32.69000
H  42.28500 48.11200 32.85300
Mg 35.57500 49.44600 25.75600
C  36.07100 47.54000 28.56000
C  34.08600 51.81900 27.86300
C  34.43400 51.04800 23.08000
C  36.27900 46.64300 23.85400
N  34.96000 49.53400 27.91800
C  35.48200 48.77700 28.86200
C  35.31500 49.31100 30.25700
C  34.43600 50.54500 30.03500
C  34.51400 50.69200 28.55000
C  33.03500 50.51200 30.67900
C  36.68300 49.54800 31.02400
C  36.79200 49.04000 32.46200
H  36.77100 50.11400 33.58500
N  34.59200 51.25800 25.49700
C  34.09800 52.09100 26.49600
C  33.52900 53.31100 25.85200
C  33.62200 53.09900 24.42800
C  34.25100 51.75700 24.26300
C  33.11800 54.52500 26.72600
C  33.36800 54.04700 23.23700
O  33.51000 53.82400 22.05200
C  32.88900 55.49100 23.65300
N  35.44000 48.99300 23.77200
C  35.00600 49.77800 22.81700
C  35.13900 49.21500 21.41800
C  35.85600 47.85100 21.69800
C  35.87700 47.79200 23.19600
C  33.92200 49.01400 20.58100
C  37.32400 47.58400 21.16400
C  37.56600 46.32400 20.42400
N  36.22900 47.52800 26.06000
C  36.46200 46.49500 25.20600
C  36.86600 45.33900 25.96400
C  36.86600 45.72200 27.31800
C  36.37400 47.07100 27.31100
C  37.28000 43.98200 25.42900
C  37.14400 45.28100 28.66100
O  37.59300 44.24200 29.02700
C  36.62400 46.46200 29.59000
C  35.65200 45.97200 30.53100
O  34.49000 45.80000 30.22900
O  36.18400 45.74800 31.76500
C  35.22700 45.50800 32.84200
H  33.56900 52.45400 28.58600
H  34.06000 51.54300 22.18100
H  36.66100 45.81100 23.25900
H  34.70500 48.61900 30.83600
H  35.03400 51.33900 30.48000
H  32.83800 49.57600 31.20100
H  32.18500 50.42000 30.00300
H  32.84800 51.41300 31.26300
H  36.88300 50.61800 31.07800
H  37.49600 49.17900 30.39800
H  37.80200 48.63100 32.48600
H  36.05500 48.28300 32.73500
H  32.05800 54.54500 26.98100
H  33.44800 55.47400 26.30400
H  33.70500 54.51000 27.64400
H  32.49100 56.12800 22.86300
H  33.79200 55.99900 23.99400
H  32.20200 55.41100 24.49500
H  35.74800 49.93800 20.87600
H  35.16600 47.07000 21.38100
H  33.89600 49.90200 19.94900
H  32.97100 49.16900 21.09100
H  34.06600 48.14900 19.93300
H  37.99500 47.65700 22.02100
H  37.65300 48.42400 20.55300
H  38.48600 46.44600 19.85300
H  36.69500 46.20700 19.77800
H  37.69700 45.46300 21.07900
H  37.69900 44.21300 24.45000
H  36.43000 43.30300 25.36200
H  38.05300 43.58400 26.08600
H  37.53200 46.75900 30.11400
H  35.58500 45.96500 33.76500
H  35.10600 44.43200 32.96900
H  34.23700 45.91300 32.63300

