158

Mg 0.14600 7.70800 26.93400
C  0.59900 9.74500 29.73700
C  0.22000 4.92200 28.97000
C  0.10800 5.85900 24.15200
C  0.76600 10.52800 24.96300
N  0.20800 7.37200 29.03800
C  0.37400 8.35800 30.01500
C  0.34800 7.77300 31.40800
C  0.40900 6.20800 31.17900
C  0.29600 6.16600 29.60400
C  1.66300 5.51800 31.67000
C  -0.86600 8.17100 32.18100
C  -0.67400 8.49700 33.63100
H  0.56800 7.93700 34.31100
N  0.02600 5.62000 26.60100
C  0.03200 4.65900 27.58800
C  -0.10900 3.33900 26.92800
C  -0.04700 3.56500 25.49100
C  -0.04300 5.08500 25.33100
C  -0.24200 2.05300 27.77600
C  -0.02600 2.59700 24.34600
O  0.08700 2.94200 23.20500
C  -0.04700 1.09800 24.65900
N  0.18600 8.16800 24.89200
C  0.10300 7.22200 23.97300
C  0.42500 7.79400 22.60000
C  0.27000 9.33100 22.82300
C  0.40600 9.40100 24.31500
C  1.74000 7.49100 22.03500
C  -1.17700 9.84800 22.28700
C  -1.16200 10.06700 20.80700
N  0.56800 9.82300 27.23500
C  0.85500 10.80000 26.35200
C  1.16700 12.04700 26.98200
C  1.11900 11.67900 28.39100
C  0.69100 10.31200 28.44300
C  1.53600 13.38100 26.31800
C  1.42700 12.12700 29.80500
O  1.93100 13.16700 30.24300
C  0.89900 10.90400 30.72300
C  2.11800 10.54800 31.60800
O  3.15700 9.96900 31.22600
O  1.91300 11.03100 32.81000
C  3.00300 11.06600 33.72500
H  0.25900 4.05900 29.63900
H  0.03700 5.22100 23.26900
H  0.80800 11.40600 24.31500
H  1.22200 8.14500 31.94300
H  -0.44300 5.66700 31.59000
H  1.42900 4.65200 32.28900
H  2.19100 6.22600 32.30800
H  2.29700 5.20100 30.84200
H  -1.61900 7.38900 32.09200
H  -1.27000 9.09800 31.77200
H  -1.51100 8.09700 34.20300
H  -0.56200 9.56200 33.83500
H  -0.96000 2.14700 28.59000
H  0.76500 1.73100 28.04100
H  -0.72900 1.26400 27.20300
H  0.82800 1.04500 25.30600
H  0.15500 0.57800 23.72200
H  -1.01900 0.80400 25.05300
H  -0.30800 7.58000 21.82200
H  1.02700 9.97800 22.37900
H  2.43600 8.27700 22.32700
H  1.57500 7.43500 20.95900
H  2.16900 6.54900 22.37500
H  -1.41600 10.77600 22.80500
H  -1.94700 9.09800 22.47000
H  -0.23300 9.70200 20.36800
H  -1.23200 11.13100 20.58500
H  -1.96600 9.41600 20.46300
H  2.31100 13.39200 25.55200
H  1.84200 14.21800 26.94500
H  0.62600 13.67900 25.79700
H  0.03100 11.21000 31.30600
H  3.11600 12.13300 33.92000
H  3.96500 10.62700 33.46200
H  2.60000 10.72300 34.67800
Mg 36.37600 49.31100 24.73200
C  36.52500 47.56000 27.68100
C  34.79800 51.90600 26.29000
C  36.13000 50.91300 21.71200
C  37.60800 46.61100 23.04900
N  35.72800 49.64100 26.78500
C  35.91900 48.81100 27.84300
C  35.55300 49.55600 29.10500
C  34.86600 50.85800 28.60500
C  35.15900 50.81300 27.13900
C  33.35000 50.93100 28.93400
C  36.84500 49.81700 30.04000
C  36.70400 49.69900 31.59000
H  36.51000 51.00800 32.32400
N  35.69800 51.25300 24.11900
C  35.04500 52.15900 24.93700
C  34.63800 53.33600 24.19600
C  35.05800 53.08800 22.79000
C  35.65800 51.68900 22.77500
C  34.01700 54.56700 24.84000
C  34.94000 54.02400 21.60600
O  35.55600 53.87100 20.59400
C  34.09300 55.25400 21.67700
N  36.71100 48.82900 22.62400
C  36.66100 49.64300 21.60500
C  36.93200 49.00100 20.26300
C  37.64500 47.69800 20.67900
C  37.30200 47.69800 22.17200
C  35.57800 48.64700 19.57800
C  39.15100 47.83600 20.23200
C  39.43800 47.23700 18.90900
N  36.93000 47.43900 25.24900
C  37.44700 46.43000 24.43200
C  37.79200 45.34200 25.31800
C  37.43400 45.71800 26.59800
C  36.87200 46.97200 26.47200
C  38.44200 44.09800 24.76200
C  37.41400 45.27800 27.92300
O  37.79300 44.24300 28.46200
C  36.86400 46.53900 28.73000
C  35.67100 46.15500 29.56000
O  34.63300 45.71000 29.09200
O  36.00400 46.01800 30.86900
C  34.85300 45.62700 31.75500
H  34.22600 52.65600 26.84000
H  35.99700 51.41600 20.75200
H  38.04000 45.73800 22.55500
H  34.82400 48.96600 29.66000
H  35.34300 51.76200 28.98200
H  33.02900 51.86500 29.39400
H  33.00400 50.11800 29.57300
H  32.75100 50.92200 28.02400
H  37.04900 50.87400 29.86800
H  37.64800 49.13100 29.77000
H  37.64000 49.27800 31.95700
H  35.85800 49.03500 31.76700
H  32.95300 54.70100 24.64500
H  34.51100 55.43500 24.40400
H  34.27200 54.57400 25.90000
H  33.65800 55.42900 20.69300
H  34.75800 56.05500 21.99900
H  33.24000 55.15200 22.34700
H  37.50700 49.70900 19.66600
H  37.14100 46.82000 20.27600
H  34.80000 49.12000 20.17800
H  35.50200 47.56600 19.45800
H  35.55900 49.14400 18.60800
H  39.88200 47.54200 20.98600
H  39.40000 48.88900 20.10500
H  39.45700 48.06000 18.19500
H  38.73700 46.46000 18.60300
H  40.46200 46.86500 18.90600
H  39.43600 43.82700 25.11800
H  38.44400 44.06400 23.67200
H  37.87000 43.20700 25.02100
H  37.66700 46.86600 29.39100
H  33.96800 46.26100 31.70100
H  35.19400 45.67200 32.79000
H  34.59700 44.57600 31.62000

