158

Mg 47.85300 24.59600 28.06000
C  48.42900 27.02700 30.33700
C  46.62700 22.63000 30.53800
C  47.32700 22.24000 25.73000
C  49.25600 26.65700 25.60100
N  47.77700 24.77200 30.22900
C  47.90300 25.89800 30.96500
C  47.47200 25.69700 32.44200
C  47.04300 24.26600 32.48500
C  47.13000 23.82800 30.99300
C  47.74400 23.25600 33.39900
C  46.43700 26.76200 32.97100
C  46.71300 27.31400 34.43700
H  45.53900 27.33300 35.41800
N  47.06900 22.68100 28.16100
C  46.55700 21.99000 29.24900
C  46.09600 20.71200 28.85600
C  46.26000 20.63400 27.45300
C  46.96900 21.87300 27.05900
C  45.49700 19.75900 29.80700
C  45.75300 19.57900 26.48300
O  45.97300 19.52700 25.23900
C  44.88500 18.49200 27.00600
N  48.37500 24.40900 26.00100
C  48.05000 23.34600 25.26400
C  48.36400 23.60200 23.75400
C  48.70500 25.13300 23.67700
C  48.81400 25.41200 25.20500
C  49.48200 22.67600 23.11100
C  47.68100 25.91600 22.91100
C  46.47900 26.53000 23.66000
N  48.75900 26.44400 27.92600
C  49.27600 27.18900 26.85000
C  49.75200 28.50000 27.32900
C  49.46600 28.47000 28.71200
C  48.83100 27.21200 28.98800
C  50.19000 29.56700 26.44800
C  49.54500 29.21200 29.96900
O  50.08300 30.26500 30.15100
C  48.75100 28.32300 31.05600
C  49.79900 28.12300 32.13100
O  50.63800 27.28700 32.11200
O  49.44200 28.85700 33.20100
C  50.19000 28.67100 34.45300
H  46.24600 22.06700 31.39200
H  47.10800 21.45900 24.99900
H  49.65400 27.35700 24.86400
H  48.39000 25.85000 33.01000
H  46.02700 24.15800 32.86400
H  48.60100 23.79300 33.80400
H  48.03000 22.35100 32.86200
H  47.09400 22.92900 34.21100
H  45.41800 26.38300 33.04700
H  46.33400 27.57200 32.25000
H  47.04400 28.35000 34.35500
H  47.49900 26.68100 34.85000
H  44.43200 19.95200 29.93700
H  45.89900 19.93000 30.80500
H  45.72600 18.73600 29.50700
H  44.30900 18.12000 26.15900
H  44.14900 18.94700 27.67000
H  45.46100 17.69600 27.47700
H  47.49700 23.30400 23.16500
H  49.66400 25.32400 23.19700
H  50.29500 23.37400 22.91000
H  49.11300 22.03400 22.31200
H  49.88600 22.01300 23.87500
H  47.22000 25.38500 22.07800
H  48.21400 26.73900 22.43300
H  46.52300 27.61900 23.68000
H  46.43700 26.07500 24.64900
H  45.58100 26.27600 23.09700
H  49.75700 29.69500 25.45600
H  51.24200 29.34000 26.27500
H  50.12900 30.50300 27.00300
H  47.87300 28.84900 31.43100
H  49.42500 28.34300 35.15700
H  50.53400 29.65900 34.76000
H  51.02400 27.97500 34.53300
Mg 6.81800 53.99000 40.93100
C  6.21400 50.64000 40.41200
C  10.04200 53.59100 40.09600
C  7.19000 57.38000 40.94500
C  3.29400 54.39300 41.64000
N  7.89700 52.31800 40.14600
C  7.56000 51.04000 40.18900
C  8.72500 50.12700 39.95200
C  9.90500 51.02400 40.13400
C  9.24200 52.38100 40.21900
C  10.93700 50.74700 41.28200
C  8.73900 49.44600 38.46900
C  8.50100 50.41600 37.29600
H  7.35000 50.26800 36.39200
N  8.37800 55.26500 40.63100
C  9.69500 54.91400 40.26800
C  10.44700 56.11600 40.05000
C  9.61500 57.24500 40.35100
C  8.34600 56.62400 40.70800
C  11.89300 55.99000 39.63000
C  10.10900 58.68700 40.37000
O  11.20600 58.99800 39.92100
C  9.27500 59.83200 40.90600
N  5.33700 55.73000 41.06800
C  5.80300 56.99500 41.09700
C  4.69100 58.05400 41.32700
C  3.44700 57.05800 41.56900
C  4.04400 55.65100 41.51300
C  4.87100 59.13400 42.46700
C  2.14200 57.25800 40.72500
C  0.79400 57.56000 41.55900
N  5.06400 52.84000 41.03000
C  3.75600 53.10600 41.42700
C  3.02900 51.86100 41.44000
C  3.93200 50.88100 41.02800
C  5.12600 51.49200 40.87000
C  1.54000 51.70800 41.77400
C  4.11700 49.46400 40.76000
O  3.23900 48.56200 40.85500
C  5.62700 49.22500 40.33600
C  5.41200 48.58200 39.02400
O  4.70200 48.98800 38.17100
O  5.91400 47.31100 39.11300
C  5.62500 46.43200 38.01800
H  11.09700 53.33600 39.97800
H  7.31300 58.46100 41.03500
H  2.21800 54.44700 41.81400
H  8.83000 49.30400 40.65800
H  10.48500 51.08700 39.21400
H  11.91200 50.69900 40.79900
H  10.72200 49.82800 41.82800
H  10.86300 51.60200 41.95400
H  8.13200 48.54100 38.45700
H  9.75900 49.10200 38.29600
H  9.36600 50.36700 36.63500
H  8.45500 51.39300 37.77700
H  12.49500 55.43300 40.34800
H  12.39400 56.95800 39.65700
H  11.93800 55.55900 38.63000
H  9.93600 60.68700 41.04600
H  8.99300 59.49100 41.90200
H  8.40500 60.09500 40.30400
H  4.73200 58.66800 40.42700
H  3.21100 57.19100 42.62500
H  5.66200 58.83400 43.15300
H  4.01300 59.28400 43.12300
H  5.13900 60.03000 41.90500
H  1.90600 56.38800 40.11300
H  2.35700 58.11400 40.08600
H  0.63300 58.63000 41.42600
H  0.92800 57.34600 42.61900
H  -0.12300 57.11100 41.17700
H  1.41700 51.55600 42.84700
H  1.21700 50.80500 41.25700
H  1.09100 52.62500 41.39000
H  6.17200 48.52000 40.96400
H  5.71400 47.02400 37.10700
H  4.57300 46.16600 38.12900
H  6.38200 45.66200 37.86500

