158

Mg 23.69600 -7.14600 45.21600
C  26.05700 -4.78800 44.32200
C  21.52600 -5.77600 42.78000
C  21.53900 -9.79700 45.57000
C  26.29600 -9.14900 46.65200
N  23.81500 -5.43000 43.86200
C  24.91300 -4.71500 43.59000
C  24.69600 -3.78300 42.28400
C  23.18200 -3.86100 42.18200
C  22.75100 -5.11300 43.02600
C  22.40900 -2.46700 42.53400
C  25.54100 -4.23500 41.09900
C  26.08600 -3.12900 40.14700
H  25.77100 -3.34800 38.70800
N  21.61900 -7.61100 44.46100
C  20.99500 -6.91900 43.47300
C  19.69900 -7.60500 43.21600
C  19.67900 -8.67900 44.13900
C  20.97900 -8.74800 44.78100
C  18.58900 -7.22900 42.16600
C  18.38200 -9.56500 44.39000
O  17.30200 -9.24600 43.96900
C  18.42200 -10.80700 45.25900
N  23.83700 -9.05600 46.21700
C  22.80300 -9.94200 46.13800
C  23.21600 -11.28200 46.71700
C  24.74000 -11.11300 47.13400
C  24.98800 -9.65800 46.65900
C  22.18600 -11.93900 47.66800
C  25.66600 -12.17000 46.54000
C  26.76800 -12.74600 47.48300
N  25.71800 -6.98200 45.46400
C  26.59400 -7.88200 46.16100
C  27.84800 -7.18400 46.24300
C  27.74300 -5.92900 45.59200
C  26.47800 -5.89400 45.08400
C  29.08700 -7.81200 46.83100
C  28.39000 -4.69300 45.20000
O  29.48000 -4.18200 45.52500
C  27.37400 -3.99100 44.23700
C  27.17100 -2.52800 44.55800
O  26.21100 -1.99300 45.09400
O  28.22900 -1.76600 44.07200
C  28.18500 -0.27400 44.23500
H  20.88800 -5.50900 41.93400
H  20.93300 -10.70600 45.55400
H  27.06100 -9.78600 47.10200
H  24.97500 -2.77000 42.57500
H  22.92500 -4.14600 41.16200
H  22.29100 -1.99300 41.56000
H  23.02400 -1.85900 43.19700
H  21.40900 -2.68100 42.91000
H  24.87000 -4.86900 40.52000
H  26.35100 -4.85900 41.47600
H  27.17600 -3.15700 40.12500
H  25.78100 -2.11300 40.40000
H  18.17400 -8.17900 41.82900
H  18.99300 -6.72600 41.28800
H  17.75300 -6.65000 42.55900
H  18.58300 -10.57000 46.31100
H  19.18700 -11.44000 44.80900
H  17.51300 -11.40700 45.22000
H  23.18100 -11.81700 45.76900
H  24.84800 -11.04600 48.21600
H  21.47400 -12.57200 47.13900
H  21.88700 -11.14700 48.35500
H  22.65300 -12.73900 48.24200
H  26.07900 -11.68500 45.65600
H  25.16300 -13.05500 46.14900
H  26.85000 -12.07200 48.33600
H  27.73000 -12.68700 46.97500
H  26.52500 -13.73600 47.86800
H  28.94800 -8.21400 47.83500
H  29.86800 -7.05300 46.87100
H  29.30900 -8.59600 46.10700
H  27.65700 -4.00900 43.18500
H  28.68700 -0.13800 45.19300
H  27.17400 0.13100 44.18000
H  28.84300 0.11900 43.46000
Mg 25.91200 50.27600 26.41900
C  23.59300 51.52400 28.70600
C  28.04700 49.54900 29.04500
C  28.14800 49.52000 24.11700
C  23.70100 51.53500 23.79400
N  25.79000 50.55300 28.67200
C  24.72000 51.07800 29.39600
C  24.94800 50.84900 30.89700
C  26.37900 50.47600 30.88600
C  26.81600 50.18600 29.42100
C  27.40800 51.32300 31.72000
C  23.96600 49.82200 31.56900
C  24.16400 49.37100 33.03800
H  24.68700 50.36100 34.08100
N  27.83400 49.52000 26.51500
C  28.53700 49.22400 27.69000
C  29.83800 48.64300 27.29900
C  29.82800 48.64700 25.86800
C  28.57600 49.27200 25.41200
C  30.88500 48.21500 28.36000
C  30.94800 48.09300 24.92900
O  30.77700 48.01500 23.66500
C  32.29700 47.49900 25.45200
N  25.78600 50.24400 24.22000
C  26.90100 49.98000 23.53200
C  26.60000 50.22400 22.02300
C  25.12200 50.70700 21.98800
C  24.85800 50.83500 23.43700
C  27.55500 51.06800 21.33400
C  23.99500 49.82400 21.40000
C  23.05100 50.62500 20.35200
N  23.91200 51.31500 26.22200
C  23.18800 51.68000 25.12700
C  21.99000 52.27800 25.56300
C  22.11000 52.25300 26.94300
C  23.28900 51.67000 27.30800
C  20.87100 52.83200 24.74900
C  21.40000 52.58800 28.19200
O  20.36200 53.15200 28.41600
C  22.32300 52.14500 29.34900
C  22.72500 53.20500 30.19800
O  23.48100 54.10500 29.90700
O  22.27600 52.95900 31.44300
C  22.35600 54.17600 32.41200
H  28.66100 49.28800 29.90900
H  28.79100 49.23800 23.28100
H  23.05600 51.93400 23.00900
H  24.99000 51.80400 31.42100
H  26.42100 49.50800 31.38600
H  27.82700 52.09700 31.07700
H  28.23900 50.81100 32.20500
H  26.88400 51.88700 32.49200
H  24.05800 48.92200 30.96100
H  22.97700 50.22100 31.34000
H  24.67800 48.41100 33.01600
H  23.10800 49.36000 33.31100
H  31.11300 47.16300 28.18900
H  30.48700 48.34300 29.36700
H  31.73900 48.89000 28.41700
H  32.97900 48.26900 25.81200
H  32.57100 46.84200 24.62700
H  32.09200 46.78100 26.24600
H  26.79000 49.25600 21.56100
H  25.07100 51.69400 21.52900
H  28.44700 51.27500 21.92600
H  27.17400 52.08500 21.24400
H  27.95000 50.66500 20.40100
H  23.29100 49.33600 22.07400
H  24.46700 48.97700 20.90100
H  22.81900 49.99000 19.49800
H  23.60200 51.52100 20.06600
H  22.15700 50.89000 20.91700
H  20.32600 53.52700 25.38800
H  20.24700 52.01200 24.39400
H  21.34200 53.42100 23.96200
H  21.86100 51.33900 29.91800
H  22.36500 55.08200 31.80600
H  23.24400 54.04700 33.03100
H  21.49500 54.12500 33.07800

