158

Mg 9.15600 4.38000 28.06600
C  10.50300 2.83600 30.77800
C  7.39200 6.42900 30.05400
C  7.80800 5.84200 25.30200
C  10.76800 2.02600 26.02500
N  8.87400 4.46700 30.10600
C  9.61100 3.86500 31.05600
C  9.34000 4.34900 32.44900
C  8.29000 5.43300 32.16700
C  8.16000 5.43600 30.69100
C  6.95800 5.21200 32.95300
C  10.68700 4.80600 33.15400
C  10.47800 5.86600 34.24100
H  11.19500 5.66100 35.59300
N  7.76400 5.85600 27.73300
C  7.17400 6.59600 28.66200
C  6.21900 7.56200 28.04800
C  6.41300 7.50400 26.66900
C  7.30700 6.32400 26.46100
C  5.31400 8.42400 28.78800
C  5.90500 8.34100 25.55000
O  6.06500 7.96800 24.39900
C  5.30300 9.68400 25.87300
N  9.18000 3.96100 26.02200
C  8.61700 4.75700 25.08500
C  8.92200 4.27100 23.65500
C  9.78700 2.97500 23.88300
C  9.96200 2.98900 25.43300
C  7.69200 4.00900 22.69600
C  11.21000 2.98700 23.16900
C  11.32500 1.98400 21.97900
N  10.43600 2.74900 28.29100
C  10.92900 1.82200 27.40600
C  11.77000 0.85600 28.12800
C  11.70200 1.29100 29.47500
C  10.85200 2.38200 29.49100
C  12.37600 -0.39800 27.52600
C  12.10200 1.04400 30.83000
O  12.83200 0.15200 31.17400
C  11.36000 2.03200 31.73100
C  10.62400 1.36600 32.87000
O  9.40300 1.15700 32.85700
O  11.51300 1.33100 33.92200
C  11.13400 0.81700 35.19600
H  6.75900 7.05500 30.68700
H  7.49100 6.33800 24.38300
H  11.34400 1.34100 25.40000
H  8.83900 3.55400 33.00200
H  8.75100 6.41200 32.29800
H  6.79700 6.17000 33.44700
H  6.87300 4.37200 33.64100
H  6.10300 5.10400 32.28500
H  11.38700 5.21200 32.42400
H  11.11600 3.88800 33.55700
H  9.43900 5.87400 34.57100
H  10.76300 6.86800 33.91900
H  5.73300 9.41000 28.99000
H  5.11400 7.91700 29.73200
H  4.34000 8.51700 28.30700
H  6.10700 10.15300 26.44100
H  4.40300 9.52500 26.46700
H  5.14200 10.28000 24.97500
H  9.48200 5.09400 23.21000
H  9.22100 2.07300 23.65400
H  6.81900 3.95600 23.34700
H  7.83700 3.12200 22.07900
H  7.74800 4.85100 22.00700
H  12.09500 2.70900 23.74200
H  11.47400 3.88200 22.60500
H  10.43800 1.45700 21.62700
H  12.00400 1.20800 22.33100
H  11.77300 2.43700 21.09400
H  13.46400 -0.33200 27.49800
H  12.00700 -0.57100 26.51600
H  11.98200 -1.27500 28.04000
H  12.21800 2.61700 32.06300
H  10.77200 1.58500 35.88000
H  11.96700 0.28100 35.65000
H  10.34300 0.06900 35.13500
Mg 17.44600 -0.81700 28.09100
C  16.44600 1.29000 30.83900
C  19.09800 -2.76600 30.10700
C  18.91100 -2.15400 25.24500
C  15.64700 1.48300 25.96700
N  17.85000 -0.63500 30.20600
C  17.29700 0.24300 31.19200
C  17.79600 -0.13900 32.55700
C  18.79400 -1.38600 32.26600
C  18.53800 -1.63700 30.77300
C  20.32000 -1.10200 32.49000
C  16.56700 -0.62700 33.51900
C  16.65700 -0.15800 35.01100
H  17.92600 0.52300 35.58700
N  18.70500 -2.34000 27.75000
C  19.20800 -3.08900 28.71300
C  19.96100 -4.20600 28.19400
C  19.87500 -4.03700 26.76400
C  19.12900 -2.80500 26.50300
C  20.60800 -5.29200 29.00000
C  20.38200 -4.92900 25.63700
O  20.13700 -4.72300 24.48400
C  21.08700 -6.22600 25.82300
N  17.21300 -0.52800 25.93500
C  18.05800 -1.05300 25.02600
C  17.81400 -0.42800 23.60000
C  16.75200 0.59100 23.88300
C  16.45200 0.47600 25.40100
C  19.19300 0.10600 22.90500
C  15.45100 0.47500 23.03900
C  15.18100 1.47200 21.89100
N  16.21600 1.00700 28.27400
C  15.53000 1.78500 27.33700
C  14.86600 2.89400 27.97600
C  15.14800 2.68500 29.42100
C  16.01900 1.58100 29.50900
C  14.16900 4.03300 27.45700
C  14.94400 3.21800 30.74000
O  14.32600 4.19400 31.22800
C  15.75100 2.32000 31.71600
C  16.72800 3.14000 32.48800
O  17.72100 3.61500 32.03700
O  16.17000 3.41600 33.75100
C  16.73900 4.44900 34.61100
H  19.60500 -3.40500 30.83200
H  19.49000 -2.48900 24.38200
H  15.13200 2.09700 25.22600
H  18.36300 0.66300 33.02900
H  18.57900 -2.25400 32.89000
H  20.92900 -1.13000 31.58700
H  20.72500 -1.69700 33.31000
H  20.47800 -0.08900 32.85900
H  16.66000 -1.71100 33.57000
H  15.62100 -0.30800 33.08100
H  16.41000 -1.00500 35.65100
H  15.84700 0.56000 35.14600
H  20.20500 -6.22400 28.60300
H  20.33300 -5.31400 30.05500
H  21.66600 -5.30600 28.74000
H  21.47800 -6.61600 24.88300
H  20.41300 -6.95700 26.27000
H  21.90700 -6.13800 26.53600
H  17.48300 -1.26100 22.97900
H  17.22800 1.55500 23.70300
H  20.08400 -0.03800 23.51700
H  19.04900 1.17900 22.77800
H  19.30600 -0.37600 21.93400
H  14.61100 0.62500 23.71800
H  15.35400 -0.55500 22.69600
H  16.11400 2.03000 21.81900
H  14.36700 2.18200 22.04200
H  15.17200 0.99700 20.91000
H  14.74500 4.48900 26.65200
H  14.08800 4.90500 28.10600
H  13.18300 3.71900 27.11600
H  15.17900 1.75800 32.45500
H  16.12900 4.45400 35.51500
H  16.85900 5.39100 34.07600
H  17.74900 4.14000 34.87700

