158

Mg 49.21200 35.62700 27.09500
C  47.44000 34.02400 29.64400
C  49.22100 38.54200 28.93200
C  50.83500 37.00200 24.59200
C  48.25600 32.88600 24.85400
N  48.50700 36.18800 29.12000
C  47.90500 35.35300 30.01800
C  47.91500 36.04200 31.33700
C  48.13800 37.57700 30.99700
C  48.59200 37.43700 29.56700
C  46.87900 38.52500 30.96700
C  48.99500 35.31400 32.25300
C  48.57700 35.02900 33.75600
H  48.13400 36.20200 34.73400
N  50.11700 37.41800 26.93500
C  49.93800 38.53500 27.75200
C  50.70600 39.63300 27.18500
C  51.39500 39.10100 26.01200
C  50.79900 37.76000 25.82400
C  50.79200 41.07900 27.64100
C  52.48100 39.73500 25.13900
O  52.87200 39.08000 24.15300
C  53.11200 41.08700 25.43600
N  49.66300 34.96000 25.02600
C  50.27000 35.76900 24.16500
C  50.28100 35.27300 22.74700
C  49.50000 33.88200 22.86700
C  49.15700 33.86700 24.40200
C  49.60000 36.27300 21.75200
C  50.25400 32.57200 22.40800
C  51.72200 32.57500 22.41700
N  48.12400 33.81900 27.16000
C  47.81500 32.83700 26.22800
C  47.01900 31.82900 26.83100
C  46.75100 32.31200 28.12300
C  47.58400 33.44400 28.33400
C  46.48800 30.57400 26.24800
C  46.05200 32.01500 29.27200
O  45.23800 31.07800 29.55700
C  46.27200 33.21200 30.32500
C  46.68400 32.67000 31.68400
O  47.78700 32.17900 31.98000
O  45.61200 32.61700 32.50600
C  45.76100 32.08400 33.87400
H  49.36600 39.47200 29.48600
H  51.31600 37.55200 23.78100
H  47.84800 32.20100 24.10800
H  46.91100 36.11100 31.75800
H  48.85900 38.06600 31.65300
H  46.91000 39.33700 30.24000
H  46.75700 38.92200 31.97500
H  45.99700 37.92300 30.75200
H  49.91000 35.90500 32.23600
H  49.23900 34.36600 31.77300
H  49.34800 34.63700 34.42000
H  47.71300 34.36700 33.81600
H  49.96300 41.28700 28.31800
H  50.53000 41.67400 26.76500
H  51.77000 41.22500 28.09800
H  52.35600 41.86600 25.33800
H  53.94500 41.18400 24.74000
H  53.44100 40.99200 26.47100
H  51.29700 35.20200 22.36100
H  48.55500 33.97900 22.33300
H  48.55100 36.01200 21.61800
H  50.06700 36.30500 20.76700
H  49.60800 37.31200 22.08000
H  49.87100 32.39700 21.40300
H  49.78600 31.70500 22.87500
H  52.06100 32.51600 21.38300
H  52.06200 31.72000 23.00100
H  52.04200 33.49700 22.90200
H  46.32100 29.90200 27.08900
H  47.15000 30.07900 25.53800
H  45.46900 30.85800 25.98400
H  45.39600 33.85000 30.44100
H  44.80000 31.69500 34.21000
H  46.11900 32.92900 34.46100
H  46.60100 31.39200 33.93000
Mg -5.39400 25.20600 25.96000
C  -3.61200 26.90500 28.37700
C  -6.92300 23.39800 28.54200
C  -7.07500 23.48000 23.73600
C  -3.32800 26.64000 23.60000
N  -5.28900 25.18200 28.18900
C  -4.50100 26.00600 28.95500
C  -4.82600 25.81800 30.50800
C  -5.74800 24.50900 30.53600
C  -5.96800 24.29000 28.97400
C  -5.20600 23.27600 31.26000
C  -5.47300 27.18700 31.13000
C  -5.97000 27.43400 32.59200
H  -5.67900 26.29100 33.68400
N  -6.84800 23.64500 26.14600
C  -7.34700 23.07100 27.25400
C  -8.34300 22.11600 26.93900
C  -8.39100 22.10200 25.48300
C  -7.42900 23.13200 25.05300
C  -9.23800 21.44000 27.98500
C  -9.22200 21.14800 24.61600
O  -9.18300 21.27000 23.39700
C  -10.02000 20.08800 25.17000
N  -5.18800 24.85200 24.00000
C  -6.09400 24.29400 23.26500
C  -5.75300 24.54200 21.75400
C  -4.80400 25.73900 21.81200
C  -4.39700 25.74900 23.24900
C  -5.21400 23.30600 21.07600
C  -5.47800 27.01100 21.37700
C  -4.73600 28.02900 20.52600
N  -3.86700 26.66100 25.88200
C  -3.01100 27.01900 24.90200
C  -1.98100 27.95100 25.36800
C  -2.19600 27.93900 26.77900
C  -3.32600 27.08800 26.98200
C  -0.96200 28.66600 24.56300
C  -1.75500 28.42200 28.06200
O  -0.93700 29.20600 28.51500
C  -2.63900 27.77700 29.13900
C  -1.71100 26.98200 30.09800
O  -1.03100 26.01700 29.86600
O  -1.75700 27.54700 31.32100
C  -1.41500 26.71300 32.46400
H  -7.36900 22.81100 29.34800
H  -7.85500 23.14300 23.05000
H  -2.64600 27.05200 22.85400
H  -3.82400 25.70600 30.92100
H  -6.59300 24.86300 31.12600
H  -4.99400 22.53000 30.49500
H  -6.00900 22.90200 31.89500
H  -4.31300 23.54700 31.82400
H  -6.28100 27.31100 30.40900
H  -4.65700 27.86400 30.87500
H  -7.05100 27.55000 32.51900
H  -5.43200 28.31400 32.94400
H  -9.99700 22.21500 28.08800
H  -8.75500 21.31600 28.95500
H  -9.50700 20.42100 27.70600
H  -10.83900 20.50600 25.75500
H  -9.33200 19.44500 25.71900
H  -10.44100 19.48600 24.36400
H  -6.70700 24.70600 21.25300
H  -3.89300 25.56300 21.24000
H  -4.30000 23.59000 20.55500
H  -5.96900 22.94500 20.37800
H  -4.95900 22.55300 21.82200
H  -5.82700 27.40600 22.33100
H  -6.33100 26.70300 20.77200
H  -5.45700 28.42800 19.81200
H  -3.87600 27.68500 19.95100
H  -4.35000 28.77700 21.21800
H  -0.95400 28.20000 23.57700
H  0.01600 28.46400 24.99900
H  -1.34600 29.68600 24.58800
H  -3.21900 28.50900 29.70000
H  -0.34500 26.88000 32.59300
H  -1.64800 25.65200 32.37300
H  -1.91600 27.10500 33.34900

