158

Mg 36.05200 48.27300 25.08300
C  36.26600 46.49400 28.03500
C  34.93500 50.95900 26.81600
C  35.71300 49.86200 22.08000
C  37.47400 45.64000 23.39100
N  35.57900 48.60900 27.12600
C  35.79700 47.75700 28.14200
C  35.45500 48.47800 29.51800
C  34.94000 49.87700 29.06200
C  35.18000 49.84600 27.55300
C  33.37200 50.11800 29.39000
C  36.68700 48.62900 30.41100
C  36.60800 48.20500 31.91500
H  35.28200 48.05000 32.45100
N  35.33100 50.15900 24.51200
C  34.94200 51.16500 25.36300
C  34.76600 52.31200 24.61700
C  34.80400 52.03900 23.18700
C  35.25000 50.63200 23.22800
C  34.66500 53.60900 25.29000
C  34.63300 53.02900 21.98600
O  34.86900 52.75000 20.78800
C  33.97500 54.44300 22.37000
N  36.31500 47.70500 22.92200
C  36.18300 48.54100 21.95100
C  37.01000 48.13800 20.66300
C  37.58300 46.75900 21.09000
C  37.21400 46.76500 22.59000
C  36.04900 48.16300 19.35500
C  39.07400 46.60800 20.97700
C  39.62800 45.28000 20.32000
N  36.73700 46.45700 25.50400
C  37.17700 45.41500 24.70000
C  37.51000 44.24500 25.50400
C  37.12200 44.61500 26.83300
C  36.64300 45.95000 26.78200
C  38.12100 42.99600 25.00900
C  36.96500 44.09600 28.19600
O  37.23900 43.01500 28.61900
C  36.38400 45.33800 29.04700
C  35.18100 44.98900 29.83400
O  34.03100 44.97000 29.42700
O  35.62700 44.67400 31.07900
C  34.76700 43.81300 31.89500
H  34.53800 51.83000 27.34200
H  35.59500 50.29100 21.08200
H  37.88900 44.75800 22.89800
H  34.66000 47.94200 30.03600
H  35.45000 50.72000 29.52800
H  33.21900 51.04100 29.95000
H  32.90000 49.34200 29.99300
H  32.82300 50.21900 28.45400
H  37.13000 49.62100 30.49800
H  37.47900 47.96500 30.06200
H  37.19500 48.75300 32.65200
H  37.06800 47.22000 31.83700
H  35.23300 53.51000 26.21500
H  33.61300 53.88100 25.37600
H  35.24800 54.38400 24.79200
H  33.13600 54.31500 23.05300
H  33.59800 54.85100 21.43200
H  34.70000 55.16300 22.75000
H  37.82600 48.86000 20.67800
H  37.10200 45.97200 20.50900
H  35.02200 48.14200 19.71800
H  36.10400 47.24300 18.77400
H  36.42800 49.07400 18.89100
H  39.50200 46.82100 21.95700
H  39.42600 47.41200 20.33200
H  39.04500 44.43600 20.69000
H  40.64000 45.04400 20.65000
H  39.65200 45.25500 19.23100
H  37.31300 42.32200 24.72300
H  38.66400 42.46600 25.79200
H  38.72700 43.20900 24.12800
H  37.10900 45.58600 29.82200
H  35.34400 43.53700 32.77800
H  34.33500 42.97200 31.35300
H  33.96400 44.48800 32.19000
Mg -12.32600 39.04600 42.25300
C  -10.54600 36.20600 41.34800
C  -9.90800 40.96600 40.83200
C  -14.36200 41.73900 42.84100
C  -15.02100 36.88400 43.10600
N  -10.56900 38.58600 40.92400
C  -10.00600 37.34600 40.81200
C  -8.71100 37.48400 39.96000
C  -8.28900 38.99700 40.15600
C  -9.63400 39.58400 40.59500
C  -7.18000 39.16000 41.23100
C  -8.96700 37.09000 38.38900
C  -7.92900 36.09700 37.78900
H  -6.72000 36.66800 37.14400
N  -12.11700 41.13000 41.97600
C  -11.02000 41.67900 41.43700
C  -11.07400 43.07700 41.67400
C  -12.39700 43.38400 42.08900
C  -13.05200 42.08900 42.31500
C  -9.88600 43.96300 41.31300
C  -12.93900 44.78700 42.25700
O  -12.26300 45.73700 41.86700
C  -14.38400 45.06200 42.83800
N  -14.37000 39.26400 43.02000
C  -14.99900 40.48000 43.02300
C  -16.47100 40.33900 43.51100
C  -16.60700 38.77700 43.78800
C  -15.29500 38.28400 43.23600
C  -16.77600 41.18500 44.76000
C  -17.88200 38.06100 43.19700
C  -18.44000 36.85000 43.95200
N  -12.70100 36.96300 42.34800
C  -13.87800 36.24300 42.67900
C  -13.61300 34.84500 42.53500
C  -12.28600 34.77000 42.16900
C  -11.78700 36.07000 42.01500
C  -14.66100 33.80400 42.76300
C  -11.22500 33.88200 41.79800
O  -11.13700 32.64700 41.85500
C  -10.01200 34.76800 41.22000
C  -8.73100 34.44500 42.07300
O  -8.48000 34.89900 43.21800
O  -7.91100 33.62400 41.40400
C  -6.84200 33.12500 42.18700
H  -8.99400 41.41000 40.43200
H  -15.03100 42.58100 43.02500
H  -15.86500 36.19700 43.20200
H  -7.96700 36.81500 40.39300
H  -8.00700 39.39700 39.18200
H  -7.42300 40.03700 41.83100
H  -6.16200 39.16100 40.84200
H  -7.33100 38.31400 41.90100
H  -8.97800 37.95000 37.71900
H  -9.95200 36.63100 38.29600
H  -8.42000 35.54100 36.99000
H  -7.55400 35.52200 38.63500
H  -10.14900 44.28100 40.30400
H  -8.96000 43.40500 41.17600
H  -9.74700 44.80900 41.98600
H  -14.98800 44.56600 42.07900
H  -14.58400 46.13300 42.86800
H  -14.47400 44.55700 43.80000
H  -17.05300 40.66800 42.65000
H  -16.47900 38.35600 44.78600
H  -16.81500 42.23100 44.45400
H  -15.98400 41.11400 45.50400
H  -17.67200 40.75400 45.20600
H  -17.52800 37.76800 42.20900
H  -18.77600 38.63400 42.95100
H  -19.47400 36.71200 43.63500
H  -18.49000 36.99700 45.03100
H  -17.99700 35.90000 43.65400
H  -14.41900 32.81100 42.38300
H  -15.50500 34.24800 42.23500
H  -14.76300 33.67700 43.84100
H  -9.95900 34.63200 40.13900
H  -7.25100 32.78900 43.14000
H  -5.98300 33.77100 42.37300
H  -6.55000 32.17000 41.75200

