158

Mg 7.07100 54.05700 39.62300
C  6.40000 50.60900 39.53800
C  10.27600 53.42800 38.55200
C  7.63800 57.36700 39.42600
C  3.68200 54.61200 40.02300
N  8.10500 52.21100 39.08700
C  7.71300 50.89500 39.14100
C  8.82100 49.87500 38.81700
C  10.13500 50.86800 38.81100
C  9.47300 52.23300 38.80700
C  10.94300 50.74300 40.06600
C  8.72800 49.15800 37.39400
C  8.35700 50.02400 36.19400
H  7.20400 49.52000 35.26500
N  8.72300 55.25800 38.95200
C  10.00800 54.80700 38.64000
C  10.92400 55.90900 38.44400
C  10.20900 57.05900 38.83400
C  8.79500 56.63100 39.03600
C  12.37100 55.73700 38.08000
C  10.71500 58.43700 39.03000
O  11.92200 58.73100 38.87500
C  9.80600 59.58400 39.21900
N  5.70400 55.74800 39.53300
C  6.23400 57.03100 39.50900
C  5.14100 58.05600 39.73700
C  3.79600 57.16700 39.95800
C  4.39000 55.77000 39.77900
C  5.39100 59.14200 40.79900
C  2.60400 57.44500 38.99900
C  1.52900 58.33100 39.66100
N  5.36300 52.85300 39.80900
C  4.07100 53.23600 40.00900
C  3.23500 52.06300 40.23000
C  4.14600 51.04400 40.14600
C  5.43000 51.55000 39.85500
C  1.68800 52.06700 40.44200
C  4.21700 49.56600 40.22400
O  3.37400 48.75000 40.65500
C  5.69500 49.21500 39.83100
C  5.72300 48.32700 38.65800
O  5.10700 48.46800 37.58700
O  6.36700 47.23200 39.04300
C  6.25900 46.07400 38.10700
H  11.32200 53.16000 38.39100
H  7.75200 58.44400 39.56500
H  2.62500 54.72500 40.27400
H  8.74500 49.18700 39.65900
H  10.64500 50.71600 37.86000
H  11.18800 51.73600 40.44200
H  11.86400 50.22200 39.80500
H  10.41000 50.18500 40.83500
H  8.13900 48.24300 37.32800
H  9.77300 48.86800 37.28900
H  9.18100 50.19400 35.50100
H  7.94300 50.96200 36.56500
H  12.91600 56.19400 38.90600
H  12.65700 56.22200 37.14700
H  12.68600 54.69600 38.15000
H  10.43600 60.46300 39.08000
H  9.47400 59.55500 40.25700
H  9.09500 59.56100 38.39400
H  5.15200 58.57400 38.77800
H  3.43600 57.14500 40.98600
H  6.42000 59.16100 41.15700
H  4.70700 59.13700 41.64800
H  5.26200 60.08200 40.26400
H  2.14800 56.48800 38.74400
H  2.98200 58.10100 38.21600
H  0.55800 57.83500 39.68900
H  1.34000 59.09800 38.91000
H  1.87400 58.81500 40.57400
H  1.29000 53.05900 40.65600
H  1.47900 51.46800 41.32900
H  1.24100 51.68100 39.52600
H  5.99000 48.73700 40.76600
H  6.96600 46.18600 37.28400
H  5.23400 45.89900 37.77900
H  6.57400 45.20400 38.68400
Mg -11.35600 15.79900 42.09500
C  -8.30900 14.11000 41.39200
C  -10.07800 18.55700 40.22300
C  -14.54100 17.15400 41.98200
C  -12.67000 12.81400 43.03800
N  -9.39800 16.32200 41.03100
C  -8.30300 15.41900 40.91700
C  -7.07600 16.08500 40.16200
C  -7.63800 17.55300 39.94800
C  -9.11100 17.51800 40.43000
C  -6.91100 18.69900 40.69400
C  -6.72900 15.33700 38.81400
C  -5.40200 14.64000 38.69100
H  -4.46200 15.30700 37.68200
N  -12.11000 17.78100 41.46600
C  -11.38900 18.66500 40.62100
C  -12.31700 19.79400 40.33500
C  -13.59300 19.42100 40.96800
C  -13.44900 18.02500 41.47800
C  -11.96000 21.10400 39.63300
C  -14.75500 20.37300 40.99500
O  -14.80200 21.50600 40.36900
C  -15.97700 19.95300 41.72700
N  -13.27700 15.10500 42.22400
C  -14.44100 15.83800 42.34600
C  -15.62700 14.98000 42.52500
C  -15.03000 13.66700 43.01500
C  -13.50800 13.87800 42.75900
C  -16.92700 15.44800 43.32200
C  -15.56600 12.29700 42.28900
C  -16.29700 11.30900 43.25000
N  -10.62900 13.87100 42.42600
C  -11.29300 12.80400 42.90900
C  -10.38600 11.65100 43.06100
C  -9.15500 12.11500 42.52100
C  -9.42800 13.49400 42.13900
C  -10.69300 10.33300 43.63000
C  -7.86700 11.76800 42.06700
O  -7.41600 10.62700 41.83400
C  -7.22900 13.05100 41.47200
C  -6.21000 13.52000 42.46900
O  -6.35100 13.79600 43.63400
O  -4.95700 13.62400 41.83500
C  -3.75100 13.96800 42.65500
H  -9.64000 19.41800 39.71400
H  -15.55300 17.54500 41.85600
H  -13.12900 11.89300 43.40200
H  -6.20000 16.11500 40.81000
H  -7.61700 17.71200 38.87000
H  -6.89700 19.60300 40.08500
H  -5.86200 18.43100 40.82300
H  -7.37100 18.91400 41.65800
H  -6.66700 16.00300 37.95300
H  -7.56600 14.65200 38.68100
H  -5.60300 13.65300 38.27600
H  -5.01100 14.61000 39.70800
H  -11.17800 20.95300 38.88900
H  -11.77400 21.90300 40.35100
H  -12.79000 21.46000 39.02200
H  -15.78600 19.53200 42.71400
H  -16.54400 19.30700 41.05700
H  -16.53300 20.88600 41.81600
H  -16.01600 14.83900 41.51700
H  -15.10700 13.51900 44.09200
H  -16.94600 15.00300 44.31700
H  -17.81500 15.16000 42.76100
H  -16.99200 16.53300 43.40300
H  -14.71200 11.77400 41.85800
H  -16.31300 12.50800 41.52400
H  -17.28200 11.03900 42.86800
H  -16.38200 11.75400 44.24100
H  -15.67400 10.41500 43.26000
H  -9.83200 9.72600 43.91100
H  -11.28600 9.88900 42.83100
H  -11.25500 10.35100 44.56300
H  -6.63600 12.88000 40.57300
H  -4.00000 14.46300 43.59300
H  -3.17300 14.62700 42.00800
H  -3.14500 13.07900 42.83000

