158

Mg -1.42800 7.92500 26.91400
C  -0.37100 9.59000 29.78100
C  -1.82200 5.05700 28.72500
C  -1.87400 6.26700 23.98200
C  -0.64000 10.93100 25.03900
N  -1.08800 7.40300 28.99900
C  -0.81600 8.23300 30.01000
C  -0.88400 7.58200 31.39400
C  -1.03000 6.03800 30.93700
C  -1.39300 6.18900 29.47300
C  0.31100 5.21800 31.02300
C  -2.03000 8.16900 32.21000
C  -2.07600 7.79400 33.72100
H  -0.77300 7.35500 34.41900
N  -1.94600 5.94800 26.45300
C  -2.13400 4.92900 27.37900
C  -2.70200 3.80000 26.65800
C  -2.53100 4.04700 25.23000
C  -2.12700 5.50200 25.16500
C  -3.42400 2.65400 27.41200
C  -2.65100 3.16000 24.04600
O  -2.52700 3.58900 22.91300
C  -3.07100 1.67800 24.26000
N  -1.10500 8.51100 24.83700
C  -1.34400 7.59200 23.85400
C  -1.37000 8.18800 22.47200
C  -1.26000 9.77800 22.86000
C  -1.00500 9.79500 24.29800
C  -0.13500 7.68400 21.67100
C  -2.61800 10.48200 22.55500
C  -2.96400 10.69200 21.04400
N  -0.57200 9.84500 27.25500
C  -0.37700 10.96900 26.41200
C  0.06800 12.06000 27.22500
C  0.13000 11.65000 28.55100
C  -0.31600 10.30500 28.54200
C  0.49800 13.44800 26.76600
C  0.40300 11.96600 29.93200
O  0.90500 12.95400 30.40000
C  0.01900 10.65500 30.76500
C  1.21600 10.31900 31.71500
O  2.18200 9.66500 31.41300
O  1.01900 10.89600 32.88500
C  2.03200 10.88400 33.89700
H  -2.10300 4.18200 29.31500
H  -1.97600 5.75100 23.02500
H  -0.51200 11.84800 24.46000
H  0.04100 7.82600 31.91500
H  -1.79500 5.46300 31.45900
H  1.05600 5.74100 31.62300
H  0.76500 5.04700 30.04700
H  0.15900 4.28200 31.56000
H  -2.94900 7.76700 31.78300
H  -2.07900 9.25200 32.10200
H  -2.91600 7.10500 33.81200
H  -2.28000 8.70200 34.28800
H  -4.41700 2.53700 26.97900
H  -3.61600 2.91900 28.45100
H  -2.86000 1.72800 27.30100
H  -2.38100 1.32500 25.02700
H  -3.11300 1.13800 23.31400
H  -4.10600 1.74500 24.59300
H  -2.35900 7.98300 22.06200
H  -0.43700 10.35900 22.44300
H  0.15200 6.74700 22.14800
H  0.67500 8.39300 21.84500
H  -0.38700 7.57100 20.61700
H  -2.55000 11.50700 22.92000
H  -3.47400 10.00000 23.02800
H  -2.17000 10.41000 20.35300
H  -3.09900 11.76400 20.90200
H  -3.85400 10.27500 20.57300
H  0.71200 13.30300 25.70700
H  1.32700 13.90800 27.30500
H  -0.36500 14.10000 26.90200
H  -0.74400 10.96400 31.48000
H  2.26000 11.87300 34.29600
H  2.96200 10.45500 33.52600
H  1.69400 10.27800 34.73700
Mg 47.72500 16.09700 27.28500
C  45.90600 16.48400 30.22700
C  50.22800 17.85500 28.97200
C  49.23200 16.50800 24.42900
C  44.72400 15.00900 25.71500
N  47.98900 17.24100 29.38500
C  47.12600 17.04700 30.40800
C  47.69800 17.64900 31.73900
C  49.02200 18.31800 31.19800
C  49.08200 17.79900 29.76200
C  49.20100 19.78500 31.43100
C  48.01700 16.50300 32.78300
C  48.18500 16.99400 34.26400
H  47.83000 18.46800 34.62600
N  49.62600 16.88800 26.78500
C  50.51900 17.53400 27.58000
C  51.68400 17.88500 26.80800
C  51.40800 17.56200 25.46100
C  50.02900 16.96100 25.48800
C  52.86900 18.56200 27.38600
C  52.16300 17.73600 24.07000
O  51.75100 17.31100 22.97700
C  53.39300 18.55600 24.01100
N  47.02000 15.74800 25.31700
C  47.91800 15.96400 24.33600
C  47.29000 15.57700 22.96600
C  45.84200 14.99400 23.34200
C  45.84500 15.18500 24.86700
C  47.20700 16.76000 21.98800
C  45.55000 13.59100 22.80600
C  45.90300 12.34100 23.69400
N  45.80000 15.74300 27.78600
C  44.65300 15.27300 27.09500
C  43.56000 14.99800 27.98100
C  44.03200 15.44000 29.17500
C  45.37100 15.95200 29.02900
C  42.13700 14.48500 27.66000
C  43.63000 15.62800 30.56500
O  42.53500 15.42900 31.09300
C  44.89500 16.27900 31.38100
C  44.32300 17.36300 32.20300
O  44.26300 18.50200 31.83300
O  43.97700 16.95000 33.48700
C  43.47100 18.04200 34.29600
H  51.09100 18.25700 29.50700
H  49.74600 16.46700 23.46700
H  43.83800 14.54600 25.27700
H  47.00000 18.41200 32.08000
H  49.88700 17.91300 31.72400
H  48.20800 20.16400 31.67100
H  49.61700 20.39100 30.62600
H  49.80100 20.05900 32.29800
H  48.93600 15.98200 32.51700
H  47.22600 15.75300 32.79400
H  49.16600 16.80400 34.69900
H  47.59900 16.28300 34.84600
H  52.97000 19.60500 27.08600
H  53.77000 17.98700 27.17000
H  52.94700 18.70100 28.46500
H  53.95400 18.43300 23.08500
H  54.09500 18.43700 24.83600
H  53.03500 19.57900 23.89000
H  47.99000 14.85900 22.53800
H  45.12500 15.74700 23.01400
H  47.63900 17.63100 22.48000
H  46.22500 16.90100 21.53800
H  47.95300 16.47600 21.24500
H  46.06800 13.59900 21.84700
H  44.49500 13.50700 22.54500
H  46.37300 11.62300 23.02200
H  44.93500 11.94000 23.99500
H  46.52500 12.63900 24.53900
H  41.41000 15.21800 27.30800
H  41.76500 14.03300 28.58000
H  42.09400 13.64500 26.96700
H  45.01300 15.40900 32.02700
H  42.66100 18.65100 33.89500
H  44.19500 18.78300 34.63400
H  43.18600 17.55900 35.23100

