158

Mg 8.07600 2.91000 27.45300
C  9.49200 1.35500 30.26500
C  6.27100 5.01900 29.45900
C  6.73800 4.11100 24.71900
C  9.70400 0.34000 25.49500
N  7.66200 2.96600 29.70900
C  8.59500 2.42900 30.58700
C  8.37100 3.08800 32.00000
C  7.01000 3.95900 31.77300
C  7.00800 4.06300 30.19500
C  5.72700 3.53700 32.48100
C  9.51200 3.84800 32.67500
C  9.93100 3.36300 34.09900
H  10.40900 4.39000 35.17800
N  6.80800 4.50700 27.11000
C  6.15000 5.30600 28.07900
C  5.42800 6.35300 27.42100
C  5.44100 6.03100 26.05800
C  6.40100 4.86700 25.88900
C  4.80200 7.57000 28.11100
C  4.80600 6.67100 24.91300
O  4.92900 6.19200 23.80900
C  4.00800 7.95700 25.06600
N  8.09700 2.13400 25.48400
C  7.43900 2.90300 24.51300
C  7.68600 2.40300 23.10600
C  8.86000 1.30200 23.36500
C  8.88000 1.29000 24.89800
C  6.38300 1.88800 22.47100
C  10.24500 1.60700 22.73200
C  10.85700 0.51400 21.84400
N  9.11800 1.01700 27.78000
C  9.79800 0.18500 26.88200
C  10.65900 -0.74800 27.66000
C  10.59400 -0.28700 28.97400
C  9.61400 0.73500 28.98900
C  11.53400 -1.79000 27.14200
C  11.12600 -0.35700 30.32400
O  12.01400 -1.07300 30.69900
C  10.43400 0.70800 31.23700
C  9.78100 -0.16700 32.29400
O  9.09200 -1.13700 32.00900
O  10.29500 0.23600 33.50400
C  9.86000 -0.56200 34.71000
H  5.79900 5.74600 30.12300
H  6.38000 4.42200 23.73500
H  10.37200 -0.30300 24.91800
H  8.14800 2.24600 32.65500
H  7.19600 4.99800 32.04400
H  5.24100 4.40300 32.93100
H  5.96800 2.72200 33.16300
H  4.97300 3.21500 31.76200
H  9.31300 4.91400 32.78300
H  10.36000 3.74500 31.99700
H  10.78600 2.70200 33.95500
H  9.09300 2.87400 34.59400
H  5.38800 8.39300 27.70300
H  4.85000 7.46700 29.19600
H  3.73700 7.55900 27.87900
H  3.51800 8.04700 24.09600
H  4.75300 8.71500 25.30900
H  3.27600 7.75000 25.84600
H  7.92200 3.29500 22.52600
H  8.50900 0.33100 23.01500
H  6.38800 2.32100 21.47100
H  5.48400 2.27300 22.95200
H  6.55100 0.81200 22.42700
H  10.93800 1.82200 23.54500
H  10.23700 2.51100 22.12300
H  11.93300 0.39900 21.97700
H  10.63700 0.70400 20.79300
H  10.40200 -0.45000 22.07000
H  12.60000 -1.69900 27.35100
H  11.49200 -1.90900 26.06000
H  11.22700 -2.74500 27.56700
H  11.25900 1.31600 31.60900
H  9.45800 -1.56400 34.55600
H  9.44700 0.21500 35.35300
H  10.80900 -0.76800 35.20500
Mg 17.28700 -2.43800 27.49800
C  16.00800 -0.44000 30.10400
C  18.99800 -4.18700 29.92800
C  18.53300 -4.40500 25.06100
C  15.42100 -0.70500 25.21700
N  17.60500 -2.16000 29.71600
C  16.82100 -1.38700 30.56500
C  17.29400 -1.54500 32.10000
C  18.25800 -2.82700 32.07300
C  18.32900 -3.10600 30.46500
C  19.56900 -2.58300 32.85700
C  16.10200 -1.68100 33.08900
C  16.13200 -0.97100 34.43100
H  17.48900 -0.43500 35.03600
N  18.56800 -4.11900 27.49500
C  19.21700 -4.67400 28.61900
C  19.92600 -5.90200 28.19500
C  19.75800 -6.02400 26.82500
C  18.92900 -4.77600 26.37100
C  20.65500 -6.90000 29.14000
C  20.24500 -7.10300 25.81400
O  19.81900 -7.05300 24.64200
C  21.15500 -8.18900 26.30200
N  17.01300 -2.54400 25.39600
C  17.73700 -3.34600 24.65000
C  17.50600 -3.05700 23.19100
C  16.35000 -2.01300 23.19900
C  16.18700 -1.77100 24.70100
C  18.86700 -2.61600 22.45400
C  14.99500 -2.40500 22.50200
C  13.67800 -2.69600 23.32900
N  15.89700 -0.91800 27.57900
C  15.23000 -0.27800 26.56600
C  14.37300 0.76700 27.11400
C  14.72400 0.78200 28.49100
C  15.64800 -0.23600 28.71300
C  13.22300 1.59000 26.46900
C  14.40400 1.42000 29.73400
O  13.57300 2.24700 30.05900
C  15.24700 0.66700 30.85200
C  16.05300 1.61800 31.58800
O  16.90800 2.36000 31.08200
O  15.52000 1.81000 32.80800
C  15.99000 3.07700 33.44200
H  19.46000 -4.81100 30.69600
H  18.74600 -5.11700 24.26100
H  14.79900 -0.21900 24.46200
H  17.86300 -0.62600 32.23700
H  17.84600 -3.70400 32.57300
H  19.88900 -1.54500 32.77700
H  20.36100 -3.22900 32.48000
H  19.31100 -2.94400 33.85300
H  16.16100 -2.71200 33.43800
H  15.21400 -1.51200 32.48000
H  15.72900 -1.59300 35.23100
H  15.39700 -0.17600 34.30700
H  20.32000 -7.92600 28.98200
H  20.37800 -6.62100 30.15700
H  21.72800 -6.92200 28.95000
H  21.95800 -7.83000 26.94500
H  21.61500 -8.79000 25.51700
H  20.64200 -8.86600 26.98600
H  17.02700 -3.92900 22.74700
H  16.73300 -1.10200 22.74000
H  19.67700 -2.93500 23.11000
H  18.96900 -1.53100 22.44500
H  18.97900 -3.27300 21.59200
H  15.21200 -3.28100 21.89000
H  14.75700 -1.63000 21.77400
H  13.06400 -1.80100 23.23200
H  13.89200 -2.88700 24.38000
H  13.12100 -3.50700 22.85800
H  12.49100 1.39400 27.25100
H  12.96100 1.09100 25.53600
H  13.40000 2.63600 26.21600
H  14.50700 0.22400 31.51900
H  15.81000 3.84300 32.68800
H  17.04300 2.92700 33.67800
H  15.46200 3.46900 34.31100

