158

Mg 24.16200 -4.72100 45.70400
C  26.29600 -2.50100 44.17900
C  21.54900 -3.49400 43.77800
C  22.39500 -7.63400 46.22700
C  26.95600 -6.11100 47.27700
N  23.98900 -3.27800 44.16900
C  24.97700 -2.43000 43.73300
C  24.50100 -1.48000 42.63600
C  22.97600 -1.56700 42.81700
C  22.81300 -2.88000 43.61900
C  22.35300 -0.37400 43.53000
C  25.12700 -2.02900 41.17200
C  26.09200 -0.96900 40.46500
H  26.09200 -0.84900 38.91300
N  22.21000 -5.38200 45.27100
C  21.26500 -4.66700 44.58400
C  20.07700 -5.48900 44.45500
C  20.26100 -6.69900 45.18100
C  21.64700 -6.59700 45.63000
C  18.87300 -5.03700 43.68600
C  19.25500 -7.86700 45.29900
O  18.13400 -7.80300 44.82800
C  19.48700 -9.01200 46.28900
N  24.50500 -6.49000 46.80300
C  23.66300 -7.56400 46.81300
C  24.20900 -8.73600 47.71500
C  25.70800 -8.24500 47.97300
C  25.76500 -6.91200 47.27300
C  23.40900 -9.07500 49.03000
C  26.76200 -9.24400 47.41000
C  27.81900 -9.85500 48.40500
N  26.26600 -4.36100 45.80500
C  27.26200 -4.97100 46.51800
C  28.52200 -4.30300 46.38200
C  28.20600 -3.29600 45.37100
C  26.80700 -3.42200 45.07900
C  29.77200 -4.75700 47.00000
C  28.73600 -2.29200 44.55100
O  29.85000 -1.86300 44.46500
C  27.53000 -1.63000 43.82900
C  27.39100 -0.15200 44.09500
O  26.85600 0.35100 45.08700
O  27.92700 0.56000 43.09200
C  27.71300 2.04900 43.15000
H  20.75000 -3.15500 43.11600
H  21.91700 -8.60600 46.36300
H  27.71900 -6.53600 47.93200
H  24.91100 -0.52200 42.95700
H  22.47000 -1.67600 41.85700
H  23.13700 0.36100 43.71100
H  21.80800 -0.72800 44.40600
H  21.72000 0.03200 42.74000
H  24.38800 -2.39700 40.46000
H  25.75000 -2.90000 41.37600
H  27.12900 -1.06500 40.78900
H  25.68500 0.01300 40.70700
H  18.01500 -5.13000 44.35200
H  18.79700 -5.62200 42.76900
H  18.91100 -4.00500 43.33500
H  18.58000 -9.56400 46.53400
H  19.96100 -8.69500 47.21800
H  20.14000 -9.68100 45.72900
H  24.18700 -9.62900 47.09100
H  25.85500 -8.11600 49.04500
H  22.96900 -8.14000 49.37500
H  24.19600 -9.45600 49.68100
H  22.65500 -9.83600 48.82800
H  27.38000 -8.78300 46.63900
H  26.38400 -10.16500 46.96700
H  27.50700 -9.66000 49.43100
H  28.69400 -9.21200 48.30500
H  27.96900 -10.91000 48.17500
H  29.66500 -4.50100 48.05400
H  30.65300 -4.22900 46.63500
H  29.98600 -5.81000 46.81700
H  27.62900 -1.58300 42.74400
H  27.25500 2.48200 44.03900
H  27.04300 2.24800 42.31500
H  28.66100 2.47000 42.81300
Mg 48.99100 46.59500 42.03800
C  45.94300 47.14700 40.48700
C  49.15600 43.46300 40.35900
C  52.37100 46.48400 42.50000
C  49.07800 50.04400 42.69800
N  47.67200 45.49300 40.60000
C  46.51100 45.94900 40.13800
C  45.99700 44.92400 39.05500
C  46.83900 43.64100 39.29900
C  47.98000 44.18800 40.13200
C  46.26400 42.28400 39.75200
C  46.16700 45.44500 37.60600
C  45.05300 45.12700 36.60200
H  45.28700 44.91700 35.09300
N  50.51900 45.08700 41.72700
C  50.39000 43.93700 41.06200
C  51.55600 43.13800 41.34900
C  52.52000 43.93600 41.87300
C  51.85500 45.24000 42.05800
C  51.66300 41.66100 40.85000
C  53.92300 43.41600 42.33300
O  54.35800 42.25200 42.28700
C  55.00500 44.48300 42.90600
N  50.49200 48.09500 42.42700
C  51.77400 47.76000 42.60000
C  52.59600 48.95800 43.18700
C  51.59800 50.12300 43.06400
C  50.28400 49.40000 42.83500
C  53.04000 48.60600 44.66400
C  51.95400 51.07600 41.87000
C  52.27600 52.52100 42.29300
N  47.68500 48.22400 41.90200
C  47.84400 49.53200 42.22700
C  46.60000 50.25500 42.05800
C  45.87200 49.33900 41.22800
C  46.61200 48.14700 41.19500
C  46.28700 51.64100 42.41700
C  44.62600 49.21500 40.49600
O  43.73900 50.01800 40.23100
C  44.66600 47.65200 39.95900
C  43.40100 46.92500 40.46100
O  43.24300 46.22000 41.45400
O  42.34700 47.31700 39.66600
C  41.15700 46.49200 39.95100
H  49.22400 42.44000 39.98500
H  53.40600 46.48800 42.84600
H  49.01000 51.11000 42.92800
H  44.95700 44.71200 39.30400
H  47.34500 43.48800 38.34600
H  45.17500 42.27100 39.80200
H  46.64100 42.03400 40.74300
H  46.65300 41.52900 39.06800
H  47.13200 45.11300 37.22500
H  46.25000 46.53200 37.58900
H  44.35200 45.95800 36.67100
H  44.51600 44.27600 37.02000
H  52.55200 41.09700 41.13100
H  51.41100 41.54400 39.79600
H  50.87600 41.18000 41.43100
H  55.12700 45.36900 42.28300
H  55.95100 43.95400 43.01900
H  54.59000 44.90300 43.82200
H  53.51900 49.10400 42.62700
H  51.35400 50.60900 44.00900
H  52.56900 47.70400 45.05500
H  52.91000 49.55000 45.19300
H  54.11500 48.42400 44.63200
H  51.16500 51.19000 41.12700
H  52.88000 50.78500 41.37300
H  51.87000 53.19200 41.53600
H  53.34300 52.73000 42.36100
H  51.91500 52.68600 43.30800
H  47.03800 52.31000 41.99600
H  46.12000 51.88700 43.46500
H  45.32000 51.87400 41.97200
H  44.67700 47.75400 38.87300
H  40.96100 46.31800 41.00900
H  41.30000 45.50200 39.51800
H  40.25000 46.89100 39.49600

