158

Mg 49.21800 35.54600 27.72700
C  46.63600 34.19400 29.85400
C  49.42700 38.12500 29.96800
C  50.97400 37.20600 25.38400
C  48.21700 33.07100 25.35200
N  48.23700 35.95800 29.83700
C  47.28300 35.30500 30.49200
C  46.88100 36.06200 31.79100
C  47.60400 37.42300 31.62800
C  48.45000 37.20700 30.39000
C  46.67300 38.61100 31.56000
C  47.42000 35.38100 33.07400
C  48.64300 34.49900 33.11900
H  49.92800 35.20000 33.60400
N  50.24700 37.28800 27.72000
C  50.30200 38.15600 28.76600
C  51.22100 39.20900 28.42600
C  51.59200 39.03600 27.08400
C  50.94700 37.76400 26.63500
C  51.45200 40.44500 29.31000
C  52.26900 39.91200 26.04300
O  52.41400 39.68100 24.85700
C  52.62100 41.37000 26.47400
N  49.35600 35.26000 25.64200
C  50.25600 36.09500 24.90600
C  50.49500 35.52900 23.53600
C  49.79600 34.14200 23.54200
C  49.07100 34.12000 24.91400
C  49.93400 36.39000 22.45400
C  50.67300 32.89000 23.30100
C  50.61200 32.28400 21.86600
N  47.80500 33.94000 27.60000
C  47.57700 33.00900 26.57200
C  46.54400 32.09700 26.98500
C  46.15800 32.50900 28.27700
C  46.92700 33.63900 28.58600
C  46.02400 30.91600 26.18600
C  45.21400 32.20100 29.36600
O  44.42700 31.22400 29.47200
C  45.46600 33.36800 30.46500
C  46.04900 32.63600 31.56400
O  47.05800 31.82000 31.60500
O  45.17600 32.88100 32.58700
C  45.39900 32.14900 33.82400
H  49.63700 38.97800 30.61600
H  51.52100 37.65300 24.55100
H  47.89000 32.27200 24.68400
H  45.79500 36.11900 31.86000
H  48.28200 37.58100 32.46700
H  45.62700 38.30600 31.54900
H  46.90700 39.18000 30.66000
H  46.69200 39.23100 32.45600
H  46.66500 34.71700 33.49400
H  47.50400 36.22600 33.75800
H  48.93400 34.09900 32.14800
H  48.42600 33.67800 33.80300
H  52.50400 40.70200 29.43500
H  50.80000 40.45400 30.18400
H  51.00100 41.25700 28.74000
H  51.73300 42.00100 26.43700
H  53.38000 41.55300 25.71400
H  53.15000 41.42200 27.42500
H  51.57600 35.50500 23.40500
H  49.03400 34.10400 22.76400
H  50.69600 37.09200 22.11700
H  49.03400 36.91800 22.76700
H  49.65700 35.79400 21.58500
H  50.22400 32.20700 24.02200
H  51.71200 33.14500 23.50800
H  50.70400 31.22200 22.09700
H  51.47400 32.56800 21.26100
H  49.75700 32.59100 21.26400
H  45.28400 30.32600 26.72700
H  46.93800 30.34600 26.02200
H  45.59000 31.29900 25.26200
H  44.67400 34.10200 30.61600
H  45.64600 31.08900 33.77300
H  44.42100 32.13300 34.30400
H  46.19000 32.62900 34.40200
Mg 0.72900 42.68900 25.92700
C  2.13700 42.63800 28.97100
C  -1.99100 41.02800 27.12700
C  -0.40800 42.14900 22.71900
C  3.80000 43.72700 24.57200
N  0.14100 42.00500 27.80800
C  0.86500 42.21200 28.91200
C  0.05200 41.80700 30.14500
C  -1.33200 41.26300 29.55800
C  -1.01500 41.38900 28.03100
C  -1.75700 39.80900 30.10300
C  -0.08700 42.88200 31.20100
C  0.41500 42.45400 32.62100
H  -0.41900 42.66600 33.87600
N  -1.00400 41.84000 25.09500
C  -1.97500 41.21900 25.75800
C  -2.99700 40.81300 24.85900
C  -2.60300 41.27700 23.54500
C  -1.28100 41.72800 23.69600
C  -4.27000 40.25800 25.37300
C  -3.36500 41.06700 22.22500
O  -2.83600 41.33300 21.11400
C  -4.72100 40.38400 22.15600
N  1.57700 42.92100 23.99300
C  0.85200 42.70700 22.85900
C  1.60900 43.15100 21.58300
C  2.83900 43.88700 22.22300
C  2.78100 43.54900 23.68800
C  1.96100 42.04600 20.58100
C  2.86800 45.45500 21.92800
C  4.09500 45.85000 21.12800
N  2.66300 43.05400 26.61200
C  3.82200 43.48300 25.95700
C  4.92500 43.62800 26.92400
C  4.27400 43.30100 28.10100
C  2.92400 42.98800 27.84600
C  6.36200 43.93400 26.59400
C  4.48300 43.16500 29.55900
O  5.49800 43.38300 30.24500
C  3.10400 42.73000 30.11100
C  3.32200 41.44200 30.83700
O  3.00000 40.32800 30.44600
O  3.93900 41.68400 32.05700
C  4.20900 40.52100 32.90000
H  -2.88800 40.66700 27.63500
H  -0.68500 41.93600 21.68500
H  4.69500 44.06100 24.04400
H  0.64900 40.94300 30.43500
H  -2.23600 41.84200 29.74200
H  -1.64600 39.13100 29.25700
H  -2.79900 39.68500 30.40000
H  -1.03500 39.55100 30.87800
H  -1.07900 43.33200 31.24500
H  0.54100 43.71300 30.87800
H  1.28300 43.11300 32.64100
H  0.89500 41.47500 32.63600
H  -5.04000 41.01800 25.23800
H  -4.26500 39.92800 26.41200
H  -4.68300 39.44800 24.77200
H  -4.53600 39.37800 22.53400
H  -4.98600 40.32200 21.10000
H  -5.42700 41.05200 22.65000
H  0.89800 43.83700 21.12300
H  3.73000 43.40700 21.82100
H  1.61400 41.06300 20.89900
H  3.00900 41.95400 20.29300
H  1.26600 42.18800 19.75300
H  2.92000 46.05800 22.83500
H  2.04700 45.77600 21.28600
H  4.75000 46.39700 21.80600
H  3.89200 46.56100 20.32700
H  4.65300 45.01800 20.69800
H  6.48300 44.61500 25.75200
H  6.96800 43.04800 26.40400
H  6.89700 44.38100 27.43200
H  2.80000 43.50100 30.81800
H  5.09600 40.20200 32.35400
H  3.42700 39.76200 32.90200
H  4.46000 40.79500 33.92500

