158

Mg -2.35500 16.79600 26.31900
C  -2.65000 14.77300 29.00300
C  -2.89900 19.51600 28.29400
C  -1.85900 18.70300 23.59500
C  -2.02400 13.88600 24.22800
N  -2.53800 17.06300 28.48000
C  -2.68200 16.10500 29.40000
C  -2.85900 16.63500 30.80400
C  -2.98400 18.15700 30.56700
C  -2.85800 18.30300 29.03500
C  -4.29800 18.69800 31.23300
C  -1.68500 16.17800 31.70100
C  -1.23700 16.81100 33.02600
H  -1.02900 16.00800 34.26900
N  -2.31000 18.82500 26.01600
C  -2.66900 19.77800 26.97600
C  -2.51300 21.11800 26.44700
C  -1.98200 20.91000 25.06800
C  -2.08000 19.39000 24.81100
C  -2.96300 22.34900 27.16300
C  -1.54800 21.88600 24.02100
O  -1.51900 21.56800 22.83600
C  -1.29600 23.28800 24.40000
N  -1.84800 16.32700 24.21800
C  -1.78000 17.37200 23.33400
C  -1.65000 16.80700 21.95100
C  -1.55900 15.25300 22.11900
C  -1.93600 15.12100 23.56000
C  -2.64700 17.23100 20.91400
C  -0.18200 14.66100 21.76200
C  0.05700 14.14800 20.35200
N  -2.48400 14.78400 26.49000
C  -2.31100 13.70400 25.59000
C  -2.47600 12.46400 26.27600
C  -2.59600 12.83200 27.64500
C  -2.60400 14.19900 27.70900
C  -2.39200 11.12300 25.64300
C  -2.69700 12.31100 28.96100
O  -2.69600 11.13500 29.33800
C  -2.67600 13.47800 29.89700
C  -1.50000 13.17400 30.69400
O  -0.37600 13.27900 30.28200
O  -1.78100 12.69200 31.96900
C  -0.73000 12.11500 32.82600
H  -3.01600 20.43500 28.87300
H  -1.63600 19.32600 22.72600
H  -1.77600 13.02200 23.60800
H  -3.73000 16.12400 31.21400
H  -2.12000 18.69500 30.95700
H  -4.92900 19.22000 30.51400
H  -4.02400 19.46700 31.95500
H  -4.87800 18.00600 31.84300
H  -0.79400 15.95000 31.11600
H  -2.04300 15.20600 32.04100
H  -2.05900 17.50800 33.18800
H  -0.25700 17.28200 32.95200
H  -3.64900 22.07400 27.96400
H  -3.59000 23.04700 26.60800
H  -2.01700 22.78400 27.48600
H  -2.23200 23.72200 24.75200
H  -0.95300 23.75400 23.47500
H  -0.48400 23.44200 25.11000
H  -0.70700 17.22100 21.59600
H  -2.31300 14.71400 21.54600
H  -2.13500 17.75400 20.10600
H  -3.32500 17.97900 21.32400
H  -3.26000 16.43600 20.48900
H  0.06700 13.88900 22.49000
H  0.49700 15.51200 21.81500
H  -0.92000 14.37300 19.92400
H  0.23200 13.07200 20.35200
H  0.80100 14.83100 19.94200
H  -1.75100 10.99500 24.77100
H  -3.35400 10.73400 25.31100
H  -1.94500 10.46300 26.38600
H  -3.57400 13.49600 30.51400
H  0.10300 12.78700 33.03100
H  -0.42700 11.20500 32.30900
H  -1.07400 11.80700 33.81400
Mg 43.09800 4.46600 47.89100
C  40.97100 7.21300 48.08100
C  40.15600 2.50100 47.29900
C  44.97300 2.05400 46.86500
C  45.91500 6.71000 47.98800
N  40.82200 4.87200 47.67000
C  40.26600 6.03500 48.02100
C  38.71100 5.90300 48.00100
C  38.47000 4.39100 47.89400
C  39.90100 3.85500 47.61100
C  37.66500 3.70500 49.08500
C  37.93200 6.72700 46.89600
C  38.62800 7.16300 45.58000
H  38.25100 6.50400 44.20300
N  42.61200 2.48800 47.35500
C  41.36200 1.85700 47.24100
C  41.66700 0.49600 46.88200
C  43.03600 0.39100 46.46400
C  43.61700 1.68000 46.85400
C  40.53300 -0.56300 46.65700
C  43.79300 -0.72900 45.68400
O  43.07100 -1.60100 45.29200
C  45.27400 -0.73900 45.20600
N  45.16500 4.42300 47.39700
C  45.67600 3.23200 47.20300
C  47.22300 3.29200 47.25200
C  47.54200 4.81000 47.41000
C  46.13700 5.33400 47.70000
C  47.90100 2.41900 48.31800
C  48.26900 5.50600 46.22800
C  49.76900 5.24600 46.19800
N  43.46400 6.51700 47.98400
C  44.65500 7.34000 48.00600
C  44.29800 8.63700 48.23300
C  42.83700 8.74500 48.20000
C  42.37200 7.36200 48.07800
C  45.20100 9.83400 48.44100
C  41.72000 9.55800 48.26900
O  41.60000 10.74800 48.37300
C  40.43700 8.61200 48.19500
C  39.55800 8.80700 49.32800
O  39.64500 8.27500 50.38400
O  38.54100 9.74000 49.09500
C  37.40000 9.99000 49.97100
H  39.32400 1.84600 47.03300
H  45.64700 1.23200 46.61400
H  46.78900 7.29700 48.27800
H  38.19700 6.19500 48.91700
H  37.92200 4.23200 46.96500
H  36.85500 4.36400 49.39600
H  38.43600 3.64200 49.85200
H  37.34300 2.68100 48.89200
H  37.47700 7.57300 47.41200
H  37.11100 6.12700 46.50400
H  39.70200 7.06100 45.73600
H  38.30300 8.20400 45.55900
H  40.11300 -0.57000 45.65100
H  39.63800 -0.45300 47.26900
H  41.04200 -1.51300 46.81400
H  45.93000 -0.87100 46.06600
H  45.48400 0.24200 44.77900
H  45.54500 -1.52600 44.50100
H  47.68700 3.05200 46.29500
H  48.16800 5.00100 48.28100
H  48.43300 1.59300 47.84500
H  47.12200 2.02400 48.97000
H  48.70600 2.97000 48.80400
H  48.10000 6.58200 46.27300
H  47.88200 5.10000 45.29300
H  50.37100 6.14500 46.06400
H  50.10300 4.55100 45.42800
H  50.05700 4.71800 47.10700
H  44.69200 10.50100 47.74500
H  46.25900 9.80500 48.17700
H  45.13600 10.11800 49.49100
H  39.89200 8.93400 47.30800
H  37.57800 9.47100 50.91300
H  36.65700 9.38400 49.45100
H  37.10600 11.03400 50.08000

