158

Mg 26.17000 0.53100 28.31200
C  28.13000 0.29000 31.31300
C  23.47600 1.30000 30.33100
C  24.50700 0.89400 25.60600
C  29.00300 -0.50300 26.54900
N  25.84300 0.64000 30.61000
C  26.83500 0.75500 31.56300
C  26.17900 0.90800 32.93300
C  24.72100 1.31200 32.64900
C  24.64400 1.00900 31.10500
C  23.69600 0.67700 33.63100
C  26.86300 2.00300 33.78400
C  27.33800 1.70000 35.21500
H  27.53200 2.84900 36.26200
N  24.21300 0.90900 27.99800
C  23.26200 1.17100 28.93700
C  22.02400 1.41300 28.20000
C  22.30200 1.38800 26.83700
C  23.70600 0.90700 26.75400
C  20.67700 1.63000 28.97300
C  21.37500 1.72300 25.71000
O  21.69700 1.68500 24.50700
C  19.95800 2.11500 26.03300
N  26.70800 0.21300 26.32800
C  25.82100 0.61400 25.39100
C  26.39500 0.28000 23.99600
C  27.85300 -0.20500 24.28100
C  27.93600 -0.11800 25.85300
C  25.55500 -0.68000 23.12500
C  28.80100 0.67000 23.54600
C  29.00100 2.08300 24.05700
N  28.18500 0.00500 28.76800
C  29.17100 -0.47500 27.92500
C  30.36600 -0.81800 28.74800
C  30.00100 -0.58200 30.07100
C  28.65300 0.02500 30.04500
C  31.61600 -1.47700 28.19300
C  30.44400 -0.70800 31.46900
O  31.45500 -1.17400 31.97200
C  29.26900 -0.09100 32.29700
C  28.77900 -1.07200 33.28900
O  27.91100 -1.92300 33.08100
O  29.46900 -0.96600 34.47700
C  29.00500 -1.71100 35.59300
H  22.62200 1.69300 30.88700
H  23.96800 1.15800 24.69400
H  29.91500 -0.94300 26.14000
H  26.25500 -0.05100 33.44600
H  24.53100 2.37500 32.79600
H  22.85500 0.22400 33.10600
H  23.38600 1.39100 34.39500
H  24.25900 -0.08400 34.17100
H  26.20700 2.87300 33.81000
H  27.76300 2.37100 33.29200
H  28.37000 1.35800 35.14100
H  26.95100 0.76300 35.61600
H  20.56300 1.15400 29.94700
H  19.91700 1.07100 28.42600
H  20.31400 2.65700 28.99800
H  19.41600 1.25700 26.43000
H  19.40100 2.34200 25.12400
H  20.12000 2.94900 26.71500
H  26.39100 1.22600 23.45600
H  28.08800 -1.23100 23.99700
H  25.73000 -0.35000 22.10100
H  24.48400 -0.57700 23.30200
H  25.89300 -1.70000 23.30900
H  28.33200 0.74000 22.56500
H  29.72300 0.08800 23.56100
H  29.18200 2.74000 23.20700
H  29.83600 2.11400 24.75700
H  28.12000 2.32900 24.65000
H  31.96500 -1.26400 27.18200
H  31.43800 -2.54900 28.28500
H  32.49400 -1.18200 28.76800
H  29.69000 0.76700 32.82200
H  27.93000 -1.67300 35.76800
H  29.59600 -1.53000 36.49100
H  29.13200 -2.72700 35.22100
Mg 26.04400 50.30300 27.10700
C  24.09600 51.43400 29.84400
C  28.46200 49.32300 29.45300
C  27.95500 49.21600 24.56400
C  23.62900 51.44300 24.96300
N  26.26200 50.29300 29.40100
C  25.27000 50.83700 30.26200
C  25.63900 50.36500 31.72100
C  27.09100 49.82200 31.57400
C  27.28600 49.80900 30.05600
C  28.23500 50.51200 32.39700
C  24.52700 49.35400 32.39700
C  23.88700 49.82900 33.71100
H  24.93400 50.15800 34.87500
N  27.89000 49.47200 26.96500
C  28.77900 49.26800 28.05400
C  30.04700 48.71500 27.55500
C  29.95300 48.62500 26.08900
C  28.55000 49.07700 25.85400
C  31.11500 48.29200 28.48100
C  30.99500 48.12000 25.12900
O  30.70500 48.02900 23.92400
C  32.38700 47.73700 25.61300
N  25.90900 50.38100 25.06000
C  26.76500 49.76600 24.18900
C  26.36100 50.01300 22.68200
C  24.84600 50.22000 22.92400
C  24.70300 50.71300 24.43700
C  27.19200 51.13600 21.95000
C  23.91400 49.00400 22.61000
C  23.31200 48.09500 23.75200
N  24.32200 51.33600 27.27400
C  23.42500 51.70700 26.27800
C  22.26900 52.34100 26.85600
C  22.51600 52.28800 28.28300
C  23.76800 51.65600 28.47800
C  21.07500 52.97300 26.17100
C  21.98300 52.63200 29.59900
O  20.86500 53.10500 29.89400
C  23.00600 52.08600 30.69500
C  23.42200 53.10900 31.58900
O  24.54200 53.64900 31.58300
O  22.46400 53.33200 32.61100
C  22.82200 54.22800 33.75600
H  29.24900 48.99600 30.13500
H  28.50300 48.83800 23.69800
H  22.83200 51.54600 24.22400
H  25.64900 51.32600 32.23500
H  27.08500 48.78800 31.91800
H  28.83100 49.65200 32.70100
H  27.86200 51.00800 33.29300
H  28.90500 51.05100 31.72700
H  25.03100 48.44300 32.71800
H  23.79100 49.17000 31.61500
H  23.40300 48.97000 34.17700
H  23.16600 50.63600 33.57800
H  30.93900 47.25300 28.76200
H  31.13300 48.79800 29.44600
H  32.10100 48.32300 28.01700
H  32.80700 48.62900 26.07800
H  33.07600 47.57100 24.78500
H  32.26700 46.87000 26.26200
H  26.50700 49.05100 22.19200
H  24.41800 51.01400 22.31100
H  28.03900 51.61700 22.43900
H  26.43200 51.82900 21.58900
H  27.52300 50.57200 21.07800
H  24.28400 48.38500 21.79300
H  23.03100 49.40300 22.11100
H  23.75100 47.09800 23.70900
H  22.24500 47.95300 23.58400
H  23.43900 48.46300 24.77000
H  21.02100 52.54500 25.17000
H  21.12300 54.06100 26.21700
H  20.17400 52.66300 26.70000
H  22.42800 51.48400 31.39600
H  22.61800 55.27900 33.54900
H  23.89200 54.14400 33.94700
H  22.13400 54.04800 34.58200

