158

Mg 40.09400 8.27600 29.85600
C  41.91300 9.85200 32.53100
C  38.02800 7.05300 32.20700
C  38.41400 6.72200 27.44800
C  42.57100 9.29100 27.67800
N  40.07400 8.35100 32.05100
C  40.77000 9.17300 32.94600
C  40.22300 9.07900 34.37000
C  39.12400 8.06600 34.20200
C  39.08400 7.79200 32.76000
C  39.32800 6.81700 35.16000
C  39.61300 10.44200 34.82700
C  38.99400 10.63200 36.21400
H  39.73500 11.44600 37.24500
N  38.34100 7.08600 29.82200
C  37.66400 6.69400 30.91400
C  36.57200 5.88900 30.51500
C  36.63300 5.75800 29.07900
C  37.82900 6.51400 28.74300
C  35.54500 5.40900 31.46800
C  35.69200 5.00800 28.11700
O  35.85100 4.80500 26.91700
C  34.49800 4.40400 28.71400
N  40.37300 8.06400 27.83900
C  39.54900 7.42900 27.01800
C  40.00700 7.40400 25.57100
C  41.13600 8.52000 25.60400
C  41.37000 8.64000 27.13300
C  40.47200 6.00300 25.01300
C  40.63100 9.83600 24.86100
C  39.60800 10.79700 25.49100
N  41.94500 9.23500 30.01400
C  42.83800 9.62400 29.02200
C  43.90600 10.35200 29.61400
C  43.55800 10.45400 30.99500
C  42.39500 9.72000 31.21000
C  45.11200 10.80800 28.96000
C  43.95900 11.07700 32.23200
O  44.91200 11.87000 32.48500
C  42.89200 10.76600 33.25900
C  43.35600 10.10100 34.46800
O  44.04400 9.09000 34.39700
O  43.06800 10.90100 35.56800
C  43.66200 10.39900 36.81700
H  37.32800 6.80300 33.00800
H  37.74500 6.31500 26.68700
H  43.26200 9.67700 26.92600
H  40.94600 8.71400 35.10000
H  38.12800 8.46800 34.38600
H  40.39500 6.66600 35.32500
H  39.06100 5.83200 34.77700
H  38.71400 6.85800 36.06000
H  39.07400 10.95300 34.02900
H  40.53300 11.01800 34.92600
H  38.65000 9.70000 36.66300
H  38.08300 11.12800 35.87900
H  34.67000 6.05500 31.41500
H  36.00500 5.41800 32.45700
H  35.34300 4.35400 31.28000
H  34.64300 3.52000 29.33500
H  33.74700 4.05700 28.00500
H  33.99200 5.06600 29.41700
H  39.16800 7.71200 24.94700
H  42.04000 8.17200 25.10500
H  40.77400 5.31500 25.80200
H  41.28700 6.11100 24.29700
H  39.58400 5.60300 24.52300
H  40.30000 9.59100 23.85100
H  41.46100 10.53700 24.94400
H  39.23800 10.15600 26.29200
H  38.70400 11.16000 25.00000
H  39.90100 11.65100 26.10200
H  45.48000 11.73400 29.40200
H  44.92600 11.00100 27.90400
H  45.95400 10.12000 29.02800
H  42.46500 11.75300 33.43500
H  43.68300 11.13800 37.61700
H  44.70000 10.08300 36.70700
H  43.09200 9.53500 37.15700
Mg 6.41400 53.86600 40.86500
C  5.95400 50.47500 40.88200
C  9.54200 53.47400 39.61600
C  6.63100 57.42000 40.56700
C  3.04500 54.32500 41.76500
N  7.48100 52.06800 39.93400
C  7.18000 50.76900 40.22500
C  8.31700 49.79600 39.79000
C  9.57200 50.80600 39.75600
C  8.84800 52.22700 39.84800
C  10.71400 50.61400 40.81600
C  8.11700 49.08000 38.46400
C  7.51600 49.87200 37.30800
H  6.77600 49.08400 36.10300
N  7.83900 55.21300 40.18700
C  9.07100 54.83700 39.76200
C  9.92000 55.99400 39.58000
C  9.12900 57.12500 39.98300
C  7.79000 56.58500 40.27400
C  11.31900 55.91600 39.13400
C  9.66500 58.57000 39.99400
O  10.80000 58.80500 39.63600
C  8.90600 59.76000 40.48000
N  5.04700 55.69800 41.18800
C  5.34800 57.00400 40.94700
C  4.11800 57.92200 41.05600
C  2.99000 56.86000 41.28500
C  3.71600 55.55300 41.56600
C  4.27500 59.12600 42.11600
C  2.00600 56.83400 40.05000
C  1.27800 58.20000 39.73100
N  4.87200 52.70800 41.33100
C  3.57800 53.01100 41.74900
C  2.88700 51.80700 42.07100
C  3.85400 50.79600 41.85300
C  5.03300 51.34700 41.35700
C  1.50200 51.60900 42.69400
C  4.07600 49.36400 41.95500
O  3.38700 48.48400 42.41500
C  5.42600 49.15500 41.23300
C  5.12500 48.22000 40.09400
O  4.62200 48.63200 39.05500
O  5.30100 46.88100 40.48200
C  4.98700 46.07800 39.33200
H  10.62300 53.34400 39.53500
H  6.67400 58.47700 40.30000
H  2.01300 54.39800 42.11300
H  8.30600 49.07100 40.60400
H  10.14200 50.62800 38.84400
H  11.62000 50.33700 40.27800
H  10.30100 49.82000 41.43800
H  11.02200 51.42300 41.47900
H  7.37500 48.31700 38.69700
H  9.12000 48.79400 38.14500
H  8.27200 50.49100 36.82500
H  6.74500 50.50700 37.74400
H  11.30300 56.49300 38.21000
H  11.79300 54.97300 38.86400
H  11.97600 56.51600 39.76500
H  8.42700 59.49800 41.42400
H  8.22500 59.81800 39.63100
H  9.56800 60.61400 40.62400
H  3.97700 58.40400 40.08900
H  2.48600 57.18100 42.19600
H  5.25700 59.59700 42.07300
H  4.13900 58.71600 43.11700
H  3.64400 59.98800 41.90000
H  1.18400 56.17300 40.32100
H  2.57200 56.40300 39.22400
H  1.46200 58.43200 38.68200
H  1.53700 59.04200 40.37300
H  0.21100 58.04300 39.88200
H  0.97300 52.55600 42.78900
H  1.56500 51.15600 43.68400
H  0.92100 50.93400 42.06500
H  6.00400 48.61200 41.98000
H  5.50700 46.43100 38.44100
H  3.90700 45.94900 39.25800
H  5.50100 45.14700 39.57200

