158

Mg 1.58700 8.56200 27.68800
C  2.00100 10.89100 30.37500
C  1.28700 6.02200 30.19900
C  0.94600 6.57600 25.27200
C  1.38400 11.29600 25.58100
N  1.84500 8.50800 30.01200
C  1.89900 9.57900 30.96800
C  1.68200 9.10100 32.37900
C  1.77400 7.51500 32.25500
C  1.57200 7.32000 30.73000
C  3.03200 6.81300 32.71100
C  0.29500 9.76600 32.87800
C  0.01700 9.60100 34.42900
H  1.05000 8.92700 35.23500
N  1.31100 6.56400 27.67900
C  1.17700 5.70700 28.82000
C  0.83200 4.35500 28.29100
C  0.74100 4.46300 26.89100
C  0.98400 5.91100 26.50900
C  0.71900 3.12000 29.18000
C  0.51300 3.29100 25.87300
O  0.67300 3.49200 24.65000
C  0.09900 2.00200 26.26400
N  1.30100 8.91200 25.68100
C  1.03500 7.87500 24.87300
C  1.04000 8.29600 23.38300
C  0.77900 9.84600 23.54500
C  1.18900 10.03500 24.98900
C  2.32400 7.89500 22.59100
C  -0.65300 10.29700 23.27900
C  -0.80600 11.45000 22.32900
N  1.88000 10.64800 27.85900
C  1.75500 11.62200 26.88500
C  2.05700 12.92300 27.41200
C  2.13700 12.67200 28.80700
C  2.01800 11.23500 29.02300
C  1.80000 14.22700 26.72200
C  2.32700 13.34100 30.02800
O  2.57700 14.48700 30.32000
C  2.05400 12.20700 31.13300
C  3.01900 12.21700 32.27700
O  4.21100 11.98500 32.27200
O  2.38500 12.52700 33.38300
C  3.19600 12.40600 34.62200
H  1.20900 5.21000 30.92500
H  0.83400 5.91900 24.40700
H  1.20700 12.21000 25.01200
H  2.63000 9.50700 32.73100
H  0.89100 7.04500 32.68800
H  2.96000 5.95400 33.37900
H  3.65600 7.42300 33.36500
H  3.67900 6.42800 31.92300
H  -0.58400 9.38100 32.36200
H  0.27500 10.84000 32.69000
H  -0.90200 9.01600 34.47100
H  -0.26800 10.60200 34.75200
H  1.10100 3.32600 30.18000
H  1.28000 2.21900 28.93600
H  -0.30600 2.74900 29.19300
H  0.97500 1.36900 26.40600
H  -0.40700 1.63500 25.37200
H  -0.63100 1.96800 27.07200
H  0.22800 7.85400 22.80500
H  1.46500 10.29900 22.82900
H  2.54600 8.71100 21.90500
H  2.16500 6.94500 22.08100
H  3.11300 7.76300 23.33200
H  -0.95500 10.60300 24.28100
H  -1.35400 9.53300 22.94300
H  -1.06400 11.09700 21.33000
H  0.08700 12.07300 22.30000
H  -1.69800 11.94800 22.71000
H  0.96800 14.24900 26.01800
H  2.72100 14.43800 26.17800
H  1.56000 14.92200 27.52600
H  1.05900 12.41600 31.52500
H  3.83600 13.28700 34.67600
H  3.83100 11.52900 34.74300
H  2.45400 12.46100 35.41900
Mg 17.39600 -1.13100 28.11300
C  16.20000 0.81100 30.80700
C  19.18000 -2.95200 30.38100
C  18.85900 -2.73900 25.57400
C  15.82800 1.06300 25.91300
N  17.61800 -0.98600 30.24700
C  17.02000 -0.25800 31.18400
C  17.52500 -0.50100 32.61600
C  18.60300 -1.54300 32.33700
C  18.44800 -1.85700 30.86300
C  20.10400 -1.31800 32.74000
C  16.43100 -0.98800 33.55500
C  16.72200 -0.52100 35.00600
H  18.09400 0.10400 35.39400
N  18.67500 -2.68600 28.00000
C  19.22500 -3.35000 29.01000
C  19.87700 -4.49100 28.53300
C  19.72100 -4.52100 27.09800
C  19.02100 -3.26600 26.83200
C  20.56400 -5.58500 29.51500
C  20.24100 -5.52500 26.08500
O  20.09500 -5.38200 24.88200
C  21.01300 -6.81600 26.61000
N  17.53100 -0.78300 26.02000
C  18.07600 -1.68100 25.17100
C  17.82800 -1.28100 23.71000
C  16.80300 -0.06400 23.82300
C  16.82300 0.18400 25.36400
C  19.10100 -1.03200 22.90700
C  15.43100 -0.24400 23.11300
C  14.13700 -0.79700 23.80400
N  16.18300 0.58700 28.27800
C  15.58200 1.31800 27.26700
C  14.83200 2.36500 27.89200
C  14.97100 2.22800 29.23600
C  15.86700 1.15200 29.45200
C  14.14800 3.49800 27.23400
C  14.58900 2.78200 30.54800
O  13.84900 3.73900 30.87000
C  15.55200 1.95600 31.62200
C  16.54900 2.80400 32.30500
O  17.73500 2.60100 32.15100
O  15.99600 3.71400 33.23800
C  16.97400 4.45600 34.06100
H  19.69800 -3.60200 31.08900
H  19.27000 -3.27900 24.71800
H  15.22300 1.58800 25.17100
H  17.99400 0.42100 32.95700
H  18.36800 -2.48400 32.83500
H  20.44600 -2.23200 33.22700
H  20.14400 -0.39500 33.31700
H  20.66400 -1.23700 31.80800
H  16.43700 -2.07700 33.49800
H  15.50000 -0.56000 33.18300
H  16.39900 -1.30100 35.69500
H  15.94300 0.23400 35.11700
H  20.02800 -5.68900 30.45800
H  21.63100 -5.38600 29.61800
H  20.40100 -6.55500 29.04600
H  21.39100 -7.26400 25.69100
H  20.22100 -7.44300 27.01900
H  21.86700 -6.61300 27.25700
H  17.31000 -2.06300 23.15500
H  17.29000 0.80600 23.38200
H  19.36800 0.02400 22.94100
H  18.92500 -1.44100 21.91200
H  19.97400 -1.52100 23.34100
H  15.46400 -0.85000 22.20800
H  15.22600 0.77400 22.78000
H  13.69300 -1.50000 23.10000
H  13.30400 -0.12200 24.00200
H  14.37300 -1.37300 24.69900
H  13.08400 3.27900 27.13500
H  14.60800 3.81600 26.29900
H  14.35400 4.27900 27.96600
H  14.85500 1.63800 32.39700
H  17.78100 4.95700 33.52600
H  17.48400 3.90800 34.85300
H  16.40500 5.21400 34.59900

