158

Mg 24.23700 -5.06600 45.66200
C  26.10400 -2.67900 44.27400
C  21.62100 -4.18900 43.34600
C  22.44300 -7.84100 46.39000
C  27.04200 -6.53300 47.21000
N  23.84300 -3.57400 43.95400
C  24.78500 -2.64300 43.62900
C  24.31600 -1.82300 42.40400
C  22.79700 -2.21500 42.27800
C  22.79300 -3.47000 43.17800
C  21.72900 -1.21600 42.64600
C  25.23200 -2.25600 41.19500
C  25.98700 -1.18600 40.30900
H  26.00400 -1.19100 38.79800
N  22.28800 -5.68900 45.12700
C  21.38300 -5.19900 44.24300
C  20.08900 -5.87700 44.24900
C  20.26600 -6.94700 45.14900
C  21.75000 -6.88100 45.55700
C  18.86700 -5.45500 43.51400
C  19.14700 -7.78900 45.69300
O  18.05200 -7.85700 45.06800
C  19.29200 -8.63200 46.97900
N  24.65700 -6.88900 46.73700
C  23.75100 -7.90500 46.82000
C  24.46500 -9.25300 47.25200
C  25.83600 -8.75600 47.82300
C  25.84900 -7.28100 47.24700
C  23.65700 -10.21000 48.16800
C  27.04300 -9.63200 47.24900
C  28.26100 -9.81100 48.17200
N  26.16800 -4.66700 45.95800
C  27.21300 -5.28700 46.53800
C  28.41400 -4.51800 46.33400
C  28.05300 -3.47100 45.47300
C  26.66700 -3.59200 45.28400
C  29.69100 -4.99700 46.79900
C  28.52600 -2.40100 44.66600
O  29.67000 -2.04300 44.42100
C  27.28700 -1.81000 43.88500
C  27.15400 -0.42300 44.21700
O  26.75000 -0.05400 45.29900
O  27.65900 0.41200 43.28300
C  27.76700 1.80000 43.66100
H  20.89300 -3.80700 42.62700
H  21.87100 -8.71300 46.71500
H  27.92500 -7.01800 47.63200
H  24.54600 -0.79900 42.69600
H  22.74100 -2.56200 41.24600
H  21.24800 -0.91800 41.71400
H  22.22000 -0.30700 42.99500
H  20.91600 -1.60000 43.26300
H  24.62300 -2.77600 40.45600
H  25.90500 -3.07100 41.46000
H  27.02200 -1.21000 40.64700
H  25.59700 -0.17900 40.45500
H  18.84200 -6.01800 42.58200
H  18.88300 -4.37900 43.33500
H  17.90800 -5.58000 44.01700
H  19.36300 -9.69700 46.75700
H  18.41200 -8.55900 47.61800
H  20.03400 -8.15100 47.61600
H  24.70100 -9.77400 46.32400
H  25.82600 -8.67400 48.91000
H  24.08600 -10.29500 49.16700
H  23.33200 -11.17100 47.76900
H  22.66500 -9.84800 48.43800
H  27.43100 -9.13300 46.36100
H  26.60200 -10.57800 46.93400
H  28.09500 -9.42900 49.17900
H  29.07500 -9.21800 47.75500
H  28.60000 -10.84700 48.17100
H  29.78200 -4.54600 47.78700
H  30.49000 -4.63600 46.15100
H  29.77100 -6.08100 46.71900
H  27.55700 -1.93900 42.83700
H  27.63600 2.53500 42.86700
H  28.75800 2.09400 44.00900
H  26.91200 2.05800 44.28700
Mg 45.54600 4.95800 48.24600
C  43.89500 7.74600 47.10600
C  42.77200 3.13600 47.26600
C  47.38000 2.11900 48.71100
C  48.43700 6.79300 48.65700
N  43.52500 5.44800 47.30400
C  43.01500 6.67400 46.97200
C  41.60800 6.57700 46.39000
C  41.21600 5.08900 46.76100
C  42.63400 4.51700 47.05000
C  40.15500 5.00900 47.90100
C  41.64200 7.02700 44.85300
C  40.74100 8.23800 44.31900
H  39.71900 7.97300 43.17400
N  45.15600 2.92900 48.09100
C  43.94100 2.35800 47.60700
C  44.03500 0.94200 47.78900
C  45.31900 0.60300 48.05300
C  46.06900 1.89300 48.27800
C  42.82100 0.08600 47.56800
C  45.89900 -0.81700 48.01000
O  45.16000 -1.80700 47.81500
C  47.31100 -1.08800 48.20200
N  47.65000 4.55000 48.43700
C  48.14600 3.33600 48.76800
C  49.62900 3.32600 49.18300
C  50.01300 4.78700 48.84600
C  48.60500 5.45900 48.58800
C  49.89300 2.87400 50.71300
C  50.92200 5.10200 47.64100
C  52.35300 4.33000 47.60000
N  46.08700 6.82900 47.94600
C  47.26700 7.47400 48.30500
C  47.10500 8.87700 48.26300
C  45.79500 9.02800 47.79000
C  45.22200 7.77100 47.64000
C  48.18900 9.93300 48.44000
C  44.84100 10.07000 47.34800
O  44.99000 11.27300 47.29100
C  43.57300 9.22100 46.78700
C  42.25500 9.71000 47.26800
O  41.55600 9.33300 48.22700
O  41.93400 10.74800 46.36000
C  40.55800 11.22600 46.74300
H  41.87900 2.56800 46.99400
H  47.87800 1.17800 48.95400
H  49.39600 7.29300 48.81000
H  40.92900 7.19300 46.98000
H  40.76400 4.59600 45.90000
H  39.95400 5.92900 48.45000
H  40.53500 4.27900 48.61700
H  39.30200 4.55700 47.39600
H  41.24600 6.13300 44.37100
H  42.58900 7.28000 44.37700
H  41.51700 8.93700 44.00600
H  40.15800 8.65200 45.14200
H  42.76500 -0.70700 48.31300
H  42.96800 -0.35800 46.58300
H  41.86200 0.58700 47.44100
H  47.47600 -1.88300 47.47500
H  47.63600 -1.24100 49.23000
H  47.84500 -0.28300 47.69600
H  50.27700 2.72000 48.55100
H  50.50700 5.18200 49.73400
H  50.86900 3.20000 51.07100
H  49.87600 1.78500 50.74900
H  49.20400 3.38500 51.38700
H  51.16600 6.14200 47.85800
H  50.32100 5.05700 46.73200
H  52.54400 3.57400 48.36200
H  53.06700 5.14700 47.70500
H  52.47800 3.83800 46.63500
H  49.16200 9.48200 48.63500
H  47.93000 10.64100 49.22700
H  48.28100 10.40100 47.46000
H  43.57700 9.21700 45.69700
H  40.76700 11.82100 47.63300
H  39.83800 10.40800 46.77300
H  40.10400 11.91300 46.02800

