158

Mg 46.69200 24.38800 28.37400
C  47.65900 26.71000 30.87500
C  46.55500 21.85600 30.81400
C  45.93000 22.18800 26.07500
C  47.98600 26.65600 26.11600
N  47.13400 24.25300 30.57400
C  47.32900 25.42600 31.35200
C  47.14700 25.00800 32.77500
C  46.83100 23.52300 32.77800
C  46.92600 23.13000 31.31300
C  47.83500 22.61400 33.54800
C  46.02800 25.83800 33.44800
C  45.52600 25.33200 34.83700
H  45.68200 26.20500 36.06100
N  46.12200 22.32600 28.53600
C  46.11100 21.50600 29.59900
C  45.52100 20.28600 29.22000
C  45.26600 20.31700 27.82100
C  45.80600 21.57400 27.41800
C  45.21200 19.15500 30.15400
C  44.85400 19.23100 26.87600
O  44.80600 19.41100 25.69300
C  44.52200 17.94700 27.35800
N  46.85900 24.39800 26.42100
C  46.41200 23.38400 25.61900
C  46.74300 23.65900 24.20100
C  47.12300 25.19200 24.23700
C  47.38200 25.45300 25.64800
C  47.85900 22.74200 23.57300
C  46.13200 26.12600 23.48200
C  46.57300 27.38300 22.80000
N  47.66000 26.28300 28.45500
C  48.09400 27.03800 27.45600
C  48.66700 28.29400 27.90400
C  48.38900 28.27500 29.24600
C  47.84600 26.96500 29.56600
C  49.18000 29.46900 27.16000
C  48.33400 29.07500 30.42500
O  48.65800 30.24200 30.55200
C  47.89500 28.06900 31.57700
C  48.78300 28.11400 32.78700
O  49.55100 27.24200 33.03400
O  48.59700 29.21100 33.59300
C  49.26700 29.20200 34.92900
H  46.45400 21.11800 31.61200
H  45.75700 21.58500 25.18100
H  48.24100 27.47300 25.43800
H  48.02000 25.20100 33.39800
H  45.83500 23.31300 33.16800
H  47.17200 21.92700 34.07300
H  48.39400 23.20400 34.27500
H  48.60800 22.04400 33.03100
H  45.16300 26.03600 32.81600
H  46.50700 26.81500 33.51100
H  46.27500 24.56200 35.02000
H  44.47300 25.06000 34.77200
H  44.38000 18.58600 29.73900
H  45.02900 19.46300 31.18300
H  46.04300 18.45000 30.12400
H  45.19700 17.44400 28.05000
H  44.45200 17.35600 26.44500
H  43.52300 18.03300 27.78500
H  45.84600 23.43300 23.62500
H  48.08100 25.42100 23.77000
H  48.81800 22.98200 24.03200
H  47.96000 22.62000 22.49500
H  47.51900 21.84200 24.08600
H  45.45700 26.50700 24.24900
H  45.58500 25.41100 22.86800
H  46.08900 28.29900 23.13900
H  46.47600 27.21400 21.72700
H  47.64400 27.56100 22.89700
H  48.31300 29.86800 26.63500
H  49.81600 29.16900 26.32700
H  49.73700 30.13500 27.82000
H  46.93000 28.36300 31.98900
H  48.73500 28.45400 35.51700
H  49.20600 30.16600 35.43600
H  50.28000 28.80300 34.89500
Mg 26.89500 50.26800 26.02900
C  24.78100 51.51600 28.51500
C  28.90800 49.06800 28.49900
C  28.94200 49.22600 23.57100
C  24.73500 51.84700 23.63900
N  26.83400 50.32000 28.25400
C  25.85500 50.83800 29.03100
C  26.06900 50.57500 30.55700
C  27.51000 49.98600 30.52100
C  27.81100 49.86000 29.00500
C  28.68100 50.78100 31.22800
C  25.00400 49.53400 31.13100
C  24.46400 49.93800 32.55000
H  25.46500 50.57600 33.58200
N  28.63200 49.23200 25.99300
C  29.28700 48.79500 27.13300
C  30.57100 48.28000 26.76600
C  30.56900 48.28500 25.32900
C  29.29500 48.93200 24.90300
C  31.59500 47.79800 27.75300
C  31.56100 47.71400 24.39800
O  31.48200 47.76400 23.14900
C  32.85100 47.05600 24.89400
N  26.74100 50.39500 23.94600
C  27.73000 49.86300 23.17900
C  27.41100 50.01800 21.68200
C  26.06700 50.84500 21.71700
C  25.80400 51.06700 23.20600
C  28.59800 50.85100 20.97300
C  24.75300 50.30200 20.99100
C  24.03600 49.14900 21.65900
N  25.10800 51.47600 26.02400
C  24.38600 51.97900 25.01600
C  23.22700 52.73400 25.53300
C  23.33900 52.58400 26.91700
C  24.51700 51.83000 27.18100
C  22.25900 53.44000 24.72000
C  22.69000 52.97900 28.14700
O  21.69300 53.66200 28.28600
C  23.54700 52.21600 29.21800
C  23.95900 53.24600 30.22500
O  24.95800 53.93600 30.17100
O  23.10400 53.36500 31.29700
C  23.50200 54.30800 32.36200
H  29.59800 48.82400 29.30900
H  29.56300 48.83500 22.76200
H  24.16600 52.35900 22.86000
H  26.11600 51.55400 31.03400
H  27.63400 49.01100 30.99400
H  28.40500 51.78000 31.56800
H  29.53500 50.84800 30.55500
H  29.00800 50.28800 32.14300
H  25.40800 48.52200 31.16300
H  24.16000 49.38000 30.45900
H  23.92500 49.10400 33.00000
H  23.76100 50.75700 32.40100
H  32.61500 48.09600 27.51200
H  31.51600 46.71100 27.79600
H  31.40500 48.11100 28.77900
H  33.54700 46.70000 24.13400
H  32.56300 46.28300 25.60600
H  33.38500 47.84500 25.42200
H  27.15700 49.03300 21.29200
H  26.38500 51.82100 21.35000
H  29.36000 51.29500 21.61300
H  28.25400 51.68500 20.36200
H  29.04600 50.11900 20.30000
H  25.24600 50.00500 20.06500
H  24.04200 51.11800 20.86400
H  23.13800 49.61300 22.06800
H  24.65500 48.72600 22.45100
H  23.96900 48.34500 20.92600
H  21.78300 52.83900 23.94600
H  22.72000 54.27200 24.18700
H  21.53500 53.90400 25.39000
H  22.79600 51.63000 29.74800
H  24.11900 55.15800 32.07200
H  24.19400 53.81700 33.04600
H  22.55300 54.64500 32.77800

