158

Mg 43.29800 5.03300 46.64500
C  41.37700 8.00200 46.91800
C  40.23600 3.32700 46.48700
C  44.94100 2.24900 45.77200
C  46.00900 7.02400 45.86700
N  41.04000 5.55300 46.81900
C  40.53500 6.85300 46.99300
C  39.00400 6.84200 46.95100
C  38.68000 5.31700 47.12700
C  40.03200 4.70700 46.70700
C  38.19700 4.99700 48.55500
C  38.41200 7.37800 45.61800
C  38.93300 6.87000 44.24100
H  39.71000 7.70300 43.19400
N  42.66400 3.05600 46.33300
C  41.36900 2.58800 46.23800
C  41.46300 1.21600 45.85300
C  42.81700 0.81400 45.70900
C  43.55100 2.05100 45.95200
C  40.19500 0.39500 45.61200
C  43.36600 -0.56500 45.43400
O  42.60100 -1.45500 45.22700
C  44.80700 -0.93600 45.51000
N  45.21600 4.69400 45.86700
C  45.67700 3.47500 45.74600
C  47.25000 3.46800 45.59600
C  47.44100 4.93900 45.28900
C  46.13500 5.58800 45.74300
C  47.89400 2.96900 46.93600
C  47.89500 5.16900 43.81400
C  49.42900 5.14300 43.66000
N  43.71300 7.10500 46.55000
C  44.86900 7.76800 46.21700
C  44.72600 9.20700 46.32600
C  43.34100 9.37100 46.64900
C  42.76200 8.01800 46.69000
C  45.83400 10.24100 46.24200
C  42.28200 10.36600 46.94000
O  42.35500 11.61600 47.01600
C  40.93300 9.50500 46.97400
C  40.13600 9.77400 48.17000
O  40.19100 9.17200 49.26700
O  39.18600 10.79400 47.92700
C  38.35000 11.22600 49.04400
H  39.31500 2.75700 46.35100
H  45.62100 1.41200 45.59700
H  46.93600 7.59100 45.76000
H  38.66500 7.46100 47.78100
H  37.97200 5.06000 46.34000
H  37.16100 4.66100 48.57300
H  38.43000 5.70300 49.35200
H  38.74100 4.12600 48.92300
H  38.42900 8.46600 45.55700
H  37.32700 7.27000 45.63200
H  38.02600 6.45100 43.80500
H  39.66800 6.07500 44.36700
H  39.52300 0.75900 46.38900
H  40.26800 -0.69200 45.63400
H  39.86600 0.52300 44.58000
H  45.24800 -0.50800 46.41100
H  45.29400 -0.55000 44.61500
H  44.82300 -2.02100 45.61200
H  47.48600 2.78600 44.77900
H  48.24800 5.35200 45.89500
H  47.30900 2.23200 47.48600
H  47.97600 3.83800 47.58900
H  48.84700 2.53800 46.63000
H  47.35800 5.97600 43.31500
H  47.45600 4.36200 43.22700
H  49.82000 5.65700 44.53800
H  49.78600 5.80200 42.86800
H  49.74500 4.10000 43.68000
H  46.50400 10.18700 45.38400
H  46.45100 10.11700 47.13200
H  45.38900 11.23600 46.25000
H  40.32500 9.86100 46.14200
H  37.34400 10.84600 48.87000
H  38.21600 12.30500 48.96300
H  38.73900 10.90900 50.01200
Mg 17.03300 52.26900 25.87000
C  18.80300 51.20800 28.60600
C  14.43600 52.94100 27.92600
C  15.40600 53.42500 23.21100
C  19.73000 51.30000 23.84300
N  16.65000 52.06300 28.02800
C  17.57400 51.66700 28.94000
C  17.08900 51.98300 30.40200
C  15.52300 52.29200 30.17200
C  15.46300 52.45600 28.62900
C  14.57700 51.19300 30.78900
C  17.85200 53.11800 31.11500
C  18.18200 52.89900 32.62500
H  17.13600 51.92200 33.38900
N  15.12400 53.21100 25.66300
C  14.20100 53.29600 26.65300
C  13.13500 53.95600 26.06300
C  13.33200 54.12900 24.68400
C  14.66500 53.61200 24.45200
C  11.93700 54.41800 26.90400
C  12.46900 54.55100 23.51700
O  12.80300 54.89500 22.40400
C  11.03700 54.86300 23.77800
N  17.55600 52.54900 23.80300
C  16.69400 52.91100 22.92300
C  17.24600 52.88600 21.49100
C  18.67900 52.23400 21.71800
C  18.72600 52.07000 23.21500
C  16.29500 52.12200 20.52900
C  19.81300 53.17200 21.21100
C  21.00600 52.50000 20.46700
N  18.78700 51.22900 26.05100
C  19.84900 50.98700 25.17700
C  20.89500 50.28500 25.81900
C  20.55600 50.40400 27.18900
C  19.34100 50.98100 27.28800
C  22.19400 49.70300 25.27500
C  21.03300 50.21000 28.52100
O  22.07300 49.74800 28.91000
C  19.97400 50.78300 29.48000
C  19.63000 49.59100 30.20200
O  18.82000 48.72500 29.82600
O  20.33000 49.53900 31.36300
C  19.54200 49.12800 32.49500
H  13.61600 53.17300 28.60800
H  14.82300 53.65000 22.31600
H  20.50400 50.93400 23.16600
H  17.14300 51.01800 30.90600
H  15.27300 53.14400 30.80600
H  14.13400 50.66300 29.94600
H  13.75100 51.57900 31.38600
H  15.12800 50.55100 31.47600
H  17.24900 54.02600 31.12500
H  18.69700 53.25000 30.43900
H  18.24200 53.86800 33.12100
H  19.19800 52.50400 32.66400
H  11.70500 55.48000 26.82500
H  11.99800 54.26800 27.98200
H  11.13700 53.81000 26.48200
H  10.86700 55.77200 24.35600
H  10.48700 54.04300 24.23800
H  10.53900 55.07100 22.83100
H  17.40200 53.91200 21.15600
H  18.63800 51.25500 21.23900
H  15.35200 52.59100 20.24600
H  16.16200 51.16800 21.03800
H  16.74400 51.85300 19.57400
H  20.26400 53.76700 22.00500
H  19.40500 53.77000 20.39700
H  21.98900 52.76500 20.85500
H  21.01700 52.59100 19.38100
H  20.91000 51.41600 20.52900
H  23.02500 50.05000 25.88800
H  22.36300 50.09300 24.27100
H  21.97200 48.63600 25.27100
H  20.51000 51.49400 30.10900
H  20.04100 48.21600 32.82400
H  18.45900 49.00700 32.45600
H  19.56100 49.89600 33.26800

