158

Mg 46.45400 15.63100 27.46300
C  44.53100 15.47600 30.43900
C  48.64300 17.66800 29.05800
C  48.22200 16.03800 24.52900
C  43.93700 14.00300 25.73600
N  46.56200 16.46600 29.50300
C  45.69100 16.31500 30.59600
C  46.24000 16.95600 31.83300
C  47.48400 17.82300 31.30600
C  47.58000 17.28800 29.89300
C  47.29200 19.31700 31.25400
C  46.56200 15.91900 32.97200
C  46.04200 16.27400 34.37000
H  46.97900 15.96900 35.53300
N  48.32200 16.48900 26.94700
C  49.01000 17.40600 27.73800
C  50.17200 17.80900 27.04300
C  50.11500 17.31500 25.76100
C  48.88600 16.49800 25.71000
C  51.29500 18.68500 27.67000
C  51.04000 17.42400 24.47200
O  50.90000 16.72600 23.51200
C  52.26800 18.26400 24.50200
N  46.14100 15.09600 25.37100
C  46.98900 15.32000 24.32400
C  46.45900 14.71900 23.01500
C  45.24200 13.84900 23.51800
C  45.12900 14.24000 24.96700
C  46.18000 15.70900 21.95300
C  45.40100 12.31300 23.29500
C  46.56100 11.68700 24.11300
N  44.60600 14.97300 27.92600
C  43.70300 14.28000 27.11100
C  42.53400 13.86300 27.92100
C  42.88500 14.37400 29.20700
C  44.11900 15.01000 29.15900
C  41.27600 13.28500 27.45900
C  42.29600 14.58100 30.49600
O  41.17000 14.33900 30.85100
C  43.36000 15.22900 31.40700
C  42.85700 16.51700 32.03500
O  42.89500 17.62400 31.46900
O  42.35000 16.37200 33.32700
C  42.36200 17.57700 34.11600
H  49.27900 18.46200 29.45500
H  48.69500 16.49600 23.65800
H  43.17500 13.32700 25.34300
H  45.51200 17.60800 32.31600
H  48.35200 17.64600 31.94100
H  46.39100 19.57300 31.81200
H  47.20200 19.68900 30.23300
H  48.22600 19.70900 31.65600
H  47.64100 15.77100 33.00500
H  46.05300 14.98400 32.73700
H  45.13100 15.75700 34.66900
H  45.77100 17.32100 34.50900
H  51.03400 19.68400 28.01800
H  52.16700 18.65900 27.01700
H  51.60400 18.12600 28.55400
H  52.82800 18.25700 23.56700
H  52.81900 17.72200 25.27000
H  52.00900 19.27600 24.81400
H  47.27400 14.06200 22.70900
H  44.37400 14.16100 22.93800
H  45.98800 16.67700 22.41500
H  45.31100 15.45000 21.35000
H  46.99700 15.76300 21.23300
H  45.53400 12.20900 22.21800
H  44.50800 11.75200 23.57000
H  47.35100 11.38500 23.42600
H  46.14800 10.95700 24.80900
H  46.99000 12.48700 24.71600
H  41.27100 13.53800 26.39900
H  40.55300 13.87400 28.02500
H  41.11700 12.23000 27.68000
H  43.59800 14.60300 32.26700
H  41.71400 18.34800 33.69800
H  43.36900 17.98700 34.18600
H  41.94600 17.28700 35.08100
Mg 46.78400 44.80800 43.51400
C  43.36800 44.15900 42.96200
C  47.30800 41.41000 43.27400
C  50.07600 45.38700 43.41600
C  46.06600 48.22000 43.22400
N  45.42700 43.01800 43.18600
C  44.13200 43.00000 42.98900
C  43.64900 41.56600 42.67400
C  44.85800 40.72800 43.15400
C  45.94600 41.76200 43.30400
C  44.51000 40.01100 44.53600
C  43.09900 41.20100 41.23100
C  43.33300 42.16000 39.95700
H  43.15600 41.46600 38.61300
N  48.43000 43.54700 43.50100
C  48.45100 42.19500 43.34200
C  49.86200 41.80300 43.49700
C  50.73600 42.92200 43.45000
C  49.76400 44.03300 43.48100
C  50.35600 40.34700 43.57700
C  52.27500 42.96500 43.30900
O  52.88000 41.97500 42.97700
C  53.10100 44.22300 43.51800
N  47.89500 46.52200 43.10200
C  49.26800 46.51100 43.38400
C  49.78200 48.00000 43.52600
C  48.51600 48.83500 43.27400
C  47.38100 47.79500 43.23600
C  50.49800 48.32700 44.87500
C  48.63400 49.79100 42.08000
C  47.83000 51.07500 42.18700
N  45.10900 45.99900 43.07800
C  44.94100 47.35200 43.11100
C  43.44400 47.72100 42.99200
C  42.81600 46.49300 42.91200
C  43.83500 45.52300 43.02700
C  42.89300 49.09900 42.91800
C  41.56700 45.84300 42.71300
O  40.41700 46.26000 42.56700
C  41.84900 44.29900 42.90200
C  41.13100 43.80800 44.08200
O  40.25900 42.94900 44.16900
O  41.65300 44.43700 45.22600
C  41.15300 43.96900 46.48200
H  47.56000 40.34800 43.28000
H  51.09500 45.64800 43.70900
H  45.83600 49.28300 43.32500
H  42.80000 41.49100 43.35300
H  45.08300 39.94700 42.42700
H  45.19800 40.47700 45.24100
H  44.78000 38.97500 44.33500
H  43.47300 39.95700 44.87000
H  42.01200 41.13300 41.23700
H  43.48300 40.21100 40.98200
H  44.32300 42.61500 39.93800
H  42.51700 42.88300 39.97500
H  49.56800 39.84400 44.13700
H  51.16900 40.33900 44.30200
H  50.57200 39.96600 42.57900
H  53.07400 45.05900 42.81900
H  54.15300 43.93600 43.51300
H  52.90300 44.54400 44.54000
H  50.41000 48.01300 42.63500
H  48.35600 49.33600 44.22900
H  51.56800 48.42900 44.69500
H  50.43400 47.46000 45.53400
H  50.03200 49.16200 45.39900
H  48.38700 49.19600 41.20100
H  49.69400 50.02700 41.98800
H  46.97500 50.93900 41.52500
H  48.50400 51.87700 41.88500
H  47.46600 51.25300 43.19900
H  43.59500 49.82000 42.49900
H  42.74200 49.46900 43.93200
H  41.96200 49.05900 42.35300
H  41.42100 43.82900 42.01600
H  40.20600 44.49900 46.58000
H  41.84000 44.40100 47.20900
H  41.05000 42.89800 46.65500

