158

Mg 26.43700 49.62200 25.89800
C  24.71000 51.24700 28.47100
C  28.68300 48.58400 28.29500
C  28.51100 48.71800 23.45300
C  24.24500 51.05800 23.60300
N  26.79200 50.11200 28.20000
C  25.86800 50.65800 29.01500
C  26.14400 50.28300 30.45400
C  27.61800 49.68100 30.38800
C  27.73700 49.45000 28.87500
C  28.80200 50.29400 31.10300
C  25.01900 49.37900 31.11500
C  24.50200 49.87900 32.48100
H  24.38100 48.86300 33.63400
N  28.28400 48.62400 25.85700
C  29.03500 48.23200 27.03300
C  30.27000 47.61400 26.64200
C  30.22100 47.68300 25.21600
C  28.99000 48.37100 24.75400
C  31.30700 47.08400 27.60700
C  31.31200 47.14900 24.24200
O  31.16200 47.42400 23.04300
C  32.41600 46.29100 24.70000
N  26.38000 49.84200 23.78800
C  27.35300 49.32500 23.02000
C  26.85200 49.37900 21.53100
C  25.47000 50.02200 21.58700
C  25.36600 50.34600 23.08200
C  27.82900 50.10300 20.52400
C  24.34200 49.17600 20.97900
C  24.02600 47.89300 21.80000
N  24.83100 50.94000 25.90400
C  23.96500 51.31500 24.93800
C  22.86500 52.14400 25.41900
C  23.07000 52.06400 26.83300
C  24.34400 51.42600 27.07600
C  21.85100 52.77900 24.62700
C  22.53300 52.40000 28.12000
O  21.49500 53.11000 28.39800
C  23.51100 51.85900 29.26300
C  23.96400 53.09400 30.03100
O  24.89900 53.80300 29.75800
O  23.21100 53.12700 31.18800
C  23.63800 53.96300 32.35300
H  29.28500 48.04000 29.02500
H  29.02500 48.37400 22.55300
H  23.50900 51.41200 22.87800
H  26.28000 51.15500 31.09500
H  27.56000 48.70600 30.87200
H  28.54000 51.23400 31.58900
H  29.56600 50.54400 30.36700
H  29.23800 49.58500 31.80500
H  25.29500 48.32900 31.21700
H  24.19100 49.26300 30.41600
H  23.51200 50.29700 32.30100
H  25.07600 50.74100 32.82000
H  31.48600 47.42400 28.62700
H  32.26600 47.49400 27.28900
H  31.40300 45.99900 27.57000
H  32.95600 46.03000 23.79000
H  31.95400 45.38200 25.08700
H  33.05300 46.91900 25.32300
H  26.68500 48.34200 21.24100
H  25.45600 50.96100 21.03300
H  28.72200 50.41700 21.06500
H  27.42400 50.98200 20.02400
H  28.04900 49.35300 19.76400
H  24.57100 48.87200 19.95800
H  23.44900 49.78500 21.11700
H  22.99300 47.94700 22.14400
H  24.60400 47.73400 22.71000
H  24.15000 47.06600 21.10100
H  20.86800 52.74800 25.09800
H  21.74900 52.38800 23.61500
H  22.23700 53.79600 24.56700
H  22.97400 51.19200 29.93800
H  24.08400 53.15900 32.93900
H  22.66500 54.29400 32.71300
H  24.39300 54.69900 32.07600
Mg -2.27500 34.78900 27.03700
C  -3.87700 33.33400 29.78300
C  -0.80900 37.16500 29.26700
C  -0.79500 36.21600 24.39700
C  -3.86500 32.48400 24.87300
N  -2.50200 35.28000 29.24400
C  -3.15300 34.48600 30.18600
C  -2.71600 34.94200 31.63700
C  -1.83500 36.28300 31.33700
C  -1.70800 36.32500 29.83300
C  -2.34900 37.64100 31.97700
C  -1.91300 33.87400 32.44700
C  -1.41400 34.30100 33.93900
H  -1.67500 33.37900 35.06400
N  -0.92400 36.45600 26.86000
C  -0.43700 37.22500 27.87300
C  0.50800 38.13700 27.27400
C  0.47200 37.96800 25.85900
C  -0.47800 36.81900 25.64200
C  1.19900 39.20900 28.02000
C  1.28000 38.76500 24.72100
O  0.92800 38.69900 23.51400
C  2.31800 39.82500 25.03700
N  -2.15800 34.28300 24.89500
C  -1.60300 35.11200 24.01100
C  -1.93200 34.67300 22.60000
C  -2.51800 33.19200 22.88100
C  -2.97600 33.35700 24.26500
C  -2.84600 35.59700 21.83400
C  -1.50900 32.03800 22.60400
C  -0.53500 31.63800 23.70200
N  -3.74400 33.29500 27.20500
C  -4.15300 32.36000 26.26300
C  -4.94200 31.33400 27.03700
C  -4.81700 31.69900 28.39400
C  -4.07400 32.86000 28.43600
C  -5.58800 30.09000 26.43600
C  -5.17600 31.30900 29.65600
O  -5.91900 30.37400 30.05100
C  -4.49700 32.20200 30.63100
C  -5.43800 32.62400 31.70100
O  -6.26000 33.48500 31.53100
O  -5.27900 31.97000 32.94600
C  -6.51200 32.11000 33.77800
H  -0.39100 37.94200 29.91100
H  -0.36300 36.67600 23.50600
H  -4.27700 31.84200 24.09100
H  -3.61400 35.13600 32.22300
H  -0.86200 36.19800 31.82000
H  -2.26000 38.61600 31.49800
H  -1.77500 37.72200 32.90000
H  -3.35600 37.47100 32.35500
H  -1.04500 33.68500 31.81400
H  -2.56000 32.99800 32.49900
H  -1.86200 35.25700 34.21100
H  -0.32700 34.31500 33.86800
H  0.67900 40.15300 27.85300
H  2.24300 39.28800 27.71800
H  1.17400 39.05400 29.09800
H  2.08800 40.44700 25.90200
H  2.51300 40.38000 24.11900
H  3.27100 39.33400 25.23500
H  -1.06200 34.63100 21.94400
H  -3.27100 32.95000 22.13100
H  -3.74100 35.13200 21.42000
H  -2.25600 36.02500 21.02300
H  -3.20400 36.38700 22.49300
H  -0.88600 32.20600 21.72500
H  -1.98200 31.13000 22.23000
H  -0.69300 32.13200 24.66100
H  0.45100 31.77400 23.25700
H  -0.67700 30.56500 23.83200
H  -5.44500 29.24500 27.10900
H  -5.05900 29.85000 25.51300
H  -6.63300 30.39900 26.45700
H  -3.70000 31.61000 31.08000
H  -6.25900 32.05200 34.83700
H  -7.19400 31.27900 33.59600
H  -7.10200 33.02500 33.71900

