158

Mg 35.65000 2.33700 29.09600
C  33.48600 3.11600 31.68100
C  38.30200 2.49600 31.32500
C  37.77800 2.23100 26.39300
C  32.94500 2.73300 26.80300
N  35.84600 2.73400 31.23600
C  34.79800 2.80500 32.09100
C  35.24100 2.93600 33.48400
C  36.83000 2.94400 33.43600
C  37.03900 2.73900 31.86700
C  37.53100 4.23000 34.03400
C  34.63900 1.74400 34.36800
C  34.48800 2.08900 35.87900
H  34.90600 3.49600 36.46700
N  37.71700 2.25500 28.94300
C  38.64100 2.35900 29.98400
C  39.94800 2.18100 29.44600
C  39.83900 2.08300 28.01300
C  38.39300 2.23700 27.69600
C  41.19000 2.12900 30.30300
C  41.01300 1.94300 27.05200
O  40.81900 1.98300 25.79100
C  42.36000 1.62900 27.50700
N  35.43200 2.37400 27.00800
C  36.40600 2.37300 26.09000
C  35.94100 2.64100 24.65700
C  34.41800 2.38300 24.74200
C  34.19400 2.44200 26.25200
C  36.27100 4.08800 24.07400
C  33.89900 1.10200 24.06300
C  33.24400 1.39700 22.73000
N  33.58700 2.81400 29.15500
C  32.60500 2.96100 28.14500
C  31.39200 3.56800 28.72900
C  31.70000 3.58200 30.13600
C  33.03100 3.15900 30.32500
C  30.11300 3.90600 28.00900
C  31.13500 3.86100 31.52900
O  29.98200 3.96500 31.90700
C  32.28400 3.60800 32.53500
C  32.48000 4.83000 33.27700
O  33.16400 5.83600 33.01500
O  31.67900 4.66700 34.47200
C  31.45600 5.89300 35.27800
H  39.15800 2.35100 31.98800
H  38.49800 2.16400 25.57500
H  32.02800 2.83400 26.22000
H  34.94500 3.87500 33.95200
H  37.21300 2.04900 33.92600
H  38.24800 3.91900 34.79400
H  36.76900 4.93400 34.37000
H  38.17000 4.69000 33.28000
H  35.36700 0.93700 34.27900
H  33.69900 1.42800 33.91600
H  35.05200 1.30500 36.38600
H  33.46300 1.90400 36.20000
H  41.93700 2.84300 29.95500
H  41.52200 1.09200 30.35100
H  41.13600 2.40700 31.35600
H  42.65200 2.45500 28.15600
H  42.91800 1.49100 26.58100
H  42.33700 0.67400 28.03100
H  36.35900 1.88500 23.99200
H  33.82000 3.22100 24.38600
H  36.67400 4.00900 23.06400
H  36.96800 4.49300 24.80800
H  35.40900 4.74200 23.93900
H  33.21700 0.57300 24.72800
H  34.68400 0.36600 23.88900
H  32.17700 1.36900 22.95200
H  33.42000 0.56100 22.05300
H  33.70000 2.31800 22.36600
H  29.65100 2.98700 27.64600
H  30.37300 4.65000 27.25600
H  29.36100 4.30300 28.69000
H  32.02600 2.89200 33.31600
H  31.38900 6.84400 34.75000
H  32.12300 5.89700 36.14000
H  30.48200 5.78900 35.75400
Mg 36.62000 49.21900 24.73400
C  36.56800 47.43800 27.84700
C  35.36200 51.89300 26.20900
C  36.20600 50.72900 21.66500
C  37.40300 46.25100 23.13200
N  35.93200 49.56500 26.80300
C  36.13000 48.78300 27.90200
C  35.84000 49.58000 29.19100
C  35.22200 50.93000 28.65300
C  35.45500 50.82300 27.13100
C  33.74800 51.45400 29.08800
C  37.15300 49.69500 30.01900
C  37.10200 49.49900 31.53600
H  35.78800 49.53800 32.35300
N  35.92200 51.05900 23.98700
C  35.55000 52.08800 24.83500
C  35.37600 53.30000 24.07400
C  35.62700 52.97500 22.68200
C  35.91200 51.53400 22.69600
C  35.18100 54.67100 24.75600
C  35.77300 53.93400 21.53100
O  35.95600 53.50700 20.40100
C  35.55900 55.47200 21.68000
N  36.85300 48.63500 22.71700
C  36.58600 49.40100 21.65900
C  36.88600 48.73100 20.31200
C  37.21500 47.28000 20.81300
C  37.14500 47.40100 22.35200
C  35.69100 48.72400 19.36200
C  38.47900 46.69900 20.22100
C  39.82000 47.20400 20.81000
N  37.07800 47.22700 25.36400
C  37.35100 46.19100 24.56600
C  37.71800 45.09000 25.44800
C  37.38500 45.48700 26.78600
C  36.99600 46.83700 26.63800
C  38.26300 43.82500 24.85400
C  37.31500 45.11900 28.16600
O  37.60400 44.02100 28.60800
C  36.82500 46.42000 28.94600
C  35.77600 46.02400 29.90500
O  34.57100 45.98200 29.69400
O  36.42400 45.60800 31.01300
C  35.60100 45.19600 32.18900
H  34.95300 52.71600 26.80000
H  36.30300 51.27300 20.72300
H  37.74900 45.42700 22.50400
H  35.05300 48.97000 29.63400
H  35.86500 51.71400 29.05100
H  33.12200 50.60300 29.35500
H  33.15800 51.97700 28.33500
H  33.83700 52.19200 29.88600
H  37.61900 50.67000 29.87900
H  37.89000 48.99600 29.62300
H  37.88100 50.09000 32.01600
H  37.34000 48.44200 31.65600
H  36.02100 55.35900 24.66800
H  35.18000 54.58200 25.84300
H  34.21000 55.12700 24.56300
H  34.56300 55.58900 22.10700
H  35.76800 55.99800 20.74800
H  36.34300 55.76000 22.38000
H  37.76400 49.29100 19.99100
H  36.43600 46.54000 20.62700
H  34.89300 49.16600 19.95900
H  35.34300 47.75200 19.01500
H  36.00900 49.34200 18.52200
H  38.50100 47.04700 19.18900
H  38.49700 45.61000 20.27100
H  40.41500 47.52600 19.95500
H  40.27000 46.37200 21.35200
H  39.70100 48.06800 21.46300
H  38.91100 44.15700 24.04300
H  37.41500 43.25700 24.47100
H  38.94600 43.34200 25.55300
H  37.65600 46.66700 29.60800
H  35.45600 46.11600 32.75600
H  36.21600 44.43300 32.66600
H  34.64400 44.76900 31.88900

