158

Mg 43.09800 4.46600 47.89100
C  40.97100 7.21300 48.08100
C  40.15600 2.50100 47.29900
C  44.97300 2.05400 46.86500
C  45.91500 6.71000 47.98800
N  40.82200 4.87200 47.67000
C  40.26600 6.03500 48.02100
C  38.71100 5.90300 48.00100
C  38.47000 4.39100 47.89400
C  39.90100 3.85500 47.61100
C  37.66500 3.70500 49.08500
C  37.93200 6.72700 46.89600
C  38.62800 7.16300 45.58000
H  38.25100 6.50400 44.20300
N  42.61200 2.48800 47.35500
C  41.36200 1.85700 47.24100
C  41.66700 0.49600 46.88200
C  43.03600 0.39100 46.46400
C  43.61700 1.68000 46.85400
C  40.53300 -0.56300 46.65700
C  43.79300 -0.72900 45.68400
O  43.07100 -1.60100 45.29200
C  45.27400 -0.73900 45.20600
N  45.16500 4.42300 47.39700
C  45.67600 3.23200 47.20300
C  47.22300 3.29200 47.25200
C  47.54200 4.81000 47.41000
C  46.13700 5.33400 47.70000
C  47.90100 2.41900 48.31800
C  48.26900 5.50600 46.22800
C  49.76900 5.24600 46.19800
N  43.46400 6.51700 47.98400
C  44.65500 7.34000 48.00600
C  44.29800 8.63700 48.23300
C  42.83700 8.74500 48.20000
C  42.37200 7.36200 48.07800
C  45.20100 9.83400 48.44100
C  41.72000 9.55800 48.26900
O  41.60000 10.74800 48.37300
C  40.43700 8.61200 48.19500
C  39.55800 8.80700 49.32800
O  39.64500 8.27500 50.38400
O  38.54100 9.74000 49.09500
C  37.40000 9.99000 49.97100
H  39.32400 1.84600 47.03300
H  45.64700 1.23200 46.61400
H  46.78900 7.29700 48.27800
H  38.19700 6.19500 48.91700
H  37.92200 4.23200 46.96500
H  36.85500 4.36400 49.39600
H  38.43600 3.64200 49.85200
H  37.34300 2.68100 48.89200
H  37.47700 7.57300 47.41200
H  37.11100 6.12700 46.50400
H  39.70200 7.06100 45.73600
H  38.30300 8.20400 45.55900
H  40.11300 -0.57000 45.65100
H  39.63800 -0.45300 47.26900
H  41.04200 -1.51300 46.81400
H  45.93000 -0.87100 46.06600
H  45.48400 0.24200 44.77900
H  45.54500 -1.52600 44.50100
H  47.68700 3.05200 46.29500
H  48.16800 5.00100 48.28100
H  48.43300 1.59300 47.84500
H  47.12200 2.02400 48.97000
H  48.70600 2.97000 48.80400
H  48.10000 6.58200 46.27300
H  47.88200 5.10000 45.29300
H  50.37100 6.14500 46.06400
H  50.10300 4.55100 45.42800
H  50.05700 4.71800 47.10700
H  44.69200 10.50100 47.74500
H  46.25900 9.80500 48.17700
H  45.13600 10.11800 49.49100
H  39.89200 8.93400 47.30800
H  37.57800 9.47100 50.91300
H  36.65700 9.38400 49.45100
H  37.10600 11.03400 50.08000
Mg 34.45900 1.96400 30.33000
C  32.42700 3.02300 32.88900
C  37.16400 1.83000 32.50200
C  36.71000 1.80900 27.68100
C  31.97100 2.72300 27.98600
N  34.70200 2.53600 32.44100
C  33.63400 2.68800 33.33800
C  34.11700 2.63400 34.73400
C  35.68400 2.45200 34.64200
C  35.94500 2.29100 33.10600
C  36.63900 3.53400 35.26800
C  33.27200 1.65900 35.63400
C  32.70400 2.14500 37.02900
H  33.54100 3.25500 37.76500
N  36.51200 1.50400 30.13300
C  37.41800 1.47300 31.15800
C  38.68100 1.01300 30.71400
C  38.63000 1.09700 29.28300
C  37.23500 1.50500 28.96900
C  39.78500 0.51200 31.68900
C  39.80300 0.91900 28.30800
O  39.67700 1.16200 27.13400
C  41.18000 0.52300 28.83100
N  34.36600 2.13300 28.18200
C  35.35800 1.96000 27.32800
C  34.96300 2.24600 25.85700
C  33.39800 2.21800 25.92700
C  33.19300 2.35100 27.43400
C  35.48700 3.65200 25.30000
C  32.76300 0.80600 25.34900
C  31.33600 0.86500 24.76600
N  32.56800 2.80800 30.34200
C  31.65500 3.07500 29.34400
C  30.48200 3.54300 29.86400
C  30.70600 3.57100 31.26000
C  32.02200 3.12600 31.49000
C  29.22200 3.85300 29.08300
C  30.07000 3.79900 32.53600
O  28.93100 4.31900 32.66200
C  31.16000 3.48300 33.66100
C  31.24400 4.73100 34.29400
O  31.91000 5.71600 33.99500
O  30.58400 4.62400 35.50400
C  30.66500 5.65300 36.55500
H  37.94300 1.83500 33.26800
H  37.42500 1.80500 26.85500
H  31.07600 2.76600 27.36200
H  33.91300 3.62900 35.12800
H  35.94100 1.50500 35.11700
H  36.08500 4.22500 35.90300
H  36.97400 4.20900 34.48100
H  37.36900 3.14300 35.97800
H  33.83000 0.73800 35.80000
H  32.38400 1.38800 35.06300
H  32.59200 1.18200 37.52700
H  31.70500 2.58000 36.99200
H  40.59200 1.24400 31.67500
H  40.17500 -0.46100 31.39000
H  39.53200 0.54300 32.74900
H  41.56600 1.31700 29.46900
H  41.87100 0.49200 27.98900
H  41.18000 -0.47000 29.28100
H  35.23300 1.34600 25.30500
H  32.94100 3.08500 25.45000
H  35.83000 4.07500 26.24400
H  34.68300 4.26100 24.88500
H  36.30400 3.54500 24.58700
H  32.88300 0.03100 26.10600
H  33.39200 0.62100 24.47800
H  31.27800 0.80200 23.67900
H  30.92100 1.82700 25.06800
H  30.87700 0.00600 25.25400
H  28.65500 3.01600 28.67700
H  29.58200 4.55400 28.33000
H  28.56600 4.42100 29.74300
H  30.87800 2.71400 34.38000
H  29.78100 6.28300 36.45200
H  31.58000 6.22100 36.39200
H  30.72300 5.18400 37.53800

