158

Mg 1.00800 7.64400 26.45000
C  1.64000 9.81500 29.19600
C  1.31700 4.99800 28.65500
C  0.50100 5.63600 23.90900
C  1.46300 10.38700 24.32700
N  1.32200 7.43300 28.69000
C  1.54800 8.46100 29.56200
C  1.39000 7.88700 30.96500
C  1.66000 6.39100 30.79000
C  1.43300 6.23500 29.27300
C  3.00500 5.77000 31.19500
C  0.13100 8.36300 31.73100
C  0.44000 8.65900 33.20300
H  1.53600 7.88700 33.84600
N  0.77900 5.64700 26.30700
C  0.95400 4.69200 27.35200
C  0.59200 3.38000 26.84400
C  0.36300 3.50100 25.43000
C  0.58300 4.92000 25.16100
C  0.47200 2.09300 27.75000
C  0.16800 2.45500 24.24000
O  -0.01200 2.76000 23.06900
C  0.24800 0.96000 24.68000
N  1.20200 7.91100 24.39600
C  0.68300 6.98800 23.61500
C  0.48900 7.55500 22.19900
C  0.60500 9.05900 22.40100
C  1.15100 9.12900 23.83500
C  1.42200 6.98900 21.10900
C  -0.74800 9.88400 22.22700
C  -0.66700 11.07100 21.14200
N  1.50000 9.71100 26.62500
C  1.65900 10.71900 25.67500
C  2.12300 11.92100 26.27800
C  2.02200 11.63200 27.67800
C  1.65000 10.30700 27.85900
C  2.30200 13.25700 25.58800
C  2.24900 12.22400 29.00000
O  2.71600 13.31700 29.31000
C  1.96600 11.03700 30.00700
C  3.13200 10.97700 30.95800
O  4.12500 10.33100 30.71600
O  2.92300 11.79600 32.11500
C  4.03400 11.77000 33.09300
H  1.47200 4.19400 29.37800
H  0.32900 5.10100 22.97300
H  1.44900 11.23000 23.63300
H  2.24800 8.24600 31.53400
H  0.85100 5.77600 31.18500
H  3.54300 6.46300 31.84100
H  3.62400 5.54100 30.32800
H  2.81400 4.85000 31.74600
H  -0.56900 7.52700 31.76000
H  -0.23000 9.32800 31.37600
H  -0.42100 8.28500 33.75700
H  0.38800 9.70800 33.49600
H  1.39800 1.52500 27.84300
H  -0.24700 1.35800 27.38900
H  0.06800 2.50100 28.67700
H  0.32300 0.50100 23.69500
H  -0.63200 0.70300 25.26900
H  1.10900 0.71000 25.30000
H  -0.50300 7.33500 21.80400
H  1.43000 9.43500 21.79700
H  1.67400 5.94500 21.29200
H  2.24900 7.62700 20.79600
H  0.82100 6.87700 20.20700
H  -1.03700 10.33200 23.17800
H  -1.61800 9.24000 22.09200
H  -1.16800 10.96900 20.18000
H  0.37000 11.34700 20.94900
H  -1.20300 11.93800 21.52800
H  1.43500 13.88400 25.37600
H  2.69500 12.91500 24.63000
H  2.96200 13.87000 26.20200
H  1.10600 11.22900 30.64800
H  4.86600 11.10800 32.85300
H  3.70300 11.60400 34.11900
H  4.46000 12.76500 32.96800
Mg 42.92900 4.16000 47.64200
C  40.89700 6.98400 47.40900
C  40.07700 2.21600 47.60800
C  44.90800 1.44200 47.06800
C  45.71900 6.24500 47.33500
N  40.72300 4.55500 47.46500
C  40.11500 5.77300 47.49100
C  38.53300 5.63300 47.77900
C  38.39800 4.11500 47.85000
C  39.80500 3.58000 47.69500
C  37.77900 3.51100 49.13500
C  37.58600 6.33300 46.69900
C  38.04400 5.95500 45.26600
H  38.41400 7.03700 44.29600
N  42.52100 2.09500 47.48500
C  41.28400 1.50500 47.40400
C  41.38800 0.09100 47.11900
C  42.79600 -0.13300 46.91200
C  43.48700 1.14800 47.20500
C  40.32300 -0.93800 47.12500
C  43.37500 -1.55700 46.54700
O  42.69700 -2.51500 46.35600
C  44.91100 -1.75700 46.32200
N  45.01100 3.89300 47.19600
C  45.63600 2.63600 47.17700
C  47.16100 2.75600 47.25400
C  47.41400 4.25800 47.38900
C  45.97400 4.87400 47.38300
C  47.83400 1.87000 48.39400
C  48.47100 4.82900 46.37600
C  49.94300 4.97800 46.88000
N  43.26500 6.21600 47.31700
C  44.41000 6.86600 47.26100
C  44.14100 8.29800 47.21100
C  42.73700 8.39000 47.22500
C  42.27600 7.09000 47.31000
C  45.15600 9.41500 47.14200
C  41.60100 9.29500 47.22800
O  41.52500 10.54500 47.20900
C  40.32100 8.42000 47.31500
C  39.47400 8.99600 48.42400
O  39.45200 8.68400 49.64600
O  38.56600 9.88600 47.85600
C  37.66800 10.49300 48.76800
H  39.12200 1.68800 47.64600
H  45.60200 0.59900 47.06500
H  46.61600 6.86600 47.29300
H  38.33700 6.24600 48.65900
H  38.01600 3.68600 46.92400
H  37.40100 4.32300 49.75600
H  38.55400 3.11600 49.79200
H  36.91700 2.86700 48.96400
H  37.68800 7.41300 46.80400
H  36.56500 6.08200 46.98700
H  37.16400 5.40300 44.93600
H  38.82000 5.18900 45.24900
H  40.59700 -1.83700 47.67800
H  40.27900 -1.17300 46.06200
H  39.35500 -0.56400 47.45700
H  45.50200 -1.90100 47.22600
H  45.26900 -0.94500 45.68900
H  44.97700 -2.78400 45.96300
H  47.60200 2.38700 46.32800
H  47.63900 4.50100 48.42800
H  48.55900 2.46100 48.95500
H  48.41900 1.06900 47.94200
H  47.19900 1.43800 49.16700
H  48.00100 5.71700 45.95400
H  48.54400 4.14600 45.52900
H  50.01400 4.57900 47.89100
H  50.25900 6.01900 46.95700
H  50.62200 4.41800 46.23700
H  44.57200 10.30900 46.92300
H  45.93400 9.26300 46.39400
H  45.56500 9.58600 48.13700
H  39.79400 8.64200 46.38700
H  37.04500 9.81900 49.35700
H  36.93800 11.12400 48.26100
H  38.19600 11.10300 49.50100

