158

Mg 25.21600 -8.58500 48.06600
C  27.46000 -6.21700 46.84100
C  23.05700 -7.66500 45.64700
C  23.10300 -10.99500 49.23700
C  27.68600 -9.73900 50.38600
N  25.31800 -7.23200 46.38900
C  26.27700 -6.31600 46.05900
C  25.88900 -5.34100 44.95300
C  24.40400 -5.83700 44.60400
C  24.25100 -7.00500 45.58100
C  23.35100 -4.69800 44.86000
C  26.80900 -5.37500 43.72600
C  27.46600 -3.97300 43.28600
H  27.30200 -3.60600 41.84800
N  23.36600 -9.35300 47.41100
C  22.66000 -8.80700 46.35300
C  21.49600 -9.62200 46.22000
C  21.39200 -10.49700 47.33500
C  22.64700 -10.35100 48.02900
C  20.58400 -9.43100 45.11600
C  20.17600 -11.33300 47.67700
O  19.14800 -11.41900 46.99700
C  20.16900 -12.11600 48.95500
N  25.39300 -10.24700 49.45700
C  24.29100 -10.94400 49.94200
C  24.61300 -11.81100 51.14000
C  26.14500 -11.64600 51.27600
C  26.47700 -10.47800 50.30900
C  23.74600 -11.44800 52.41400
C  27.08300 -12.88200 50.92400
C  28.08300 -13.45400 51.98900
N  27.08700 -8.06000 48.56900
C  27.98100 -8.66400 49.51200
C  29.23200 -7.90100 49.38900
C  29.03700 -6.89300 48.42300
C  27.73400 -7.08100 47.94400
C  30.52400 -8.30500 50.21600
C  29.58700 -5.71800 47.75300
O  30.57300 -5.14000 48.00400
C  28.55600 -5.19200 46.80300
C  28.08500 -3.92000 47.43400
O  27.37800 -3.84500 48.43000
O  28.51400 -2.97500 46.64100
C  28.14700 -1.60900 47.00300
H  22.23700 -7.42600 44.96700
H  22.38900 -11.65800 49.73100
H  28.44300 -10.24400 50.99000
H  25.87500 -4.35800 45.42400
H  24.33500 -6.21200 43.58200
H  23.84800 -3.76000 44.61400
H  22.89700 -4.81000 45.84400
H  22.52700 -4.84200 44.16100
H  26.34100 -5.71400 42.80200
H  27.54300 -6.13900 43.98600
H  28.54600 -3.95200 43.43300
H  27.15000 -3.15300 43.93200
H  19.79500 -10.17100 44.98500
H  21.08800 -9.44000 44.15000
H  19.96600 -8.54600 45.26600
H  20.96400 -12.85600 48.86400
H  19.19500 -12.59900 49.03400
H  20.30900 -11.39100 49.75600
H  24.40400 -12.82100 50.78700
H  26.40100 -11.21900 52.24500
H  24.32100 -10.75100 53.02400
H  23.58600 -12.41300 52.89500
H  22.82600 -10.98100 52.06300
H  27.61300 -12.55300 50.03000
H  26.44300 -13.73900 50.71500
H  27.87700 -14.44900 52.38400
H  28.35200 -12.75600 52.78300
H  28.99700 -13.56400 51.40500
H  30.37500 -8.21300 51.29200
H  31.41000 -7.71000 49.99600
H  30.84600 -9.32200 49.99100
H  28.93800 -5.12700 45.78400
H  28.80300 -1.17100 47.75600
H  27.13000 -1.42100 47.34800
H  28.21600 -0.96300 46.12800
Mg 15.49500 51.81700 26.49800
C  18.04100 50.90600 28.78300
C  13.28900 51.76900 29.12900
C  13.02800 52.41800 24.35400
C  17.82400 51.30100 23.85200
N  15.71900 51.53500 28.74800
C  16.87200 51.34100 29.43500
C  16.56100 51.50900 30.95700
C  15.06000 51.17600 30.98900
C  14.63800 51.50400 29.54700
C  14.82300 49.75300 31.36400
C  16.93000 52.92700 31.51300
C  17.02300 53.06600 32.98800
H  16.23800 52.16800 33.92700
N  13.49700 52.07400 26.70800
C  12.72800 51.98400 27.88100
C  11.32100 52.16600 27.67500
C  11.24500 52.43500 26.25300
C  12.60400 52.37100 25.71900
C  10.20900 52.10900 28.72500
C  10.00500 52.76500 25.39000
O  10.08000 52.99600 24.20700
C  8.58900 52.84100 26.10400
N  15.38800 51.78500 24.39000
C  14.25600 52.28100 23.79000
C  14.43700 52.44900 22.27600
C  15.94700 51.91400 22.06600
C  16.44200 51.70800 23.49200
C  13.48300 51.59700 21.42600
C  16.78200 52.90900 21.18600
C  17.63400 52.40400 20.04600
N  17.50500 51.25200 26.33800
C  18.30400 51.10600 25.21400
C  19.66300 50.76700 25.55400
C  19.52900 50.54100 26.97900
C  18.23800 50.92500 27.37500
C  20.86400 50.54200 24.70300
C  20.24400 50.08400 28.17500
O  21.41700 49.67300 28.30200
C  19.25600 50.37500 29.40700
C  19.01300 49.11900 30.21500
O  18.31300 48.17700 29.91800
O  19.56800 49.35100 31.43000
C  19.21900 48.48200 32.58500
H  12.60300 51.67400 29.97300
H  12.23600 52.64800 23.63900
H  18.56700 51.20700 23.05800
H  17.14900 50.74100 31.45900
H  14.44800 51.91600 31.50600
H  14.07300 49.25100 30.75300
H  14.58300 49.63300 32.42100
H  15.74200 49.17400 31.27700
H  16.34100 53.65600 30.95600
H  17.98000 53.02100 31.23700
H  16.71900 54.11000 33.05000
H  18.04600 53.01400 33.36200
H  9.52900 52.94500 28.56100
H  10.66000 52.13800 29.71700
H  9.60700 51.20600 28.62500
H  8.44500 51.90600 26.64600
H  7.78700 52.93400 25.37200
H  8.48900 53.70200 26.76500
H  14.39800 53.50600 22.01300
H  15.89500 50.90300 21.66200
H  13.13900 50.70300 21.94600
H  14.06700 51.09500 20.65500
H  12.66400 52.15200 20.96700
H  17.57800 53.29000 21.82600
H  16.28000 53.80200 20.81500
H  17.40200 52.91300 19.11000
H  17.58900 51.31600 19.98800
H  18.68900 52.54900 20.27900
H  20.72100 51.09900 23.77700
H  20.83800 49.49800 24.39000
H  21.79300 50.81600 25.20100
H  19.68500 51.11700 30.08000
H  18.71200 49.08800 33.33600
H  20.09600 48.12600 33.12600
H  18.55400 47.63600 32.41500

