158

Mg -10.26100 18.22300 42.80200
C  -7.03600 17.21300 42.37900
C  -9.37300 21.46200 42.30900
C  -13.56300 19.00700 42.68600
C  -11.21800 14.76000 42.48000
N  -8.48300 19.20800 42.01600
C  -7.23500 18.62000 42.14100
C  -6.15000 19.64800 41.97100
C  -6.86800 21.03400 42.06200
C  -8.37300 20.55300 42.16400
C  -6.45200 21.87000 43.37700
C  -5.13300 19.46400 40.79500
C  -5.74600 18.96400 39.48400
H  -5.00500 19.20600 38.23800
N  -11.38700 20.02600 42.59400
C  -10.79200 21.23700 42.36100
C  -11.84100 22.23900 42.23500
C  -13.05200 21.58900 42.46700
C  -12.70000 20.15900 42.61700
C  -11.70500 23.73400 41.87100
C  -14.47900 22.20400 42.75600
O  -14.66600 23.39900 42.77200
C  -15.73400 21.34300 43.25900
N  -12.12400 17.00600 42.88700
C  -13.32400 17.65400 42.88900
C  -14.47500 16.60900 42.83000
C  -13.71600 15.21800 42.64300
C  -12.26200 15.68100 42.57000
C  -15.44500 16.58900 44.04700
C  -14.27300 14.34900 41.47200
C  -14.68300 12.99800 41.97000
N  -9.36500 16.32600 42.68200
C  -9.86400 14.99900 42.56500
C  -8.70900 14.10700 42.50900
C  -7.59600 14.90000 42.57100
C  -8.07200 16.24200 42.53800
C  -8.75700 12.61600 42.34800
C  -6.19300 14.88200 42.41200
O  -5.39400 13.98600 42.30800
C  -5.78500 16.42900 42.54900
C  -5.04400 16.68200 43.82300
O  -3.81000 16.69000 43.93400
O  -5.95800 16.96700 44.80600
C  -5.35300 17.24600 46.14600
H  -9.19900 22.53100 42.17700
H  -14.63400 19.21200 42.72700
H  -11.38700 13.70500 42.25800
H  -5.52600 19.59900 42.86300
H  -6.70600 21.74300 41.25000
H  -7.37200 21.89400 43.96000
H  -6.16800 22.91100 43.22700
H  -5.63200 21.43000 43.94500
H  -4.38300 18.72500 41.07700
H  -4.68300 20.45100 40.68200
H  -6.83100 19.05800 39.51200
H  -5.64100 17.87900 39.46100
H  -12.61500 24.04200 41.35600
H  -10.78700 23.93700 41.32000
H  -11.57200 24.32200 42.77900
H  -15.47400 20.81100 44.17300
H  -16.15300 20.69500 42.48900
H  -16.60600 21.98700 43.37700
H  -15.03800 16.75400 41.90800
H  -13.89600 14.67600 43.57100
H  -16.41700 16.87600 43.64600
H  -15.08400 17.20900 44.86800
H  -15.51300 15.55100 44.37300
H  -13.61900 14.34500 40.59900
H  -15.21600 14.78200 41.13900
H  -14.25600 12.83900 42.96100
H  -14.27500 12.22200 41.32300
H  -15.77100 12.97400 41.89800
H  -9.65200 12.17600 42.78900
H  -7.98200 12.12800 42.93900
H  -8.81800 12.45000 41.27200
H  -5.05100 16.61600 41.76500
H  -5.50600 16.37200 46.77800
H  -5.93400 17.95100 46.74000
H  -4.32200 17.59900 46.18000
Mg -5.51800 25.58600 27.05000
C  -3.91400 27.05700 29.84900
C  -7.13000 23.47200 29.16000
C  -6.51300 24.01700 24.32100
C  -3.40200 27.49800 25.03500
N  -5.41900 25.26100 29.26500
C  -4.80900 26.09500 30.23600
C  -5.32300 25.79400 31.69000
C  -6.23700 24.52000 31.41200
C  -6.30200 24.39600 29.84000
C  -5.75400 23.19700 32.01200
C  -6.08600 26.96300 32.34200
C  -6.20800 26.99000 33.89600
H  -5.82800 25.81100 34.75100
N  -6.67100 23.97700 26.73900
C  -7.24600 23.28800 27.75200
C  -8.02100 22.19700 27.14400
C  -7.82000 22.27700 25.76500
C  -6.93300 23.42600 25.54300
C  -8.83400 21.24600 28.03000
C  -8.27800 21.30000 24.71900
O  -8.10200 21.41500 23.51000
C  -9.07400 20.12500 25.14000
N  -5.07700 25.75100 24.99300
C  -5.73800 25.11100 24.07200
C  -5.39400 25.54000 22.72300
C  -4.52900 26.78900 22.93800
C  -4.28200 26.63100 24.37500
C  -4.57200 24.39600 21.93500
C  -5.28200 28.12200 22.60100
C  -4.93400 28.66000 21.27600
N  -4.04000 27.05700 27.33000
C  -3.24000 27.71600 26.40100
C  -2.28100 28.50700 27.09700
C  -2.54900 28.29100 28.46300
C  -3.59900 27.43700 28.55900
C  -1.28900 29.46600 26.39600
C  -2.16500 28.68700 29.86200
O  -1.25600 29.42700 30.20000
C  -3.05300 27.96400 30.75700
C  -2.32800 27.14500 31.72700
O  -1.58900 26.20300 31.43100
O  -2.64900 27.44200 33.02800
C  -1.89800 26.74800 34.07200
H  -7.72200 22.96500 29.92500
H  -7.12900 23.60000 23.52100
H  -2.74200 28.08700 24.39500
H  -4.45600 25.62600 32.32800
H  -7.22500 24.63400 31.85800
H  -4.72900 23.33000 32.35700
H  -5.81300 22.27800 31.42900
H  -6.52400 22.97700 32.75100
H  -7.06900 26.99500 31.87200
H  -5.57500 27.88700 32.06800
H  -7.23000 27.14900 34.23900
H  -5.55800 27.83000 34.14100
H  -8.40900 20.27300 28.27800
H  -9.80300 21.09500 27.55600
H  -9.04700 21.74500 28.97500
H  -9.20800 19.48700 24.26700
H  -9.98300 20.47500 25.62900
H  -8.57800 19.49800 25.88200
H  -6.28600 25.83600 22.17100
H  -3.63600 26.80200 22.31400
H  -4.49300 23.55000 22.61700
H  -3.53200 24.67100 21.76100
H  -5.03900 23.98500 21.03900
H  -4.94300 28.86600 23.32100
H  -6.36000 28.01000 22.71800
H  -4.04200 28.23400 20.81600
H  -4.91400 29.74800 21.22100
H  -5.73100 28.43000 20.56900
H  -1.69700 29.99500 25.53500
H  -0.45000 28.85000 26.07400
H  -0.91500 30.20400 27.10600
H  -3.62400 28.79100 31.17900
H  -2.41300 25.78800 34.06100
H  -1.97300 27.31000 35.00300
H  -0.84000 26.58000 33.86900

