158

Mg 26.13800 1.56500 29.92800
C  28.11600 1.48600 32.76000
C  23.39700 2.08800 32.11700
C  24.11200 1.69000 27.18300
C  28.63400 0.41900 28.06600
N  25.75200 1.82400 32.24300
C  26.78800 1.75900 33.16300
C  26.24800 2.10500 34.55800
C  24.68800 1.96100 34.39900
C  24.53800 2.01500 32.84700
C  24.09000 0.63000 35.02100
C  26.77800 3.47700 35.05600
C  27.43700 3.65500 36.49000
H  26.45600 4.33100 37.44700
N  24.04800 1.92100 29.72600
C  23.10900 1.98300 30.72900
C  21.80100 2.11600 30.15600
C  22.00400 2.18700 28.72300
C  23.44000 1.91800 28.44900
C  20.53500 2.29100 30.96100
C  20.95900 2.35600 27.62900
O  21.21900 2.21000 26.42600
C  19.47100 2.52500 27.89900
N  26.35400 1.03300 27.91700
C  25.38800 1.16500 26.95100
C  25.96800 1.03000 25.49200
C  27.51500 0.86700 25.79700
C  27.51300 0.68900 27.34700
C  25.43600 -0.03900 24.66500
C  28.42100 2.06500 25.35700
C  29.82700 1.67800 24.90900
N  28.00400 0.91400 30.32400
C  28.95900 0.49700 29.39900
C  30.24000 0.36700 30.05100
C  29.98200 0.72700 31.38200
C  28.63500 1.10300 31.44900
C  31.43600 -0.15700 29.35000
C  30.54300 0.85000 32.73900
O  31.63900 0.63100 33.23900
C  29.38500 1.39000 33.69700
C  29.27600 0.46200 34.87300
O  28.62700 -0.59200 34.81200
O  29.80100 0.91900 36.03300
C  29.84600 0.03600 37.17100
H  22.54800 2.29000 32.77300
H  23.54200 1.85200 26.26500
H  29.47500 0.11600 27.43900
H  26.61800 1.42000 35.32100
H  24.13600 2.75400 34.90200
H  23.76000 -0.05100 34.23600
H  23.17800 0.84500 35.57800
H  24.73000 0.14600 35.75900
H  25.96800 4.20300 35.00300
H  27.56600 3.85500 34.40400
H  28.33700 4.26900 36.51600
H  27.78500 2.69200 36.86600
H  19.93800 1.38400 30.86200
H  20.00200 3.19300 30.66000
H  20.81100 2.29700 32.01500
H  19.04900 1.72100 28.50200
H  18.89200 2.48900 26.97600
H  19.29000 3.45300 28.44100
H  25.77400 1.98800 25.00900
H  27.85400 -0.04900 25.31200
H  24.64400 0.29600 23.99500
H  25.02600 -0.78300 25.34700
H  26.18400 -0.52300 24.03700
H  28.56100 2.73800 26.20200
H  27.95200 2.55500 24.50400
H  30.53000 2.30800 25.45400
H  29.85700 1.86300 23.83500
H  29.93100 0.61400 25.11900
H  32.12900 0.68400 29.32200
H  31.27300 -0.46000 28.31600
H  31.89100 -0.91100 29.99200
H  29.72800 2.38800 33.97200
H  30.04700 -0.98000 36.83200
H  28.89100 0.13500 37.68700
H  30.58400 0.27300 37.93700
Mg 49.80600 46.24000 42.51900
C  46.56100 46.54200 41.11900
C  49.94700 43.04600 41.20900
C  53.12200 46.22200 42.79600
C  49.84900 49.71700 42.98400
N  48.37300 45.02700 41.29300
C  47.14200 45.32900 40.80000
C  46.47700 44.17000 39.98000
C  47.53900 43.05400 40.13100
C  48.69400 43.71200 41.00000
C  47.04600 41.75200 40.72400
C  46.10700 44.65400 38.51500
C  44.71200 44.52600 38.04000
H  44.46000 43.50100 36.90400
N  51.26200 44.74600 42.27600
C  51.10600 43.54600 41.73100
C  52.33200 42.75600 41.88200
C  53.37800 43.63700 42.26100
C  52.63400 44.92600 42.47200
C  52.46400 41.25600 41.61600
C  54.84600 43.30100 42.46100
O  55.34500 42.21400 42.12800
C  55.77100 44.42200 43.08200
N  51.26400 47.69300 42.79900
C  52.54800 47.42900 42.98200
C  53.41900 48.70500 43.22400
C  52.36300 49.81500 43.08500
C  51.04900 48.99900 43.02200
C  54.20200 48.79100 44.58500
C  52.43700 50.65000 41.75700
C  52.48000 52.19000 41.93600
N  48.44500 47.85400 42.35400
C  48.57800 49.19800 42.65800
C  47.29200 49.81200 42.49100
C  46.52400 48.79700 41.90900
C  47.26000 47.67200 41.74100
C  46.98600 51.28400 42.70200
C  45.13400 48.56900 41.40400
O  44.16400 49.26000 41.44400
C  45.16600 47.09700 40.78800
C  44.21700 46.30600 41.64200
O  44.25100 46.10000 42.93000
O  43.12200 45.81200 40.87000
C  42.00400 45.18500 41.67500
H  50.04800 42.02000 40.85000
H  54.19100 46.35200 42.97900
H  49.93200 50.80500 43.00400
H  45.62300 43.86000 40.58000
H  47.95900 42.74800 39.17200
H  47.11700 40.96700 39.97200
H  46.00500 41.89800 41.01200
H  47.63400 41.64100 41.63500
H  46.73800 44.05600 37.85800
H  46.44800 45.68000 38.37800
H  44.15200 45.44200 37.85100
H  44.20100 44.05100 38.87800
H  51.50500 40.74200 41.68600
H  53.05100 40.83400 42.43200
H  52.90800 41.05000 40.64100
H  55.90000 45.19100 42.32000
H  56.74600 43.95800 43.23000
H  55.44900 44.70500 44.08400
H  54.20400 48.71400 42.46900
H  52.29100 50.41600 43.99200
H  54.77200 47.87700 44.75200
H  53.54700 48.99900 45.43100
H  54.90500 49.62300 44.54000
H  51.49500 50.47500 41.23900
H  53.16900 50.28200 41.03700
H  53.43300 52.51700 41.51900
H  52.41600 52.46300 42.98900
H  51.66600 52.56100 41.31300
H  47.42300 51.84500 41.87500
H  47.48100 51.71100 43.57500
H  45.90900 51.44800 42.72300
H  44.90000 47.12300 39.73200
H  41.25300 45.12800 40.88700
H  41.57100 45.79700 42.46700
H  42.26900 44.24900 42.16700

