158

Mg 29.88600 57.95300 38.81400
C  27.31800 55.65000 37.85400
C  32.11000 55.57800 38.30900
C  32.30800 60.34200 38.93300
C  27.41500 60.57700 38.29900
N  29.67700 55.87500 38.20200
C  28.59100 55.08000 37.95800
C  28.97500 53.62100 37.85500
C  30.45700 53.58100 38.27100
C  30.79900 55.12700 38.22100
C  30.92600 52.97300 39.61500
C  28.61800 52.99900 36.42700
C  29.07000 53.79300 35.25800
H  28.05000 54.13500 34.14400
N  31.97100 57.92900 38.86700
C  32.67900 56.83500 38.59400
C  34.11300 57.12100 38.61500
C  34.23900 58.53600 38.83000
C  32.81700 59.02400 38.92200
C  35.13000 56.12400 38.46600
C  35.57500 59.31300 38.83800
O  36.68000 58.79000 38.73200
C  35.59400 60.77000 39.02700
N  29.93600 60.14700 38.48700
C  31.01700 60.85200 38.71200
C  30.80000 62.35100 38.66000
C  29.25400 62.44900 38.45800
C  28.83000 60.93700 38.47000
C  31.21800 63.21000 39.99000
C  28.69600 63.12000 37.14500
C  27.62200 64.19400 37.39200
N  27.75200 58.13800 38.29100
C  26.89200 59.20900 38.15900
C  25.56700 58.72200 37.78300
C  25.72900 57.36900 37.65100
C  27.04100 57.02900 38.04000
C  24.34900 59.52700 37.53800
C  24.95600 56.16000 37.41300
O  23.79700 55.96800 37.07800
C  25.99500 55.02500 37.60500
C  25.58400 54.08700 38.64400
O  25.59900 54.36700 39.82200
O  25.15000 52.88200 38.16800
C  25.02000 51.84300 39.16900
H  32.78500 54.77100 38.01600
H  33.11300 61.08000 38.95100
H  26.66500 61.36600 38.21400
H  28.32100 53.13400 38.57900
H  31.03500 53.14300 37.45700
H  31.47700 52.03700 39.52400
H  30.04600 52.73500 40.21200
H  31.56500 53.65500 40.17600
H  27.53700 52.85800 36.40700
H  29.15100 52.05000 36.37000
H  29.88600 53.25000 34.78000
H  29.58300 54.74500 35.39600
H  35.47900 55.98900 37.44200
H  34.73100 55.13100 38.67600
H  36.01100 56.30500 39.08200
H  35.08800 61.03100 39.95700
H  35.02100 61.36300 38.31500
H  36.62400 61.10000 39.16200
H  31.37600 62.59100 37.76600
H  28.80000 62.86800 39.35600
H  32.00500 62.66800 40.51500
H  30.34800 63.26900 40.64400
H  31.68400 64.14600 39.68200
H  28.34800 62.48700 36.32800
H  29.54100 63.67700 36.74300
H  26.64400 63.79300 37.12500
H  27.84300 65.13100 36.88000
H  27.55800 64.43700 38.45200
H  23.59500 59.26100 38.27900
H  24.03400 59.32500 36.51400
H  24.48500 60.60600 37.61000
H  26.15600 54.49600 36.66600
H  24.27800 52.13300 39.91300
H  25.95900 51.69300 39.70200
H  24.72600 50.90900 38.69000
Mg -10.33000 17.45200 41.58700
C  -6.75800 17.43100 41.63800
C  -9.94700 20.84500 40.83900
C  -13.50000 17.43000 40.61500
C  -10.25300 13.99600 41.80200
N  -8.55200 18.83700 41.18700
C  -7.23700 18.60900 41.17200
C  -6.37900 19.79900 40.80500
C  -7.47000 20.89800 41.04500
C  -8.77500 20.12200 41.08600
C  -7.25900 21.80700 42.29200
C  -5.92900 19.54000 39.33500
C  -4.48800 19.05600 39.04900
H  -4.33800 17.57000 38.60300
N  -11.56000 18.92600 40.81800
C  -11.21300 20.23400 40.68000
C  -12.44300 21.00300 40.39400
C  -13.45300 20.06000 40.14100
C  -12.87600 18.70500 40.49300
C  -12.50600 22.54900 40.16200
C  -14.82000 20.43400 39.65000
O  -15.10900 21.59400 39.36300
C  -15.88600 19.39000 39.63400
N  -11.73200 15.91200 41.21600
C  -12.97400 16.19800 40.83000
C  -13.70300 14.85700 40.53700
C  -12.72000 13.74700 41.03500
C  -11.49200 14.57600 41.37100
C  -15.16600 14.81400 41.02300
C  -12.48700 12.55100 40.06700
C  -13.26000 11.28300 40.34200
N  -8.88800 16.00100 41.93300
C  -9.03200 14.64900 42.04900
C  -7.78500 14.06000 42.29600
C  -6.85200 15.16800 42.27200
C  -7.58700 16.29200 41.95100
C  -7.43000 12.66200 42.49400
C  -5.48600 15.49100 42.40500
O  -4.49400 14.73000 42.55100
C  -5.37400 17.00100 42.09200
C  -4.92900 17.79000 43.29600
O  -5.63100 18.47200 44.07800
O  -3.54300 17.84000 43.30200
C  -2.94700 18.58700 44.43000
H  -9.86000 21.91800 40.65700
H  -14.53100 17.58900 40.29000
H  -10.14700 12.91200 41.87700
H  -5.56300 19.90700 41.51900
H  -7.47000 21.54900 40.17100
H  -8.13400 21.94000 42.92800
H  -6.94700 22.79700 41.96200
H  -6.45500 21.42600 42.92200
H  -6.15100 20.45000 38.77700
H  -6.62600 18.79200 38.95800
H  -3.94000 19.24900 39.97200
H  -4.07800 19.74900 38.31400
H  -13.50600 22.93100 40.36600
H  -12.40200 22.72900 39.09200
H  -11.81400 23.19200 40.70600
H  -16.75100 19.90500 39.21700
H  -16.00000 18.88800 40.59500
H  -15.57000 18.62300 38.92700
H  -13.71400 14.83900 39.44800
H  -13.08400 13.32600 41.97200
H  -15.71900 14.58300 40.11300
H  -15.55000 15.74100 41.44900
H  -15.23600 13.99200 41.73600
H  -11.42900 12.30200 40.14400
H  -12.65700 13.00000 39.08800
H  -12.81900 11.00900 41.30000
H  -13.02900 10.56800 39.55200
H  -14.33100 11.46900 40.42400
H  -7.01600 12.28300 41.56000
H  -8.28900 12.04800 42.76400
H  -6.74000 12.47200 43.31600
H  -4.66200 17.19700 41.29000
H  -1.86100 18.58000 44.33700
H  -3.25700 18.15100 45.37900
H  -3.21900 19.63100 44.27400

