158

Mg 49.55300 34.20000 25.74500
C  47.37500 33.03700 28.19300
C  49.62200 37.22500 27.33100
C  51.50700 35.33100 23.26500
C  48.99200 31.29300 23.95700
N  48.58700 35.02900 27.59600
C  47.90100 34.34400 28.51800
C  47.68400 35.15400 29.83000
C  48.05700 36.56600 29.34100
C  48.72800 36.29500 27.96300
C  46.78900 37.47100 29.15000
C  48.69100 34.68000 30.98200
C  48.03400 34.38900 32.31100
H  46.89900 35.33400 32.81100
N  50.49100 36.04000 25.36900
C  50.36500 37.16500 26.17200
C  51.14500 38.19900 25.48000
C  51.60400 37.74100 24.27800
C  51.18300 36.32600 24.27100
C  51.32900 39.53800 26.04400
C  52.31600 38.44100 23.12400
O  52.79600 37.85600 22.13400
C  52.60200 39.91800 23.21500
N  50.02100 33.46500 23.68600
C  50.99000 34.11900 22.95200
C  51.44700 33.22100 21.80800
C  50.71400 31.87300 22.10100
C  49.92000 32.20000 23.36900
C  51.09800 33.71300 20.38800
C  51.74000 30.63300 22.35500
C  52.10700 29.78100 21.16000
N  48.35600 32.50000 25.90100
C  48.17500 31.39500 25.11100
C  47.22100 30.44700 25.65200
C  46.79300 31.07200 26.86100
C  47.55800 32.30600 27.00600
C  46.79600 29.18100 24.97100
C  46.00000 30.98000 28.09700
O  45.22900 30.12000 28.52800
C  46.40300 32.24300 28.99600
C  46.96200 31.54300 30.19400
O  48.05300 31.15000 30.32200
O  46.02400 31.37800 31.13600
C  46.51900 30.66300 32.35800
H  49.54000 38.15400 27.89900
H  52.22000 35.62700 22.49200
H  48.80800 30.38400 23.38000
H  46.65600 35.08500 30.18500
H  48.68000 37.12400 30.04100
H  45.90600 37.12600 29.68700
H  46.57200 37.45000 28.08200
H  46.92500 38.51900 29.41600
H  49.49300 35.38800 31.19000
H  49.08900 33.68900 30.76700
H  48.87700 34.58700 32.97300
H  47.74300 33.40300 32.67200
H  51.03800 39.53200 27.09400
H  50.68500 40.26300 25.54500
H  52.34100 39.90900 25.88500
H  53.35100 40.04000 23.99700
H  51.71500 40.43300 23.58400
H  53.01300 40.28500 22.27500
H  52.52600 33.13900 21.94300
H  49.99300 31.75500 21.29300
H  51.04400 32.93700 19.62400
H  51.84200 34.46900 20.13900
H  50.13300 34.20900 20.48400
H  51.24300 30.07800 23.15100
H  52.60500 31.10600 22.81900
H  53.17700 29.94600 21.03300
H  51.56500 30.24600 20.33700
H  51.75800 28.75300 21.24900
H  45.87600 28.94800 25.50700
H  47.54200 28.38700 24.93300
H  46.50100 29.54900 23.98900
H  45.50800 32.84500 29.15800
H  46.93300 31.51500 32.89800
H  47.22100 29.84800 32.18400
H  45.69600 30.32800 32.98900
Mg -0.35800 43.62400 26.95000
C  1.49400 43.48800 30.00800
C  -3.20600 42.92200 28.69600
C  -1.68000 42.67500 24.13600
C  2.73700 44.25300 25.36200
N  -0.83900 43.31800 29.03700
C  0.06800 43.39800 30.12700
C  -0.69500 43.42400 31.45300
C  -2.17500 43.10300 31.01700
C  -2.10800 43.13000 29.50700
C  -2.71000 41.71400 31.64800
C  -0.56200 44.85500 32.15100
C  -0.59700 44.95200 33.69400
H  -0.72400 43.65700 34.54600
N  -2.19900 42.95100 26.37500
C  -3.23600 42.81900 27.25200
C  -4.44100 42.46500 26.43300
C  -4.04300 42.39500 25.09900
C  -2.57400 42.63900 25.12800
C  -5.82200 42.24000 27.03400
C  -4.89200 42.12500 23.91500
O  -4.28900 41.83000 22.88100
C  -6.44600 42.04500 23.90800
N  0.37600 43.56900 25.06900
C  -0.40500 43.14100 24.03700
C  0.41600 43.25000 22.71800
C  1.70800 44.05500 23.16400
C  1.58700 44.00400 24.62900
C  0.72000 41.88400 21.96700
C  1.83200 45.49400 22.52700
C  2.11100 45.47300 21.00400
N  1.76900 43.83700 27.55700
C  2.83700 44.13600 26.77300
C  4.00300 44.22100 27.60400
C  3.56700 43.93100 28.91200
C  2.14000 43.68800 28.79200
C  5.51400 44.36500 27.25400
C  3.94600 43.65400 30.23800
O  5.13400 43.55400 30.59200
C  2.60700 43.51500 31.07900
C  2.63100 42.18600 31.71400
O  2.43700 41.10600 31.09200
O  3.00900 42.26800 33.03400
C  2.65300 41.10500 33.89700
H  -4.16600 42.80300 29.20300
H  -2.02700 42.43900 23.12800
H  3.64900 44.51600 24.82300
H  -0.37300 42.58400 32.06900
H  -2.83600 43.91000 31.33200
H  -1.83800 41.20500 32.05900
H  -3.09800 41.08100 30.85000
H  -3.32200 41.89900 32.53000
H  -1.39100 45.44500 31.76200
H  0.32800 45.31600 31.72300
H  -1.41500 45.63300 33.92700
H  0.34100 45.40900 34.01100
H  -6.38200 43.06200 26.58700
H  -5.80400 42.32400 28.12100
H  -6.34200 41.32800 26.74000
H  -6.86900 42.30000 22.93600
H  -6.92200 42.83500 24.49000
H  -6.70800 41.03700 24.23000
H  -0.06100 43.88400 21.97000
H  2.63600 43.53200 22.93500
H  0.34900 41.09600 22.62200
H  1.79600 41.80900 21.81200
H  0.19200 41.95000 21.01500
H  2.58100 46.15600 22.96000
H  0.87600 46.00500 22.63800
H  2.95200 46.15500 20.88000
H  1.27500 45.89200 20.44500
H  2.25300 44.46300 20.62100
H  6.06300 43.53900 26.80100
H  6.01600 44.47500 28.21500
H  5.71100 45.27100 26.68100
H  2.65000 44.32300 31.80900
H  1.61100 40.81500 33.76900
H  2.72800 41.32400 34.96200
H  3.43000 40.34500 33.81400

