158

Mg 9.02000 3.84800 27.07200
C  10.17600 2.08800 29.85600
C  7.00100 5.59000 29.18000
C  7.77700 5.48000 24.40000
C  10.49100 1.39800 25.00100
N  8.43500 3.63000 29.21400
C  9.18800 2.97600 30.19000
C  8.93100 3.41700 31.59300
C  7.77200 4.50100 31.35100
C  7.65000 4.54100 29.83100
C  6.56600 4.52000 32.27100
C  10.18200 4.02300 32.27000
C  10.26700 3.58500 33.79300
H  10.80900 4.54200 34.92300
N  7.63800 5.38200 26.83200
C  6.88500 5.95100 27.80000
C  6.06000 6.99900 27.29100
C  6.31000 7.03400 25.89900
C  7.28900 5.96900 25.62300
C  5.31600 7.96400 28.09700
C  5.86900 8.03200 24.80300
O  6.26300 7.94900 23.61300
C  4.83000 8.90700 25.22700
N  9.00000 3.39500 25.05200
C  8.50100 4.27800 24.14200
C  8.86300 3.81800 22.68100
C  9.82400 2.60600 22.86200
C  9.69300 2.40000 24.41300
C  7.65500 3.72900 21.73200
C  11.25600 2.92500 22.42400
C  12.21700 3.52600 23.35200
N  10.08700 2.04200 27.29600
C  10.61100 1.15100 26.39400
C  11.55400 0.30000 27.12800
C  11.38600 0.58200 28.49800
C  10.41200 1.62900 28.54100
C  12.51400 -0.57500 26.51900
C  11.84900 0.27700 29.81000
O  12.69000 -0.58900 30.12800
C  11.07000 1.26200 30.75300
C  10.31500 0.46200 31.67200
O  9.15500 0.00700 31.40700
O  10.87500 0.46500 32.92100
C  10.20700 -0.19600 33.99700
H  6.41700 6.21700 29.85700
H  7.40600 5.99100 23.51000
H  11.17400 0.76700 24.42800
H  8.49200 2.54600 32.08000
H  8.18600 5.50500 31.44000
H  6.87000 4.06800 33.21500
H  5.77700 3.93100 31.80400
H  6.21800 5.54500 32.40000
H  10.14000 5.11200 32.23700
H  11.11100 3.79000 31.74900
H  10.79300 2.63600 33.89800
H  9.25900 3.24300 34.02600
H  5.49800 9.01100 27.85200
H  5.53400 7.92900 29.16500
H  4.26000 7.78800 27.89500
H  4.03500 8.23000 25.53900
H  4.59200 9.44800 24.31100
H  5.06100 9.52800 26.09200
H  9.45800 4.64700 22.29800
H  9.35400 1.74200 22.39400
H  6.73600 4.03500 22.23100
H  7.45100 2.82800 21.15300
H  7.77600 4.40100 20.88200
H  11.25900 3.60700 21.57400
H  11.60600 2.00700 21.95300
H  12.70200 4.33800 22.81000
H  12.81200 2.67500 23.68500
H  11.67200 3.92900 24.20500
H  12.12300 -1.53000 26.16800
H  13.25900 -0.74800 27.29600
H  12.98800 -0.02600 25.70600
H  11.88500 1.72500 31.31000
H  9.47700 0.51700 34.38000
H  10.81100 -0.43000 34.87400
H  9.68300 -1.10100 33.68700
Mg 41.72000 40.36500 27.39900
C  41.10700 42.96900 29.80800
C  42.91800 38.38400 29.98500
C  42.86000 38.32800 25.07200
C  41.04500 42.82100 24.93200
N  42.04700 40.78200 29.61900
C  41.51300 41.76500 30.38900
C  41.51400 41.41000 31.92600
C  42.21700 40.00500 31.93100
C  42.46800 39.67200 30.40200
C  43.51300 39.93500 32.83100
C  40.13100 41.56600 32.76800
C  40.26400 42.19300 34.24300
H  39.25600 41.73800 35.24600
N  42.61000 38.50200 27.57400
C  42.94700 37.85300 28.67400
C  43.39500 36.53000 28.28300
C  43.46400 36.52100 26.83100
C  42.94100 37.78500 26.42700
C  43.74200 35.46700 29.34800
C  44.00000 35.41100 25.99100
O  44.12300 35.55200 24.79800
C  44.48600 34.18300 26.59600
N  41.76900 40.47400 25.23000
C  42.41000 39.53100 24.54800
C  42.51000 39.93100 23.08900
C  41.68200 41.27900 22.99100
C  41.50300 41.58900 24.44600
C  44.00000 39.94700 22.47000
C  40.42200 41.18900 22.09200
C  39.23100 40.25600 22.64800
N  41.20900 42.37800 27.30000
C  40.92200 43.26700 26.20300
C  40.40900 44.50100 26.70800
C  40.61400 44.43000 28.02700
C  41.01600 43.11100 28.39500
C  39.84500 45.71600 25.97000
C  40.42700 45.28000 29.17900
O  39.98100 46.38900 29.23600
C  40.68500 44.33700 30.42500
C  41.78500 44.83700 31.26200
O  42.93300 44.95900 30.87900
O  41.37800 45.05200 32.55500
C  42.43700 45.36800 33.55600
H  43.18500 37.76300 30.84300
H  43.21500 37.74800 24.21700
H  40.75200 43.52600 24.15200
H  42.18900 42.15200 32.35300
H  41.41800 39.33000 32.23900
H  44.41600 39.75700 32.24700
H  43.46300 39.28200 33.70300
H  43.72000 40.96900 33.10800
H  39.52100 40.66600 32.69200
H  39.70500 42.32200 32.10800
H  40.10800 43.26100 34.08600
H  41.27200 42.05600 34.63300
H  43.42300 34.46900 29.04700
H  43.22700 35.50400 30.30800
H  44.78400 35.51400 29.66400
H  43.59500 33.63600 26.90500
H  45.20900 34.43300 27.37300
H  45.00100 33.67400 25.78200
H  41.97800 39.16500 22.52500
H  42.27900 42.11600 22.62800
H  44.46900 40.91800 22.30800
H  44.02600 39.51100 21.47100
H  44.78100 39.37500 22.97000
H  40.73400 40.65300 21.19500
H  40.10300 42.15500 21.70100
H  39.12500 39.28500 22.16400
H  38.27500 40.77200 22.56300
H  39.43600 39.96600 23.67900
H  39.30100 45.50400 25.05000
H  40.71100 46.29400 25.64700
H  39.23200 46.27200 26.68000
H  39.77400 44.12300 30.98400
H  42.55800 44.56800 34.28600
H  42.24300 46.26500 34.14400
H  43.46700 45.47700 33.21800

