158

Mg 48.08200 44.81600 41.66100
C  44.65600 44.13000 41.59600
C  48.63100 41.30500 41.30400
C  51.37900 45.23300 41.32500
C  47.41000 48.11200 41.43500
N  46.80100 42.95400 41.30000
C  45.37400 42.95500 41.40800
C  44.84200 41.54400 41.45600
C  46.10600 40.72800 41.36100
C  47.29400 41.68700 41.39800
C  46.19400 39.65600 42.44600
C  43.80900 41.17800 40.32300
C  43.89200 41.84800 38.95700
H  43.64500 41.15600 37.66100
N  49.78100 43.44400 41.30000
C  49.79100 42.12000 41.19600
C  51.15000 41.64900 41.09900
C  52.00200 42.73700 41.33100
C  51.06900 43.87000 41.34800
C  51.46800 40.15700 41.19300
C  53.44500 42.66500 41.75100
O  54.05700 41.60000 41.66800
C  54.28700 43.90600 42.08400
N  49.24100 46.43600 41.26200
C  50.59200 46.41600 41.31500
C  51.13600 47.87800 41.17500
C  49.89000 48.76300 41.29900
C  48.78100 47.71400 41.30900
C  52.34800 48.32300 42.08500
C  49.77600 49.93800 40.23100
C  49.30700 51.28800 40.85700
N  46.39800 45.97800 41.67500
C  46.28500 47.30300 41.62200
C  44.92300 47.74500 41.79500
C  44.19700 46.50800 41.82500
C  45.14200 45.48700 41.68700
C  44.43800 49.16300 41.87200
C  42.86000 45.87000 41.87500
O  41.74000 46.31000 42.13500
C  43.14000 44.26800 41.77400
C  42.51700 43.48700 42.84900
O  41.39900 42.85500 42.73200
O  43.35300 43.38500 43.92600
C  42.93500 42.38600 44.93100
H  48.88000 40.24900 41.42700
H  52.45700 45.39200 41.24700
H  47.04200 49.13200 41.30800
H  44.43300 41.37900 42.45300
H  46.09500 40.16800 40.42600
H  45.22100 39.31900 42.80300
H  46.77600 39.81300 43.35400
H  46.51400 38.69400 42.04600
H  42.80100 41.25700 40.73000
H  43.91900 40.13300 40.03200
H  44.80500 42.44400 38.93400
H  43.08700 42.58400 38.96000
H  51.72800 39.99000 42.23900
H  52.30800 39.72600 40.64900
H  50.68900 39.54400 40.74000
H  54.28900 44.50700 41.17500
H  55.36000 43.73100 42.16400
H  53.71800 44.40000 42.87100
H  51.60000 47.88300 40.18900
H  50.00600 49.10200 42.32800
H  53.29100 48.49700 41.56700
H  52.54100 47.51700 42.79300
H  52.18500 49.19900 42.71300
H  49.17000 49.69000 39.35900
H  50.80200 50.08200 39.89300
H  48.26600 51.36400 40.54400
H  49.96200 52.10400 40.55200
H  49.21200 51.31400 41.94300
H  43.41700 49.24900 42.24300
H  44.41100 49.48500 40.83100
H  45.02600 49.76300 42.56700
H  42.65600 43.87700 40.88000
H  43.76700 42.17500 45.60400
H  42.70100 41.41800 44.48800
H  42.17400 42.78900 45.59700
Mg 29.40000 58.69800 40.20800
C  26.56900 57.21100 39.02600
C  31.29800 56.31800 38.89200
C  32.08500 60.76700 40.69400
C  27.36000 61.48900 41.32800
N  28.89500 56.96000 39.09900
C  27.69600 56.51000 38.67200
C  27.85100 55.24000 37.80600
C  29.37700 54.86600 38.06300
C  29.90400 56.09400 38.78900
C  29.64100 53.53800 38.87200
C  27.47700 55.47000 36.31500
C  26.54000 54.41100 35.63400
H  25.59400 55.00200 34.49500
N  31.42000 58.61000 39.80000
C  32.03400 57.50400 39.31000
C  33.48400 57.64100 39.21500
C  33.73300 58.90400 39.81500
C  32.36100 59.51900 40.13900
C  34.46100 56.62500 38.77700
C  35.06900 59.56200 39.91100
O  36.08600 58.96000 39.50000
C  35.24900 60.93200 40.47500
N  29.66300 60.90600 40.72000
C  30.91700 61.37100 41.01100
C  30.82600 62.77700 41.62700
C  29.29400 62.87400 42.11700
C  28.71600 61.71500 41.27400
C  31.80700 63.03000 42.77300
C  28.71500 64.32000 41.95000
C  27.75900 64.73300 43.11000
N  27.43900 59.25500 40.28900
C  26.76500 60.34700 40.79700
C  25.30800 60.17300 40.62900
C  25.22300 58.95400 39.96000
C  26.51400 58.37900 39.78600
C  24.18600 61.12500 40.95400
C  24.23100 58.03400 39.39400
O  23.01300 58.02600 39.39300
C  25.06700 56.85000 38.75300
C  24.60000 55.65400 39.47500
O  24.67700 55.45900 40.68100
O  24.19000 54.69400 38.61600
C  23.99300 53.32900 39.12400
H  31.93400 55.53700 38.47000
H  32.92400 61.43200 40.91200
H  26.65000 62.14500 41.83600
H  27.22300 54.43700 38.19400
H  29.99400 54.71100 37.17800
H  30.35800 53.72700 39.67100
H  30.09600 52.83300 38.17700
H  28.70700 53.15200 39.28200
H  28.40000 55.66400 35.76800
H  26.94900 56.42300 36.26400
H  25.98300 53.81100 36.35400
H  27.18200 53.74200 35.06300
H  34.07000 55.66400 39.11300
H  35.38900 56.72200 39.34000
H  34.60100 56.60600 37.69600
H  36.31600 61.14900 40.52100
H  34.86300 61.08900 41.48200
H  34.80000 61.64100 39.77900
H  30.99700 63.54800 40.87500
H  29.18700 62.51400 43.14000
H  32.37300 63.90300 42.44800
H  32.40400 62.14200 42.97700
H  31.21700 63.36500 43.62600
H  28.15200 64.36700 41.01800
H  29.45800 65.11400 41.88700
H  26.72800 64.64800 42.76700
H  27.92100 65.73500 43.50700
H  27.85000 64.11100 44.00100
H  23.31300 60.47300 40.93800
H  24.05200 61.95200 40.25800
H  24.29900 61.52300 41.96200
H  24.89600 56.82000 37.67600
H  23.00800 53.05800 39.50400
H  24.74600 53.19000 39.90100
H  24.13500 52.68300 38.25800

