158

Mg 0.76300 42.96800 25.57000
C  2.54800 42.72700 28.39700
C  -2.09900 41.74700 27.42400
C  -0.87900 42.58400 22.69000
C  3.68100 43.89600 23.85000
N  0.30300 42.36200 27.63500
C  1.21400 42.44600 28.64600
C  0.51500 42.03800 30.03000
C  -0.81400 41.45700 29.61000
C  -0.91500 41.90100 28.10500
C  -1.11600 39.96900 29.89000
C  0.46400 43.31700 30.89400
C  1.34500 43.21500 32.26200
H  0.51800 43.46500 33.61600
N  -1.22800 42.35900 25.05500
C  -2.25300 42.03300 25.98500
C  -3.48800 41.91100 25.22800
C  -3.16200 42.00100 23.87400
C  -1.69200 42.35400 23.79400
C  -4.79000 41.65600 25.97200
C  -4.17000 41.97800 22.66200
O  -3.82700 42.23800 21.50800
C  -5.62000 41.61700 22.88300
N  1.37900 43.05000 23.47000
C  0.44500 42.97000 22.50400
C  1.11700 43.22300 21.18300
C  2.48800 43.92800 21.56500
C  2.55900 43.67000 23.03600
C  1.25400 41.90400 20.32800
C  2.55600 45.41000 21.21300
C  3.83600 45.80600 20.50600
N  2.73200 43.26100 25.98300
C  3.84900 43.63400 25.20000
C  5.08200 43.58200 25.96400
C  4.62600 43.20000 27.22000
C  3.23600 43.06700 27.20600
C  6.46800 43.78600 25.40700
C  5.05000 42.84900 28.54100
O  6.19600 42.73500 28.93800
C  3.75000 42.68000 29.42300
C  3.82200 41.46700 30.30800
O  3.44200 40.32300 30.01400
O  4.42600 41.78600 31.48400
C  4.55100 40.79000 32.51600
H  -2.97600 41.39700 27.97200
H  -1.37600 42.54400 21.71800
H  4.63100 44.23600 23.43200
H  1.02800 41.27700 30.61900
H  -1.61700 41.98100 30.12800
H  -1.94900 39.95800 30.59300
H  -0.29000 39.47300 30.40100
H  -1.23900 39.46500 28.93200
H  -0.57300 43.45400 31.20200
H  0.76700 44.24300 30.40600
H  2.06900 44.02900 32.22000
H  1.90600 42.28400 32.34700
H  -4.64500 42.00200 26.99500
H  -5.12100 40.61900 25.90800
H  -5.62000 42.18400 25.50100
H  -6.18400 41.52500 21.95400
H  -6.16100 42.44700 23.33700
H  -5.78300 40.66700 23.39200
H  0.41600 43.89000 20.68000
H  3.35200 43.43600 21.11700
H  2.28100 41.77700 19.98300
H  0.52800 41.78100 19.52400
H  1.05800 41.05600 20.98300
H  2.54800 45.93700 22.16700
H  1.65500 45.76500 20.71200
H  4.49100 46.56500 20.93300
H  3.42500 46.33500 19.64700
H  4.39500 44.97800 20.07000
H  6.89500 42.91600 24.90700
H  7.09800 43.95700 26.28000
H  6.43200 44.71100 24.83100
H  3.77000 43.58600 30.02700
H  4.09300 39.82500 32.29600
H  4.12900 41.01600 33.49500
H  5.59800 40.68600 32.80400
Mg -2.15000 34.14800 26.35900
C  -3.68900 32.42000 28.95500
C  -0.85300 36.41300 28.64400
C  -1.16700 36.09000 23.78700
C  -4.02300 32.20300 24.09000
N  -2.17100 34.29900 28.48500
C  -2.85800 33.47300 29.36500
C  -2.53200 33.80900 30.84300
C  -1.84900 35.26400 30.66700
C  -1.62900 35.36500 29.16500
C  -2.68400 36.51200 31.19100
C  -1.52300 32.79800 31.52500
C  -1.13000 33.08400 32.97400
H  -1.64900 32.25600 34.20300
N  -0.94500 35.95400 26.21800
C  -0.45100 36.70600 27.23900
C  0.38700 37.75700 26.63700
C  0.31600 37.65300 25.23500
C  -0.61200 36.47200 24.98900
C  1.22300 38.71100 27.43300
C  1.04700 38.54300 24.15700
O  0.72700 38.38300 22.97200
C  1.94500 39.70100 24.48600
N  -2.71200 34.30000 24.30700
C  -2.09200 35.09800 23.46100
C  -2.53900 34.83600 22.02300
C  -3.10900 33.40600 22.08800
C  -3.32900 33.30100 23.60100
C  -3.63300 35.85400 21.52700
C  -2.10600 32.20500 21.52900
C  -1.03700 31.69200 22.44800
N  -3.54400 32.55100 26.42100
C  -4.19300 31.89100 25.46000
C  -4.98600 30.89700 26.06800
C  -4.86200 31.04100 27.42300
C  -3.94700 32.08900 27.59800
C  -5.82700 29.89000 25.29100
C  -5.28200 30.53800 28.70000
O  -6.04300 29.59700 28.97300
C  -4.49000 31.44100 29.74200
C  -5.28100 32.03500 30.75500
O  -6.15200 32.93500 30.59300
O  -4.90400 31.54100 31.91200
C  -5.53700 32.11600 33.13100
H  -0.47300 37.13300 29.37200
H  -0.80500 36.70100 22.95700
H  -4.53700 31.51600 23.41500
H  -3.43600 33.89400 31.44600
H  -0.87900 35.31600 31.16100
H  -3.37500 36.09500 31.92300
H  -3.32300 37.01700 30.46700
H  -2.09200 37.22600 31.76400
H  -0.60200 32.61400 30.97300
H  -2.05500 31.85400 31.64500
H  -1.42300 34.12800 33.08900
H  -0.04500 33.10600 33.07600
H  2.28100 38.59000 27.20400
H  1.10600 38.65300 28.51500
H  0.78900 39.63800 27.05600
H  2.36900 40.02800 23.53600
H  2.75400 39.26900 25.07600
H  1.44200 40.53600 24.97300
H  -1.71000 34.94100 21.32400
H  -4.04800 33.37600 21.53600
H  -3.90800 36.52400 22.34200
H  -4.57200 35.46100 21.13700
H  -3.20600 36.34500 20.65300
H  -1.59600 32.63800 20.66800
H  -2.87200 31.48000 21.25700
H  -1.30100 30.78100 22.98400
H  -0.97800 32.51400 23.16200
H  -0.09900 31.53500 21.91600
H  -6.65200 30.40500 24.79900
H  -6.12400 29.13500 26.01800
H  -5.06500 29.49200 24.62100
H  -3.73800 30.83900 30.25300
H  -4.73400 32.34400 33.83200
H  -6.10200 31.24800 33.47200
H  -6.11500 33.03900 33.08900

