158

Mg 46.61200 16.00600 28.35500
C  44.30100 15.53900 31.00700
C  48.70900 17.47700 30.62900
C  48.49900 16.53200 25.79600
C  43.88400 14.87700 26.15900
N  46.49000 16.54000 30.52400
C  45.49300 16.06800 31.38100
C  45.85500 16.50300 32.85500
C  47.23500 17.22900 32.73900
C  47.48800 17.09000 31.21900
C  47.20300 18.76900 33.12100
C  46.06600 15.23800 33.73000
C  45.38400 15.40200 35.13500
H  45.23000 16.79500 35.71700
N  48.35800 16.88000 28.15900
C  49.14600 17.37500 29.24000
C  50.42800 17.86400 28.79100
C  50.41800 17.61700 27.38900
C  49.07900 16.95700 27.05300
C  51.39700 18.43200 29.79500
C  51.54700 17.66700 26.39600
O  51.31100 17.47000 25.23200
C  52.90400 18.17000 26.74200
N  46.30700 15.70500 26.30400
C  47.27200 16.00000 25.40500
C  46.70300 15.86400 24.00600
C  45.31100 15.14600 24.16200
C  45.14100 15.31500 25.60500
C  46.52600 17.28600 23.34000
C  45.36000 13.68200 23.61900
C  44.22600 13.31300 22.71100
N  44.58800 15.14600 28.50400
C  43.69000 14.68700 27.52700
C  42.58700 14.02300 28.19200
C  42.76900 14.39600 29.56500
C  43.97400 15.09300 29.64500
C  41.35500 13.48300 27.58700
C  42.14100 14.44700 30.88700
O  41.05800 14.08700 31.27500
C  43.14900 15.12600 31.85800
C  42.48300 16.22500 32.57400
O  42.47000 17.39900 32.24600
O  41.85300 15.76800 33.72400
C  41.23200 16.66000 34.76400
H  49.42000 17.81100 31.38700
H  49.07100 16.51500 24.86600
H  43.12000 14.51100 25.46900
H  45.04100 17.18400 33.10400
H  48.04400 16.76700 33.30500
H  46.21700 18.97000 33.53900
H  47.31100 19.39100 32.23200
H  47.95000 19.15500 33.81500
H  47.12500 14.99300 33.81000
H  45.67200 14.43200 33.11000
H  46.04900 14.76700 35.72000
H  44.43100 14.87400 35.16800
H  52.45200 18.39100 29.52300
H  51.44500 17.86300 30.72300
H  51.13800 19.43900 30.12300
H  53.20600 17.39300 27.44500
H  52.82900 19.07700 27.34200
H  53.57200 18.40000 25.91200
H  47.45200 15.28400 23.46700
H  44.53000 15.69300 23.63400
H  46.36400 17.21400 22.26500
H  47.33200 17.99000 23.55100
H  45.65400 17.63100 23.89600
H  45.54000 12.96900 24.42400
H  46.24600 13.65400 22.98400
H  44.44500 12.53900 21.97600
H  44.00600 14.24300 22.18700
H  43.38100 13.03600 23.34300
H  41.63200 12.65300 26.93700
H  40.84500 14.24200 26.99300
H  40.56700 13.12400 28.24900
H  43.60400 14.40800 32.53900
H  40.26300 16.18200 34.90400
H  41.13400 17.70500 34.46800
H  41.88100 16.70600 35.63900
Mg 35.99700 48.92600 25.62200
C  36.41400 47.06000 28.44600
C  34.97000 51.61200 27.24100
C  35.67100 50.35100 22.66900
C  36.81000 45.93500 23.76200
N  35.72200 49.25700 27.63900
C  36.05400 48.45300 28.64900
C  35.90600 49.21100 29.99000
C  35.36200 50.63600 29.59600
C  35.27700 50.50400 28.08600
C  33.93900 50.84400 30.25100
C  37.33800 49.20400 30.68800
C  37.31400 49.09700 32.18100
H  36.00800 49.19700 32.96700
N  35.28800 50.70500 25.05500
C  35.00200 51.70100 25.90200
C  34.66000 52.86100 25.14800
C  34.74400 52.52200 23.79800
C  35.28700 51.13700 23.81100
C  34.16100 54.23200 25.71700
C  34.45800 53.33300 22.54700
O  34.38800 52.87000 21.39600
C  34.24300 54.81700 22.69100
N  36.18700 48.19600 23.44800
C  36.05700 49.06200 22.44800
C  36.38700 48.51400 21.06400
C  36.99300 47.12800 21.47400
C  36.64300 47.05500 22.97900
C  35.17500 48.53500 20.10700
C  38.51100 46.93100 21.28400
C  39.01100 45.59500 20.63200
N  36.49800 46.86700 26.00100
C  36.77500 45.74100 25.16200
C  37.00800 44.52400 25.96900
C  36.88100 45.03800 27.29100
C  36.61000 46.44100 27.20900
C  37.18200 43.13300 25.38300
C  37.01400 44.62500 28.66900
O  37.36600 43.58800 29.21100
C  36.66300 45.97400 29.49700
C  35.47600 45.68600 30.30200
O  34.34900 45.73600 29.96300
O  35.86100 45.23900 31.53700
C  34.66700 44.99600 32.40100
H  34.68700 52.51000 27.79400
H  35.66500 50.84200 21.69300
H  37.02600 45.09800 23.09600
H  35.18700 48.71900 30.64500
H  36.02300 51.46100 29.86100
H  33.13100 50.75600 29.52500
H  33.84000 51.89900 30.50700
H  33.64600 50.27300 31.13200
H  37.75300 50.15100 30.34400
H  38.01100 48.45400 30.27300
H  37.93800 49.87900 32.61500
H  37.76500 48.14900 32.47400
H  34.79600 55.02900 25.32800
H  34.24200 54.45400 26.78200
H  33.26200 54.57500 25.20600
H  33.30200 55.14100 23.13400
H  34.14700 55.11700 21.64800
H  35.07500 55.28900 23.21500
H  37.00700 49.28000 20.59800
H  36.36300 46.48500 20.86000
H  34.30700 48.87900 20.67000
H  34.96200 47.55600 19.67800
H  35.25800 49.38100 19.42400
H  38.96100 47.05300 22.26900
H  38.98400 47.73000 20.71400
H  39.62800 45.05800 21.35200
H  39.63800 45.84500 19.77600
H  38.14300 45.02300 20.30300
H  37.90700 43.15300 24.56900
H  36.24900 42.74100 24.97800
H  37.42100 42.47800 26.22000
H  37.50100 46.30800 30.11000
H  33.81500 45.66200 32.26300
H  35.13700 45.14400 33.37300
H  34.36500 43.96100 32.24000

