158

Mg 35.59200 1.53000 30.06500
C  33.54100 2.93000 32.64600
C  38.25800 2.03200 32.35300
C  37.73900 0.92300 27.56100
C  32.94900 1.93500 27.89500
N  35.80400 2.12400 32.33700
C  34.80300 2.57600 33.14500
C  35.29300 2.64700 34.60500
C  36.85400 2.74600 34.39200
C  37.02000 2.28000 32.89600
C  37.47400 4.11700 34.70400
C  34.71700 1.53600 35.53500
C  34.75900 1.79200 37.07300
H  35.47700 3.04300 37.47900
N  37.67400 1.28300 30.01400
C  38.56300 1.61400 30.95900
C  39.88000 1.42200 30.37500
C  39.79500 1.07500 28.99900
C  38.33900 1.10100 28.78100
C  41.15600 1.50800 31.11100
C  40.86700 0.94600 27.91100
O  40.52600 0.46800 26.80700
C  42.39000 1.19100 28.04300
N  35.35500 1.35200 28.07500
C  36.38700 0.97600 27.18700
C  35.87700 0.81900 25.71700
C  34.30300 0.95300 25.92200
C  34.14800 1.44900 27.41300
C  36.54700 1.92800 24.89700
C  33.46800 -0.37200 25.71200
C  32.35800 -0.29500 24.71500
N  33.65700 2.22500 30.20300
C  32.64900 2.32400 29.21700
C  31.42400 2.84200 29.72800
C  31.72100 3.17400 31.09800
C  33.06300 2.80900 31.28700
C  30.20700 3.24900 28.97000
C  31.18200 3.64900 32.35600
O  30.13700 4.19900 32.56200
C  32.34100 3.46700 33.41300
C  32.64500 4.75100 34.09600
O  33.13800 5.66000 33.46600
O  32.36600 4.84700 35.41700
C  32.69200 6.14700 36.06300
H  39.12800 2.33700 32.94000
H  38.29300 0.83800 26.62400
H  32.08000 1.96100 27.23400
H  34.86500 3.60000 34.91800
H  37.36500 2.06900 35.07700
H  37.49900 4.61900 33.73700
H  38.52800 3.93200 34.91000
H  36.86000 4.65500 35.42700
H  35.34900 0.66700 35.35000
H  33.72000 1.36900 35.12700
H  35.18100 0.90200 37.53900
H  33.73600 1.83700 37.44900
H  41.61200 0.52600 30.98700
H  41.02500 1.78700 32.15700
H  41.80000 2.20400 30.57200
H  42.86600 0.90100 27.10700
H  42.79700 0.72100 28.93800
H  42.51800 2.26700 27.92400
H  36.13500 -0.16200 25.32000
H  33.89200 1.69900 25.24200
H  36.75000 2.81900 25.49200
H  35.86700 2.28300 24.12300
H  37.47300 1.65000 24.39500
H  33.01100 -0.72500 26.63700
H  34.23200 -1.11000 25.46800
H  32.08400 0.73500 24.48700
H  31.41300 -0.67400 25.10500
H  32.51400 -0.78100 23.75200
H  29.53300 2.40500 28.82600
H  30.48600 3.72400 28.03000
H  29.70800 4.05100 29.51500
H  31.86800 2.82800 34.15800
H  31.78200 6.71100 36.27100
H  33.48200 6.58500 35.45500
H  33.15600 5.80500 36.98800
Mg -1.79100 35.16200 26.71900
C  -3.46500 33.22700 29.18400
C  -0.59000 37.15600 29.24300
C  -0.85400 37.43900 24.41500
C  -3.59900 33.42400 24.37600
N  -2.13600 35.25800 28.93400
C  -2.79600 34.31500 29.75000
C  -2.52400 34.60500 31.22800
C  -1.81900 35.95500 31.21100
C  -1.40500 36.06600 29.75100
C  -2.73200 37.15400 31.52200
C  -1.48100 33.48000 31.75100
C  -1.84600 32.95400 33.13400
H  -0.86300 32.96100 34.33200
N  -0.74300 36.88400 26.81300
C  -0.23900 37.49600 27.93400
C  0.67900 38.57200 27.55000
C  0.59600 38.73000 26.15600
C  -0.37800 37.64500 25.72000
C  1.35500 39.40900 28.56800
C  1.30100 39.68200 25.18500
O  1.13300 39.72700 24.04600
C  2.32200 40.58300 25.68500
N  -2.24000 35.48300 24.69600
C  -1.76900 36.52500 23.94700
C  -2.35100 36.50500 22.53600
C  -2.89200 35.00100 22.41300
C  -2.96700 34.58300 23.92700
C  -3.35900 37.67200 22.30700
C  -1.96700 34.03400 21.69100
C  -2.64800 32.78100 21.05600
N  -3.12800 33.58300 26.74700
C  -3.73400 32.93000 25.71900
C  -4.38500 31.72000 26.15500
C  -4.36700 31.76800 27.51800
C  -3.60900 32.95600 27.85800
C  -5.16100 30.80800 25.25900
C  -4.86300 31.16500 28.77600
O  -5.55900 30.18500 29.01500
C  -4.11600 32.03300 29.93200
C  -5.11700 32.41100 30.90900
O  -6.25900 32.82400 30.60900
O  -4.67700 32.01000 32.17000
C  -5.67100 32.23100 33.26300
H  -0.14200 37.80800 29.99500
H  -0.54100 38.18400 23.68100
H  -4.07500 32.85400 23.57500
H  -3.51800 34.57400 31.67500
H  -0.97100 35.80600 31.87900
H  -3.61900 36.86800 32.08800
H  -2.97900 37.60800 30.56300
H  -2.23800 37.87500 32.17300
H  -0.46600 33.87700 31.72000
H  -1.46400 32.70000 30.99000
H  -2.20100 31.93700 32.96800
H  -2.71300 33.54400 33.43000
H  1.19700 40.47800 28.42500
H  2.42900 39.22800 28.51700
H  1.09300 39.28500 29.61900
H  2.99200 40.96600 24.91500
H  3.00900 39.98900 26.28800
H  2.03500 41.54000 26.12200
H  -1.55100 36.68600 21.81800
H  -3.85500 35.10000 21.91200
H  -3.71700 37.42100 21.30900
H  -2.83900 38.63000 22.30100
H  -4.22100 37.71600 22.97300
H  -1.26200 33.54100 22.35900
H  -1.35400 34.59400 20.98400
H  -3.71400 32.72000 21.27600
H  -2.25000 31.92000 21.59300
H  -2.54200 32.58400 19.98900
H  -5.95400 31.26600 24.66900
H  -5.69800 30.08400 25.87200
H  -4.56600 30.23100 24.55200
H  -3.39200 31.39700 30.43900
H  -6.40300 33.00000 33.01300
H  -5.11800 32.67200 34.09300
H  -6.06900 31.28200 33.62100

