158

Mg 6.48900 53.22800 42.28400
C  6.37100 49.71800 42.07400
C  9.46600 53.11800 40.71500
C  6.09800 56.47100 41.70200
C  3.09500 53.05100 43.24000
N  7.64300 51.57700 41.30500
C  7.44800 50.21700 41.37900
C  8.59900 49.40500 40.65800
C  9.61800 50.58800 40.55300
C  8.86800 51.84300 40.84000
C  10.91800 50.31100 41.44700
C  8.27600 48.77000 39.25500
C  7.21300 49.45200 38.28500
H  7.62900 49.73800 36.81300
N  7.58800 54.64800 41.38500
C  8.88400 54.39800 40.98900
C  9.52200 55.67500 40.70200
C  8.55700 56.68700 40.94300
C  7.31400 55.96600 41.31500
C  10.98500 55.79800 40.37200
C  8.82900 58.15600 41.02600
O  9.94900 58.55200 40.75300
C  7.83300 59.09700 41.45700
N  4.83100 54.57000 42.56200
C  4.98500 55.90100 42.32100
C  3.64100 56.71900 42.62100
C  2.65800 55.53900 42.92700
C  3.58000 54.29500 43.01400
C  3.80600 57.65500 43.84800
C  1.67700 55.25300 41.76100
C  0.77400 56.38000 41.35400
N  5.05100 51.80500 42.80800
C  3.77400 51.88000 43.24000
C  3.18200 50.58500 43.48100
C  4.18400 49.70400 43.12900
C  5.32400 50.45200 42.70000
C  1.75500 50.14600 43.91800
C  4.49400 48.30800 43.09800
O  3.95900 47.30500 43.51800
C  5.94000 48.22900 42.32400
C  5.64800 47.52800 41.05800
O  4.77600 47.91100 40.21000
O  6.34200 46.36300 40.92700
C  5.89300 45.43900 39.85000
H  10.46400 53.11000 40.27200
H  5.91700 57.54200 41.59100
H  2.06600 52.94500 43.58900
H  8.86800 48.65900 41.40600
H  9.86100 50.71900 39.49800
H  11.17900 51.24900 41.93700
H  11.78500 50.24800 40.78900
H  10.85400 49.44800 42.11000
H  7.95300 47.77800 39.57000
H  9.26700 48.78400 38.80200
H  6.97400 50.41600 38.73500
H  6.29500 48.88200 38.42900
H  11.34000 56.81400 40.53900
H  11.14200 55.49200 39.33800
H  11.50500 55.14000 41.06900
H  7.06100 59.20000 40.69500
H  8.33600 60.06200 41.52500
H  7.49300 58.70700 42.41700
H  3.39200 57.32600 41.75100
H  2.19200 55.59600 43.91100
H  3.59300 58.68600 43.56400
H  4.80200 57.71800 44.28700
H  3.15900 57.36800 44.67700
H  1.01600 54.48900 42.17100
H  2.14500 54.78700 40.89300
H  0.68000 57.14600 42.12300
H  -0.25600 56.08900 41.15000
H  1.13700 56.79400 40.41200
H  1.37900 50.80600 44.70000
H  1.81900 49.11500 44.26700
H  1.04900 50.16400 43.08700
H  6.65000 47.61400 42.87600
H  5.96000 46.00600 38.92100
H  4.86800 45.07400 39.92100
H  6.56600 44.58100 39.83300
Mg 0.16100 43.32300 26.96900
C  2.70200 43.17900 29.07000
C  -2.08100 42.66900 29.39700
C  -2.37100 43.33100 24.54100
C  2.38600 44.05800 24.34900
N  0.28300 42.90100 29.04900
C  1.44000 42.95500 29.74700
C  1.16900 42.89800 31.25100
C  -0.24900 42.21100 31.30800
C  -0.77500 42.68800 29.86300
C  -0.23500 40.66300 31.58500
C  1.51500 44.34300 31.95400
C  1.87600 44.44800 33.43400
H  1.64500 43.25400 34.32400
N  -2.01800 43.17800 27.01100
C  -2.67700 42.91400 28.12100
C  -4.10200 42.70500 27.76400
C  -4.18200 42.70600 26.30200
C  -2.82000 43.06400 25.87500
C  -5.19100 42.43400 28.80100
C  -5.22700 42.41000 25.32900
O  -5.04400 42.39100 24.10300
C  -6.65900 42.07800 25.86200
N  -0.02000 43.74500 24.86900
C  -1.11500 43.55200 24.09600
C  -0.80900 43.64600 22.61100
C  0.62600 44.20500 22.58000
C  1.01500 44.05100 24.00000
C  -1.09900 42.32100 21.75500
C  0.77900 45.72500 22.11700
C  0.03100 46.13200 20.86100
N  2.12900 43.44200 26.68500
C  2.91200 43.76100 25.61000
C  4.33100 43.75400 25.99600
C  4.27300 43.43300 27.35800
C  2.92400 43.33400 27.72600
C  5.48300 44.07900 25.07700
C  5.13200 43.31300 28.53700
O  6.35800 43.21900 28.70600
C  4.10200 43.36400 29.66300
C  4.32700 42.20800 30.46100
O  4.51800 41.02600 30.16700
O  4.45800 42.65600 31.73600
C  5.05900 41.65000 32.67700
H  -2.71900 42.31500 30.21000
H  -2.99400 43.15500 23.66100
H  3.11700 44.32300 23.58200
H  1.93200 42.25700 31.69400
H  -0.86200 42.57300 32.13300
H  -1.17200 40.29800 31.16500
H  -0.12900 40.46200 32.65100
H  0.63700 40.20900 31.11600
H  0.75800 45.09400 31.72800
H  2.37000 44.69700 31.37900
H  1.37000 45.36200 33.74600
H  2.94400 44.66300 33.47500
H  -6.11700 43.00400 28.72300
H  -4.73800 42.54300 29.78700
H  -5.44100 41.38500 28.64500
H  -7.29300 41.79600 25.02100
H  -7.02400 42.93800 26.42400
H  -6.61600 41.18600 26.48700
H  -1.39700 44.45000 22.16900
H  1.23800 43.58900 21.92100
H  -1.44000 41.58200 22.48000
H  -0.11500 42.01000 21.40400
H  -1.79600 42.48200 20.93300
H  1.83300 45.80100 21.85000
H  0.52900 46.37000 22.95900
H  0.06600 45.16300 20.36300
H  0.45000 46.98500 20.32800
H  -0.99600 46.36100 21.14500
H  5.17200 43.96000 24.03900
H  6.31700 43.39700 25.24200
H  5.90200 45.07700 25.20200
H  4.09000 44.28200 30.25100
H  6.14000 41.70300 32.54800
H  4.81800 40.58700 32.67800
H  4.82000 41.96100 33.69300

