158

Mg 26.04600 -0.57600 28.66500
C  27.87900 -0.78500 31.70100
C  23.23000 -0.71900 30.56000
C  24.31900 -0.46400 25.85100
C  29.07800 -1.00300 27.04800
N  25.65200 -0.85300 30.91500
C  26.52500 -0.69600 31.91700
C  25.76800 -0.36200 33.20400
C  24.27600 -0.58900 32.84400
C  24.36400 -0.76300 31.31500
C  23.47100 -1.61000 33.63600
C  26.14600 0.96900 33.93100
C  26.81000 0.76000 35.26300
H  26.44200 1.74300 36.37600
N  24.08700 -0.61800 28.22100
C  23.00700 -0.60100 29.14700
C  21.70000 -0.38800 28.46600
C  22.03000 -0.28400 27.10700
C  23.56700 -0.39200 27.00900
C  20.40300 -0.19200 29.18300
C  21.14300 0.05600 25.99600
O  21.50400 0.09200 24.82900
C  19.65900 0.41500 26.22000
N  26.63600 -0.96100 26.78500
C  25.74200 -0.70800 25.78800
C  26.38400 -0.79000 24.42800
C  27.90800 -0.71300 24.76400
C  27.89400 -0.88400 26.29200
C  25.94900 -1.97000 23.60400
C  28.74800 0.50600 24.28300
C  28.25500 1.87200 24.78500
N  28.10600 -0.94800 29.20900
C  29.16800 -1.13300 28.46800
C  30.31700 -1.20500 29.25600
C  29.88700 -1.08400 30.55400
C  28.53000 -0.93000 30.48700
C  31.68300 -1.47200 28.78900
C  30.29300 -1.08900 31.96500
O  31.37400 -1.39700 32.39300
C  28.96500 -0.78400 32.76300
C  28.76700 -1.78300 33.78200
O  28.08300 -2.83100 33.63500
O  29.42500 -1.45100 34.95100
C  29.21900 -2.47200 35.95900
H  22.28000 -0.66600 31.09600
H  23.76300 -0.41800 24.91300
H  30.03700 -1.13700 26.54300
H  26.02000 -1.12800 33.93700
H  23.72000 0.34000 32.97200
H  22.64500 -0.97300 33.95400
H  23.97400 -2.12900 34.45200
H  23.09600 -2.39700 32.98100
H  25.26400 1.60900 33.96800
H  26.86100 1.44700 33.26200
H  27.89200 0.80000 35.14400
H  26.54300 -0.25600 35.55500
H  19.91900 0.70400 28.79500
H  20.61200 -0.08100 30.24700
H  19.90000 -1.13900 28.98500
H  19.23400 0.62700 25.23900
H  19.55400 1.27600 26.88100
H  19.20200 -0.51700 26.55200
H  26.05200 0.15900 24.00800
H  28.34100 -1.57400 24.25500
H  25.09700 -1.67400 22.99200
H  25.74900 -2.84600 24.22100
H  26.75000 -2.32100 22.95400
H  28.89200 0.38100 23.21000
H  29.76100 0.32700 24.64400
H  27.93000 1.79800 25.82300
H  27.51800 2.35800 24.14500
H  29.03900 2.62900 24.81300
H  31.53900 -2.18900 27.98100
H  32.34900 -1.92700 29.52200
H  32.18100 -0.61600 28.33200
H  29.07200 0.21400 33.18800
H  29.70000 -3.37400 35.58000
H  28.15500 -2.62400 36.14100
H  29.71200 -2.19700 36.89100
Mg -10.54000 39.49000 41.68400
C  -10.14800 36.11500 41.12400
C  -7.34900 40.04800 40.45600
C  -11.22300 42.78900 41.80200
C  -13.70300 38.75700 43.06400
N  -8.97500 38.18200 40.76100
C  -8.98100 36.86500 40.71300
C  -7.73500 36.26600 40.06300
C  -6.74400 37.55300 40.25300
C  -7.73000 38.65900 40.58400
C  -5.69900 37.43200 41.36500
C  -8.05100 35.91600 38.60000
C  -7.38400 34.63400 38.10400
H  -6.34500 34.89300 37.02400
N  -9.50400 41.19500 41.04700
C  -8.19200 41.21800 40.57400
C  -7.80800 42.55000 40.44300
C  -8.88700 43.41900 40.79100
C  -9.96700 42.44800 41.28600
C  -6.42500 42.90500 39.96800
C  -8.85200 44.97300 40.75000
O  -7.85600 45.56600 40.35400
C  -10.13200 45.74900 41.16800
N  -12.30500 40.60400 42.19700
C  -12.28200 41.99900 42.22700
C  -13.64500 42.59700 42.71800
C  -14.42200 41.27700 43.22300
C  -13.43200 40.09800 42.84000
C  -13.52800 43.77900 43.73300
C  -15.89000 41.03200 42.68700
C  -17.04700 40.85900 43.72300
N  -11.82600 37.83000 41.95800
C  -13.01100 37.64800 42.62200
C  -13.31400 36.20900 42.79400
C  -12.19700 35.60400 42.23200
C  -11.32600 36.63300 41.77600
C  -14.49000 35.58000 43.45900
C  -11.63900 34.38300 41.89400
O  -12.00600 33.25600 42.11000
C  -10.28500 34.61800 41.06500
C  -9.12900 33.72700 41.60600
O  -8.62100 33.80200 42.73700
O  -8.64700 32.83700 40.68200
C  -7.43900 32.09300 41.07300
H  -6.28100 40.15600 40.25800
H  -11.39100 43.84500 42.02600
H  -14.61800 38.48700 43.59500
H  -7.30600 35.43800 40.62600
H  -6.26800 37.88600 39.33100
H  -4.81900 37.95100 40.98600
H  -5.53600 36.38200 41.60500
H  -6.10900 37.96000 42.22600
H  -7.60200 36.71800 38.01500
H  -9.13700 35.82700 38.54900
H  -8.18700 33.99500 37.73600
H  -6.89400 34.10000 38.91700
H  -6.35700 42.86500 38.88100
H  -5.68500 42.22000 40.38300
H  -6.00200 43.88300 40.19900
H  -10.20600 45.77700 42.25600
H  -11.03900 45.39300 40.68100
H  -9.93800 46.77100 40.84300
H  -14.19600 42.93400 41.84000
H  -14.53100 41.22500 44.30600
H  -12.49400 44.08100 43.89700
H  -14.02600 43.53200 44.67100
H  -14.05700 44.65900 43.36800
H  -15.90400 40.06800 42.17800
H  -16.20700 41.66800 41.86100
H  -17.37900 39.82100 43.72500
H  -17.88100 41.48900 43.41100
H  -16.72700 41.20000 44.70800
H  -14.37400 34.51100 43.64200
H  -15.35300 35.81000 42.83400
H  -14.52500 36.02300 44.45400
H  -10.49700 34.44600 40.01000
H  -6.74100 32.64700 41.70100
H  -6.81600 31.87900 40.20400
H  -7.76400 31.14600 41.50300

