158

Mg 24.37400 -5.60100 46.14700
C  26.56800 -3.27900 44.68600
C  21.96000 -4.48000 44.23800
C  22.89600 -8.42000 47.03400
C  27.35400 -6.84200 47.88900
N  24.38700 -4.25500 44.27800
C  25.37600 -3.32900 43.95700
C  24.76900 -2.28700 42.97600
C  23.27800 -2.50500 43.05000
C  23.18600 -3.83100 43.91800
C  22.37000 -1.42100 43.55600
C  25.39600 -2.42100 41.54800
C  25.38700 -1.13400 40.62900
H  24.39800 -1.14600 39.48000
N  22.68200 -6.26100 45.82700
C  21.76300 -5.68400 45.01500
C  20.57600 -6.57800 45.02200
C  20.78200 -7.70800 45.82300
C  22.18700 -7.54800 46.26900
C  19.30700 -6.10800 44.24300
C  19.81000 -8.75200 46.07300
O  18.70600 -8.64400 45.54100
C  20.07800 -9.94900 46.81300
N  25.07000 -7.36700 47.28800
C  24.19100 -8.39300 47.53700
C  24.88300 -9.58300 48.21900
C  26.11600 -8.89300 48.81600
C  26.25400 -7.67700 47.83300
C  23.97200 -10.28800 49.29100
C  27.39200 -9.73000 48.83700
C  28.31500 -9.56900 50.10000
N  26.57900 -5.08100 46.39000
C  27.58900 -5.65200 47.13300
C  28.77500 -4.86900 47.08100
C  28.39600 -3.83200 46.14200
C  27.05500 -4.09200 45.70600
C  30.02100 -5.26000 47.75200
C  28.89100 -2.78700 45.36100
O  30.02600 -2.34400 45.26900
C  27.77300 -2.41900 44.36900
C  27.43200 -0.99800 44.35400
O  26.71100 -0.43900 45.14900
O  27.95400 -0.33300 43.30300
C  27.65100 1.09700 43.21200
H  21.09900 -4.07500 43.70300
H  22.39400 -9.34100 47.33800
H  28.16300 -7.32600 48.44100
H  25.09800 -1.32800 43.37600
H  22.90700 -2.73500 42.05100
H  23.06400 -0.88800 44.20600
H  21.53700 -1.76400 44.17000
H  22.05300 -0.77500 42.73700
H  24.78700 -3.15500 41.02000
H  26.38600 -2.86400 41.65500
H  26.38700 -0.95200 40.23500
H  25.14500 -0.22900 41.18500
H  19.12000 -6.71100 43.35400
H  19.46800 -5.12000 43.81200
H  18.35600 -5.96300 44.75700
H  19.17800 -10.42900 47.19800
H  20.54600 -9.64900 47.75100
H  20.60700 -10.76000 46.31200
H  25.17200 -10.29400 47.44500
H  25.95700 -8.50000 49.82000
H  23.85000 -11.35300 49.09300
H  22.99500 -9.81200 49.37500
H  24.50800 -10.28100 50.24000
H  27.92300 -9.39100 47.94700
H  27.12000 -10.78300 48.76400
H  27.72300 -9.41400 51.00300
H  29.02400 -8.75900 49.93100
H  28.81400 -10.52300 50.27300
H  30.15800 -4.78700 48.72500
H  30.83800 -4.93100 47.10900
H  30.07700 -6.32900 47.95500
H  28.24000 -2.65200 43.41100
H  26.82600 1.20700 42.50700
H  28.50400 1.60800 42.76400
H  27.51900 1.60300 44.16800
Mg 40.90500 9.06900 29.43400
C  42.56400 10.67800 32.06100
C  38.78600 7.55100 31.72200
C  39.44800 7.74200 26.94400
C  43.54100 10.37500 27.27300
N  40.71400 9.18700 31.67500
C  41.38900 10.02100 32.54700
C  40.89900 9.82400 34.00300
C  39.71700 8.69800 33.81500
C  39.81800 8.38000 32.36200
C  39.81000 7.42600 34.80000
C  40.42800 11.20100 34.57400
C  39.65000 11.10600 35.95200
H  40.29000 11.69800 37.20300
N  39.30800 7.82200 29.34200
C  38.51700 7.42700 30.36400
C  37.41600 6.65700 29.72400
C  37.46300 6.84900 28.30500
C  38.76000 7.56200 28.14000
C  36.35300 5.94900 30.59200
C  36.52000 6.51200 27.22900
O  36.76300 6.95900 26.07600
C  35.24600 5.75500 27.49700
N  41.37500 9.06700 27.34600
C  40.62400 8.35500 26.52800
C  41.08200 8.59900 25.08500
C  42.23500 9.66200 25.17400
C  42.41900 9.64500 26.67100
C  41.59700 7.33600 24.31300
C  41.74000 11.05700 24.68700
C  42.11500 11.57700 23.29500
N  42.71500 10.12000 29.56600
C  43.70800 10.58800 28.64400
C  44.66700 11.35200 29.31600
C  44.25800 11.40300 30.66800
C  43.10600 10.62500 30.70800
C  45.88400 11.77900 28.70200
C  44.62500 11.89600 31.99200
O  45.53600 12.64100 32.40500
C  43.55700 11.42200 32.96000
C  44.07900 10.44600 33.87500
O  44.56300 9.37300 33.53900
O  43.95400 10.91100 35.19800
C  44.55400 10.05500 36.19900
H  38.12500 6.93000 32.33100
H  38.93100 7.33800 26.07000
H  44.13500 10.86300 26.49700
H  41.73000 9.51000 34.63500
H  38.73600 9.16200 33.91600
H  38.79500 7.27800 35.16800
H  40.44900 7.68400 35.64500
H  40.23800 6.57000 34.27900
H  39.91700 11.65400 33.72400
H  41.26800 11.89500 34.60800
H  39.19900 10.13200 36.14300
H  38.84200 11.81300 35.76100
H  35.30200 6.19000 30.43000
H  36.56000 5.83500 31.65600
H  36.27900 4.90900 30.27500
H  34.85800 5.40900 26.53900
H  34.57000 6.50700 27.90600
H  35.42600 4.97900 28.24100
H  40.24300 8.91500 24.46400
H  43.08300 9.42200 24.53200
H  42.38900 6.91400 24.93300
H  42.09400 7.62400 23.38600
H  40.72700 6.68500 24.22800
H  42.30900 11.76800 25.28600
H  40.67600 11.24300 24.83200
H  42.48100 12.60100 23.22200
H  41.15300 11.56200 22.78400
H  42.84500 10.86400 22.91200
H  46.63900 11.97700 29.46300
H  45.65700 12.72700 28.21400
H  46.25600 11.03200 28.00000
H  43.18100 12.26300 33.54400
H  44.01000 9.11100 36.17100
H  44.30100 10.43900 37.18700
H  45.63500 9.95600 36.10800

