158

Mg 35.44800 2.29700 29.67700
C  33.79400 3.36400 32.54600
C  38.26200 2.10200 31.70400
C  37.41300 1.76900 26.94800
C  32.79900 3.37600 27.66400
N  35.99400 2.66600 31.94700
C  35.07900 3.04300 32.89900
C  35.72700 2.96300 34.36200
C  37.23100 2.78800 33.95600
C  37.21600 2.49800 32.47600
C  38.22500 3.96700 34.23500
C  35.15300 1.81300 35.17900
C  34.66900 2.18600 36.53500
H  35.35900 3.28700 37.31700
N  37.52800 1.91500 29.33300
C  38.47300 1.79200 30.33500
C  39.71700 1.31600 29.73000
C  39.45900 1.17600 28.34500
C  38.10100 1.66000 28.14000
C  40.88600 0.94400 30.49700
C  40.31100 0.68400 27.17700
O  39.97300 0.61300 25.97200
C  41.71500 0.29600 27.49100
N  35.13000 2.52400 27.55100
C  36.10600 2.19400 26.60900
C  35.43200 2.17600 25.23600
C  33.94900 2.54400 25.44300
C  33.93800 2.84300 26.91200
C  36.17400 3.11600 24.33200
C  32.94800 1.48000 24.89300
C  32.43300 0.32400 25.81200
N  33.65000 3.09200 30.01700
C  32.70100 3.47200 29.10500
C  31.50600 3.95800 29.83100
C  31.88200 3.89400 31.14200
C  33.18600 3.40200 31.24700
C  30.17200 4.45000 29.31300
C  31.47900 4.16200 32.46600
O  30.40700 4.60300 32.85300
C  32.62100 3.78500 33.41800
C  32.88800 5.04700 34.38000
O  33.58200 6.01700 34.12300
O  32.02900 4.92800 35.43700
C  31.92200 6.00800 36.38400
H  39.19300 1.95300 32.25500
H  37.95900 1.75400 26.00300
H  31.87500 3.63200 27.14100
H  35.53800 3.96800 34.73900
H  37.59600 1.89700 34.46700
H  38.72000 3.87900 35.20200
H  37.58700 4.85100 34.20700
H  38.95500 4.11100 33.43800
H  35.92100 1.06700 35.38200
H  34.32600 1.33200 34.65500
H  34.46200 1.32800 37.17400
H  33.66600 2.56300 36.33800
H  40.89100 -0.11400 30.76200
H  40.87000 1.40400 31.48600
H  41.82200 1.23400 30.01900
H  42.05700 1.26100 27.86700
H  42.29700 0.02600 26.60900
H  41.87700 -0.47500 28.24400
H  35.49100 1.12100 24.96800
H  33.75900 3.52500 25.00800
H  35.45700 3.78300 23.85500
H  36.59200 2.42800 23.59700
H  36.97400 3.68700 24.80400
H  33.37900 1.06400 23.98200
H  32.14500 2.09700 24.48800
H  33.10300 0.15200 26.65400
H  32.30000 -0.61700 25.27800
H  31.42100 0.58500 26.12200
H  29.72200 3.71600 28.64500
H  30.16900 5.38600 28.75500
H  29.56400 4.50300 30.21600
H  32.21900 2.94700 33.98800
H  30.87300 6.29700 36.45800
H  32.60400 6.83600 36.19500
H  32.15200 5.54200 37.34200
Mg 16.81500 51.74300 26.41900
C  18.82700 50.52200 29.03900
C  14.62200 52.79900 28.98100
C  14.59800 52.53700 23.97800
C  18.96500 50.44100 24.06700
N  16.67900 51.58700 28.77800
C  17.56400 50.92100 29.54900
C  17.10400 50.99400 31.01600
C  15.70100 51.53400 30.93400
C  15.62500 51.95100 29.48000
C  14.57000 50.52200 31.30300
C  18.02400 51.71300 32.02200
C  18.12500 51.19200 33.47800
H  17.36200 51.91100 34.49100
N  14.90400 52.54300 26.47900
C  14.28600 53.11400 27.61900
C  13.19700 53.93000 27.16100
C  13.12400 53.85000 25.73800
C  14.25100 52.95100 25.32800
C  12.41100 54.76600 28.12700
C  12.12200 54.54900 24.87500
O  12.29000 54.63100 23.64800
C  10.94000 55.33400 25.41800
N  16.69500 51.31200 24.39500
C  15.64900 51.76700 23.58100
C  16.03700 51.65200 22.13500
C  17.60800 51.25000 22.16800
C  17.76900 50.99700 23.63100
C  15.19100 50.61700 21.29100
C  18.70700 52.28900 21.70000
C  19.70300 51.71400 20.67000
N  18.59600 50.67900 26.43200
C  19.38000 50.28900 25.40000
C  20.57800 49.72000 25.98900
C  20.42800 49.68700 27.38100
C  19.13700 50.35400 27.62300
C  21.71800 49.06700 25.26200
C  20.98200 49.42800 28.61400
O  22.03500 48.92000 28.89900
C  20.03400 49.90000 29.79700
C  19.77800 48.86900 30.81500
O  19.09600 47.86200 30.68400
O  20.40900 49.11400 31.99500
C  20.23800 48.15000 33.14300
H  13.97800 53.23800 29.74700
H  14.07500 53.09800 23.20100
H  19.72400 50.10300 23.35800
H  17.00500 49.92600 31.21100
H  15.59800 52.39500 31.59400
H  13.99600 50.10400 30.47500
H  14.02200 50.87600 32.17600
H  15.04200 49.64400 31.74300
H  17.63500 52.73100 32.01900
H  19.00800 51.90200 31.59300
H  19.17200 51.19500 33.78300
H  17.82500 50.14400 33.51100
H  12.02300 55.72600 27.78700
H  13.00400 54.98300 29.01600
H  11.57300 54.17400 28.49400
H  10.09200 55.49700 24.75300
H  11.32600 56.31300 25.70000
H  10.47800 54.76700 26.22600
H  15.95700 52.65500 21.71600
H  17.73300 50.32200 21.60900
H  14.13700 50.83900 21.46000
H  15.45800 49.63200 21.67300
H  15.36300 50.75100 20.22300
H  19.24500 52.71700 22.54600
H  18.16900 53.03100 21.11100
H  19.89100 52.43600 19.87500
H  19.51900 50.69500 20.33200
H  20.57400 51.55900 21.30800
H  22.02700 49.86300 24.58300
H  21.36900 48.23800 24.64600
H  22.34000 48.84100 26.12800
H  20.59500 50.74500 30.19500
H  20.64300 48.63900 34.02900
H  20.84900 47.26100 32.98300
H  19.17500 47.93200 33.24900

