158

Mg 34.76900 2.91000 29.92400
C  32.41700 3.71700 32.39100
C  37.26800 3.55300 32.24900
C  36.96700 2.24900 27.68600
C  32.35700 3.45100 27.52900
N  34.85600 3.61500 32.05300
C  33.73200 3.55000 32.87700
C  34.19200 3.59200 34.35300
C  35.71500 3.93900 34.25100
C  35.97600 3.67700 32.75600
C  36.29400 5.34900 34.76900
C  33.73400 2.33300 35.05400
C  33.39700 2.52900 36.54600
H  34.27900 3.37600 37.45900
N  36.86500 2.87300 29.98200
C  37.68800 3.15500 31.00800
C  39.07300 2.89900 30.63700
C  39.07500 2.35600 29.34900
C  37.59200 2.44600 28.94200
C  40.22600 3.07400 31.56600
C  40.16800 1.82600 28.49300
O  39.90700 1.36700 27.37100
C  41.61700 1.76800 28.92900
N  34.70000 2.88400 27.87500
C  35.69400 2.41200 27.14400
C  35.41900 2.56400 25.58100
C  33.91500 3.05800 25.63300
C  33.64700 3.10000 27.09700
C  36.37700 3.51600 24.75500
C  32.94700 2.01200 24.93500
C  31.81200 2.63400 24.12300
N  32.74200 3.28900 29.90700
C  31.88700 3.50500 28.83400
C  30.54100 3.80100 29.36100
C  30.72000 3.87900 30.73400
C  32.07700 3.64300 31.01500
C  29.26800 3.84800 28.47000
C  30.04700 4.01500 32.04000
O  28.85400 4.19600 32.28900
C  31.19900 3.99100 33.18900
C  31.19400 5.31600 33.82500
O  31.15300 6.42400 33.31700
O  31.31300 5.13300 35.17200
C  31.54700 6.31300 35.96000
H  37.99500 3.69200 33.05300
H  37.73500 2.00200 26.94900
H  31.65000 3.76500 26.75800
H  33.70300 4.46000 34.79500
H  36.29400 3.18500 34.78300
H  35.55800 6.06000 35.14500
H  36.75300 5.80700 33.89300
H  37.12600 5.09800 35.42800
H  34.50400 1.56700 34.95600
H  32.76500 2.03900 34.65000
H  33.39800 1.50700 36.92700
H  32.33700 2.78000 36.58700
H  41.12400 3.20900 30.96300
H  40.23700 2.25100 32.28100
H  39.97700 3.92000 32.20600
H  41.64100 1.30100 29.91300
H  42.14500 2.72100 28.97600
H  42.13500 1.21000 28.14900
H  35.50800 1.58600 25.10900
H  33.82500 4.09100 25.29700
H  35.82100 4.19300 24.10700
H  37.17500 3.00700 24.21400
H  36.92600 4.09800 25.49500
H  32.44900 1.46400 25.73400
H  33.45600 1.27100 24.31800
H  32.02700 2.38800 23.08300
H  31.92100 3.70900 23.97900
H  30.87300 2.28200 24.55100
H  29.49000 3.17200 27.64300
H  29.14700 4.91300 28.27500
H  28.48600 3.46500 29.12600
H  30.87500 3.21400 33.88100
H  30.81700 7.11600 35.86400
H  32.52200 6.73000 35.70700
H  31.79100 6.15400 37.01000
Mg 54.38000 24.32400 44.14600
C  51.69900 26.53200 43.41700
C  52.52100 21.69700 43.28800
C  57.32200 22.70500 43.80300
C  56.27600 27.31500 44.80200
N  52.34900 24.14100 43.31500
C  51.38000 25.14400 43.16700
C  50.02100 24.45100 42.89900
C  50.29500 22.94600 43.18600
C  51.80300 22.91400 43.22800
C  49.58600 22.48700 44.49800
C  49.51900 24.73600 41.37800
C  47.97700 24.94600 41.20400
H  47.45100 25.06700 39.80300
N  54.81700 22.35600 43.73100
C  53.87500 21.39900 43.42400
C  54.59200 20.14900 43.23500
C  55.96400 20.41800 43.53200
C  56.10500 21.88900 43.77400
C  53.94500 18.81900 42.87900
C  57.10800 19.42000 43.43700
O  56.85300 18.29000 43.03900
C  58.50600 19.69400 43.94700
N  56.56400 24.97300 44.18700
C  57.58200 24.08400 44.02000
C  58.96700 24.69600 44.30500
C  58.58500 26.22000 44.59100
C  57.07500 26.20700 44.54300
C  60.00400 24.05600 45.31900
C  59.20500 27.26800 43.58400
C  59.70800 28.63000 44.09000
N  54.07600 26.46800 44.26300
C  54.88000 27.51200 44.69900
C  54.09000 28.64600 44.92200
C  52.84700 28.39400 44.35700
C  52.89700 27.04600 43.96800
C  54.49700 29.97500 45.59800
C  51.52500 28.85600 44.09400
O  51.03000 29.90100 44.42600
C  50.82100 27.72000 43.29600
C  50.67100 28.17400 41.88400
O  51.57400 28.54200 41.20100
O  49.37700 28.13700 41.54900
C  48.87300 28.71900 40.31300
H  51.87900 20.82600 43.14300
H  58.28800 22.19600 43.78900
H  56.80400 28.19000 45.18700
H  49.19600 24.83700 43.49800
H  50.10500 22.24700 42.37200
H  50.30700 22.30200 45.29400
H  49.05600 21.57500 44.22500
H  48.78100 23.19600 44.69400
H  49.77500 23.84300 40.80700
H  50.03300 25.57700 40.91400
H  47.75600 25.79000 41.85800
H  47.34700 24.14700 41.59300
H  53.06400 19.14500 42.32600
H  53.62500 18.25100 43.75300
H  54.55200 18.16400 42.25400
H  59.10700 20.20500 43.19500
H  58.95900 18.71500 44.10100
H  58.38700 20.21600 44.89700
H  59.45600 24.64100 43.33300
H  58.88400 26.56300 45.58200
H  59.62100 23.10500 45.68800
H  60.05300 24.75400 46.15400
H  61.01300 23.92000 44.92700
H  58.51600 27.28800 42.74000
H  60.10100 26.82800 43.14800
H  60.67300 28.94100 43.69100
H  59.81700 28.64900 45.17400
H  59.01400 29.46300 43.97000
H  53.93500 29.96200 46.53200
H  54.07900 30.79600 45.01500
H  55.57600 30.11100 45.67000
H  49.86000 27.37200 43.67300
H  49.61100 29.18100 39.65800
H  48.15100 29.49300 40.57300
H  48.41000 27.91800 39.73500

