158

Mg -0.17000 7.57800 26.29400
C  0.67100 9.60700 28.93300
C  -0.33000 4.96100 28.44600
C  -0.60100 5.48800 23.58900
C  0.76500 10.09800 24.07200
N  0.22300 7.33000 28.51200
C  0.41700 8.33500 29.39200
C  0.31600 7.85300 30.83300
C  0.27500 6.25000 30.67700
C  0.09400 6.11000 29.13200
C  1.45700 5.38500 31.30200
C  -1.00900 8.38700 31.55200
C  -1.06000 8.37500 33.07500
H  0.09200 7.81600 33.86200
N  -0.43500 5.52600 26.07900
C  -0.51300 4.62400 27.10000
C  -0.89800 3.34300 26.65300
C  -0.98800 3.44200 25.24600
C  -0.70000 4.88600 24.87500
C  -1.04100 2.19800 27.56800
C  -1.29400 2.32400 24.23600
O  -1.23400 2.44600 22.98300
C  -1.45000 0.93900 24.72900
N  -0.08900 7.78600 24.12700
C  -0.29600 6.81400 23.24000
C  -0.22200 7.35600 21.79000
C  0.11400 8.85000 21.98800
C  0.31700 8.89100 23.44600
C  0.90800 6.67300 20.85600
C  -0.90900 9.90200 21.54600
C  -2.31300 10.04500 22.17600
N  0.51400 9.52100 26.38300
C  0.88900 10.40000 25.40800
C  1.12700 11.72600 26.05200
C  1.16500 11.39200 27.44300
C  0.79700 10.10600 27.57700
C  1.36000 13.10200 25.42500
C  1.32400 12.01300 28.80300
O  1.69900 13.19600 29.04200
C  1.04700 10.83500 29.79400
C  2.06300 10.65200 30.78500
O  3.19300 10.23000 30.55300
O  1.56600 11.00600 31.99400
C  2.56900 11.21800 33.02800
H  -0.50100 4.15100 29.15800
H  -0.80500 4.76500 22.79700
H  0.93800 10.89700 23.34800
H  1.21000 8.19500 31.35400
H  -0.62500 5.71800 30.98600
H  1.84900 4.68900 30.56100
H  0.94700 4.75200 32.02800
H  2.25000 6.04200 31.66000
H  -1.84400 7.80400 31.16400
H  -1.10700 9.45400 31.35000
H  -1.91500 7.87400 33.52900
H  -1.16900 9.42100 33.36100
H  -0.11200 1.62900 27.58000
H  -1.93000 1.64600 27.26200
H  -1.20500 2.44900 28.61600
H  -2.43300 0.99000 25.19700
H  -0.68400 0.78300 25.48800
H  -1.38600 0.24700 23.88900
H  -1.17400 7.20900 21.28000
H  1.06000 9.12800 21.52400
H  1.73500 7.36600 20.69900
H  0.42800 6.47100 19.89900
H  1.32100 5.77500 21.31500
H  -1.19800 9.43900 20.60200
H  -0.50600 10.90800 21.43000
H  -2.36700 11.00900 22.68200
H  -2.36200 9.36500 23.02700
H  -3.07700 9.84200 21.42600
H  2.42200 13.34600 25.46200
H  0.74400 13.80700 25.98300
H  0.99600 13.03000 24.40000
H  0.10300 11.22300 30.17600
H  3.29200 11.92000 32.61400
H  3.17300 10.35600 33.31300
H  2.26500 11.72400 33.94400
Mg 35.84000 49.49600 24.82300
C  36.25400 47.65300 27.92400
C  34.37000 51.97000 26.67900
C  35.22700 51.02700 21.94000
C  37.22000 46.76600 23.07000
N  35.39800 49.73500 26.98500
C  35.57300 48.87200 28.03500
C  35.17500 49.51300 29.37200
C  34.46900 50.87700 28.91100
C  34.69600 50.81400 27.40000
C  32.96600 51.09300 29.28300
C  36.40200 49.58100 30.35500
C  36.06200 49.27400 31.81500
H  34.61000 49.01700 32.38600
N  35.16400 51.28100 24.42600
C  34.61500 52.20300 25.31500
C  34.13500 53.40300 24.58200
C  34.42300 53.19600 23.18900
C  34.94800 51.76800 23.11600
C  33.65300 54.65400 25.28300
C  34.18400 54.12300 21.89300
O  34.58300 53.84700 20.76800
C  33.43100 55.43500 22.03400
N  36.24600 48.98100 22.77100
C  35.85600 49.81400 21.73400
C  36.35400 49.32500 20.37300
C  37.27100 48.02100 20.80100
C  36.94900 47.90300 22.30000
C  35.23100 49.05900 19.30000
C  38.79100 48.17100 20.57700
C  39.61100 47.24000 19.76000
N  36.48700 47.52100 25.33400
C  37.03800 46.53400 24.47300
C  37.54100 45.42500 25.30600
C  37.18300 45.83700 26.61700
C  36.61400 47.08100 26.60000
C  38.14500 44.07800 24.90000
C  37.16100 45.37200 28.02100
O  37.50000 44.25000 28.45100
C  36.56800 46.53900 28.90300
C  35.44300 46.15800 29.83500
O  34.27100 46.14500 29.51800
O  35.93600 45.73700 31.00800
C  35.07200 45.09300 32.02700
H  33.93500 52.73000 27.33200
H  35.01300 51.51800 20.98900
H  37.71300 45.99200 22.47900
H  34.46600 48.77200 29.74100
H  35.02500 51.71300 29.33500
H  32.42500 50.67500 28.43400
H  32.74100 52.14100 29.48200
H  32.77600 50.47300 30.15900
H  36.75200 50.61300 30.38000
H  37.24900 48.98100 30.02300
H  36.64100 49.84600 32.54000
H  36.41700 48.24900 31.91600
H  33.87900 55.54900 24.70300
H  34.07600 54.71900 26.28600
H  32.56600 54.58700 25.31900
H  33.06600 55.66300 21.03200
H  34.03100 56.17400 22.56500
H  32.60500 55.31400 22.73500
H  36.97900 50.18100 20.12100
H  36.89500 47.19200 20.20200
H  35.78400 49.45600 18.44900
H  34.33000 49.62900 19.52700
H  35.00300 48.02300 19.05000
H  39.32000 48.44200 21.49000
H  38.93800 49.13700 20.09300
H  40.63300 47.31800 20.12900
H  39.54800 47.45400 18.69300
H  39.30300 46.19700 19.82600
H  38.02900 43.97500 23.82100
H  37.72700 43.21100 25.41100
H  39.21500 44.03600 25.10300
H  37.35400 46.74000 29.63100
H  35.68600 45.50500 32.82700
H  35.23200 44.04200 32.27100
H  34.04200 45.44700 32.07800

