158

Mg 45.96400 44.37300 43.33800
C  42.54300 43.52000 42.92600
C  46.75200 41.04200 42.51800
C  49.19100 45.24800 43.16100
C  44.96700 47.78700 43.23700
N  44.75000 42.47600 42.87900
C  43.40500 42.40400 42.72900
C  42.95600 41.01000 42.35600
C  44.31300 40.19600 42.52400
C  45.39500 41.34400 42.66800
C  44.35400 39.18700 43.75000
C  42.42200 40.85400 40.92400
C  42.97800 41.91500 39.86300
H  42.60100 41.69200 38.33000
N  47.75800 43.19100 42.96800
C  47.87300 41.85200 42.68600
C  49.23300 41.50100 42.63600
C  50.02800 42.72700 42.76700
C  49.03400 43.80900 42.95700
C  49.70500 40.06900 42.25500
C  51.52300 42.80500 42.65000
O  52.14400 41.76400 42.41700
C  52.29600 44.02100 42.59700
N  46.94300 46.27900 42.98200
C  48.26000 46.29900 43.28400
C  48.71000 47.76100 43.24400
C  47.45500 48.55300 43.49900
C  46.35000 47.49200 43.22400
C  49.88700 48.07100 44.21500
C  47.32700 49.91200 42.70400
C  47.77100 51.19600 43.38400
N  44.19600 45.44400 43.30000
C  43.98400 46.77100 43.17200
C  42.54800 47.04100 43.07900
C  41.96700 45.78900 43.07200
C  43.01000 44.77800 43.10600
C  41.87000 48.35500 42.96000
C  40.69000 45.09800 43.04100
O  39.54200 45.53400 42.99200
C  41.00200 43.61900 42.93600
C  40.53600 42.90900 44.13700
O  39.84300 41.90800 44.23900
O  40.89500 43.58200 45.26100
C  40.46100 43.07800 46.61700
H  46.92400 39.96600 42.44200
H  50.21600 45.62600 43.16400
H  44.56200 48.80100 43.24600
H  42.25500 40.59900 43.08200
H  44.60300 39.66200 41.61900
H  44.92700 38.29100 43.51000
H  43.31900 38.91300 43.95800
H  44.75000 39.66100 44.64700
H  41.34400 41.01300 40.88600
H  42.69900 39.92500 40.42500
H  44.04600 42.10600 39.96500
H  42.59500 42.87100 40.21900
H  50.41300 39.98800 41.43100
H  48.89600 39.37700 42.01800
H  50.25700 39.74300 43.13700
H  51.84500 44.76800 41.94400
H  53.31200 43.76700 42.29500
H  52.37800 44.31100 43.64500
H  49.07100 47.90700 42.22600
H  47.30000 48.67800 44.57100
H  50.79100 48.03600 43.60700
H  49.95300 47.27800 44.96100
H  49.80500 49.03000 44.72700
H  46.27900 50.09600 42.47000
H  47.94500 49.85900 41.80800
H  46.91200 51.85300 43.24800
H  48.69000 51.64700 43.00800
H  47.98100 50.96800 44.42900
H  42.18800 49.20200 43.56900
H  40.81600 48.28400 43.22900
H  41.76700 48.75900 41.95300
H  40.47200 43.17700 42.09100
H  41.10300 42.25400 46.93000
H  39.40800 42.79600 46.59700
H  40.62300 43.87800 47.33900
Mg 26.29400 51.15200 26.18600
C  24.18000 52.31600 28.73600
C  28.61000 50.50400 28.74900
C  28.78500 50.95300 23.88200
C  24.20200 52.66200 23.90200
N  26.33200 51.44700 28.45500
C  25.33100 51.80800 29.25900
C  25.57500 51.43200 30.75600
C  27.10500 51.20800 30.70100
C  27.39600 50.99000 29.17900
C  27.95800 52.31000 31.44800
C  24.76300 50.23700 31.23200
C  25.20600 49.54300 32.51000
H  24.41700 49.84800 33.82000
N  28.34100 50.56900 26.30200
C  29.12100 50.29300 27.41000
C  30.45500 49.98500 27.03000
C  30.46300 50.02400 25.59200
C  29.17500 50.54500 25.22600
C  31.52900 49.55800 27.95600
C  31.59000 49.62500 24.62600
O  31.51300 49.82600 23.37400
C  32.85300 48.98700 25.17900
N  26.46800 51.72100 24.19800
C  27.60000 51.42300 23.43500
C  27.19900 51.56100 21.94800
C  25.86100 52.40800 21.97100
C  25.47700 52.26100 23.44300
C  28.24800 52.28200 21.12500
C  24.83200 51.88400 20.97600
C  24.23900 52.99100 20.08200
N  24.45200 52.12100 26.19700
C  23.67400 52.56400 25.18900
C  22.39500 53.01700 25.72500
C  22.60500 52.98600 27.08800
C  23.87500 52.44700 27.35400
C  21.18100 53.51600 24.98900
C  21.97100 53.24400 28.36300
O  20.82900 53.65700 28.55500
C  22.92900 52.70800 29.44100
C  23.12300 53.68700 30.49200
O  23.85500 54.65800 30.49400
O  22.34300 53.27400 31.51900
C  22.43300 53.74900 32.90400
H  29.28100 50.36300 29.59900
H  29.38500 50.65000 23.02100
H  23.41000 52.98300 23.22200
H  25.26600 52.31300 31.31900
H  27.44400 50.26700 31.13300
H  28.34700 51.80400 32.33300
H  27.26600 53.12800 31.64800
H  28.71100 52.72500 30.77800
H  24.69200 49.57600 30.36800
H  23.71300 50.50600 31.35300
H  26.25500 49.75400 32.71500
H  25.14700 48.46900 32.33400
H  31.15100 49.52500 28.97700
H  32.51800 50.00200 27.84100
H  31.69300 48.49400 27.78600
H  33.54800 48.75800 24.37100
H  32.53300 47.99400 25.49400
H  33.27400 49.66200 25.92400
H  26.95700 50.58300 21.53100
H  26.01700 53.47700 21.82300
H  28.94200 52.87900 21.71700
H  27.66300 52.95300 20.49500
H  28.76600 51.45800 20.63500
H  23.95600 51.40700 21.41600
H  25.37200 51.19300 20.32800
H  23.17900 52.74000 20.03400
H  24.62700 52.93300 19.06500
H  24.45200 53.99700 20.44300
H  20.34100 53.09800 25.54400
H  21.18600 53.19300 23.94800
H  21.16500 54.60200 24.90100
H  22.49200 51.82800 29.91200
H  23.17100 53.22700 33.51200
H  21.48000 53.73900 33.43400
H  22.76700 54.78300 32.98000

