158

Mg 7.40600 53.98900 42.29400
C  6.68200 50.52400 41.97500
C  10.38600 53.40200 40.60100
C  7.53600 57.22400 41.83900
C  4.31400 54.28400 43.94100
N  8.39000 52.23800 41.54600
C  7.90200 50.92600 41.38100
C  8.98300 50.00700 40.71300
C  10.25300 50.88200 40.73900
C  9.68100 52.28400 41.03200
C  11.31800 50.45300 41.78600
C  8.43100 49.54900 39.30300
C  8.39900 50.49800 38.13400
H  7.40500 50.20900 37.01200
N  8.75800 55.18700 41.26200
C  9.93600 54.77500 40.65100
C  10.58400 55.93200 40.11900
C  9.79400 57.08300 40.43900
C  8.63800 56.58000 41.18300
C  11.86500 55.78100 39.24300
C  9.99800 58.55900 39.92800
O  10.93000 58.81100 39.16900
C  8.98700 59.53700 40.21900
N  6.06800 55.56300 42.80300
C  6.42400 56.85500 42.58500
C  5.33400 57.76300 43.09700
C  4.31000 56.85100 43.83300
C  4.94300 55.48100 43.58900
C  5.85100 58.95400 43.97500
C  2.82500 57.00400 43.33200
C  2.34200 56.48700 41.97000
N  5.83400 52.68800 42.94000
C  4.68200 52.95800 43.62600
C  4.03700 51.68600 43.87300
C  4.79400 50.68700 43.36200
C  5.82100 51.38400 42.69300
C  2.78900 51.44700 44.79200
C  5.01100 49.24200 43.26100
O  4.40800 48.31300 43.78100
C  6.18900 49.06100 42.28100
C  5.62700 48.47200 41.04400
O  4.99500 49.04900 40.21100
O  5.98100 47.07900 41.07300
C  5.61600 46.30700 39.80300
H  11.33100 53.11900 40.13200
H  7.52800 58.31000 41.73000
H  3.30900 54.37600 44.35900
H  9.09400 49.11000 41.32300
H  10.72600 50.89500 39.75700
H  12.27500 50.55500 41.27600
H  11.21400 49.39300 42.01900
H  11.29900 50.93800 42.76200
H  7.42800 49.13700 39.41900
H  9.01400 48.71500 38.91200
H  9.40500 50.51000 37.71600
H  8.09300 51.49100 38.46200
H  11.65700 55.89700 38.17900
H  12.35800 54.83100 39.44900
H  12.45500 56.59800 39.65800
H  8.04600 59.18300 39.79600
H  9.23900 60.33300 39.51800
H  8.92300 60.06100 41.17200
H  4.90800 58.23300 42.21100
H  4.30900 57.11300 44.89100
H  6.93200 58.92200 44.11100
H  5.30100 58.98500 44.91500
H  5.64600 59.92700 43.52800
H  2.53300 58.04700 43.45000
H  2.25300 56.49000 44.10500
H  2.04500 57.27500 41.27700
H  1.52600 55.77500 42.08600
H  3.04000 55.95400 41.32400
H  3.06900 51.58600 45.83600
H  2.34400 50.47000 44.60500
H  2.05400 52.24800 44.70200
H  6.90000 48.43600 42.82100
H  5.71700 46.92700 38.91300
H  4.61700 45.87700 39.86400
H  6.36200 45.52600 39.65100
Mg 1.35800 42.50400 26.30800
C  3.45500 42.47100 29.04000
C  -1.34100 41.66700 28.42800
C  -0.60600 41.99800 23.52200
C  4.17000 42.91400 24.14600
N  1.07000 42.09600 28.44900
C  2.11300 42.23500 29.38500
C  1.51900 42.36600 30.78700
C  0.15100 41.71900 30.59200
C  -0.06400 41.89900 29.09700
C  -0.01000 40.27900 31.11000
C  1.64200 43.83200 31.31800
C  2.04100 43.99600 32.81900
H  1.78200 42.82100 33.87100
N  -0.70800 42.00400 26.01300
C  -1.58600 41.80400 27.05500
C  -2.90800 41.58500 26.39400
C  -2.73700 41.58500 24.97200
C  -1.28200 41.91300 24.76500
C  -4.01800 41.12300 27.21900
C  -3.63100 41.12600 23.84500
O  -3.31500 41.20300 22.67000
C  -4.89800 40.26600 24.12300
N  1.74200 42.44500 24.14900
C  0.77700 42.32000 23.22700
C  1.34400 42.09600 21.78900
C  2.75800 42.67000 21.93100
C  2.93800 42.70100 23.47600
C  1.25200 40.70600 21.09000
C  2.87600 44.05900 21.18200
C  4.28500 44.34500 20.68600
N  3.31400 42.74300 26.47400
C  4.30300 42.95400 25.57800
C  5.63000 42.97100 26.27600
C  5.33200 42.87200 27.64800
C  3.91000 42.66900 27.72700
C  7.03200 42.98600 25.63000
C  5.83400 42.92100 29.00900
O  6.98500 43.04700 29.45100
C  4.57400 42.72700 29.93900
C  4.86400 41.53200 30.70800
O  5.11600 40.34600 30.30500
O  4.73000 41.89700 32.06900
C  5.18600 40.83400 33.03400
H  -2.18300 41.37300 29.05700
H  -1.21700 41.80800 22.63700
H  5.00600 43.24100 23.52500
H  2.17100 41.67400 31.32000
H  -0.59100 42.39200 31.02200
H  -0.83500 40.34300 31.82000
H  0.92600 40.10000 31.63800
H  -0.17400 39.58600 30.28500
H  0.67900 44.31600 31.15500
H  2.36400 44.39900 30.73100
H  1.64300 44.94900 33.16900
H  3.12400 44.10700 32.86500
H  -3.93000 40.05500 27.41700
H  -4.98100 41.19400 26.71300
H  -4.16300 41.61200 28.18300
H  -4.81300 39.67100 25.03300
H  -5.07500 39.65000 23.24100
H  -5.75000 40.91300 24.33200
H  0.76200 42.82500 21.22500
H  3.47900 41.99600 21.46900
H  0.72100 40.04200 21.77100
H  2.16100 40.15300 20.85100
H  0.61000 40.86400 20.22400
H  2.58000 44.78900 21.93600
H  2.27700 44.10500 20.27200
H  4.36900 44.43800 19.60300
H  4.97200 43.54600 20.96300
H  4.62200 45.30800 21.07000
H  7.22600 42.15300 24.95300
H  7.75400 42.80400 26.42600
H  7.22800 43.94600 25.15300
H  4.49000 43.67900 30.46300
H  4.44900 40.09200 33.34100
H  5.45200 41.32100 33.97200
H  6.12800 40.38000 32.72600

