158

Mg 43.81100 3.66900 46.77500
C  41.86900 6.62300 46.31100
C  40.83600 1.88400 46.87100
C  45.68700 0.91200 46.22600
C  46.63300 5.66700 46.01200
N  41.59300 4.21900 46.49400
C  41.05100 5.48100 46.41800
C  39.55400 5.46000 46.88900
C  39.37100 3.93700 47.29400
C  40.61100 3.28700 46.86900
C  39.08400 3.72200 48.79700
C  38.52000 5.90400 45.76500
C  38.72900 5.60600 44.25500
H  38.97400 6.81900 43.35400
N  43.36900 1.68900 46.64900
C  42.05000 1.13700 46.70300
C  42.25700 -0.30800 46.69700
C  43.60400 -0.63700 46.66200
C  44.30200 0.67600 46.55000
C  41.04200 -1.20800 46.84700
C  44.20600 -1.97200 46.89200
O  43.52200 -2.99800 47.03500
C  45.68800 -2.20900 47.09300
N  45.81000 3.30500 46.11000
C  46.35400 2.07900 46.12200
C  47.87200 2.15400 45.66800
C  48.17300 3.65900 45.66900
C  46.78700 4.29400 45.92900
C  48.75900 1.40600 46.69200
C  48.81700 4.07800 44.31600
C  50.30000 3.80600 44.16400
N  44.24100 5.72600 46.19900
C  45.41500 6.37100 46.06300
C  45.20000 7.77800 45.98900
C  43.83000 7.96800 46.09200
C  43.26500 6.67800 46.25500
C  46.27700 8.84400 45.69800
C  42.79300 8.98000 46.06400
O  42.92400 10.19300 46.04300
C  41.40300 8.11400 46.17900
C  40.60600 8.59800 47.34600
O  40.68400 8.24300 48.51300
O  39.58900 9.41500 46.85800
C  38.73400 9.95300 47.92100
H  39.96100 1.30000 47.16400
H  46.24100 -0.02400 46.12600
H  47.47400 6.35700 45.92400
H  39.37600 6.06900 47.77600
H  38.57600 3.39800 46.77800
H  40.04400 3.87500 49.28900
H  38.83800 2.68000 49.00400
H  38.32100 4.43100 49.11800
H  38.41700 6.98900 45.73200
H  37.53200 5.54200 46.04900
H  37.82300 5.14300 43.86200
H  39.57800 4.92400 44.22500
H  40.25200 -0.77100 47.45800
H  41.24400 -2.20400 47.24200
H  40.56800 -1.30000 45.87000
H  46.26200 -1.41000 47.56400
H  46.14100 -2.27000 46.10400
H  45.89000 -3.06300 47.74000
H  47.83500 1.78600 44.64200
H  48.87300 4.02900 46.41700
H  49.08900 0.50400 46.17800
H  48.14300 1.11400 47.54200
H  49.68700 1.94200 46.89300
H  48.66900 5.14900 44.17700
H  48.28500 3.61900 43.48200
H  50.80200 4.76000 44.00300
H  50.46800 3.21500 43.26400
H  50.74300 3.24500 44.98800
H  46.61600 8.57700 44.69700
H  47.08700 8.78500 46.42500
H  46.01900 9.87700 45.92900
H  40.87600 8.12800 45.22500
H  39.20900 10.89300 48.20000
H  38.61600 9.37500 48.83700
H  37.72500 10.17600 47.57200
Mg -2.40600 34.60300 26.74400
C  -4.02900 32.68700 29.21600
C  -1.04100 36.52000 29.22100
C  -1.18700 36.62900 24.43600
C  -4.34700 32.98900 24.30600
N  -2.46900 34.48900 28.95300
C  -3.19000 33.70500 29.73100
C  -2.85300 34.00100 31.21600
C  -1.88600 35.28800 31.12700
C  -1.79600 35.42500 29.65700
C  -2.51400 36.46500 31.95700
C  -2.21300 32.77900 31.91700
C  -3.01100 32.19600 33.16600
H  -2.32200 32.07100 34.54100
N  -1.15700 36.29600 26.81800
C  -0.65900 36.90900 27.90800
C  0.22700 38.01600 27.50500
C  0.27600 37.91800 26.08400
C  -0.80500 36.98100 25.71800
C  0.87500 38.84100 28.54400
C  1.20100 38.69000 25.11300
O  1.15100 38.45100 23.94000
C  2.10000 39.71700 25.64000
N  -3.01100 34.95700 24.66300
C  -2.24000 35.80300 24.01700
C  -2.72900 35.84700 22.55900
C  -3.54700 34.56800 22.40300
C  -3.65000 34.11200 23.86100
C  -3.54800 37.22100 22.23200
C  -2.75900 33.55400 21.50600
C  -1.67900 32.70400 22.21700
N  -3.91300 33.16100 26.72400
C  -4.47400 32.48100 25.64100
C  -5.21200 31.32100 26.15200
C  -5.04600 31.44400 27.57300
C  -4.25800 32.53700 27.85000
C  -6.00900 30.25900 25.34400
C  -5.46600 30.78500 28.83600
O  -6.10700 29.67700 28.95500
C  -4.93800 31.67300 29.94800
C  -6.04400 32.29700 30.69400
O  -6.72900 33.14400 30.16800
O  -6.10800 31.89700 32.07800
C  -6.99500 32.69500 32.97400
H  -0.59400 37.11500 30.02100
H  -0.89100 37.29900 23.62600
H  -4.82800 32.33700 23.57300
H  -3.73100 34.33700 31.76900
H  -0.90100 35.20100 31.58500
H  -2.74400 37.24400 31.23100
H  -1.82400 36.97700 32.62800
H  -3.43100 36.25400 32.50800
H  -1.23400 33.07400 32.29500
H  -1.99000 31.94700 31.24900
H  -3.25200 31.13800 33.06400
H  -3.94800 32.75300 33.16900
H  1.93200 38.96200 28.30600
H  0.86300 38.51900 29.58500
H  0.45600 39.84500 28.49100
H  2.70600 39.23900 26.41000
H  1.52200 40.54800 26.04500
H  2.80400 40.03600 24.87100
H  -1.86100 35.87200 21.90000
H  -4.52500 34.82000 21.99400
H  -3.84800 37.12800 21.18800
H  -2.89600 38.06000 22.47700
H  -4.48500 37.30200 22.78300
H  -2.12000 34.10000 20.81200
H  -3.44400 32.88300 20.98700
H  -0.86200 32.66300 21.49600
H  -2.09300 31.69500 22.20700
H  -1.32900 32.98000 23.21100
H  -5.54600 30.20300 24.35900
H  -7.08700 30.42000 25.34600
H  -5.78500 29.32800 25.86400
H  -4.31000 31.04000 30.57300
H  -6.31800 33.38800 33.47300
H  -7.59200 32.07900 33.64700
H  -7.73400 33.31300 32.46400

