158

Mg 48.02200 15.98200 28.51700
C  46.06800 15.53300 31.48300
C  49.94200 18.10900 30.43800
C  49.47200 16.85100 25.77600
C  45.34600 14.47000 26.75100
N  47.92600 16.73800 30.67100
C  47.07700 16.44800 31.67600
C  47.58100 16.89300 33.07500
C  48.70400 17.85400 32.65500
C  48.85800 17.55400 31.15600
C  48.44000 19.36900 33.06200
C  48.05600 15.66900 33.91900
C  48.17000 15.85300 35.44200
H  47.58400 17.11900 36.11500
N  49.58700 17.13800 28.18900
C  50.26500 17.95000 29.06700
C  51.41300 18.56900 28.41200
C  51.36200 18.11500 27.08200
C  50.08800 17.35900 26.96600
C  52.38300 19.44100 29.09800
C  52.37800 18.27700 25.93600
O  52.32700 17.55800 24.99200
C  53.58800 19.11100 26.18800
N  47.42600 15.76300 26.48500
C  48.26000 16.21200 25.52700
C  47.83400 15.79900 24.15300
C  46.53600 14.92300 24.47400
C  46.36400 15.10700 25.96200
C  47.67700 17.04500 23.17300
C  46.43000 13.44800 24.02900
C  47.00700 12.31600 24.93000
N  46.14600 15.06300 28.99000
C  45.20800 14.53300 28.19400
C  44.12800 13.98700 28.94500
C  44.49700 14.31100 30.26900
C  45.72300 15.01300 30.26500
C  42.83300 13.31000 28.52100
C  44.14600 14.10000 31.58000
O  43.24400 13.41900 32.11500
C  45.07000 14.96700 32.45100
C  44.35000 16.03700 33.17500
O  43.92400 17.09500 32.71400
O  44.16100 15.64400 34.44700
C  43.33600 16.48600 35.32400
H  50.50800 18.80800 31.05700
H  49.99600 17.32600 24.94400
H  44.48700 13.94300 26.32900
H  46.76800 17.31400 33.66700
H  49.58500 17.53400 33.21200
H  48.35800 20.01100 32.18500
H  49.35300 19.65700 33.58300
H  47.58100 19.46700 33.72500
H  49.07800 15.43900 33.61500
H  47.51500 14.77300 33.61400
H  49.22200 15.95900 35.70700
H  47.88400 14.93000 35.94700
H  52.75000 20.20700 28.41500
H  53.19900 18.87000 29.54000
H  52.03900 20.07500 29.91600
H  53.96400 18.81500 27.16800
H  53.28400 20.15500 26.25900
H  54.33400 18.95000 25.41000
H  48.58600 15.10800 23.77100
H  45.67400 15.39300 24.00000
H  46.64300 17.15700 22.84700
H  48.44800 16.72800 22.47000
H  48.05200 17.92000 23.70300
H  46.84100 13.23400 23.04200
H  45.34800 13.32300 23.99200
H  47.73100 12.56700 25.70500
H  47.57300 11.63100 24.29900
H  46.13600 11.89600 25.43400
H  42.05700 13.31400 29.28600
H  42.97100 12.26700 28.23500
H  42.42200 13.81000 27.64400
H  45.63700 14.38500 33.17800
H  42.69900 15.89500 35.98200
H  42.56800 17.09400 34.84600
H  43.99200 17.08700 35.95400
Mg 47.06400 24.92900 28.12300
C  48.18200 27.27900 30.56900
C  46.87800 22.58900 30.46700
C  46.19900 23.01400 25.68000
C  47.80900 27.62100 25.77800
N  47.81000 24.88400 30.22900
C  47.89200 25.99500 31.02000
C  47.60800 25.62400 32.53800
C  47.36000 24.13800 32.47200
C  47.41800 23.80200 30.96900
C  48.34000 23.17300 33.27600
C  46.43700 26.46400 33.21900
C  45.67900 25.92000 34.46200
H  45.62700 26.85100 35.76600
N  46.40200 23.08000 28.06600
C  46.41100 22.21900 29.16900
C  45.88700 20.93900 28.74300
C  45.65500 21.07300 27.33200
C  46.11500 22.41200 26.95000
C  45.88000 19.74000 29.60500
C  45.06800 20.07700 26.29900
O  44.69600 20.39700 25.21000
C  44.55800 18.73500 26.75400
N  47.06800 25.23200 25.98600
C  46.75100 24.21100 25.17100
C  46.64900 24.73900 23.64200
C  46.97100 26.27300 23.82800
C  47.24100 26.39800 25.30000
C  47.52400 23.98700 22.50500
C  45.86300 27.22600 23.34100
C  46.24200 28.14400 22.23300
N  48.09000 26.99900 28.13800
C  48.28500 27.91000 27.10800
C  48.83100 29.11200 27.62800
C  48.72700 28.98900 29.06000
C  48.29200 27.67000 29.25800
C  49.25800 30.33000 26.86100
C  48.87800 29.61200 30.40200
O  49.35700 30.68600 30.82200
C  48.33500 28.53700 31.40400
C  49.30100 28.40000 32.44300
O  50.42300 27.81100 32.30800
O  48.84300 28.82000 33.64400
C  49.75400 28.80100 34.85800
H  46.66800 21.79900 31.19100
H  45.74400 22.40200 24.89800
H  48.05900 28.45800 25.12300
H  48.54500 25.76400 33.07700
H  46.32400 23.94500 32.75400
H  48.94500 22.63600 32.54500
H  47.72900 22.45500 33.82400
H  48.94200 23.72200 34.00000
H  45.70100 26.67100 32.44200
H  46.80000 27.43500 33.55900
H  46.11900 24.95000 34.69200
H  44.70100 25.71300 34.02700
H  46.63800 19.05300 29.22800
H  44.98200 19.12300 29.61400
H  46.08700 20.04300 30.63100
H  43.92200 18.74400 27.63900
H  45.37500 18.03200 26.91800
H  43.98700 18.42300 25.88000
H  45.61900 24.65100 23.29700
H  47.90600 26.59800 23.37200
H  47.76600 22.94200 22.69600
H  48.45900 24.49700 22.27100
H  46.93300 24.10800 21.59800
H  45.51200 27.86900 24.14800
H  45.06500 26.57300 22.98700
H  45.58700 27.92000 21.39200
H  47.28900 28.15400 21.92800
H  46.01300 29.18100 22.48000
H  49.06700 31.26800 27.38400
H  48.77500 30.28700 25.88500
H  50.31800 30.20000 26.64400
H  47.39400 28.94700 31.77300
H  49.22500 28.20800 35.60500
H  49.98600 29.79300 35.24400
H  50.69300 28.25500 34.76900

