158

Mg 46.50300 35.44100 28.69400
C  44.55300 33.62100 30.96700
C  46.56200 38.15100 30.82000
C  47.63100 37.37000 26.05000
C  45.84500 32.91400 26.30600
N  45.65300 35.77600 30.55700
C  45.12400 34.79800 31.38700
C  45.45200 35.20800 32.81900
C  45.57700 36.74700 32.67900
C  45.98400 36.95400 31.25200
C  44.34500 37.45300 33.18800
C  46.75300 34.49700 33.31600
C  47.11500 34.79500 34.78200
H  46.08300 35.39300 35.72600
N  47.13300 37.41400 28.52500
C  47.13400 38.30100 29.54200
C  47.81200 39.50900 29.01700
C  48.22700 39.28800 27.66900
C  47.65300 37.95200 27.31900
C  47.99500 40.73000 30.01000
C  49.05700 40.16400 26.65300
O  49.39400 39.72200 25.54100
C  49.45500 41.53900 27.06500
N  46.66200 35.26800 26.46600
C  47.16000 36.20000 25.67900
C  47.28600 35.75900 24.23900
C  46.43900 34.44100 24.25400
C  46.31400 34.09100 25.70500
C  46.82700 36.69800 23.09400
C  47.25300 33.19600 23.67600
C  46.35300 32.18600 22.94700
N  45.61000 33.61000 28.63700
C  45.49800 32.65500 27.68400
C  44.74900 31.53800 28.11000
C  44.36500 31.91000 29.42400
C  44.86300 33.17100 29.64600
C  44.65000 30.26900 27.40500
C  43.65800 31.38700 30.57500
O  43.12800 30.30400 30.82000
C  43.65600 32.55200 31.58500
C  44.10600 31.94200 32.93000
O  44.99900 31.16500 33.07400
O  43.29500 32.40900 33.96500
C  43.77100 31.97800 35.29400
H  46.59100 38.96600 31.54700
H  48.19600 37.85600 25.25100
H  45.69700 32.13500 25.55500
H  44.62100 34.86900 33.43700
H  46.41800 37.07500 33.28900
H  44.62600 38.39200 33.66500
H  43.85000 36.75400 33.86200
H  43.62900 37.74800 32.42100
H  47.63700 34.85900 32.79000
H  46.73600 33.42600 33.11200
H  48.05400 35.34200 34.86000
H  47.20400 33.77700 35.16400
H  47.03700 40.94900 30.48200
H  48.47000 41.62100 29.59800
H  48.61800 40.42700 30.85100
H  50.16500 41.57600 27.89100
H  48.62800 42.19900 27.32900
H  49.93900 41.99800 26.20300
H  48.33900 35.52700 24.07700
H  45.42800 34.51000 23.85400
H  47.65100 37.32700 22.75600
H  46.13500 37.45500 23.46600
H  46.47200 36.22500 22.17800
H  47.86100 32.70600 24.43700
H  48.01100 33.59300 23.00100
H  46.53000 31.21400 23.40900
H  46.38600 32.14600 21.85800
H  45.28600 32.36900 23.07900
H  44.68800 29.40000 28.06200
H  45.50000 30.11800 26.73900
H  43.77100 30.33400 26.76400
H  42.66500 32.98100 31.73700
H  43.28700 31.04100 35.56900
H  43.43500 32.61800 36.11100
H  44.84600 31.80100 35.31900
Mg -5.59600 25.29900 26.92800
C  -3.85200 27.10000 29.29600
C  -6.74500 23.21400 29.29800
C  -6.46700 23.06500 24.42700
C  -3.88200 27.03100 24.48300
N  -5.21900 25.06000 29.07400
C  -4.56000 25.98100 29.85600
C  -4.84100 25.73800 31.34600
C  -5.46400 24.29400 31.33000
C  -5.86200 24.18200 29.79500
C  -4.53500 23.19100 31.94400
C  -5.64600 26.83300 31.99400
C  -5.15700 27.24700 33.42800
H  -6.01100 26.84800 34.67900
N  -6.66000 23.45600 26.84000
C  -7.12800 22.78700 27.96600
C  -7.78000 21.61500 27.58200
C  -7.63400 21.52100 26.15300
C  -6.88700 22.72800 25.74700
C  -8.50500 20.69000 28.47800
C  -8.17800 20.40400 25.28500
O  -8.04900 20.38100 24.06800
C  -8.98900 19.22500 25.80900
N  -5.22000 25.04900 24.83900
C  -5.72500 24.08900 24.04000
C  -5.24900 24.25400 22.51800
C  -4.62100 25.60900 22.59100
C  -4.59000 25.95300 24.08200
C  -4.32800 23.12500 22.03900
C  -5.38200 26.78700 21.72500
C  -4.98400 26.94200 20.25000
N  -4.37100 26.96400 26.80600
C  -3.76100 27.58100 25.79000
C  -3.02300 28.77000 26.20500
C  -3.00400 28.61900 27.61800
C  -3.80500 27.45300 27.94800
C  -2.32800 29.75600 25.28500
C  -2.52000 29.19000 28.84100
O  -1.87500 30.20300 29.10100
C  -3.05500 28.21500 29.96500
C  -1.93100 27.82300 30.83000
O  -1.29600 26.77200 30.67500
O  -1.91200 28.61300 31.97300
C  -0.90300 28.12500 32.97000
H  -7.09300 22.52400 30.07000
H  -6.82600 22.35500 23.67800
H  -3.41500 27.62400 23.69400
H  -3.91900 25.62000 31.91400
H  -6.32000 24.33800 32.00400
H  -3.46800 23.40000 31.87500
H  -4.76200 22.31600 31.33400
H  -4.82200 22.95300 32.96800
H  -6.67500 26.53300 32.19000
H  -5.70500 27.66400 31.29200
H  -4.94500 28.31200 33.32800
H  -4.12400 26.93400 33.58700
H  -8.69200 21.25800 29.38900
H  -7.92900 19.80000 28.73200
H  -9.47500 20.53700 28.00500
H  -9.95600 19.58500 26.16100
H  -8.43700 18.55700 26.47000
H  -9.37200 18.61700 24.99000
H  -6.13600 24.40200 21.90300
H  -3.62600 25.58300 22.14700
H  -4.21700 22.39300 22.83900
H  -3.29900 23.40600 21.81300
H  -4.78900 22.70300 21.14600
H  -5.43800 27.80400 22.11300
H  -6.42900 26.49300 21.78800
H  -4.24800 27.73900 20.14000
H  -5.88800 27.07600 19.65500
H  -4.51700 26.04300 19.84800
H  -2.61000 29.67300 24.23500
H  -1.26200 29.90500 25.45700
H  -2.76200 30.71000 25.58400
H  -3.71200 28.65400 30.71600
H  -1.28000 27.21200 33.43100
H  -0.77800 28.90200 33.72300
H  0.06100 27.93300 32.49800

