158

Mg 48.05600 25.57000 27.90700
C  49.03500 27.87900 30.30000
C  47.00300 23.53500 30.43400
C  47.34500 23.46500 25.53900
C  50.06500 27.47100 25.61200
N  48.05200 25.67800 30.13300
C  48.44600 26.80200 30.87500
C  47.96500 26.63300 32.36500
C  47.42700 25.15700 32.37200
C  47.47500 24.74700 30.90800
C  48.26800 24.16100 33.22600
C  46.91300 27.72100 32.82900
C  46.09500 27.41800 34.09300
H  45.88200 28.43200 35.26800
N  47.38800 23.74500 27.93300
C  46.91600 23.06800 29.09300
C  46.49000 21.73300 28.68100
C  46.44100 21.74800 27.27800
C  47.03000 23.02600 26.84700
C  46.11700 20.67700 29.67100
C  45.82700 20.72000 26.33000
O  45.96500 20.74400 25.14800
C  45.07900 19.57200 26.90800
N  48.56600 25.54500 25.83100
C  48.03600 24.62000 25.03600
C  48.37100 24.80000 23.57600
C  49.26500 26.13300 23.64500
C  49.34900 26.39300 25.13300
C  49.07200 23.58300 22.91700
C  48.64700 27.35100 22.90000
C  48.22100 27.07300 21.47300
N  49.27100 27.44300 27.85300
C  50.01700 28.03000 26.91600
C  50.64700 29.23500 27.44200
C  50.23700 29.20400 28.84300
C  49.44200 28.06400 28.98500
C  51.45700 30.17200 26.68500
C  50.36000 29.92700 30.02400
O  50.90600 30.99800 30.20100
C  49.49000 29.24300 30.99800
C  50.23500 29.08200 32.28700
O  51.23400 28.32600 32.46100
O  49.70300 29.82800 33.28200
C  50.28200 29.70800 34.59100
H  46.59700 22.75100 31.07600
H  47.10000 22.70700 24.79200
H  50.53300 28.17500 24.92000
H  48.78000 26.75900 33.07800
H  46.39900 25.20300 32.73000
H  49.07600 23.85000 32.56400
H  47.70300 23.24800 33.41300
H  48.65500 24.43600 34.20700
H  46.22100 27.80500 31.99100
H  47.45200 28.66200 32.94500
H  46.58100 26.57700 34.58700
H  45.17700 26.99500 33.68800
H  46.80200 20.82400 30.50600
H  46.24300 19.63900 29.36200
H  45.08200 20.71100 30.01100
H  44.34300 19.93200 27.62700
H  45.62400 18.82400 27.48300
H  44.61800 19.06100 26.06300
H  47.44300 24.95300 23.02500
H  50.23800 25.83900 23.25100
H  48.32200 22.84400 22.63500
H  49.76000 23.11900 23.62400
H  49.74000 23.89700 22.11500
H  49.48200 28.05200 22.91000
H  47.84700 27.78200 23.50100
H  49.07000 26.52900 21.05900
H  48.21400 28.06200 21.01500
H  47.23500 26.61100 21.43100
H  50.92100 31.05000 26.32500
H  52.00400 29.73600 25.84900
H  52.17900 30.41700 27.46400
H  48.64900 29.89000 31.25000
H  51.29400 29.31000 34.67000
H  49.62400 29.16500 35.26900
H  50.32300 30.72400 34.98300
Mg 26.81100 50.50300 25.67800
C  24.98500 51.39600 28.53500
C  29.27000 49.18400 27.88900
C  29.00300 50.03900 23.13700
C  24.56200 51.91600 23.64400
N  27.08700 50.31900 27.98900
C  26.18100 50.80900 28.93600
C  26.61200 50.47400 30.35700
C  28.04700 49.78400 30.04300
C  28.11600 49.73100 28.56900
C  29.25900 50.57100 30.64600
C  25.62600 49.55200 31.06400
C  25.20700 50.10600 32.39500
H  25.19400 49.10600 33.59900
N  28.86900 49.70400 25.48700
C  29.67400 49.16900 26.54600
C  30.95200 48.76600 25.98200
C  30.92100 49.04900 24.61000
C  29.55800 49.67900 24.33100
C  32.04100 48.17200 26.81300
C  31.86400 48.83000 23.51500
O  31.76600 49.35000 22.39100
C  33.09100 48.01700 23.80800
N  26.77200 51.02800 23.64600
C  27.76700 50.72100 22.81000
C  27.22700 50.82300 21.42300
C  25.95100 51.61300 21.59300
C  25.65900 51.41100 23.07600
C  28.18400 51.53100 20.48400
C  24.73000 51.25100 20.64100
C  24.06900 49.95900 20.91900
N  25.08200 51.48200 25.99200
C  24.26800 52.07200 25.05800
C  23.14000 52.73900 25.67200
C  23.37000 52.49000 27.06200
C  24.56100 51.69800 27.20400
C  22.04900 53.39100 24.89300
C  22.88500 52.73800 28.40700
O  21.91500 53.35600 28.70600
C  23.90500 52.04000 29.38400
C  24.42900 52.99300 30.41000
O  25.44700 53.58000 30.29400
O  23.63500 52.99200 31.50700
C  24.10000 53.83300 32.62000
H  30.07100 48.83600 28.54400
H  29.53200 49.71200 22.24000
H  23.83400 52.39500 22.98600
H  26.85700 51.38500 30.90200
H  28.00900 48.76900 30.44000
H  29.04100 51.00600 31.62100
H  29.70000 51.30700 29.97400
H  30.01300 49.78300 30.65300
H  26.13600 48.62300 31.32000
H  24.79100 49.36300 30.39000
H  24.20400 50.52400 32.31000
H  25.87600 50.91700 32.68500
H  31.79300 47.98600 27.85800
H  32.87400 48.87200 26.88000
H  32.40300 47.24000 26.37900
H  33.79800 48.65900 24.33200
H  33.44100 47.54800 22.88800
H  32.94000 47.18400 24.49600
H  27.02500 49.81000 21.07400
H  26.24200 52.65600 21.47000
H  27.75000 52.37000 19.94100
H  28.39100 50.90900 19.61300
H  29.11000 51.70900 21.03100
H  25.05600 51.29600 19.60200
H  24.01900 52.04600 20.87000
H  23.00400 50.15500 21.03800
H  24.41300 49.40800 21.79400
H  24.16900 49.29400 20.06100
H  22.55100 54.31500 24.60800
H  21.18600 53.51800 25.54700
H  21.84000 52.85200 23.96900
H  23.42100 51.35100 30.07500
H  24.32100 54.86000 32.32900
H  25.02800 53.36000 32.94200
H  23.38000 53.90800 33.43400

