158

Mg 47.84100 15.72100 28.58900
C  45.77600 15.68700 31.59500
C  49.95500 17.83400 30.42900
C  49.61400 16.19700 25.86300
C  45.22000 14.10600 26.93300
N  47.77700 16.72100 30.73500
C  46.99900 16.32300 31.82900
C  47.50000 16.85200 33.13900
C  48.60900 17.91400 32.68300
C  48.83700 17.48100 31.20300
C  48.40400 19.40100 33.12500
C  47.92200 15.61400 34.04000
C  48.02400 15.74400 35.56900
H  47.78300 17.14100 36.14400
N  49.55200 16.80100 28.14600
C  50.31200 17.55400 29.08800
C  51.50600 17.93200 28.44100
C  51.42200 17.49800 27.04600
C  50.16000 16.81700 26.96900
C  52.67900 18.68600 29.06700
C  52.43000 17.63100 25.85400
O  52.15000 17.31100 24.70700
C  53.87600 18.15300 26.02900
N  47.51500 15.15400 26.55800
C  48.33300 15.50600 25.58800
C  47.86100 14.89500 24.25500
C  46.60700 14.04400 24.72900
C  46.39500 14.43100 26.17600
C  47.64400 15.97000 23.22500
C  46.78900 12.46600 24.68700
C  48.00400 11.83100 25.43900
N  45.88800 14.99300 29.10900
C  44.93000 14.39400 28.31600
C  43.69200 14.04700 29.05400
C  44.00700 14.53000 30.37400
C  45.32800 15.10900 30.37400
C  42.46700 13.28700 28.49200
C  43.53700 14.57600 31.70400
O  42.46000 14.14500 32.17600
C  44.61400 15.34700 32.52100
C  44.09600 16.55800 33.05100
O  44.17100 17.70500 32.58800
O  43.40000 16.20700 34.21500
C  42.30600 17.00000 34.69600
H  50.71400 18.42200 30.94900
H  50.10500 16.28300 24.89100
H  44.38300 13.63000 26.41700
H  46.68000 17.33400 33.67100
H  49.56800 17.60300 33.09700
H  48.43300 20.04700 32.24800
H  49.25700 19.61500 33.77000
H  47.46900 19.58500 33.65500
H  48.89400 15.40900 33.59000
H  47.33400 14.77400 33.67100
H  49.06200 15.45400 35.73100
H  47.30400 15.06400 36.02300
H  53.61700 18.13100 29.06800
H  52.40200 18.94300 30.08900
H  52.65600 19.66000 28.57900
H  54.32000 18.38600 25.06200
H  54.46200 17.55300 26.72500
H  53.80700 19.11900 26.52900
H  48.62100 14.20000 23.89900
H  45.76500 14.37200 24.12000
H  47.88300 16.99200 23.51700
H  46.60500 15.93900 22.89900
H  48.23900 15.72500 22.34500
H  46.89600 12.18800 23.63900
H  45.82400 12.06000 24.99200
H  48.59500 11.09100 24.90000
H  47.72100 11.45300 26.42200
H  48.80400 12.55100 25.61100
H  42.44300 13.15700 27.41000
H  41.54500 13.79000 28.78400
H  42.38800 12.29500 28.93800
H  44.87000 14.74700 33.39400
H  41.41100 16.38500 34.59700
H  42.08600 17.88100 34.09300
H  42.37300 17.45400 35.68400
Mg 48.27800 34.36500 27.15100
C  46.11400 33.27600 29.72000
C  48.83300 37.11500 29.00800
C  49.51700 35.63700 24.48700
C  46.80900 31.67100 25.10000
N  47.50900 35.06900 29.12700
C  46.83800 34.42300 30.06400
C  46.97900 35.05600 31.45900
C  47.38300 36.50300 31.08700
C  47.98900 36.23200 29.65200
C  46.14700 37.54300 30.98400
C  48.07800 34.33800 32.32200
C  47.90900 34.32500 33.82200
H  46.77800 35.24100 34.45100
N  49.12900 36.13300 26.80500
C  49.26600 37.19900 27.70700
C  50.01700 38.18400 27.02700
C  50.22600 37.73400 25.70700
C  49.62200 36.40500 25.65600
C  50.31500 39.51500 27.70700
C  51.01800 38.46700 24.57400
O  51.26900 37.96000 23.46000
C  51.54200 39.71800 24.83000
N  48.23300 33.59000 25.02700
C  48.94100 34.36600 24.20600
C  48.93800 33.78100 22.81300
C  48.32900 32.29600 23.04700
C  47.78800 32.46400 24.46200
C  48.14700 34.67700 21.79500
C  49.42100 31.17100 22.80100
C  49.52000 30.56000 21.41300
N  46.90300 32.68000 27.32600
C  46.41100 31.73300 26.44300
C  45.56500 30.78100 27.15400
C  45.35700 31.37200 28.42000
C  46.18200 32.51200 28.48000
C  44.88400 29.59000 26.58200
C  44.63400 31.18800 29.63400
O  43.90100 30.27800 29.92000
C  44.99300 32.53000 30.52800
C  45.37300 31.90300 31.82100
O  46.40500 31.30500 31.99900
O  44.30300 31.97000 32.67000
C  44.61600 31.63500 34.01200
H  49.09400 37.98400 29.61600
H  50.02200 36.03800 23.60500
H  46.53900 30.90700 24.36800
H  46.02600 35.12100 31.98500
H  48.14900 36.94000 31.72700
H  45.39400 37.40600 31.75900
H  45.66800 37.33900 30.02700
H  46.43700 38.59400 30.97200
H  49.02900 34.85800 32.21300
H  48.33000 33.29600 32.12300
H  48.85800 34.65600 34.24400
H  47.77200 33.29500 34.15100
H  51.40300 39.57700 27.69800
H  49.92000 39.57600 28.72100
H  49.88900 40.42500 27.28500
H  52.47200 39.62900 25.39100
H  50.78300 40.46100 25.07700
H  51.85100 40.04100 23.83600
H  49.96700 33.82100 22.45500
H  47.50300 32.07500 22.37100
H  47.08800 34.42100 21.81400
H  48.52600 34.44300 20.80000
H  48.27000 35.72400 22.07300
H  49.20200 30.31200 23.43600
H  50.38000 31.50200 23.19900
H  49.21600 29.51700 21.50600
H  50.55700 30.65900 21.09200
H  48.84100 31.06400 20.72400
H  44.29500 29.03900 27.31500
H  45.65200 28.91800 26.19800
H  44.18400 29.84700 25.78700
H  44.04600 33.01500 30.76600
H  45.52800 31.04900 34.13000
H  43.83900 31.04100 34.49200
H  44.74600 32.50700 34.65300

