158

Mg 2.43000 0.48500 44.26800
C  5.59900 2.09100 43.97500
C  0.85700 3.14200 43.00300
C  -0.17000 -1.50400 43.79800
C  4.35800 -2.39300 45.33600
N  3.17300 2.33200 43.55200
C  4.41000 2.84600 43.55600
C  4.48100 4.32700 43.17100
C  2.95900 4.74000 43.00100
C  2.27200 3.33100 43.18300
C  2.37000 5.83800 43.87400
C  5.35700 4.46000 41.83200
C  5.18300 3.32100 40.80400
H  5.52900 3.59700 39.31400
N  0.60800 0.77300 43.43500
C  0.07000 1.98000 43.05500
C  -1.40700 1.88700 42.96800
C  -1.70600 0.53000 43.17400
C  -0.45600 -0.15500 43.39900
C  -2.26700 2.96400 42.51600
C  -3.08100 -0.00600 42.90600
O  -3.93800 0.84300 42.55600
C  -3.35800 -1.52800 43.01500
N  2.20200 -1.57800 44.41200
C  0.95000 -2.05500 44.32700
C  0.89400 -3.55100 44.88600
C  2.32200 -3.86300 45.30100
C  2.98300 -2.52000 45.12800
C  -0.21800 -3.91800 45.96800
C  2.95900 -5.06300 44.47800
C  3.93800 -5.96800 45.27300
N  4.59300 -0.12600 44.56000
C  5.10900 -1.25900 44.97100
C  6.51300 -1.07000 45.38000
C  6.72000 0.23700 44.93200
C  5.54000 0.80700 44.44900
C  7.29200 -2.03800 46.22100
C  7.69800 1.35100 44.85800
O  8.83200 1.35700 45.18700
C  7.04900 2.56400 44.15300
C  7.29100 3.62800 45.09200
O  8.33600 4.24600 45.25800
O  6.19500 3.86300 45.86500
C  6.23100 4.84700 46.97200
H  0.21100 3.97100 42.70600
H  -1.07100 -2.12000 43.78700
H  4.90100 -3.17100 45.87700
H  4.86200 4.94100 43.98800
H  2.80200 4.92500 41.93800
H  1.94600 6.52900 43.14500
H  3.08500 6.27500 44.57000
H  1.65100 5.33100 44.51800
H  6.42200 4.49500 42.06200
H  5.18000 5.41200 41.33100
H  4.23300 2.79700 40.91400
H  6.02100 2.69200 41.10400
H  -2.35400 2.93500 41.42900
H  -1.88600 3.95600 42.75600
H  -3.22100 2.96800 43.04200
H  -4.40500 -1.81300 42.90700
H  -3.10600 -1.62000 44.07100
H  -2.77700 -2.16600 42.34800
H  0.61700 -4.13000 44.00600
H  2.46900 -4.03000 46.36800
H  -0.52100 -2.94800 46.36100
H  0.23400 -4.56900 46.71600
H  -1.14300 -4.28300 45.52300
H  3.50300 -4.58700 43.66200
H  2.08300 -5.58900 44.09700
H  4.87400 -5.90400 44.71700
H  3.56200 -6.97900 45.11600
H  3.94700 -5.71600 46.33300
H  6.83200 -2.13000 47.20500
H  8.25100 -1.54500 46.38300
H  7.33000 -3.00100 45.71100
H  7.64100 2.69400 43.24700
H  5.46600 4.66100 47.72500
H  6.00400 5.86300 46.64700
H  7.20100 4.78300 47.46600
Mg 44.99500 2.38000 46.79700
C  43.25000 5.47700 46.14600
C  41.97600 0.82200 46.57000
C  46.59800 -0.46100 46.74900
C  47.90000 4.19100 46.40800
N  42.93000 3.06800 46.33900
C  42.40400 4.37500 46.19100
C  40.88100 4.44200 46.04700
C  40.53600 2.96300 46.60900
C  41.87900 2.23700 46.54200
C  39.78000 2.92100 48.02500
C  40.38500 4.58500 44.53600
C  39.42300 5.74700 44.36000
H  38.55400 5.69900 43.14700
N  44.35700 0.41700 46.72300
C  43.09100 -0.01800 46.75200
C  43.13200 -1.48300 46.83400
C  44.47200 -1.90400 46.70300
C  45.24500 -0.64200 46.65300
C  41.92900 -2.35300 46.93700
C  44.93100 -3.37400 46.69900
O  44.16300 -4.32000 46.58200
C  46.46900 -3.68900 46.72000
N  46.97100 1.99300 46.63600
C  47.37600 0.74000 46.71700
C  48.94700 0.61800 46.70700
C  49.39500 2.10500 46.47000
C  47.99300 2.84800 46.47200
C  49.51600 -0.05000 48.04500
C  50.17300 2.39400 45.11900
C  51.44100 3.24600 45.22200
N  45.57400 4.46000 46.43300
C  46.77300 4.99400 46.28900
C  46.66400 6.41100 46.30800
C  45.26500 6.72300 46.18200
C  44.65300 5.46300 46.27200
C  47.89000 7.34000 46.31800
C  44.20600 7.70200 45.96500
O  44.27000 8.94200 45.83800
C  42.82300 6.89200 46.07500
C  42.19200 7.33900 47.36500
O  42.73900 7.25400 48.45000
O  40.96000 7.84000 47.11000
C  40.13600 8.20100 48.29300
H  41.10300 0.20600 46.79700
H  47.23000 -1.35000 46.81100
H  48.83200 4.75700 46.47800
H  40.34500 5.13200 46.69900
H  39.85300 2.46700 45.91900
H  40.08800 3.69400 48.72800
H  40.06700 1.97600 48.48600
H  38.73000 2.98100 47.73900
H  39.81900 3.69200 44.27400
H  41.19200 4.74600 43.82100
H  40.12100 6.56500 44.17900
H  38.75300 5.85300 45.21300
H  41.25100 -1.77300 47.56300
H  42.02700 -3.37200 47.31200
H  41.41800 -2.38100 45.97500
H  46.99400 -3.30000 45.84800
H  46.70100 -4.75300 46.68400
H  46.89900 -3.31000 47.64800
H  49.28300 0.12500 45.79400
H  49.93200 2.51000 47.32800
H  50.12000 0.59900 48.67900
H  50.10900 -0.94700 47.86600
H  48.62000 -0.22900 48.63900
H  49.52200 2.89000 44.40000
H  50.46100 1.48200 44.59700
H  52.26200 2.63700 44.84300
H  51.58600 3.51100 46.27000
H  51.35900 4.17500 44.65900
H  48.51000 7.21500 45.43000
H  48.53200 6.99800 47.13000
H  47.58000 8.38200 46.39600
H  42.19500 7.12000 45.21400
H  40.71000 8.45000 49.18500
H  39.36200 7.50500 48.61500
H  39.80800 9.18400 47.95600

