158

Mg 0.79000 7.61200 26.26400
C  1.53900 9.56000 29.17300
C  0.25900 4.99900 28.35600
C  0.60200 5.90200 23.58600
C  1.22700 10.59500 24.46400
N  0.87400 7.30700 28.53200
C  1.22000 8.23900 29.46600
C  0.99700 7.62600 30.84300
C  0.80900 6.13400 30.57500
C  0.60000 6.12700 29.06600
C  1.99100 5.23100 31.08000
C  -0.16400 8.19800 31.61900
C  0.02400 8.55500 33.10200
H  1.28700 7.98800 33.77600
N  0.46900 5.69100 25.94500
C  0.22400 4.72000 26.90500
C  0.14700 3.44100 26.21200
C  0.16600 3.70600 24.81200
C  0.42700 5.09600 24.71300
C  -0.10600 2.19100 27.01400
C  -0.07400 2.73400 23.68200
O  -0.25600 2.98700 22.48900
C  -0.20200 1.32300 24.09800
N  0.95200 8.22100 24.24800
C  0.71100 7.28100 23.30700
C  1.00100 7.91200 21.92700
C  0.89700 9.46100 22.23100
C  0.95700 9.45900 23.75800
C  2.52900 7.59500 21.50500
C  -0.53700 10.04900 21.76000
C  -0.50200 11.55500 21.52200
N  1.23500 9.71400 26.68900
C  1.35800 10.77700 25.85800
C  1.78400 11.97800 26.52900
C  1.96900 11.55700 27.86600
C  1.52200 10.17000 27.91600
C  2.02400 13.36100 25.87100
C  2.28500 11.93700 29.23400
O  2.67400 13.05500 29.59400
C  1.91500 10.64200 30.15900
C  3.09800 10.35800 30.97700
O  3.97600 9.57600 30.64400
O  3.16500 11.23000 32.10600
C  4.41500 11.14100 32.93800
H  0.09600 4.15700 29.03200
H  0.67000 5.33700 22.65300
H  1.28500 11.50900 23.86900
H  1.89400 7.84400 31.42300
H  -0.10600 5.77600 31.04700
H  1.59100 4.46800 31.74900
H  2.87900 5.74300 31.45000
H  2.32500 4.78800 30.14200
H  -1.01100 7.51100 31.62500
H  -0.49200 9.11000 31.11900
H  -0.91500 8.21700 33.53900
H  0.18200 9.62000 33.27500
H  0.68300 1.57000 26.58700
H  -1.09600 1.78400 26.81000
H  0.15000 2.33700 28.06400
H  -0.25300 0.69600 23.20800
H  -1.14900 1.29600 24.63800
H  0.62300 0.97900 24.72200
H  0.37900 7.58300 21.09400
H  1.58600 10.16400 21.76300
H  2.66300 6.56600 21.16900
H  3.10900 7.90800 22.37200
H  2.90000 8.14200 20.63800
H  -1.19800 9.82000 22.59500
H  -1.01400 9.50000 20.94800
H  -0.98300 11.91300 22.43200
H  -1.07600 11.76900 20.62000
H  0.48200 12.01900 21.45900
H  2.72000 13.83800 26.56100
H  1.04600 13.82800 25.75100
H  2.36100 13.18700 24.84900
H  1.15000 10.83700 30.91000
H  4.53100 12.11100 33.42200
H  5.26500 11.05700 32.26100
H  4.34000 10.30400 33.63200
Mg 31.44300 58.69800 39.82900
C  28.80800 56.83000 38.53600
C  33.53500 56.07000 39.56300
C  33.98300 60.93900 39.97700
C  29.15900 61.43100 40.31400
N  31.23300 56.77200 38.92500
C  30.03600 56.16000 38.49400
C  30.38400 54.73200 37.99700
C  31.70500 54.49400 38.76100
C  32.18500 55.84000 39.21800
C  31.62600 53.46900 39.98600
C  30.51500 54.48600 36.39100
C  29.38300 53.79400 35.60500
H  28.53900 54.62700 34.61000
N  33.49700 58.54100 39.67600
C  34.16600 57.38400 39.65000
C  35.56800 57.66400 39.49500
C  35.78300 59.01800 39.72900
C  34.40100 59.59000 39.80500
C  36.55100 56.55300 39.21800
C  37.13400 59.73500 39.92600
O  38.17800 59.08200 39.86100
C  37.28100 61.15800 40.21800
N  31.58400 60.93300 40.05800
C  32.76400 61.58300 40.17100
C  32.54700 63.10600 40.45100
C  31.03900 63.21300 40.79900
C  30.47600 61.75600 40.39500
C  33.68600 63.66000 41.34400
C  30.24800 64.33600 39.97300
C  29.43700 65.29600 40.85300
N  29.33800 59.07000 39.57400
C  28.53300 60.22500 39.82200
C  27.16500 59.92100 39.42900
C  27.20900 58.57900 39.01400
C  28.54300 58.17900 39.02200
C  26.02200 60.89400 39.37600
C  26.40700 57.48900 38.49600
O  25.20700 57.41900 38.24000
C  27.41800 56.30800 38.06900
C  26.93900 55.17300 38.93500
O  27.47500 54.89900 40.00100
O  25.87400 54.61600 38.37600
C  25.49300 53.34900 38.99200
H  34.14400 55.17500 39.71000
H  34.81100 61.61700 40.19400
H  28.46700 62.21300 40.63300
H  29.55800 54.06500 38.24200
H  32.46800 54.02000 38.14500
H  31.92400 52.44400 39.76400
H  30.58800 53.32300 40.28500
H  32.14700 53.82400 40.87600
H  31.43900 54.03000 36.03500
H  30.57900 55.51700 36.04100
H  28.65100 53.44700 36.33400
H  29.73400 52.92000 35.05700
H  36.96900 56.62500 38.21400
H  36.08500 55.58100 39.37700
H  37.30400 56.49200 40.00300
H  36.87200 61.75300 39.40100
H  38.28800 61.57700 40.23500
H  36.86400 61.34400 41.20800
H  32.66800 63.59100 39.48200
H  30.91600 63.38400 41.86800
H  34.16700 62.85900 41.90400
H  33.20900 64.26000 42.11800
H  34.43200 64.34300 40.93800
H  29.55700 63.83200 39.29700
H  30.98900 64.85600 39.36700
H  29.60400 66.33800 40.57900
H  29.75900 65.29700 41.89400
H  28.37900 65.04600 40.77700
H  25.14600 60.26600 39.21300
H  26.20800 61.50000 38.48900
H  25.87600 61.41700 40.32100
H  27.41400 55.96700 37.03400
H  25.17100 53.59200 40.00400
H  26.29700 52.61400 38.95200
H  24.62200 53.05600 38.40600

