158

Mg 25.86300 0.76200 29.22100
C  27.77400 0.36800 31.98800
C  23.18700 1.43700 31.22400
C  24.08200 1.23500 26.49000
C  28.63300 -0.19700 27.10900
N  25.59900 0.84500 31.39300
C  26.49300 0.72800 32.40200
C  25.98200 1.00100 33.84300
C  24.47000 1.15000 33.51300
C  24.40800 1.27500 31.93700
C  23.52900 -0.07800 33.94700
C  26.68500 2.15300 34.73200
C  27.30000 1.65600 36.08300
H  27.29500 2.59300 37.28200
N  23.85400 1.19300 28.91400
C  22.91700 1.43800 29.85700
C  21.71100 1.74100 29.18800
C  21.98500 1.76500 27.83200
C  23.35300 1.44200 27.71000
C  20.39500 1.89200 29.93600
C  20.98900 1.97600 26.66800
O  21.26800 1.95400 25.49200
C  19.52100 2.29100 26.99400
N  26.37500 0.64800 27.14100
C  25.41000 0.89800 26.24600
C  25.93800 0.66700 24.75400
C  27.31400 0.08400 25.02000
C  27.53600 0.23700 26.53500
C  24.97700 -0.15400 23.80400
C  28.44400 0.78500 24.14400
C  29.07100 2.16900 24.49700
N  27.80500 0.22800 29.43800
C  28.80300 -0.22000 28.47900
C  29.97500 -0.60200 29.24600
C  29.63400 -0.46700 30.59800
C  28.34500 0.12600 30.68000
C  31.24500 -1.06900 28.64400
C  30.16600 -0.55400 31.89000
O  31.22900 -0.86400 32.33600
C  29.03200 0.09500 32.85600
C  28.68700 -0.99900 33.84200
O  27.96600 -1.95400 33.58100
O  29.24300 -0.76200 35.07700
C  29.03800 -1.83400 36.03100
H  22.34700 1.78400 31.82900
H  23.54100 1.43400 25.56200
H  29.49600 -0.50000 26.51200
H  26.20900 0.04300 34.31000
H  24.16400 2.13900 33.85300
H  24.04800 -0.52100 34.79700
H  23.49100 -0.81200 33.14200
H  22.51800 0.25300 34.18500
H  26.02100 2.99100 34.93900
H  27.58700 2.37700 34.16200
H  28.33400 1.36200 35.90100
H  26.62000 0.85000 36.35700
H  19.82100 1.05500 29.54000
H  19.83800 2.78100 29.63900
H  20.33100 1.83200 31.02300
H  19.01500 2.49200 26.04900
H  19.31100 3.15200 27.62700
H  19.08400 1.33800 27.29300
H  26.05300 1.64000 24.27600
H  27.28300 -0.99500 24.86900
H  25.63500 -0.51600 23.01300
H  24.13300 0.44600 23.46400
H  24.58100 -1.04600 24.29000
H  27.98800 0.84500 23.15600
H  29.17100 -0.02600 24.17200
H  29.99500 1.88900 25.00300
H  28.59400 2.74100 25.29300
H  29.19900 2.82500 23.63600
H  32.02400 -0.30800 28.60300
H  31.03800 -1.30000 27.59900
H  31.58000 -1.99400 29.11300
H  29.35500 0.91000 33.50400
H  29.81600 -1.76300 36.79100
H  29.16000 -2.84300 35.63600
H  28.11600 -1.68000 36.59100
Mg 41.20700 8.45800 29.82300
C  43.20600 9.57900 32.49900
C  39.17500 6.84500 32.27200
C  39.30200 7.32700 27.34300
C  43.63800 9.54800 27.60100
N  41.14500 8.33400 32.09600
C  42.00400 8.97300 32.95200
C  41.68000 8.60900 34.38000
C  40.66900 7.51400 34.23700
C  40.32400 7.57100 32.76500
C  41.01500 6.05600 34.70100
C  41.20000 9.87600 35.16000
C  41.83900 10.05100 36.56100
H  41.87700 11.48800 37.11700
N  39.41500 7.35200 29.76900
C  38.71000 6.86100 30.90400
C  37.48800 6.30400 30.36800
C  37.43300 6.51800 28.92000
C  38.72400 7.13800 28.59200
C  36.44500 5.65500 31.21600
C  36.44700 6.25000 27.89300
O  36.49500 6.58500 26.71800
C  35.17400 5.50400 28.30500
N  41.63400 8.13800 27.76900
C  40.59900 7.85100 26.96800
C  40.90300 8.11100 25.54900
C  42.40200 8.55200 25.56200
C  42.55700 8.89700 27.03700
C  40.56100 6.98700 24.49200
C  42.62700 9.76600 24.57700
C  41.96400 11.11000 24.89900
N  43.00500 9.46400 29.95300
C  43.90700 9.83600 28.98900
C  45.17000 10.33200 29.57800
C  44.86800 10.32900 30.95800
C  43.52000 9.77600 31.12900
C  46.41500 10.71100 28.82600
C  45.38800 10.72500 32.29200
O  46.43800 11.28700 32.52400
C  44.33300 10.30000 33.32400
C  45.02400 9.26700 34.13600
O  45.56000 8.24600 33.72800
O  45.14300 9.73000 35.45800
C  46.23000 9.18700 36.27700
H  38.42900 6.58200 33.02500
H  38.77600 6.90600 26.48400
H  44.50800 9.89400 27.04100
H  42.58300 8.26400 34.88300
H  39.78400 7.79500 34.80800
H  40.41000 5.93000 35.59900
H  42.02000 6.08500 35.12400
H  40.80700 5.23600 34.01400
H  40.14200 9.92400 35.41700
H  41.47000 10.78500 34.62300
H  42.84000 9.62300 36.51700
H  41.24500 9.42700 37.22800
H  36.79800 5.56400 32.24400
H  36.04000 4.71400 30.84500
H  35.53900 6.26200 31.23000
H  35.28200 4.43200 28.47200
H  34.61700 5.41600 27.37200
H  34.66400 6.00600 29.12700
H  40.16200 8.85300 25.25100
H  42.99300 7.64700 25.41800
H  39.52900 7.03300 24.14200
H  40.74500 6.05000 25.01800
H  41.31200 7.02200 23.70300
H  42.22100 9.39000 23.63800
H  43.71400 9.81600 24.50200
H  42.74800 11.86700 24.86100
H  41.49800 11.15800 25.88300
H  41.16800 11.23400 24.16500
H  46.71600 9.95300 28.10200
H  47.31800 10.97500 29.37700
H  46.22500 11.58700 28.20600
H  43.89800 11.04300 33.99200
H  46.90000 10.00100 36.55500
H  46.82100 8.44300 35.74400
H  46.00800 8.71700 37.23500

