158

Mg 44.25500 5.01800 47.63300
C  42.25100 7.64100 46.78100
C  41.42100 2.88700 47.29200
C  46.31800 2.30500 47.40900
C  47.08100 7.15400 47.30600
N  42.07600 5.29900 47.16800
C  41.52600 6.48000 46.80000
C  40.03100 6.36600 46.51700
C  39.72300 4.90400 46.92700
C  41.20900 4.31000 47.07600
C  38.77600 4.67600 48.12100
C  39.62300 6.54800 44.98100
C  38.78100 7.84900 44.70800
H  38.70000 8.47400 43.29900
N  43.93100 2.97000 47.44100
C  42.75600 2.29000 47.39500
C  43.03300 0.85300 47.17500
C  44.40700 0.70100 47.16900
C  44.93000 1.99900 47.37300
C  41.99100 -0.17100 46.93800
C  45.17100 -0.69100 46.95400
O  44.49600 -1.72100 46.63800
C  46.64300 -0.85500 47.09600
N  46.38400 4.76700 47.38600
C  46.97500 3.54600 47.46000
C  48.51900 3.69100 47.63500
C  48.63200 5.20500 47.95800
C  47.29500 5.78700 47.58400
C  49.29700 2.81700 48.65200
C  49.88600 5.86100 47.30700
C  50.67000 7.03300 47.99600
N  44.65000 6.96200 47.29200
C  45.82300 7.72800 47.18300
C  45.51900 9.08700 46.88700
C  44.11900 9.10800 46.70700
C  43.67600 7.80400 46.92500
C  46.48800 10.21900 46.84700
C  43.03800 9.99600 46.53400
O  42.85400 11.17200 46.36600
C  41.74100 9.09000 46.62700
C  40.81000 9.54500 47.71800
O  40.63700 9.01600 48.83200
O  40.01000 10.58700 47.23100
C  39.06400 11.05900 48.27000
H  40.56900 2.26000 47.02300
H  47.07500 1.51900 47.42500
H  47.93300 7.83800 47.32100
H  39.53300 7.17500 47.05100
H  39.27100 4.27900 46.15700
H  38.27800 5.55700 48.52800
H  39.43300 4.28700 48.89800
H  38.05500 3.89700 47.87600
H  39.12800 5.69300 44.51900
H  40.54000 6.61500 44.39500
H  39.29400 8.62700 45.27200
H  37.81100 7.73900 45.19300
H  42.00200 -0.88100 47.76500
H  42.21000 -0.81000 46.08100
H  41.01500 0.27700 46.75200
H  47.28900 -0.45400 46.31600
H  46.81700 -1.92700 47.18700
H  46.98200 -0.37100 48.01200
H  48.83300 3.52100 46.60500
H  48.78000 5.26900 49.03600
H  49.69800 1.97300 48.09000
H  48.58500 2.38900 49.35800
H  50.08500 3.36300 49.17000
H  49.68600 6.07000 46.25600
H  50.54500 4.99300 47.29600
H  50.99400 7.74500 47.23700
H  51.55800 6.62900 48.48200
H  50.00600 7.54100 48.69600
H  46.95900 10.31200 45.86800
H  47.36800 10.05800 47.47000
H  46.05800 11.09400 47.33500
H  41.29700 9.15700 45.63300
H  38.72100 12.05300 47.98200
H  39.49000 11.19400 49.26400
H  38.22900 10.36200 48.34300
Mg 27.33600 50.27600 26.55900
C  25.45900 51.22400 29.43300
C  29.79700 49.35300 28.63700
C  28.95100 49.40600 23.82800
C  24.64800 51.43700 24.54800
N  27.53500 50.26100 28.81500
C  26.72300 50.72600 29.82300
C  27.26200 50.32100 31.16700
C  28.77000 49.88100 30.90300
C  28.66600 49.74800 29.35600
C  29.77900 50.95300 31.46100
C  26.42800 49.16600 31.87300
C  26.01100 49.49600 33.34000
H  26.96600 50.03000 34.42900
N  29.08900 49.47700 26.30300
C  29.99100 49.15600 27.18600
C  31.25000 48.70500 26.61100
C  31.01600 48.72500 25.23500
C  29.62900 49.18800 25.08200
C  32.45300 48.18400 27.32800
C  31.91300 48.43000 24.05000
O  31.62200 48.62900 22.86800
C  33.17400 47.77100 24.39500
N  26.87500 50.56200 24.48100
C  27.78700 50.11100 23.51000
C  27.15500 50.23400 22.10900
C  25.73000 50.80500 22.41800
C  25.70400 50.92800 23.91400
C  27.98400 51.14100 21.18700
C  24.50200 49.85200 21.96300
C  23.40600 50.61300 21.25700
N  25.43500 51.25600 26.84000
C  24.46100 51.58700 25.95300
C  23.32600 52.08500 26.66900
C  23.64700 51.96000 28.04200
C  24.90800 51.44600 28.08500
C  22.13500 52.70300 26.05400
C  23.13900 52.14000 29.38900
O  22.05400 52.54200 29.72300
C  24.32900 51.75600 30.38000
C  24.85400 52.93800 31.14600
O  25.34300 53.94200 30.67400
O  24.61000 52.83600 32.47800
C  25.10500 53.88500 33.39400
H  30.65600 49.04500 29.23500
H  29.43100 48.93800 22.96600
H  23.76400 51.59300 23.92700
H  27.15000 51.13000 31.88900
H  28.97300 48.95200 31.43600
H  29.31900 51.71600 32.09000
H  30.14100 51.44300 30.55700
H  30.68100 50.54300 31.91500
H  27.05200 48.32700 32.18200
H  25.59000 48.86400 31.24500
H  25.83300 48.50200 33.75100
H  25.07700 50.05700 33.33500
H  32.45300 48.15500 28.41800
H  33.34200 48.79400 27.17000
H  32.72900 47.18000 27.00700
H  33.06100 46.83200 24.93600
H  33.76400 48.49000 24.96300
H  33.70300 47.65600 23.45000
H  26.96100 49.23400 21.72000
H  25.64400 51.82800 22.05000
H  28.20500 50.58600 20.27500
H  28.92600 51.14000 21.73500
H  27.61800 52.15800 21.04500
H  24.17100 49.29100 22.83600
H  24.90600 49.20500 21.18500
H  23.74400 50.64700 20.22200
H  23.28400 51.63000 21.63100
H  22.41400 50.16100 21.22800
H  21.56300 53.13600 26.87500
H  21.52000 52.03500 25.45200
H  22.52100 53.59100 25.55400
H  24.08200 50.91100 31.02200
H  25.00300 54.82500 32.85100
H  26.15800 53.74500 33.63600
H  24.54100 54.10400 34.30100

