158

Mg 16.98000 -2.44000 28.39500
C  16.10100 -0.25900 31.13300
C  18.98600 -4.24100 30.73300
C  18.30600 -4.23400 25.90400
C  15.35900 -0.41000 26.25000
N  17.48700 -2.22300 30.60600
C  16.90100 -1.33700 31.50800
C  17.27400 -1.63600 32.96300
C  18.26100 -2.94100 32.77500
C  18.31100 -3.13300 31.25700
C  19.63400 -2.82800 33.39300
C  16.03900 -1.73400 34.04400
C  16.20300 -0.89800 35.26400
H  17.55500 -0.70100 35.85000
N  18.40500 -4.01600 28.35300
C  19.05600 -4.61800 29.39500
C  19.75500 -5.84900 28.89800
C  19.64200 -5.81300 27.46600
C  18.67400 -4.74900 27.19100
C  20.56900 -6.76700 29.87700
C  20.23900 -6.74100 26.47600
O  19.96700 -6.68800 25.30400
C  21.19100 -7.81400 26.98000
N  16.82000 -2.38100 26.40400
C  17.51000 -3.16700 25.55200
C  17.35300 -2.64300 24.08700
C  16.29700 -1.54300 24.21300
C  16.04000 -1.41800 25.68700
C  18.75000 -2.11100 23.51200
C  15.07000 -1.72700 23.37500
C  14.50000 -0.38800 22.84300
N  15.95200 -0.61200 28.53000
C  15.27100 0.04000 27.58900
C  14.66600 1.16300 28.18100
C  15.02400 1.10900 29.58400
C  15.77800 -0.01600 29.76600
C  13.97000 2.30100 27.53400
C  14.83000 1.80100 30.84800
O  14.35900 2.88300 31.01600
C  15.50100 0.91000 31.90500
C  16.51800 1.71000 32.64900
O  17.72700 1.76800 32.33500
O  16.02800 2.35200 33.81700
C  17.02700 3.10000 34.60800
H  19.54000 -4.83200 31.46500
H  18.70800 -4.72300 25.01400
H  14.68500 0.24800 25.69800
H  17.95100 -0.83100 33.24800
H  17.79600 -3.76400 33.31900
H  19.63900 -3.50000 34.25100
H  19.82500 -1.80500 33.71900
H  20.37700 -3.18200 32.67900
H  16.10500 -2.76100 34.40200
H  15.14500 -1.53400 33.45300
H  15.63000 -1.39400 36.04800
H  15.70600 0.06500 35.14700
H  21.62600 -6.64100 29.63900
H  20.26300 -7.71900 29.44400
H  20.22200 -6.79000 30.91000
H  21.78300 -7.35200 27.76900
H  21.77900 -8.07200 26.09900
H  20.57700 -8.68100 27.22500
H  16.93400 -3.47000 23.51200
H  16.70800 -0.56200 23.97500
H  18.83200 -1.02500 23.57100
H  18.83500 -2.44600 22.47900
H  19.59100 -2.53900 24.05700
H  14.19900 -2.25600 23.76200
H  15.32300 -2.13700 22.39700
H  14.96500 -0.09300 21.90200
H  14.58200 0.45000 23.53600
H  13.41900 -0.51900 22.88700
H  12.93200 2.11000 27.26300
H  14.59200 2.64000 26.70600
H  14.11000 3.12000 28.24000
H  14.75100 0.65100 32.65200
H  16.92700 4.17900 34.48900
H  18.06600 2.89000 34.35500
H  16.98600 2.96800 35.68900
Mg 47.43300 44.48200 42.87000
C  44.09900 43.38900 42.53300
C  48.41300 41.25500 42.44100
C  50.72500 45.55100 42.38900
C  46.41300 47.75400 42.78700
N  46.40100 42.56800 42.45000
C  45.04200 42.32800 42.50100
C  44.78900 40.77200 42.41700
C  46.15600 40.21800 42.70600
C  47.07700 41.44100 42.57600
C  46.25100 39.46000 44.04000
C  44.04900 40.29800 41.14400
C  44.11600 41.21100 39.82400
H  44.20700 40.54200 38.45300
N  49.26000 43.47000 42.64100
C  49.49600 42.13300 42.55800
C  50.91100 41.86300 42.44600
C  51.59300 43.07500 42.42300
C  50.54000 44.18200 42.47000
C  51.46900 40.50700 42.11200
C  53.11900 43.22700 42.28000
O  53.81600 42.24800 42.03200
C  53.92000 44.49500 42.50100
N  48.34100 46.44900 42.22900
C  49.75000 46.53800 42.31800
C  50.02900 48.07700 42.47000
C  48.68100 48.77800 42.62000
C  47.73500 47.60200 42.54600
C  51.22300 48.57900 43.38200
C  48.29400 49.96000 41.66800
C  47.81700 51.23800 42.30400
N  45.64900 45.42200 42.65900
C  45.33400 46.75600 42.72000
C  43.88900 46.90100 42.80900
C  43.36400 45.61600 42.60100
C  44.48900 44.75300 42.55700
C  43.17800 48.20700 43.11200
C  42.12900 44.86000 42.41800
O  40.96500 45.24200 42.35500
C  42.55300 43.31400 42.55400
C  42.08400 42.89300 43.92500
O  42.16000 43.59100 44.95500
O  41.68700 41.48500 43.95600
C  41.64700 40.94500 45.35700
H  48.65400 40.19200 42.50200
H  51.73300 45.96700 42.45000
H  46.11400 48.77800 43.01700
H  44.14700 40.71400 43.29600
H  46.49600 39.63600 41.84900
H  45.41200 38.80400 44.27100
H  46.66800 40.10000 44.81700
H  47.01700 38.75300 43.72000
H  43.01300 40.33000 41.48100
H  44.25500 39.24500 40.95200
H  45.05600 41.75800 39.89100
H  43.34500 41.97100 39.95100
H  52.20100 40.50700 41.30400
H  50.73300 39.71400 41.98100
H  51.99600 40.26300 43.03400
H  53.74000 45.09000 41.60500
H  54.97200 44.22800 42.60200
H  53.50600 44.84400 43.44700
H  50.33600 48.26200 41.44100
H  48.65300 49.16800 43.63700
H  51.35900 47.75100 44.07700
H  50.94400 49.47500 43.93900
H  52.16500 48.83800 42.89800
H  47.47000 49.59600 41.05400
H  49.12500 50.19700 41.00400
H  48.71900 51.85000 42.32300
H  47.35800 51.02100 43.26900
H  47.02900 51.77200 41.77300
H  43.69900 48.76300 43.89200
H  42.13100 47.92600 43.23200
H  43.28300 48.84700 42.23600
H  42.07000 42.65700 41.83100
H  40.65400 40.54000 45.55400
H  42.19500 41.51500 46.10800
H  42.25700 40.04800 45.25300

