158

Mg 47.28000 44.48500 43.02800
C  43.97600 43.63500 43.16200
C  48.01900 40.99600 42.82300
C  50.57900 45.38600 42.32200
C  46.30600 47.84800 42.70700
N  46.16200 42.49600 42.86200
C  44.81800 42.43400 43.06600
C  44.32400 40.98600 43.08700
C  45.66300 40.12400 42.94700
C  46.66100 41.24600 42.95000
C  45.77600 39.11600 44.15800
C  43.36300 40.63100 41.90000
C  43.84100 41.08800 40.59500
H  43.75900 40.04900 39.43000
N  49.08100 43.36100 42.69900
C  49.14100 41.95300 42.66000
C  50.45300 41.62000 42.39200
C  51.11000 42.81800 41.99100
C  50.28800 43.93100 42.39800
C  50.94900 40.15700 42.44300
C  52.49400 42.87100 41.49600
O  53.10200 41.84800 41.32000
C  53.13900 44.16400 40.89300
N  48.30400 46.42700 42.39900
C  49.69600 46.51900 42.42200
C  50.08300 47.93700 42.39500
C  48.71900 48.69800 42.50600
C  47.67800 47.65000 42.51900
C  51.21400 48.31000 43.41200
C  48.49700 49.74300 41.39200
C  48.04100 51.15400 41.79800
N  45.53900 45.58300 43.06300
C  45.24400 46.89600 42.91100
C  43.84600 47.12700 43.06900
C  43.31000 45.88700 43.16000
C  44.34500 44.97600 43.11700
C  43.16500 48.42900 43.25200
C  42.07500 45.11100 43.34000
O  40.95700 45.49800 43.49600
C  42.49700 43.62500 43.34400
C  42.16500 42.99900 44.67200
O  42.59700 43.27400 45.79000
O  41.33500 41.86700 44.43600
C  40.98500 41.19200 45.64600
H  48.32800 39.95400 42.92600
H  51.63800 45.65100 42.30800
H  46.16000 48.92900 42.65200
H  43.70100 40.88700 43.97600
H  45.82200 39.62100 41.99300
H  45.96600 39.65800 45.08500
H  46.57800 38.42600 43.89500
H  44.92300 38.45100 44.28700
H  42.38700 41.02900 42.17700
H  43.25200 39.54700 41.88600
H  44.86700 41.45700 40.56700
H  43.20200 41.90000 40.24900
H  52.00000 40.09700 42.72700
H  50.76500 39.48000 41.60800
H  50.48900 39.58900 43.25100
H  52.44000 44.72900 40.27700
H  53.90700 43.83400 40.19300
H  53.56200 44.76300 41.70000
H  50.48400 48.30500 41.45100
H  48.74600 49.09700 43.52000
H  51.63000 47.37100 43.77800
H  50.78400 48.74900 44.31200
H  52.00200 48.95100 43.01800
H  47.74100 49.23200 40.79600
H  49.39800 49.85100 40.78800
H  48.94700 51.75000 41.68500
H  47.60700 51.21600 42.79600
H  47.23900 51.46900 41.13000
H  43.04500 48.59200 44.32300
H  42.15400 48.37400 42.84700
H  43.63000 49.29900 42.78800
H  41.91800 43.17200 42.54000
H  40.12000 40.61500 45.31800
H  40.62300 41.83400 46.44800
H  41.82100 40.64000 46.07700
Mg -10.72000 39.81500 43.83800
C  -9.61700 36.81100 42.40200
C  -8.10400 41.46700 42.05500
C  -12.23200 42.76600 44.54500
C  -13.57200 38.10000 44.80500
N  -9.05600 39.21200 42.43600
C  -8.84600 37.92200 41.99100
C  -7.62600 37.86800 40.98000
C  -7.07900 39.32100 41.18700
C  -8.11200 40.07700 41.95200
C  -5.65200 39.57300 41.65200
C  -7.94500 37.41700 39.52100
C  -7.19400 36.16400 39.08400
H  -6.01700 36.38200 37.97600
N  -10.19900 41.86300 43.44100
C  -9.13700 42.31200 42.59800
C  -9.21000 43.68700 42.57900
C  -10.38700 44.13100 43.34300
C  -11.00800 42.87800 43.85100
C  -8.26000 44.60100 41.78700
C  -10.68800 45.53600 43.60800
O  -10.04700 46.37900 43.04000
C  -11.70200 45.94500 44.69200
N  -12.61800 40.34300 44.64400
C  -13.01100 41.62100 44.75100
C  -14.55700 41.71900 45.13500
C  -14.92400 40.26500 45.36800
C  -13.65900 39.48800 44.93000
C  -14.80900 42.71800 46.34800
C  -16.16200 39.84500 44.57200
C  -17.05300 38.92900 45.33500
N  -11.46300 37.80900 43.72900
C  -12.61600 37.29000 44.17100
C  -12.65500 35.87200 44.07600
C  -11.48800 35.61400 43.39600
C  -10.80000 36.85100 43.17400
C  -13.56600 34.82800 44.57600
C  -10.67600 34.62000 42.72100
O  -10.79800 33.37100 42.65500
C  -9.39500 35.33900 41.99600
C  -8.24000 34.80400 42.75500
O  -7.75800 35.32700 43.72300
O  -7.74300 33.77900 42.06200
C  -6.53400 33.11900 42.57100
H  -7.35900 42.09600 41.56300
H  -12.87600 43.64800 44.52900
H  -14.52700 37.66900 45.11300
H  -6.96200 37.12900 41.42700
H  -6.89600 39.78900 40.22000
H  -4.99800 38.70300 41.70900
H  -5.68000 39.93200 42.68100
H  -5.15100 40.31100 41.02600
H  -7.57600 38.20800 38.86700
H  -9.01100 37.25500 39.36400
H  -7.99500 35.54000 38.68600
H  -6.81200 35.62200 39.94900
H  -8.83500 44.85300 40.89600
H  -7.45800 43.99300 41.37000
H  -7.98800 45.53300 42.28300
H  -12.71100 45.78100 44.31600
H  -11.50500 46.97600 44.98700
H  -11.62200 45.24600 45.52500
H  -15.00900 42.10700 44.22200
H  -15.01200 40.10300 46.44300
H  -15.26300 42.23000 47.21100
H  -15.44600 43.55900 46.07700
H  -13.81900 43.04300 46.66900
H  -15.94900 39.34100 43.62900
H  -16.73600 40.76900 44.50800
H  -17.07500 37.93700 44.88400
H  -18.06300 39.33000 45.25100
H  -16.78300 38.96300 46.39100
H  -13.95900 35.22900 45.51000
H  -13.06100 33.91900 44.90200
H  -14.29600 34.66100 43.78400
H  -9.27300 35.11200 40.93600
H  -5.66600 33.77100 42.66500
H  -6.39800 32.43900 41.72900
H  -6.69700 32.66600 43.54900

