158

Mg 26.51600 50.15300 26.17300
C  24.59800 51.34600 28.78500
C  28.75800 49.19500 28.59000
C  28.61500 49.30300 23.69400
C  24.18400 51.25000 23.86800
N  26.51400 50.12300 28.46800
C  25.63300 50.60700 29.34600
C  26.01400 50.43000 30.75500
C  27.59600 49.94800 30.65100
C  27.65400 49.79600 29.15000
C  28.83100 50.90700 31.21300
C  25.03300 49.40600 31.44000
C  24.43300 49.56600 32.81900
H  25.19600 50.25600 33.97900
N  28.40900 49.26900 26.12900
C  29.20600 48.88400 27.22600
C  30.42800 48.20600 26.71800
C  30.41000 48.42000 25.35200
C  29.10800 49.11300 24.93100
C  31.39600 47.41700 27.66200
C  31.60100 48.09900 24.42400
O  31.57200 48.47500 23.25800
C  32.86200 47.43700 24.87000
N  26.53100 50.38600 24.07100
C  27.42500 49.85900 23.20600
C  27.04600 49.96400 21.67900
C  25.57900 50.66200 21.87000
C  25.38500 50.68900 23.35900
C  28.03400 50.82000 20.90200
C  24.45500 49.87500 21.13400
C  24.13500 50.32900 19.76900
N  24.79700 51.18000 26.25800
C  23.86300 51.46100 25.28500
C  22.69000 52.20000 25.85300
C  22.91600 52.10300 27.24000
C  24.20700 51.53000 27.47200
C  21.52800 52.79300 25.14600
C  22.40300 52.50900 28.52300
O  21.39600 53.14900 28.80100
C  23.46100 51.92900 29.64600
C  23.90700 53.11000 30.47900
O  24.70900 53.92600 30.13500
O  23.33500 53.08700 31.68100
C  23.67400 54.18700 32.63900
H  29.48900 48.80600 29.30200
H  29.25400 48.87900 22.91600
H  23.48700 51.61400 23.11100
H  26.08500 51.39100 31.26600
H  27.61700 48.91800 31.00800
H  28.37800 51.60800 31.91300
H  29.41400 51.34800 30.40400
H  29.46200 50.13600 31.65500
H  25.45700 48.40800 31.32100
H  24.14600 49.30500 30.81400
H  24.29200 48.53300 33.13500
H  23.45300 50.04100 32.76800
H  31.47200 46.36400 27.39300
H  31.09100 47.42200 28.70800
H  32.35100 47.94300 27.66800
H  33.35100 48.11200 25.57300
H  33.47500 47.22000 23.99500
H  32.47000 46.50600 25.28000
H  26.92000 48.95200 21.29400
H  25.53700 51.69800 21.53100
H  28.86800 51.20200 21.49100
H  27.55400 51.65300 20.38800
H  28.37800 50.05300 20.20800
H  23.54200 50.02200 21.71000
H  24.70500 48.81400 21.11900
H  24.49700 49.62700 19.01800
H  24.76500 51.17900 19.50800
H  23.07800 50.56200 19.63700
H  20.59500 52.26200 25.33800
H  21.68000 52.66400 24.07400
H  21.45000 53.81700 25.51100
H  22.88700 51.20300 30.22200
H  24.01600 55.08000 32.11500
H  24.41700 53.74200 33.30100
H  22.83700 54.47900 33.27300
Mg -11.59200 37.56100 41.88700
C  -9.48700 35.04100 40.67700
C  -9.74100 39.86600 40.05200
C  -14.17300 39.78300 42.28900
C  -13.54300 35.07200 43.24700
N  -9.83300 37.40900 40.45800
C  -9.08500 36.30800 40.21800
C  -7.92600 36.69600 39.31100
C  -7.94400 38.29200 39.25400
C  -9.28200 38.55600 40.03500
C  -6.68500 39.05900 39.73400
C  -7.97900 36.06900 37.88000
C  -6.76200 35.23300 37.50000
H  -5.72800 35.94000 36.62200
N  -11.80200 39.59600 41.43100
C  -10.92500 40.32600 40.68900
C  -11.41700 41.69100 40.55300
C  -12.64400 41.71500 41.32100
C  -12.87700 40.32600 41.81500
C  -10.78600 42.80600 39.81600
C  -13.46600 43.00600 41.57900
O  -13.03300 44.05800 41.05800
C  -14.73900 43.03000 42.41200
N  -13.56700 37.40000 42.60600
C  -14.45600 38.40800 42.69100
C  -15.90300 37.94000 43.13600
C  -15.72500 36.47000 43.40400
C  -14.15900 36.29800 43.07300
C  -16.44900 38.75100 44.35000
C  -16.53100 35.56100 42.44100
C  -17.60000 34.54400 42.91000
N  -11.43500 35.48800 42.18200
C  -12.28200 34.63600 42.78500
C  -11.67400 33.30300 42.77500
C  -10.51400 33.45000 42.02800
C  -10.46500 34.75400 41.58000
C  -12.29800 32.10700 43.42800
C  -9.39800 32.74600 41.37400
O  -9.08000 31.56400 41.44300
C  -8.70100 33.79200 40.54600
C  -7.24700 33.82200 41.04900
O  -6.43600 32.95300 40.78100
O  -7.05400 34.95700 41.77400
C  -5.79900 35.10900 42.53400
H  -9.09400 40.55300 39.50400
H  -14.98400 40.51300 42.33800
H  -14.18600 34.30000 43.67400
H  -6.98900 36.40000 39.78200
H  -8.06900 38.66300 38.23700
H  -6.91800 39.52700 40.69000
H  -6.38800 39.92000 39.13700
H  -5.90900 38.33300 39.97500
H  -8.11100 36.86200 37.14400
H  -8.92600 35.57000 37.67900
H  -6.95600 34.22200 37.14200
H  -6.31300 35.02700 38.47200
H  -9.93300 42.59700 39.17000
H  -10.37200 43.49700 40.55100
H  -11.47000 43.37400 39.18600
H  -15.02500 44.00200 42.81300
H  -14.66100 42.37900 43.28300
H  -15.57000 42.64700 41.82000
H  -16.52600 38.17400 42.27200
H  -15.93100 36.21100 44.44300
H  -15.60600 38.88300 45.02800
H  -17.27300 38.16500 44.75600
H  -16.83500 39.74400 44.12100
H  -15.89400 34.82400 41.95100
H  -16.99100 36.18500 41.67600
H  -18.54500 35.01600 43.17700
H  -17.13600 34.22500 43.84300
H  -17.71600 33.72400 42.20100
H  -12.82100 31.50800 42.68300
H  -13.02400 32.46400 44.15900
H  -11.38500 31.71000 43.87200
H  -8.66200 33.44000 39.51500
H  -6.12400 35.66100 43.41600
H  -4.99400 35.70300 42.10100
H  -5.30400 34.24300 42.97500

