158

Mg 1.97200 -1.13500 44.85400
C  5.45700 -0.45500 44.05800
C  1.22300 1.48600 42.63200
C  -1.21400 -1.95500 45.15600
C  3.08200 -4.03100 46.41800
N  3.24600 0.37700 43.55000
C  4.60600 0.39500 43.34900
C  5.00500 1.73700 42.54700
C  3.60700 2.28600 42.07900
C  2.57900 1.26000 42.74100
C  3.23800 3.70600 42.55500
C  5.86600 1.45200 41.28100
C  6.94400 2.50400 40.98300
H  6.47700 3.62800 40.12200
N  0.14700 -0.26800 44.09700
C  0.07300 0.81900 43.25200
C  -1.29100 1.09400 43.08900
C  -2.10100 0.18400 43.82200
C  -1.10000 -0.72100 44.44800
C  -1.79400 2.30400 42.27500
C  -3.60200 0.21700 44.01100
O  -4.33700 1.02500 43.39400
C  -4.26500 -0.63100 45.04600
N  1.01800 -2.81300 45.45900
C  -0.27500 -2.87900 45.59400
C  -0.66500 -4.22600 46.25200
C  0.68800 -4.82200 46.71500
C  1.68500 -3.80400 46.19400
C  -1.77400 -4.07600 47.40100
C  0.86600 -6.28700 46.29000
C  1.12700 -7.34400 47.37200
N  3.80600 -2.07300 45.23900
C  4.07900 -3.22200 45.96200
C  5.53300 -3.41400 46.04100
C  6.07100 -2.34300 45.35300
C  4.99700 -1.58200 44.79300
C  6.30000 -4.44200 46.81100
C  7.40300 -1.82700 44.88500
O  8.57200 -2.15900 45.07400
C  6.96900 -0.55200 44.05400
C  7.54300 0.60800 44.90100
O  7.12600 0.94500 45.97300
O  8.58500 1.27500 44.23300
C  9.18800 2.49300 44.87200
H  1.02600 2.38500 42.04400
H  -2.26400 -2.22900 45.27800
H  3.45800 -4.89300 46.97400
H  5.60000 2.37800 43.19700
H  3.50800 2.28800 40.99300
H  4.04600 4.23600 43.05900
H  2.32000 3.71100 43.14200
H  3.05500 4.39400 41.73000
H  5.26400 1.26400 40.39200
H  6.31800 0.46700 41.40100
H  7.61900 1.88500 40.39200
H  7.39300 2.85100 41.91300
H  -1.37100 1.99900 41.31700
H  -1.32300 3.22000 42.63000
H  -2.86400 2.50600 42.23200
H  -5.29300 -0.29000 45.17000
H  -3.68800 -0.56400 45.96800
H  -4.34300 -1.65300 44.67700
H  -0.99700 -4.87900 45.44500
H  0.80500 -4.87800 47.79800
H  -2.03600 -3.02000 47.46200
H  -1.53100 -4.53500 48.36000
H  -2.62500 -4.69100 47.11000
H  1.67800 -6.28400 45.56200
H  -0.04000 -6.70200 45.84800
H  0.18900 -7.82500 47.65000
H  1.76000 -6.96600 48.17400
H  1.83500 -8.08300 46.99600
H  6.09600 -5.42100 46.37700
H  6.02500 -4.42300 47.86600
H  7.37500 -4.36400 46.64700
H  7.42800 -0.64000 43.06900
H  9.02600 3.36400 44.23600
H  10.25200 2.26400 44.92900
H  8.83300 2.61300 45.89500
Mg 35.54900 48.48500 25.00300
C  36.14600 46.76600 27.93100
C  34.42100 51.23700 26.78200
C  35.00100 50.03400 22.16700
C  36.64700 45.54400 23.29700
N  34.95700 48.84700 27.08800
C  35.46100 47.97300 28.08800
C  35.33800 48.70600 29.45800
C  34.60900 49.99800 29.03000
C  34.64100 50.07500 27.53700
C  33.16300 50.08000 29.61200
C  36.68600 48.86300 30.24200
C  36.65100 48.57300 31.76100
H  35.21100 48.54800 32.38400
N  34.91100 50.43200 24.55500
C  34.55500 51.42100 25.37000
C  34.31100 52.61300 24.59200
C  34.46800 52.24500 23.21100
C  34.77600 50.85200 23.29700
C  34.15900 53.99100 25.27800
C  34.32700 53.08900 21.98700
O  34.37300 52.68800 20.81700
C  34.36700 54.61400 22.25500
N  35.61700 47.78300 23.08700
C  35.42400 48.72900 22.07200
C  35.64700 48.05400 20.68900
C  36.21400 46.66800 21.06200
C  36.18900 46.69200 22.58600
C  34.35400 48.00700 19.80900
C  37.57600 46.44600 20.47300
C  37.72000 45.90300 19.06500
N  36.22000 46.48000 25.45200
C  36.69400 45.46700 24.68800
C  37.08100 44.33600 25.52100
C  36.90000 44.80100 26.85100
C  36.39600 46.14500 26.73500
C  37.52900 42.99900 25.17400
C  36.95600 44.44400 28.27300
O  37.31000 43.46100 28.97800
C  36.57000 45.74500 28.99400
C  35.47300 45.38300 29.96500
O  34.31200 45.19900 29.66800
O  36.08200 45.22200 31.18000
C  35.29800 44.34800 32.12500
H  34.00800 52.00100 27.44300
H  34.93800 50.56800 21.21600
H  36.98900 44.66800 22.74100
H  34.68000 48.08000 30.06100
H  35.09000 50.84800 29.51500
H  33.29900 50.53800 30.59200
H  32.81100 49.07600 29.84800
H  32.45100 50.55200 28.93500
H  37.06800 49.87100 30.08100
H  37.45100 48.24800 29.76900
H  37.19300 49.28200 32.38600
H  37.18600 47.66000 32.02200
H  35.10300 54.53600 25.27800
H  34.05800 54.02300 26.36300
H  33.37100 54.57300 24.80100
H  33.48300 55.00000 22.76200
H  34.35200 55.14800 21.30500
H  35.24800 54.69900 22.89000
H  36.37600 48.63400 20.12400
H  35.65000 45.80200 20.71900
H  34.06800 47.06700 19.33700
H  34.27700 48.75500 19.02000
H  33.49300 48.14100 20.46400
H  38.17100 45.71600 21.02200
H  38.11900 47.38100 20.60700
H  38.04700 44.86500 19.01100
H  38.40400 46.50200 18.46400
H  36.78800 46.04200 18.51700
H  38.48800 42.99600 24.65600
H  36.69600 42.56500 24.62000
H  37.70300 42.30000 25.99200
H  37.49900 45.92600 29.53400
H  35.84200 44.05600 33.02300
H  34.92300 43.41500 31.70500
H  34.39600 44.92800 32.32300

