158

Mg 2.27800 -1.47400 43.58100
C  5.73800 -0.90200 43.44300
C  1.75400 1.32400 41.62300
C  -0.97300 -2.44500 43.28700
C  3.01800 -4.60400 45.18200
N  3.61500 -0.06500 42.48000
C  4.99700 0.04500 42.64200
C  5.54700 1.14400 41.70300
C  4.29100 2.02700 41.50900
C  3.14100 1.03300 41.82200
C  4.22500 3.49800 41.95700
C  6.12600 0.56100 40.37000
C  7.46400 1.21800 39.96000
H  7.70200 1.47400 38.45600
N  0.66200 -0.56500 42.76300
C  0.62600 0.56100 42.01300
C  -0.72400 0.87900 41.73400
C  -1.55100 -0.09500 42.21200
C  -0.62600 -1.16600 42.72600
C  -1.27500 2.19900 41.03100
C  -3.07400 -0.18300 42.12700
O  -3.70000 0.83500 41.81100
C  -3.90800 -1.28100 42.49900
N  1.21300 -3.31300 44.02000
C  -0.15100 -3.44700 43.88700
C  -0.58300 -4.83300 44.22000
C  0.63600 -5.44200 44.97500
C  1.71900 -4.42200 44.58800
C  -1.95700 -4.93000 44.96900
C  1.08600 -6.86800 44.40800
C  1.49400 -7.77500 45.63300
N  4.02200 -2.63700 44.09000
C  4.12900 -3.82000 44.88300
C  5.50800 -4.01300 45.25500
C  6.15000 -2.84700 44.73600
C  5.22600 -2.10100 44.02600
C  6.11500 -5.12900 45.87300
C  7.40800 -2.12500 44.65500
O  8.48500 -2.44000 45.15100
C  7.22500 -0.87100 43.81000
C  7.55200 0.31400 44.65000
O  6.79500 0.87700 45.41400
O  8.79800 0.81000 44.25100
C  9.04100 2.21200 44.69600
H  1.38700 2.25800 41.19100
H  -2.02200 -2.70900 43.13300
H  3.23200 -5.35800 45.94200
H  6.26300 1.80300 42.19400
H  4.24300 2.26900 40.44700
H  4.27300 4.21900 41.14100
H  5.06200 3.74900 42.60900
H  3.27000 3.45600 42.48000
H  5.44500 0.70200 39.53000
H  6.18800 -0.52200 40.48400
H  8.26100 0.60000 40.37500
H  7.55300 2.14800 40.52200
H  -1.87900 1.83200 40.20200
H  -0.50500 2.91000 40.73100
H  -2.01300 2.67400 41.67700
H  -4.93900 -0.94500 42.39200
H  -3.64700 -1.68600 43.47700
H  -3.79500 -2.10600 41.79500
H  -0.62500 -5.39200 43.28500
H  0.44900 -5.31400 46.04200
H  -2.58600 -4.05600 44.80200
H  -1.71200 -4.91800 46.03100
H  -2.49000 -5.86400 44.78700
H  1.87600 -6.82300 43.65900
H  0.18200 -7.38900 44.09300
H  2.50800 -8.10200 45.40700
H  0.78600 -8.60400 45.60500
H  1.56500 -7.19500 46.55300
H  6.39600 -5.90300 45.15800
H  5.35700 -5.60900 46.49200
H  6.93200 -4.78000 46.50500
H  7.89300 -0.91100 42.95000
H  10.04600 2.45600 44.35100
H  8.99500 2.32100 45.78000
H  8.38700 2.98400 44.29000
Mg 6.41500 53.62600 41.19500
C  5.74700 50.12200 40.99000
C  9.57800 53.02000 40.17800
C  6.76100 56.95000 40.62900
C  2.98300 54.02800 41.86400
N  7.41300 51.65200 40.25600
C  7.08000 50.37100 40.49500
C  8.25200 49.41000 40.09800
C  9.49800 50.38400 40.25900
C  8.81200 51.78600 40.25800
C  10.42700 50.11400 41.45000
C  8.10300 48.78300 38.71900
C  7.98700 49.74900 37.45000
H  6.78900 49.63900 36.54300
N  7.90400 54.79500 40.23800
C  9.17200 54.35500 39.95900
C  10.03900 55.47400 39.68700
C  9.27500 56.64900 39.88200
C  7.91400 56.18800 40.19400
C  11.51200 55.23900 39.45000
C  9.77300 58.05500 39.80600
O  10.95200 58.35800 39.58300
C  8.87900 59.34900 40.07300
N  5.02300 55.24500 41.03400
C  5.53000 56.52300 41.07400
C  4.38300 57.51500 41.30100
C  3.16600 56.58900 41.52900
C  3.75000 55.18000 41.53400
C  4.72600 58.66000 42.30100
C  2.01500 56.79100 40.53100
C  1.21700 58.11300 40.81600
N  4.71100 52.42600 41.50300
C  3.40700 52.71800 41.84300
C  2.72000 51.54300 42.14800
C  3.61600 50.48900 42.00400
C  4.78600 51.10500 41.38300
C  1.32200 51.49000 42.57500
C  3.75700 49.09300 42.07000
O  3.01700 48.17800 42.40400
C  5.07800 48.80700 41.30500
C  4.72100 48.15000 40.04300
O  4.01600 48.67300 39.13500
O  5.42700 46.96300 39.91000
C  5.20300 46.10300 38.68200
H  10.63200 52.81300 39.98100
H  6.84700 58.03800 40.66500
H  1.93900 54.21600 42.12200
H  8.39900 48.64900 40.86400
H  10.06600 50.35400 39.32900
H  11.46000 49.85800 41.21300
H  10.10100 49.23100 42.00100
H  10.48600 50.96400 42.12900
H  7.17900 48.20600 38.73200
H  8.92900 48.09700 38.52900
H  8.78000 49.63400 36.71100
H  8.00500 50.74400 37.89500
H  11.75400 54.93300 38.43200
H  11.88600 54.40000 40.03600
H  12.10200 56.10800 39.73800
H  8.08400 59.35600 39.32700
H  9.47600 60.24900 39.92300
H  8.43300 59.26500 41.06400
H  4.13000 58.01300 40.36500
H  2.78400 56.63100 42.54900
H  4.06700 58.55000 43.16200
H  4.55400 59.67100 41.93300
H  5.78000 58.68100 42.58000
H  1.35800 55.92200 40.54800
H  2.38200 56.84200 39.50500
H  1.45500 58.86400 40.06300
H  1.54500 58.42700 41.80700
H  0.13700 57.98300 40.74300
H  1.36700 51.31900 43.65100
H  0.97600 50.60300 42.04500
H  0.84900 52.45700 42.40100
H  5.77600 48.12900 41.79700
H  6.20900 46.02000 38.27100
H  4.43800 46.45100 37.98700
H  4.99700 45.12500 39.11600

