158

Mg 47.53300 45.32900 43.60800
C  44.43600 45.97500 42.19100
C  47.42400 42.23600 41.91400
C  50.85600 44.91200 44.12300
C  47.94300 48.77000 44.06200
N  46.09300 44.16500 42.22500
C  44.78500 44.64000 41.98000
C  43.99600 43.63800 41.24900
C  44.88900 42.35300 41.17000
C  46.22800 42.92800 41.82000
C  44.32700 41.07600 41.91700
C  43.50000 44.02400 39.81900
C  42.16200 43.58600 39.39500
H  42.07500 42.54700 38.19600
N  48.92800 43.74400 43.24800
C  48.66200 42.53500 42.58300
C  49.70500 41.65500 42.82700
C  50.71400 42.36500 43.58000
C  50.22000 43.78200 43.62100
C  49.72200 40.21200 42.41200
C  51.92300 41.79400 44.18600
O  52.13400 40.58200 44.05600
C  52.92200 42.62200 45.10800
N  49.19100 46.70700 43.79800
C  50.39200 46.21700 44.25700
C  51.36100 47.33200 44.70500
C  50.41000 48.64500 44.68600
C  49.14400 48.03000 44.11300
C  52.13200 47.05800 45.97900
C  51.03900 49.76200 43.81900
C  52.34300 50.39900 44.48800
N  46.38100 46.96200 43.54900
C  46.64800 48.34100 43.76700
C  45.34800 49.06800 43.65200
C  44.52500 48.13700 43.05200
C  45.18300 46.93000 42.89900
C  45.07900 50.54000 43.94100
C  43.21300 47.98600 42.51000
O  42.36400 48.80700 42.44700
C  43.07400 46.61600 41.79000
C  41.90800 45.88200 42.46600
O  41.88200 45.25100 43.53700
O  40.81300 45.95500 41.66200
C  39.59900 45.28300 42.30000
H  47.31700 41.23300 41.49500
H  51.89300 44.74400 44.42100
H  48.03500 49.82500 44.33000
H  43.10900 43.40800 41.83900
H  45.12700 42.16200 40.12400
H  44.77200 40.26800 41.33700
H  43.24900 40.96500 41.80200
H  44.78000 41.03800 42.90800
H  44.20000 43.83800 39.00400
H  43.45700 45.11300 39.81100
H  41.46700 44.40600 39.21400
H  41.78000 43.01000 40.23800
H  50.69700 39.86300 42.07200
H  49.16400 40.11800 41.48000
H  49.28900 39.56300 43.17200
H  52.40100 43.29600 45.78800
H  53.60000 43.16300 44.44900
H  53.47000 41.98900 45.80700
H  52.16400 47.44500 43.97800
H  50.24400 48.86100 45.74200
H  53.17000 46.98100 45.65400
H  51.74300 46.15000 46.44000
H  51.96400 47.88900 46.66400
H  50.33500 50.59000 43.73900
H  51.31800 49.34600 42.85100
H  53.20100 49.92300 44.01400
H  52.43500 50.12600 45.53900
H  52.21600 51.47400 44.35700
H  44.06500 50.90800 43.78600
H  45.64200 50.88400 43.07400
H  45.45700 50.92500 44.88800
H  42.83200 46.75600 40.73600
H  39.83200 44.22100 42.38500
H  38.84100 45.21700 41.52000
H  39.15200 45.71900 43.19400
Mg 47.70600 34.45400 27.25000
C  45.97000 33.02900 29.87200
C  47.71400 37.51400 29.20100
C  48.98600 36.15100 24.70500
C  47.10200 31.67100 25.28600
N  46.88500 35.18000 29.31600
C  46.42800 34.30800 30.29200
C  46.45700 35.00100 31.62000
C  46.61100 36.50400 31.25300
C  47.09500 36.42900 29.82900
C  45.25300 37.31900 31.57800
C  47.45700 34.45200 32.68200
C  46.79400 34.16600 34.06200
H  45.61200 34.95000 34.51700
N  48.22400 36.55400 26.89200
C  48.23900 37.63400 27.83000
C  48.85800 38.82700 27.29900
C  49.36400 38.36300 26.01400
C  48.82400 36.98700 25.81300
C  48.96800 40.17400 28.03500
C  50.16600 39.08600 24.95800
O  50.63800 38.55700 23.97000
C  50.45900 40.65400 25.20000
N  47.71100 34.06500 25.15000
C  48.49000 34.83200 24.43600
C  48.76100 34.21800 23.10700
C  48.34800 32.73300 23.16700
C  47.73400 32.75100 24.63600
C  48.09800 34.98500 21.92900
C  49.51400 31.69200 22.86400
C  49.40500 30.53100 21.81100
N  46.73600 32.65900 27.42700
C  46.54800 31.57700 26.57100
C  45.75700 30.58300 27.20200
C  45.47000 31.09100 28.49300
C  46.10300 32.35900 28.59300
C  45.36000 29.28600 26.46500
C  44.90600 30.81200 29.78100
O  44.40100 29.74100 30.15300
C  45.15400 32.05900 30.67600
C  45.69500 31.57300 31.97700
O  46.83600 31.21500 32.15800
O  44.75600 31.48200 32.95500
C  44.99900 30.67300 34.18900
H  47.54800 38.44100 29.75300
H  49.61100 36.59000 23.92400
H  47.08500 30.74100 24.71300
H  45.43800 34.82800 31.96500
H  47.42000 37.04700 31.74200
H  44.70000 37.50600 30.65700
H  45.43900 38.28600 32.04400
H  44.53900 36.76800 32.19000
H  48.21100 35.23100 32.79300
H  47.87700 33.51000 32.32800
H  47.59300 34.08100 34.79800
H  46.43400 33.14400 33.95100
H  48.66900 40.08500 29.07900
H  48.38200 40.93300 27.51700
H  50.00600 40.48300 28.15600
H  49.58700 41.21000 25.54600
H  50.86600 41.03900 24.26500
H  51.28800 40.68500 25.90700
H  49.83300 34.35400 22.96300
H  47.53100 32.56700 22.46400
H  47.87800 34.31500 21.09800
H  48.72700 35.82900 21.64500
H  47.17800 35.50100 22.20700
H  49.78400 31.15300 23.77200
H  50.42700 32.24800 22.64900
H  49.64700 29.68200 22.44900
H  50.11400 30.69800 21.00000
H  48.41000 30.44500 21.37300
H  46.23700 28.78400 26.05800
H  44.72400 29.50100 25.60500
H  44.75900 28.57300 27.02800
H  44.12500 32.37900 30.84200
H  44.69600 31.27200 35.04800
H  46.03700 30.34200 34.24400
H  44.34000 29.81100 34.09300

