158

Mg 16.94700 51.54600 26.25500
C  18.77700 50.41100 28.87100
C  14.42700 52.52400 28.56900
C  15.02300 52.66500 23.62600
C  19.12200 50.22300 23.95600
N  16.63900 51.41500 28.50400
C  17.56400 50.97900 29.35000
C  17.27400 51.25400 30.84800
C  15.70800 51.67900 30.68500
C  15.52200 51.88900 29.16000
C  14.71700 50.63700 31.26900
C  18.17800 52.35500 31.54100
C  18.68900 52.06400 32.92200
H  17.75000 51.46900 33.98600
N  15.00900 52.46100 26.16600
C  14.13900 52.77300 27.18100
C  13.01100 53.50200 26.62900
C  13.23400 53.58000 25.23500
C  14.42400 52.83600 24.96800
C  11.94200 54.17300 27.47000
C  12.35800 54.30900 24.17800
O  12.70800 54.50200 23.01200
C  11.16400 55.10700 24.76300
N  17.02100 51.50200 24.08700
C  16.22500 52.11300 23.25700
C  16.59800 51.90300 21.82700
C  18.06700 51.39500 21.97800
C  18.07400 50.96700 23.39500
C  15.73100 51.01100 20.97700
C  19.13600 52.51700 21.81300
C  20.34800 52.06500 20.95700
N  18.53800 50.58800 26.32200
C  19.38600 50.04900 25.32500
C  20.47100 49.36400 25.95400
C  20.19700 49.52900 27.29000
C  19.06900 50.26600 27.47800
C  21.54400 48.70900 25.21600
C  20.76500 49.09500 28.53500
O  21.71600 48.36200 28.84300
C  19.96700 49.95700 29.63300
C  19.71400 48.94000 30.69600
O  18.79700 48.13900 30.68900
O  20.68200 48.94200 31.66800
C  20.53300 48.09100 32.83600
H  13.74900 52.93800 29.31800
H  14.58700 53.25300 22.81600
H  19.83700 49.76000 23.27200
H  17.33500 50.28000 31.33300
H  15.54300 52.64300 31.16600
H  14.18700 51.17300 32.05700
H  15.27800 49.84300 31.76300
H  14.04400 50.17400 30.54700
H  17.59100 53.27300 31.58500
H  19.12100 52.41600 30.99900
H  18.97800 53.08400 33.17400
H  19.67100 51.59400 32.87100
H  10.91800 53.91500 27.19900
H  12.17300 55.23800 27.45900
H  11.99200 53.94500 28.53500
H  11.31400 55.75400 25.62800
H  10.39900 54.34800 24.92300
H  10.75600 55.81800 24.04500
H  16.46200 52.86400 21.33100
H  18.33700 50.56900 21.32000
H  14.78100 50.71700 21.42500
H  16.29600 50.18000 20.55500
H  15.43100 51.71600 20.20200
H  19.61800 52.81900 22.74300
H  18.64000 53.38400 21.37600
H  20.72000 52.80300 20.24700
H  20.07500 51.26100 20.27300
H  21.28700 51.79000 21.43900
H  21.17200 48.24500 24.30300
H  22.11300 47.98100 25.79400
H  22.16600 49.58600 25.03900
H  20.56100 50.78200 30.02500
H  20.16000 48.81900 33.55800
H  21.56100 47.90600 33.14800
H  19.73200 47.35400 32.77400
Mg -11.87700 16.58600 41.36400
C  -8.70100 15.34600 40.90900
C  -10.89300 19.57000 40.16700
C  -15.25900 17.50400 41.14300
C  -12.96000 13.34300 42.13800
N  -9.93600 17.33100 40.48500
C  -8.78500 16.72600 40.55200
C  -7.59700 17.57900 40.01300
C  -8.25600 19.02900 40.05300
C  -9.83100 18.66400 40.26800
C  -7.72000 20.04300 41.11900
C  -7.07000 17.18000 38.64100
C  -5.61900 17.49800 38.42000
H  -5.10200 18.35800 37.27900
N  -12.94400 18.21400 40.73200
C  -12.34200 19.41800 40.32900
C  -13.36500 20.42300 40.10400
C  -14.63400 19.82900 40.26000
C  -14.34200 18.45400 40.72500
C  -13.02900 21.75500 39.63700
C  -16.02000 20.48300 40.04500
O  -16.02300 21.69200 39.77300
C  -17.29000 19.79200 40.24400
N  -13.82700 15.60100 41.66100
C  -15.02200 16.18500 41.60700
C  -16.14600 15.27800 42.03300
C  -15.43200 13.90800 42.19900
C  -13.94800 14.27500 42.01400
C  -17.01700 15.78200 43.20600
C  -15.86300 12.78300 41.24800
C  -16.56400 11.64600 41.97900
N  -11.01600 14.69700 41.67000
C  -11.59500 13.46700 41.92000
C  -10.49900 12.51700 41.96500
C  -9.35000 13.25600 41.58500
C  -9.75400 14.51500 41.34400
C  -10.66800 11.11300 42.26500
C  -7.97700 13.05000 41.35700
O  -7.24900 12.10600 41.52600
C  -7.43500 14.46700 40.99600
C  -6.45300 14.87700 42.07100
O  -6.70300 15.52300 43.10800
O  -5.18900 14.58800 41.67800
C  -4.14600 15.22700 42.47300
H  -10.60400 20.62000 40.09300
H  -16.33500 17.65800 41.24900
H  -13.24000 12.34200 42.47200
H  -6.82800 17.62200 40.78400
H  -8.15800 19.58500 39.12100
H  -6.99600 20.59500 40.52000
H  -7.23600 19.51000 41.93700
H  -8.44600 20.78200 41.45700
H  -7.67900 17.64900 37.86800
H  -7.25900 16.11200 38.53400
H  -5.09800 16.54000 38.39900
H  -5.24300 17.86300 39.37600
H  -13.72900 22.55400 39.88300
H  -12.92000 21.82600 38.55500
H  -12.14500 22.08700 40.18100
H  -18.07500 20.48300 39.93800
H  -17.53000 19.56300 41.28200
H  -17.39700 18.99100 39.51200
H  -16.69100 15.29600 41.08900
H  -15.48100 13.53100 43.22100
H  -17.09100 16.86200 43.33600
H  -16.74100 15.36200 44.17300
H  -18.06000 15.55800 42.98200
H  -14.94300 12.43900 40.77400
H  -16.63600 13.19200 40.59700
H  -16.44900 11.54800 43.05900
H  -16.27200 10.74600 41.43800
H  -17.64600 11.65000 41.84200
H  -9.70300 10.65800 42.03800
H  -11.47800 10.84100 41.58900
H  -11.06400 10.92100 43.26200
H  -6.99500 14.28800 40.01500
H  -3.19300 15.00200 41.99400
H  -4.05500 14.86500 43.49700
H  -4.34100 16.28600 42.64600

