158

Mg 47.98800 15.99600 28.78600
C  46.00700 15.05500 31.65800
C  49.95700 17.84800 30.87200
C  49.77600 16.97700 26.09400
C  45.55300 14.71400 26.72800
N  47.78300 16.56800 31.00900
C  46.99500 15.94300 32.01200
C  47.52500 16.30100 33.42200
C  48.61100 17.37900 33.09100
C  48.80100 17.38600 31.53700
C  48.34300 18.75400 33.80200
C  48.08400 15.10500 34.11900
C  48.10700 15.14300 35.60100
H  47.83400 16.49800 36.29100
N  49.76100 17.07000 28.57400
C  50.47200 17.71500 29.53500
C  51.76300 18.14500 29.01300
C  51.70400 17.89900 27.59800
C  50.35900 17.35200 27.37200
C  52.74100 18.92700 29.88600
C  52.67300 18.21300 26.60500
O  52.43400 17.90400 25.43500
C  53.96500 18.89200 27.02900
N  47.68400 15.98000 26.65600
C  48.57100 16.43100 25.76500
C  47.98000 16.37300 24.30100
C  46.62700 15.59700 24.50900
C  46.62000 15.39000 26.04900
C  47.95300 17.76800 23.59600
C  46.45700 14.25400 23.70300
C  47.11800 13.08900 24.43900
N  46.06200 15.10300 29.04000
C  45.29500 14.53800 28.12300
C  44.21200 13.82300 28.80400
C  44.46300 13.98900 30.17200
C  45.62600 14.79100 30.32300
C  43.07400 13.13500 28.15200
C  43.95500 13.64000 31.52300
O  42.97400 12.99200 31.78700
C  44.93200 14.39700 32.57000
C  44.14400 15.34500 33.32600
O  43.45900 16.22600 32.81100
O  44.25200 15.16700 34.68600
C  43.41000 16.02500 35.54900
H  50.65300 18.28000 31.59400
H  50.41300 17.03400 25.20900
H  45.00600 14.06300 26.04300
H  46.63600 16.69500 33.91400
H  49.58900 17.11400 33.49200
H  47.69100 18.53100 34.64700
H  47.74100 19.45000 33.21700
H  49.27300 19.19900 34.15600
H  49.11700 14.99800 33.78700
H  47.63000 14.22500 33.66400
H  48.99900 14.66900 36.01100
H  47.28000 14.46400 35.80600
H  53.13900 19.71100 29.24200
H  53.53000 18.27700 30.26500
H  52.19500 19.34500 30.73200
H  54.36700 18.60200 28.00000
H  53.61300 19.92100 27.09100
H  54.65000 18.77400 26.18900
H  48.58900 15.75900 23.63600
H  45.79100 16.25400 24.26900
H  48.44100 18.51400 24.22300
H  46.92200 18.08000 23.42800
H  48.37800 17.57000 22.61200
H  46.90800 14.27300 22.71100
H  45.37900 14.09300 23.70200
H  47.49400 12.38400 23.69900
H  46.39100 12.70000 25.15200
H  47.95100 13.51500 25.00000
H  42.16300 13.56400 28.57100
H  43.09600 12.06500 28.36000
H  43.02300 13.26500 27.07100
H  45.32300 13.61200 33.21700
H  43.16000 16.95600 35.04200
H  44.01600 16.33500 36.40100
H  42.53600 15.49800 35.93300
Mg 0.65900 42.94600 26.03200
C  2.75200 42.90400 28.97000
C  -1.85200 41.74600 28.30900
C  -1.27200 42.28200 23.41400
C  3.42000 43.42100 24.21600
N  0.47900 42.45400 28.43500
C  1.49900 42.50200 29.36600
C  0.94000 42.34100 30.81800
C  -0.45000 41.76500 30.49300
C  -0.69000 42.10100 28.99400
C  -0.65200 40.22400 30.83200
C  0.94400 43.78200 31.53600
C  1.00400 43.67500 33.07100
H  0.99200 42.28300 33.76200
N  -1.36300 42.26400 25.81600
C  -2.20700 41.93700 26.87600
C  -3.54600 41.66600 26.30100
C  -3.43500 41.82200 24.87300
C  -1.98800 42.08300 24.59600
C  -4.76400 41.47700 27.16500
C  -4.45800 41.63200 23.81600
O  -4.18600 41.57200 22.62000
C  -5.92600 41.34900 24.15500
N  1.17700 42.54600 24.09900
C  0.12600 42.58500 23.21500
C  0.72700 42.75300 21.76600
C  2.04600 43.51400 22.00000
C  2.22700 43.20300 23.55300
C  0.86000 41.48600 20.94200
C  1.96900 45.03100 21.66600
C  3.34800 45.59900 21.21700
N  2.72400 43.26200 26.44100
C  3.72400 43.46100 25.59100
C  4.99700 43.68000 26.26400
C  4.62900 43.57600 27.61800
C  3.23300 43.18800 27.69700
C  6.31600 44.04800 25.76100
C  5.19300 43.49000 28.95400
O  6.31600 43.58800 29.31400
C  3.96600 43.24300 29.86700
C  4.33100 42.16400 30.80000
O  4.38600 40.99200 30.51000
O  4.48500 42.70700 32.07100
C  5.17700 41.87100 33.07000
H  -2.62100 41.27400 28.92400
H  -1.80300 42.16100 22.46800
H  4.35400 43.60700 23.68200
H  1.65300 41.70300 31.33900
H  -1.21800 42.31600 31.03600
H  -1.35600 40.11200 31.65700
H  0.32100 39.87800 31.18100
H  -1.02800 39.70100 29.95200
H  0.12000 44.43400 31.24500
H  1.76700 44.39900 31.17400
H  0.42000 44.48100 33.51600
H  1.98600 44.02200 33.39500
H  -4.95200 40.40400 27.19100
H  -5.63900 41.88000 26.65500
H  -4.77600 41.85000 28.18900
H  -6.58800 41.15800 23.31000
H  -6.33000 42.12000 24.81100
H  -6.03100 40.43800 24.74400
H  0.02400 43.45200 21.31200
H  2.92500 43.05100 21.55300
H  0.28300 40.64600 21.32800
H  1.87100 41.13300 20.73800
H  0.39200 41.64200 19.97000
H  1.63400 45.51400 22.58400
H  1.19500 45.17800 20.91300
H  3.19000 45.84700 20.16700
H  4.10100 44.81300 21.28300
H  3.68500 46.47500 21.77100
H  6.28800 44.86900 25.04500
H  6.70600 43.13700 25.30700
H  7.04500 44.29600 26.53200
H  3.72200 44.15100 30.41900
H  6.24600 41.94300 32.86500
H  4.85600 40.83500 32.96800
H  5.01000 42.18200 34.10100

