158

Mg 42.21100 40.81700 26.30600
C  41.35000 43.33300 28.74900
C  43.21000 38.79600 28.70600
C  43.04700 38.67800 23.87000
C  41.35900 43.24100 23.88400
N  42.37100 41.19800 28.41700
C  41.81200 42.14300 29.30900
C  41.93300 41.75100 30.73100
C  42.75100 40.36400 30.68000
C  42.71100 40.04500 29.12100
C  44.16700 40.39600 31.37000
C  40.57900 41.69700 31.50500
C  40.45700 42.67900 32.71200
H  39.99700 42.13700 34.07700
N  43.01400 39.00200 26.27200
C  43.38100 38.25600 27.36200
C  43.79800 37.01700 26.89000
C  43.97200 37.04000 25.49600
C  43.34200 38.31200 25.15400
C  44.31500 35.93100 27.76200
C  44.49900 36.01300 24.48400
O  44.47000 36.14500 23.28100
C  45.11900 34.76400 24.96700
N  42.02400 40.89900 24.22500
C  42.52500 39.88800 23.44800
C  42.21600 40.12800 21.95600
C  41.73100 41.56700 21.94900
C  41.65600 41.95000 23.42400
C  43.41400 39.98800 20.92700
C  40.32800 41.85400 21.27800
C  40.20200 43.27400 20.53900
N  41.59000 42.92200 26.28500
C  41.25500 43.76900 25.20100
C  40.86800 45.08300 25.68300
C  40.76800 44.89400 27.09300
C  41.28500 43.59800 27.41600
C  40.62000 46.23600 24.80300
C  40.37700 45.57400 28.33100
O  39.79000 46.61800 28.49400
C  40.80100 44.52200 29.51400
C  41.80200 45.17900 30.40600
O  42.93700 45.51900 30.09300
O  41.22500 45.60300 31.59800
C  42.04400 46.32800 32.58900
H  43.54800 38.23700 29.58100
H  43.31200 37.93000 23.12000
H  41.13200 43.94700 23.08200
H  42.64500 42.51600 31.04000
H  42.11500 39.52700 30.96800
H  44.92800 40.41700 30.58900
H  44.31900 39.47600 31.93500
H  44.27300 41.17200 32.12800
H  40.44300 40.65100 31.78200
H  39.82800 42.07200 30.81000
H  39.79700 43.50000 32.42900
H  41.41500 43.14800 32.93500
H  44.11500 36.09200 28.82100
H  45.38000 35.71700 27.66500
H  43.75600 35.00600 27.62100
H  44.34800 34.30500 25.58500
H  45.98100 35.11400 25.53500
H  45.47200 34.17800 24.11800
H  41.42100 39.40500 21.77400
H  42.50600 42.23100 21.56500
H  43.01000 39.40100 20.10200
H  44.28400 39.39700 21.21400
H  43.80700 40.94300 20.57800
H  39.58000 41.76700 22.06600
H  40.02300 41.09900 20.55300
H  40.34500 43.19800 19.46200
H  40.97600 43.91400 20.96300
H  39.19200 43.65300 20.69600
H  41.30400 46.46300 23.98500
H  40.76200 47.08600 25.46900
H  39.67300 46.25500 24.26200
H  39.86000 44.26500 30.00200
H  41.35900 46.91400 33.20200
H  42.63900 47.08700 32.08100
H  42.68400 45.65400 33.15800
Mg 28.16600 56.05300 40.60500
C  25.77900 53.60400 39.83700
C  30.69300 54.04900 39.38400
C  30.19300 58.78200 40.30000
C  25.41800 58.28900 41.18600
N  28.20000 54.14200 39.53500
C  27.12800 53.29000 39.50700
C  27.55100 51.91900 38.97800
C  29.10100 51.93300 39.15700
C  29.38400 53.42200 39.37200
C  29.62600 51.05700 40.27700
C  26.99200 51.59600 37.57500
C  26.66300 52.76300 36.67000
H  27.37000 52.85400 35.28000
N  30.20000 56.30000 40.06500
C  31.06400 55.36400 39.65900
C  32.44300 56.00700 39.59500
C  32.26300 57.31800 39.97300
C  30.82400 57.50400 40.16300
C  33.69600 55.29600 39.08300
C  33.42100 58.34400 40.10100
O  34.56000 57.93500 39.89000
C  33.27100 59.82600 40.42500
N  27.79100 58.17600 40.62800
C  28.83700 59.06300 40.48200
C  28.30100 60.49600 40.43400
C  26.80500 60.35100 40.72200
C  26.65500 58.83500 40.87000
C  29.07300 61.43000 41.40800
C  25.85300 61.06700 39.75300
C  24.61100 61.82100 40.33600
N  26.02200 55.94200 40.72600
C  25.00500 56.93300 40.98500
C  23.67700 56.32100 41.06700
C  23.95200 54.99800 40.61300
C  25.35800 54.79800 40.40500
C  22.34400 56.97100 41.33200
C  23.38700 53.63300 40.28500
O  22.28000 53.16600 40.37800
C  24.52800 52.69200 39.78400
C  24.49500 51.41200 40.49500
O  24.28600 50.27100 40.02600
O  25.02500 51.60000 41.75100
C  25.19000 50.38100 42.50800
H  31.55500 53.47700 39.03500
H  30.86200 59.64600 40.30500
H  24.60200 58.98900 41.37600
H  27.21100 51.21600 39.73900
H  29.61300 51.57700 38.26200
H  28.92600 51.05000 41.11200
H  30.57500 51.49500 40.58400
H  29.84500 50.02200 40.01500
H  26.13100 50.93300 37.65800
H  27.84300 50.99500 37.25500
H  27.00700 53.74400 36.99800
H  25.63200 52.85400 36.32900
H  33.89500 55.59400 38.05300
H  33.43500 54.24200 39.17000
H  34.61600 55.44800 39.64900
H  32.74500 60.00200 41.36300
H  32.82700 60.32000 39.56100
H  34.29200 60.17600 40.57300
H  28.41900 60.75400 39.38100
H  26.52900 60.71500 41.71100
H  29.74300 62.04300 40.80600
H  29.65900 60.87100 42.13800
H  28.36700 62.09300 41.90900
H  25.41400 60.37700 39.03200
H  26.47600 61.77900 39.21200
H  24.82400 62.89000 40.36100
H  24.48900 61.35500 41.31400
H  23.66100 61.61900 39.84100
H  21.89900 57.05700 40.34000
H  22.33100 57.91800 41.87100
H  21.79900 56.27100 41.96600
H  24.28500 52.49900 38.73900
H  25.77200 50.66700 43.38400
H  25.78400 49.63100 41.98400
H  24.27900 49.98400 42.95500

