158

Mg 44.16700 4.90500 46.78200
C  42.25200 7.93900 46.44600
C  41.13800 3.29300 45.96000
C  45.92400 2.24200 46.19400
C  47.01800 6.95700 46.48200
N  41.93300 5.56100 46.35900
C  41.45600 6.87000 46.36200
C  39.98100 6.91700 46.01700
C  39.55300 5.40800 45.89100
C  40.91300 4.69500 46.06800
C  38.51600 4.87900 46.91400
C  39.68600 7.73400 44.75600
C  40.59000 7.48700 43.52100
H  39.91900 7.79600 42.17500
N  43.56200 3.01300 46.33700
C  42.27900 2.48800 45.99300
C  42.44200 1.04700 45.63200
C  43.87200 0.78600 45.61500
C  44.54800 2.04100 46.13400
C  41.31900 0.13800 45.28100
C  44.49200 -0.54900 45.24500
O  43.84200 -1.55200 44.95800
C  45.96800 -0.74800 45.22000
N  46.16700 4.59000 46.38700
C  46.67000 3.37300 46.44500
C  48.18900 3.39700 46.28300
C  48.53100 4.86500 46.43800
C  47.16400 5.57400 46.47500
C  48.97200 2.37600 47.09300
C  49.56600 5.48500 45.42300
C  50.93200 5.78400 46.09600
N  44.58600 6.98500 46.70100
C  45.82200 7.70800 46.61100
C  45.61300 9.14800 46.55600
C  44.22100 9.27800 46.57500
C  43.67100 8.00100 46.57000
C  46.66300 10.24500 46.51500
C  43.10700 10.26500 46.54600
O  43.07600 11.46700 46.44600
C  41.85100 9.41600 46.40300
C  40.94700 9.69600 47.53400
O  41.14800 9.43700 48.69100
O  39.78600 10.32100 47.06200
C  38.66200 10.47300 48.06100
H  40.25700 2.73200 45.64200
H  46.53300 1.33700 46.13800
H  47.94400 7.53400 46.45700
H  39.43000 7.41100 46.81800
H  39.10400 5.07400 44.95500
H  38.25100 5.70700 47.57200
H  38.89100 4.06800 47.53900
H  37.64400 4.46000 46.41100
H  39.65100 8.78700 45.03500
H  38.71600 7.33800 44.45500
H  40.97300 6.46700 43.49600
H  41.46700 8.12400 43.63800
H  41.48900 -0.13300 44.23900
H  40.39300 0.71200 45.31700
H  41.25700 -0.69100 45.98600
H  46.15000 -1.75900 44.85500
H  46.37700 -0.77300 46.23000
H  46.48200 -0.02800 44.58400
H  48.36200 3.12100 45.24300
H  48.75000 4.91700 47.50400
H  48.33900 1.60700 47.53600
H  49.47000 2.94700 47.87600
H  49.73300 1.79000 46.57800
H  49.20900 6.42400 44.99900
H  49.75100 4.92000 44.51000
H  51.10800 5.53400 47.14200
H  51.46400 6.73500 46.06400
H  51.67200 5.23800 45.51200
H  47.57800 9.71400 46.25200
H  46.75300 10.70800 47.49700
H  46.40800 10.98200 45.75300
H  41.28900 9.82200 45.56200
H  38.04200 11.23300 47.58500
H  38.86700 10.65100 49.11700
H  38.04900 9.57800 47.95400
Mg 53.09000 25.02100 43.28100
C  50.77600 27.52600 42.71300
C  50.88700 22.68100 41.99800
C  55.64300 22.74600 42.81300
C  55.54200 27.43600 44.09500
N  51.09800 25.10300 42.45900
C  50.24700 26.20500 42.43700
C  48.87600 25.89800 41.93000
C  48.85900 24.25000 41.91000
C  50.33500 23.97800 42.21200
C  47.97100 23.65700 43.11900
C  48.45800 26.38000 40.48100
C  49.54700 26.29300 39.36400
H  49.33700 25.55200 38.08400
N  53.23200 22.95800 42.59000
C  52.19900 22.13500 42.27500
C  52.64300 20.82800 41.95200
C  54.01200 20.81700 42.05300
C  54.35100 22.21000 42.58800
C  51.72500 19.66900 41.52600
C  54.94800 19.65400 41.88200
O  54.54200 18.58700 41.49200
C  56.46400 19.73200 42.14800
N  55.23700 25.15600 43.49600
C  56.06600 24.03200 43.23500
C  57.64000 24.41200 43.55200
C  57.43500 25.86900 44.10800
C  55.96200 26.21800 43.83300
C  58.37300 23.43900 44.53100
C  58.54100 26.78200 43.50400
C  59.39700 27.55500 44.60000
N  53.16600 27.07100 43.45600
C  54.20000 27.92100 43.83200
C  53.58700 29.19800 44.14300
C  52.33900 29.10300 43.56200
C  52.08000 27.79100 43.25400
C  54.29300 30.43900 44.65900
C  51.05400 29.78400 43.37100
O  50.73200 30.93800 43.56800
C  50.04500 28.76700 42.76300
C  49.57500 29.38500 41.44800
O  50.31000 29.55100 40.41300
O  48.20400 29.66400 41.51800
C  47.56300 30.16000 40.33300
H  50.10100 21.99700 41.67200
H  56.52900 22.11400 42.71800
H  56.27700 28.11800 44.52800
H  48.20700 26.21100 42.73100
H  48.47000 23.79800 40.99800
H  47.62700 24.48600 43.73700
H  48.55600 22.93000 43.68300
H  47.12400 23.15300 42.65500
H  48.05900 27.39400 40.44400
H  47.59300 25.78100 40.19600
H  50.40500 25.78800 39.80800
H  49.87200 27.25400 38.96600
H  52.00500 19.27400 40.54900
H  50.71500 20.01000 41.29800
H  51.70900 18.79400 42.17600
H  56.95500 18.79900 41.87400
H  56.61600 20.12700 43.15200
H  56.79600 20.49600 41.44400
H  58.18700 24.33900 42.61200
H  57.58600 25.95700 45.18400
H  57.78000 22.54300 44.71800
H  58.50600 23.97300 45.47200
H  59.33600 23.18400 44.09000
H  58.07800 27.54000 42.87100
H  59.20400 26.24600 42.82500
H  59.08600 28.59900 44.55000
H  60.46900 27.41600 44.46000
H  59.17400 27.37700 45.65200
H  55.08600 30.69800 43.95800
H  54.74000 30.18100 45.62000
H  53.55100 31.23100 44.75300
H  49.15000 28.65200 43.37400
H  47.52900 29.41200 39.54000
H  48.16100 31.01900 40.02800
H  46.56500 30.52100 40.58300

