158

Mg 46.28100 45.26100 42.93300
C  43.09200 43.98900 42.94400
C  47.35500 41.98600 42.27800
C  49.53300 46.40800 42.67800
C  45.12200 48.43300 43.24700
N  45.33200 43.22600 42.69600
C  43.97800 42.96700 42.72300
C  43.64000 41.44400 42.53800
C  45.04700 40.86200 42.70500
C  45.99800 42.06500 42.53200
C  45.31300 40.08200 44.06100
C  43.01900 41.18000 41.13800
C  43.82900 41.70900 39.89800
H  43.99300 40.80200 38.71400
N  48.11100 44.35200 42.40100
C  48.35000 43.01700 42.24300
C  49.75800 42.88500 41.88300
C  50.36200 44.17600 41.72200
C  49.34200 45.06500 42.28500
C  50.45800 41.54500 41.61200
C  51.67500 44.56200 41.11200
O  52.46600 43.75100 40.65000
C  52.13600 45.93500 40.99200
N  47.16600 47.13500 42.82400
C  48.50700 47.29900 42.98600
C  48.84900 48.71400 43.49700
C  47.48600 49.45800 43.21700
C  46.50500 48.27000 43.10400
C  49.25600 48.63000 45.02100
C  47.39300 50.49100 42.02400
C  46.88900 51.90600 42.48300
N  44.48700 46.11200 43.22900
C  44.15600 47.43100 43.38900
C  42.68900 47.57100 43.56500
C  42.22000 46.25700 43.41300
C  43.34500 45.38900 43.23400
C  41.90300 48.81900 43.75600
C  41.12600 45.34700 43.41500
O  39.91700 45.51200 43.64100
C  41.59200 43.85100 43.19700
C  41.35800 43.16700 44.50900
O  41.99300 43.26900 45.56100
O  40.14400 42.43500 44.46400
C  39.61200 42.02200 45.79700
H  47.74200 40.96900 42.17600
H  50.53400 46.65000 43.03900
H  44.84000 49.47700 43.39400
H  42.93400 41.18700 43.32700
H  45.21900 40.10700 41.93700
H  44.66100 40.27800 44.91200
H  46.22800 40.48200 44.50000
H  45.46600 39.02800 43.82800
H  42.03800 41.65600 41.14800
H  42.93100 40.09900 41.02500
H  44.87400 41.95100 40.09000
H  43.29900 42.63400 39.67100
H  50.24200 41.23000 40.59200
H  50.18100 40.83600 42.39300
H  51.53600 41.68700 41.67900
H  51.35900 46.55000 40.53800
H  53.14800 46.02300 40.59700
H  52.18400 46.35200 41.99800
H  49.69600 49.10100 42.93200
H  47.15700 49.99000 44.11000
H  48.94900 47.71000 45.51800
H  48.85500 49.51600 45.51300
H  50.33700 48.75200 45.09300
H  46.66300 50.11100 41.30900
H  48.41800 50.49900 41.65500
H  47.83300 52.44700 42.54800
H  46.29500 51.81500 43.39200
H  46.35800 52.43300 41.69000
H  42.19400 49.22800 44.72400
H  40.83200 48.63000 43.81900
H  42.02500 49.49200 42.90600
H  41.13300 43.37100 42.33300
H  39.04100 41.14600 45.48800
H  39.17200 42.83100 46.38100
H  40.40300 41.57400 46.39900
Mg 35.51300 48.90400 25.00500
C  35.73100 47.41100 28.31000
C  34.78100 51.82800 26.57000
C  35.64900 50.23600 22.09400
C  36.70500 45.81900 23.75600
N  35.24400 49.54000 27.21900
C  35.45200 48.78300 28.35600
C  35.37100 49.64700 29.59400
C  35.11100 51.05600 29.02500
C  34.95100 50.79700 27.52900
C  33.96600 51.85400 29.77800
C  36.70300 49.65900 30.51400
C  36.56600 49.13400 31.97900
H  35.18000 49.23500 32.64400
N  35.32800 50.83400 24.37600
C  34.91400 51.87300 25.14200
C  34.68400 52.99900 24.29000
C  34.96300 52.58900 22.98700
C  35.27200 51.18000 23.06300
C  34.33100 54.38500 24.84400
C  34.83400 53.40800 21.75700
O  35.20400 52.93600 20.62800
C  34.14200 54.72600 21.76100
N  36.25400 48.17500 23.24300
C  36.12100 48.90300 22.10800
C  36.66500 48.20500 20.84600
C  37.26000 46.94900 21.50700
C  36.64900 46.93500 22.91300
C  35.52000 47.81800 19.73600
C  38.78900 46.96300 21.59700
C  39.53400 45.60900 21.50400
N  35.83300 46.91500 25.78300
C  36.36900 45.79700 25.15200
C  36.59700 44.71600 26.09600
C  36.40800 45.32400 27.35000
C  35.94500 46.65400 27.10900
C  37.01600 43.27000 25.71000
C  36.44200 45.08900 28.76900
O  36.81200 44.16700 29.42300
C  35.90100 46.41700 29.46800
C  34.66000 46.12400 30.25700
O  33.50500 46.24500 29.88800
O  35.01500 45.58100 31.48700
C  33.91300 45.04000 32.33600
H  34.42400 52.69700 27.12600
H  35.67300 50.65200 21.08500
H  37.10400 44.96700 23.20100
H  34.48300 49.41600 30.18400
H  36.01200 51.66600 29.08200
H  34.48200 52.66100 30.29700
H  33.23100 51.35100 30.40700
H  33.37300 52.24700 28.95200
H  37.16400 50.64200 30.60200
H  37.37000 48.89200 30.11900
H  37.31800 49.64100 32.58300
H  36.85900 48.08700 32.05900
H  34.90300 55.15000 24.31900
H  34.68200 54.47600 25.87200
H  33.26700 54.60900 24.76900
H  33.12800 54.56700 22.12800
H  33.94200 55.06400 20.74400
H  34.69900 55.56800 22.17100
H  37.47700 48.70000 20.31300
H  36.97300 46.02100 21.01200
H  36.10500 47.59600 18.84400
H  34.91300 48.70700 19.56600
H  34.83100 47.04000 20.06400
H  39.08500 47.47000 22.51500
H  39.23900 47.55300 20.79900
H  40.24900 45.65400 22.32500
H  40.08100 45.47000 20.57100
H  38.95200 44.69800 21.64500
H  36.27600 42.76900 25.08700
H  37.07000 42.65700 26.61000
H  37.97800 43.37800 25.20900
H  36.66600 46.69500 30.19300
H  33.10800 44.65700 31.70900
H  33.51300 45.91800 32.84200
H  34.18500 44.30300 33.09100

