158

Mg 8.61300 47.78200 25.80000
C  6.39500 47.65200 28.49100
C  11.08600 48.90200 27.94900
C  10.71300 47.83700 23.23200
C  5.89600 47.36900 23.69100
N  8.63500 48.37500 27.90300
C  7.68600 48.07500 28.86200
C  8.16800 48.38600 30.25600
C  9.51200 49.16100 29.96800
C  9.77000 48.81800 28.56000
C  9.50500 50.70300 30.17100
C  8.11100 47.18700 31.26500
C  9.11000 47.18300 32.43000
H  8.69100 46.56000 33.77500
N  10.65600 48.01800 25.68000
C  11.53000 48.48800 26.64200
C  12.83100 48.41700 26.05500
C  12.77300 48.02200 24.73200
C  11.35100 47.96000 24.47100
C  14.04200 48.73300 26.89400
C  13.86600 47.79100 23.62000
O  13.68400 47.51900 22.45200
C  15.34100 47.81900 24.02300
N  8.30100 47.76700 23.75700
C  9.36100 47.75500 22.88200
C  8.89200 47.70100 21.43000
C  7.33800 47.58700 21.56400
C  7.14100 47.55100 23.10100
C  9.38900 48.87800 20.60500
C  6.66900 46.37100 20.86700
C  5.75700 46.61300 19.64600
N  6.57200 47.58400 25.95700
C  5.58700 47.38100 25.02800
C  4.28800 47.14100 25.66900
C  4.62500 47.21900 27.03500
C  6.00600 47.52100 27.16900
C  2.93300 46.97300 25.08400
C  3.94500 47.14700 28.34400
O  2.74800 46.93400 28.53000
C  5.11000 47.42500 29.35500
C  5.05100 46.36000 30.37700
O  5.62500 45.32200 30.38800
O  4.17700 46.75800 31.39000
C  4.42300 46.28300 32.75400
H  11.85100 49.15300 28.68700
H  11.39100 47.97700 22.38700
H  5.08100 47.25800 22.97300
H  7.49000 49.17600 30.57900
H  10.39400 48.75900 30.46500
H  9.20700 51.05600 29.18400
H  10.42800 51.13400 30.56100
H  8.83600 50.95400 30.99400
H  8.05300 46.24400 30.72200
H  7.17000 47.41000 31.76800
H  9.42600 48.22300 32.50900
H  9.96400 46.57700 32.12700
H  14.68700 49.39500 26.31600
H  14.64000 47.85100 27.12400
H  13.76900 49.17800 27.85100
H  15.47800 46.93500 24.64600
H  15.62100 48.72100 24.56600
H  16.08800 47.64900 23.24800
H  9.34300 46.81100 20.99200
H  6.73900 48.47600 21.36600
H  9.71800 48.40600 19.68000
H  10.10300 49.52100 21.12000
H  8.49000 49.42500 20.32000
H  6.17300 45.81100 21.66000
H  7.49800 45.71400 20.60200
H  6.05500 45.89100 18.88500
H  5.84500 47.62300 19.24600
H  4.73100 46.44200 19.97300
H  3.08000 46.53400 24.09800
H  2.54600 47.98700 24.98000
H  2.43700 46.23300 25.71200
H  4.92300 48.38500 29.83700
H  3.65900 45.59100 33.11000
H  4.57300 47.06900 33.49500
H  5.36500 45.73900 32.82700
Mg -9.80200 17.96100 42.88200
C  -6.59000 16.60500 42.42000
C  -8.43900 21.05100 42.11000
C  -12.91300 18.95900 42.47400
C  -10.96400 14.59900 42.85000
N  -7.77000 18.74700 42.27900
C  -6.64900 18.00700 42.26900
C  -5.48700 18.89000 42.02800
C  -6.05200 20.34300 41.82700
C  -7.47600 20.06100 42.25000
C  -5.30600 21.48000 42.65600
C  -4.28300 18.47300 41.09200
C  -4.66700 17.81800 39.75600
H  -4.67800 18.59500 38.43100
N  -10.60200 19.76700 42.40800
C  -9.88300 20.87600 42.04600
C  -10.89600 22.00700 41.92900
C  -12.20200 21.56900 42.22000
C  -11.95300 20.03100 42.33900
C  -10.51800 23.38600 41.42700
C  -13.45000 22.33000 42.43600
O  -13.45500 23.58500 42.32000
C  -14.71700 21.66900 42.89600
N  -11.66000 16.92900 42.69300
C  -12.77400 17.59900 42.68200
C  -13.95500 16.68400 42.82300
C  -13.37500 15.22700 42.53000
C  -11.88100 15.56400 42.65000
C  -14.60400 16.75700 44.22600
C  -13.80500 14.52600 41.17400
C  -14.10000 13.01600 41.18100
N  -8.96100 15.96600 42.89200
C  -9.59000 14.79600 42.92300
C  -8.55300 13.70000 42.98100
C  -7.33000 14.42200 42.86600
C  -7.65400 15.75600 42.73400
C  -8.61400 12.21800 42.91600
C  -5.97900 14.17700 42.75500
O  -5.24700 13.15600 42.84500
C  -5.36400 15.64000 42.55200
C  -4.29300 15.99900 43.55200
O  -3.14000 15.57700 43.46300
O  -4.85200 16.59000 44.62600
C  -4.12400 16.79800 45.81500
H  -8.11700 22.06200 41.85300
H  -13.96100 19.21900 42.31300
H  -11.44100 13.62000 42.93600
H  -5.07600 19.00800 43.03000
H  -5.98800 20.42400 40.74200
H  -5.98500 21.93700 43.37600
H  -4.98400 22.21500 41.91800
H  -4.41700 21.15200 43.19500
H  -3.61600 17.76800 41.58800
H  -3.77300 19.42500 40.94100
H  -5.68200 17.43400 39.85600
H  -3.99700 16.96200 39.67200
H  -11.33300 23.89800 40.91600
H  -9.69100 23.30700 40.72100
H  -10.15900 23.99500 42.25700
H  -14.56500 20.92200 43.67500
H  -15.20900 21.30200 41.99600
H  -15.33400 22.37700 43.45000
H  -14.67900 17.02700 42.08400
H  -13.55300 14.46900 43.29200
H  -15.29200 15.93400 44.41600
H  -15.17500 17.64900 44.48700
H  -13.85100 16.47500 44.96200
H  -13.02500 14.67700 40.42700
H  -14.55100 15.12700 40.65400
H  -13.29100 12.38400 40.81600
H  -15.08700 12.89300 40.73500
H  -14.24300 12.76600 42.23300
H  -9.21600 12.12300 42.01200
H  -9.17000 11.85100 43.77900
H  -7.58900 11.88400 42.75600
H  -4.86200 15.60900 41.58500
H  -4.73500 16.97200 46.70000
H  -3.40200 17.60400 45.68300
H  -3.40900 15.98200 45.92000

