158

Mg 41.74600 40.80600 26.45500
C  41.13100 43.06400 29.02500
C  43.10400 38.58700 28.81800
C  42.38800 38.37700 24.04200
C  41.10000 43.20700 24.14300
N  42.09400 40.83800 28.62400
C  41.58200 41.80100 29.43700
C  41.56700 41.31500 30.90500
C  42.48300 39.99900 30.85100
C  42.58300 39.79700 29.34600
C  43.83600 40.20700 31.62400
C  40.20600 41.09400 31.58400
C  40.02400 41.94100 32.90300
H  39.45000 41.24200 34.18100
N  42.59000 38.77400 26.40200
C  43.02400 38.04000 27.52000
C  43.53800 36.74400 27.13000
C  43.32400 36.70100 25.74500
C  42.65400 37.94700 25.34200
C  44.12000 35.72500 28.05600
C  43.76100 35.61500 24.79500
O  43.35100 35.55600 23.61500
C  44.50800 34.50100 25.28900
N  41.88300 40.85500 24.37600
C  42.06100 39.70900 23.55300
C  42.09000 40.14700 22.07500
C  41.44700 41.58300 22.15500
C  41.45900 41.97600 23.64700
C  43.50800 40.12000 21.49300
C  39.97500 41.69500 21.70600
C  38.95100 40.75400 22.40000
N  41.25800 42.78900 26.59200
C  41.01100 43.63400 25.48600
C  40.55800 44.88300 25.99900
C  40.53900 44.71000 27.41500
C  41.07300 43.38800 27.70300
C  40.28100 46.13700 25.19600
C  40.17600 45.29500 28.68500
O  39.79700 46.42400 28.93500
C  40.50800 44.24300 29.86500
C  41.41300 44.86600 30.88100
O  42.64600 44.77100 30.82000
O  40.68000 45.51100 31.87300
C  41.40900 46.09600 33.02500
H  43.61200 38.05500 29.62500
H  42.68600 37.63800 23.29600
H  40.83500 43.96700 23.40500
H  42.03000 42.17200 31.39400
H  41.91000 39.23200 31.37200
H  44.65200 39.78900 31.03300
H  43.64000 39.59100 32.50100
H  44.18400 41.21700 31.84100
H  40.08300 40.03300 31.80100
H  39.47600 41.31000 30.80400
H  39.29000 42.73900 32.78600
H  40.89800 42.56800 33.07700
H  43.50200 34.83500 27.93300
H  44.15600 36.16400 29.05300
H  45.18400 35.54400 27.89700
H  44.12100 33.79200 26.02100
H  45.51500 34.82100 25.55600
H  44.72600 33.90500 24.40300
H  41.52900 39.34300 21.59900
H  42.15400 42.30100 21.73900
H  43.62700 39.79600 20.45900
H  44.16600 39.67600 22.23900
H  43.86600 41.14900 21.47100
H  39.99300 41.44200 20.64600
H  39.68600 42.73600 21.85400
H  39.41400 40.21200 23.22500
H  38.60800 39.99400 21.69900
H  38.06400 41.23800 22.80800
H  39.59600 45.82200 24.41000
H  41.24300 46.39100 24.75100
H  39.89700 46.87400 25.90200
H  39.52600 44.02600 30.28600
H  42.12200 46.76200 32.53900
H  41.87500 45.24000 33.51200
H  40.79300 46.56000 33.79500
Mg -1.25900 35.35700 26.85800
C  -3.26000 33.53800 29.00700
C  -0.08000 37.19600 29.58400
C  0.51700 37.20400 24.73300
C  -2.59600 33.44900 24.19800
N  -1.70000 35.39900 29.01600
C  -2.49600 34.51000 29.67200
C  -2.24100 34.54300 31.21600
C  -1.51800 35.89800 31.37500
C  -1.05100 36.17900 29.87800
C  -2.37300 37.00800 32.01000
C  -1.60100 33.24900 31.74500
C  -2.32400 32.37000 32.81000
H  -1.65300 32.05800 34.15400
N  0.00300 37.03000 27.12800
C  0.41300 37.64100 28.32800
C  1.41100 38.63000 27.96600
C  1.70200 38.57400 26.57700
C  0.71000 37.57900 26.11100
C  2.02900 39.45200 29.09400
C  2.70800 39.32300 25.77400
O  2.80300 39.24200 24.56600
C  3.66100 40.20400 26.48400
N  -1.23600 35.53800 24.76600
C  -0.30300 36.27100 24.10000
C  -0.14700 35.83400 22.63900
C  -1.05800 34.56300 22.49100
C  -1.73200 34.49600 23.88400
C  -0.55400 36.98200 21.72000
C  -0.36700 33.21700 22.00400
C  0.65300 32.61100 23.00900
N  -2.73900 33.92700 26.59000
C  -3.23900 33.24400 25.43400
C  -4.09600 32.13500 25.83200
C  -4.11500 32.24400 27.21900
C  -3.29200 33.28300 27.63700
C  -4.48200 31.11100 24.86200
C  -4.62000 31.63000 28.41300
O  -5.37200 30.69600 28.57600
C  -4.12000 32.49500 29.60100
C  -5.32300 33.10300 30.26600
O  -6.11100 33.90500 29.75600
O  -5.45300 32.51600 31.55100
C  -6.61200 33.03600 32.34200
H  0.36000 37.67800 30.45900
H  1.12300 37.68000 23.96000
H  -2.88300 32.86600 23.32000
H  -3.19000 34.61600 31.74700
H  -0.63400 35.79000 32.00400
H  -2.01100 37.07100 33.03600
H  -3.42700 36.73200 32.03400
H  -2.47000 37.83800 31.31100
H  -0.62000 33.54500 32.11600
H  -1.47600 32.58000 30.89300
H  -2.53200 31.35400 32.47500
H  -3.30900 32.80300 32.98400
H  1.54200 39.39700 30.06800
H  1.82400 40.50100 28.87900
H  3.10200 39.26800 29.04000
H  3.18900 40.97200 27.09700
H  4.08000 40.89600 25.75200
H  4.39200 39.71000 27.12300
H  0.88700 35.56900 22.42000
H  -1.77400 34.70600 21.68200
H  -0.74200 37.96700 22.14500
H  -1.50400 36.75200 21.23700
H  0.21700 37.13000 20.96400
H  0.25000 33.39000 21.12300
H  -1.06700 32.43200 21.71900
H  0.35900 31.67500 23.48300
H  0.63900 33.32000 23.83700
H  1.58600 32.57200 22.44700
H  -5.04900 31.57900 24.05700
H  -5.24300 30.46200 25.29500
H  -3.62200 30.63200 24.39500
H  -3.54000 31.82500 30.23600
H  -6.24900 33.76300 33.06800
H  -7.17100 32.19000 32.74100
H  -7.31600 33.67100 31.80300

