158

Mg -0.99200 34.05000 27.01000
C  -2.66600 32.45800 29.72700
C  0.36900 36.26200 29.21500
C  0.27800 35.79100 24.32600
C  -2.77500 32.05400 24.81500
N  -1.22600 34.38000 29.14500
C  -1.87000 33.57200 30.07900
C  -1.40800 33.93100 31.49500
C  -0.60500 35.29000 31.31000
C  -0.45600 35.32200 29.79800
C  -1.28300 36.50100 31.95600
C  -0.76600 32.80100 32.39600
C  -0.62800 33.11300 33.86000
H  -1.65200 32.39600 34.76300
N  0.28800 35.60400 26.84000
C  0.71600 36.43700 27.85000
C  1.60900 37.43000 27.34400
C  1.52600 37.38800 25.93100
C  0.69900 36.19700 25.64200
C  2.45600 38.37000 28.32700
C  2.23400 38.27900 24.88600
O  2.09100 38.14200 23.63800
C  3.23600 39.30100 25.41600
N  -1.17500 33.97200 24.87600
C  -0.60400 34.77600 23.96200
C  -0.93700 34.37100 22.56500
C  -1.47500 32.85800 22.75200
C  -1.87600 32.93800 24.25500
C  -1.92500 35.32900 21.84700
C  -0.51700 31.67500 22.39900
C  0.43600 30.98400 23.46600
N  -2.52300 32.66400 27.13600
C  -3.17600 31.96000 26.19800
C  -4.06800 31.02000 26.81400
C  -3.90300 31.23400 28.19600
C  -2.95900 32.19200 28.39600
C  -4.90900 29.93200 26.16900
C  -4.40700 30.76100 29.49700
O  -5.30000 30.00000 29.76500
C  -3.53400 31.55200 30.50800
C  -4.51600 32.25700 31.45800
O  -5.21300 33.17600 31.17600
O  -4.58300 31.63200 32.67600
C  -5.45900 32.26300 33.65600
H  1.00000 36.76400 29.95100
H  0.55700 36.34200 23.42500
H  -3.21700 31.27500 24.19000
H  -2.30000 34.19600 32.06400
H  0.31200 35.11600 31.87200
H  -2.30800 36.38600 32.30900
H  -1.38100 37.26000 31.17900
H  -0.63100 37.01700 32.66100
H  0.27600 32.70400 32.09000
H  -1.37700 31.90900 32.25700
H  -0.87800 34.15800 34.04200
H  0.33200 32.99500 34.36300
H  2.31900 38.21600 29.39700
H  2.09100 39.38000 28.14000
H  3.52600 38.29900 28.13400
H  3.63000 39.89400 24.59000
H  4.04200 38.75500 25.90500
H  2.67300 39.84800 26.17300
H  0.05200 34.37100 22.10800
H  -2.41500 32.75200 22.21000
H  -2.69500 34.77300 21.31200
H  -1.35900 35.92700 21.13300
H  -2.37500 35.93300 22.63500
H  0.15600 32.14100 21.67800
H  -1.14100 30.95500 21.86900
H  0.23200 31.40800 24.44900
H  1.50700 31.01100 23.26600
H  0.10300 29.94900 23.54000
H  -4.93800 29.93500 25.08000
H  -5.96100 30.02900 26.43600
H  -4.63400 28.96600 26.59400
H  -2.89800 30.85400 31.05200
H  -5.01200 32.05500 34.62800
H  -6.49300 31.92400 33.60300
H  -5.44500 33.34200 33.49800
Mg -4.96900 25.02900 26.58900
C  -3.46900 26.42500 29.53100
C  -6.81400 23.06200 28.71600
C  -6.22600 23.52300 23.95100
C  -2.52300 26.75800 24.64200
N  -4.99000 24.76700 28.89300
C  -4.40500 25.49900 29.86700
C  -4.99500 25.16000 31.23800
C  -5.85600 23.85200 30.98600
C  -5.87000 23.88600 29.39500
C  -5.27500 22.49800 31.63800
C  -5.72000 26.36600 31.80300
C  -6.12400 26.42700 33.31900
H  -5.75500 25.17300 34.18500
N  -6.30200 23.54300 26.35200
C  -7.00900 22.87600 27.36900
C  -8.03500 22.08200 26.80200
C  -7.94800 22.20600 25.39500
C  -6.77300 23.04600 25.18400
C  -9.09100 21.36200 27.64400
C  -8.77200 21.53500 24.33900
O  -8.66500 21.73500 23.15700
C  -9.90700 20.62700 24.75100
N  -4.53500 25.19000 24.56200
C  -5.17400 24.40100 23.65800
C  -4.42100 24.48400 22.23400
C  -3.31600 25.55800 22.48700
C  -3.46500 25.93400 23.96600
C  -3.95100 23.18500 21.48600
C  -3.35300 26.87400 21.68000
C  -1.97800 27.26200 20.97900
N  -3.40400 26.32900 26.94600
C  -2.56600 27.03000 26.05100
C  -1.75000 27.93300 26.81100
C  -1.98400 27.71800 28.16000
C  -3.02200 26.70200 28.21100
C  -0.71300 28.88100 26.28000
C  -1.75400 28.16800 29.48600
O  -1.08600 29.05300 29.96600
C  -2.81900 27.43100 30.47400
C  -2.06500 26.78000 31.61200
O  -1.45800 25.69700 31.56300
O  -2.30100 27.51200 32.81600
C  -1.83300 26.96200 34.09900
H  -7.44300 22.47700 29.39000
H  -6.57500 23.18700 22.97300
H  -1.75200 27.24800 24.04400
H  -4.19200 24.95900 31.94700
H  -6.84800 23.92100 31.43200
H  -6.06400 21.77700 31.85200
H  -4.57100 22.65800 32.45500
H  -4.62700 22.08700 30.86400
H  -6.65700 26.48400 31.25900
H  -5.13500 27.27700 31.67900
H  -7.16500 26.72300 33.45000
H  -5.46400 27.18900 33.73500
H  -9.09000 20.27700 27.54000
H  -10.09700 21.60600 27.30300
H  -9.10400 21.55300 28.71700
H  -9.58200 19.70100 25.22500
H  -10.48600 20.40900 23.85300
H  -10.56800 21.24300 25.36100
H  -5.19100 24.95100 21.62000
H  -2.39900 25.01800 22.24900
H  -2.92700 23.17100 21.11100
H  -4.48200 23.13600 20.53600
H  -4.20100 22.30200 22.07500
H  -3.72700 27.74900 22.21300
H  -4.10400 26.75100 20.89900
H  -1.18600 26.62900 21.38000
H  -1.72100 28.32100 21.00400
H  -2.12600 27.13700 19.90600
H  0.19800 28.91000 26.87700
H  -1.15200 29.86700 26.12500
H  -0.43600 28.51100 25.29300
H  -3.48900 28.22700 30.79800
H  -2.07800 25.94400 34.40000
H  -2.15300 27.64100 34.88900
H  -0.74400 26.94200 34.15000

