158

Mg 0.54800 7.53000 25.26700
C  0.99600 9.40600 28.21000
C  1.19100 4.75600 27.21500
C  0.38300 5.74400 22.54300
C  0.74300 10.53100 23.43100
N  1.02600 7.15100 27.54200
C  0.96200 8.05500 28.52300
C  1.03800 7.36000 29.91300
C  1.29600 5.87700 29.55300
C  1.17000 5.93100 28.02300
C  2.63700 5.22500 30.05500
C  -0.24700 7.69200 30.71000
C  -0.14800 7.55100 32.25200
H  1.17700 7.01000 32.82700
N  0.37600 5.49700 24.96500
C  0.79500 4.57700 25.85100
C  0.51200 3.31900 25.17700
C  0.26600 3.59200 23.77500
C  0.37900 4.99400 23.69400
C  0.60300 1.97400 25.90400
C  -0.11900 2.62600 22.58500
O  -0.23500 2.96500 21.44300
C  -0.53700 1.20300 22.99300
N  0.72500 8.07200 23.22900
C  0.40700 7.14200 22.38400
C  0.32800 7.76300 20.98900
C  -0.01900 9.27000 21.38500
C  0.46200 9.32500 22.77800
C  1.49400 7.63900 20.03600
C  -1.47800 9.65300 21.26900
C  -1.82700 11.10000 20.70600
N  0.87800 9.61200 25.72000
C  0.98900 10.66400 24.85600
C  1.33800 11.87300 25.62600
C  1.40100 11.38500 26.95500
C  1.04300 10.05000 26.93600
C  1.35500 13.26100 25.07900
C  1.59600 11.83000 28.29800
O  1.93600 12.90700 28.72900
C  1.21400 10.59000 29.21900
C  2.44900 10.44200 30.16100
O  3.51700 9.85400 29.78800
O  2.24100 11.08300 31.32600
C  3.46800 11.03400 32.14300
H  1.45100 3.86100 27.78500
H  0.18000 5.26300 21.58400
H  0.81100 11.42000 22.80100
H  1.88900 7.85500 30.38200
H  0.52600 5.19400 29.91000
H  3.24900 5.99300 30.52700
H  3.21800 4.83900 29.21700
H  2.40500 4.32400 30.62400
H  -0.97300 6.96100 30.35600
H  -0.62400 8.67500 30.42500
H  -0.89200 6.83000 32.59200
H  -0.30000 8.47200 32.81300
H  1.09100 2.01900 26.87700
H  1.04800 1.20300 25.27500
H  -0.41900 1.65600 26.10900
H  0.34800 0.60400 23.20600
H  -0.95400 0.80300 22.06900
H  -1.28800 1.30500 23.77600
H  -0.51800 7.30000 20.48100
H  0.52500 9.86900 20.65400
H  2.26000 7.12900 20.62000
H  2.02700 8.56900 19.83900
H  1.18300 7.16000 19.10800
H  -2.03200 9.59100 22.20500
H  -1.98200 8.92100 20.63800
H  -2.17500 10.96200 19.68200
H  -0.95000 11.73500 20.83200
H  -2.66000 11.42200 21.33000
H  0.56000 13.26300 24.33300
H  2.31900 13.43000 24.59900
H  1.33900 13.92500 25.94300
H  0.29600 10.82100 29.76000
H  3.38000 11.73400 32.97300
H  4.36000 11.25600 31.55800
H  3.49400 10.02700 32.55900
Mg 47.66600 35.08800 27.53500
C  45.67200 33.51200 30.09900
C  48.24000 37.63700 29.88200
C  49.09400 36.75900 25.06400
C  46.84500 32.47000 25.32600
N  47.20700 35.37000 29.80300
C  46.39200 34.59500 30.58800
C  46.64900 34.98700 32.08100
C  47.03800 36.48900 31.86800
C  47.50600 36.56000 30.41500
C  45.91100 37.43000 32.28500
C  47.75900 33.98000 32.63200
C  47.80800 33.79900 34.18600
H  47.11000 34.82700 35.03300
N  48.70100 36.74400 27.54100
C  48.87300 37.66000 28.56000
C  49.65300 38.79200 28.05900
C  49.89500 38.58300 26.71300
C  49.15000 37.30400 26.41100
C  49.98200 40.00100 29.01100
C  50.51700 39.54300 25.66200
O  50.57400 39.33800 24.49600
C  51.07600 40.81900 26.01800
N  47.69700 34.72500 25.46400
C  48.47400 35.53100 24.64300
C  48.48800 35.03100 23.20500
C  47.90000 33.57500 23.36100
C  47.47400 33.54200 24.78300
C  47.71200 35.85100 22.17200
C  48.85000 32.44100 22.86800
C  50.06700 32.10500 23.75400
N  46.59300 33.29800 27.62500
C  46.23700 32.39800 26.62000
C  45.47700 31.28200 27.18300
C  45.19000 31.73400 28.47600
C  45.87900 32.97100 28.78000
C  45.07500 30.02000 26.47000
C  44.44400 31.41400 29.67200
O  43.80400 30.43800 29.90600
C  44.62100 32.56500 30.75700
C  44.85000 32.01200 32.11700
O  45.66800 31.16000 32.40500
O  43.94400 32.54300 33.08000
C  43.91600 31.91500 34.43400
H  48.36900 38.46300 30.58500
H  49.55700 37.31100 24.24400
H  46.60300 31.60800 24.70000
H  45.72400 34.93700 32.65500
H  47.90100 36.83400 32.43700
H  46.32700 38.43300 32.37800
H  45.48500 37.03500 33.20700
H  45.20200 37.58500 31.47200
H  48.78000 34.28500 32.40100
H  47.59300 33.02300 32.13600
H  48.85600 33.74500 34.48100
H  47.37200 32.83900 34.46100
H  49.09000 40.60200 29.19000
H  50.74200 40.72600 28.71900
H  50.30000 39.65700 29.99500
H  50.34400 41.48500 26.47500
H  51.53400 41.25500 25.13000
H  51.92100 40.64500 26.68400
H  49.52800 34.89400 22.91000
H  46.96500 33.28400 22.88100
H  46.81900 35.29800 21.88300
H  48.28500 36.08800 21.27500
H  47.37800 36.77900 22.63700
H  49.15400 32.82300 21.89400
H  48.17400 31.60900 22.67000
H  51.03900 32.49200 23.44600
H  50.11100 31.01500 23.74300
H  49.96800 32.40900 24.79600
H  45.95200 29.37900 26.38500
H  44.63500 30.30000 25.51300
H  44.34300 29.44100 27.03300
H  43.63300 33.01600 30.65900
H  44.33000 32.70100 35.06600
H  44.58400 31.05700 34.49700
H  42.86700 31.69600 34.63600

