158

Mg 42.64800 41.23400 27.87200
C  41.50700 43.63400 30.30200
C  43.37900 39.11200 30.40400
C  43.96600 39.24000 25.59300
C  42.65900 44.00900 25.50800
N  42.53700 41.48600 30.02800
C  41.94700 42.40800 30.79900
C  41.91700 42.00900 32.23200
C  42.71200 40.68200 32.26400
C  42.90700 40.37700 30.76400
C  44.05500 40.78900 33.02000
C  40.49600 42.02500 32.90500
C  40.30900 43.07000 34.04000
H  39.49900 42.51600 35.31900
N  43.45100 39.35700 27.95100
C  43.54300 38.55600 29.06300
C  43.94200 37.15900 28.71700
C  44.08800 37.21800 27.33200
C  43.92100 38.66700 26.88600
C  43.97400 36.04200 29.69800
C  44.30200 36.04200 26.41200
O  44.64300 36.14900 25.23900
C  44.13400 34.65600 27.03500
N  43.15000 41.59200 25.85600
C  43.70500 40.53900 25.11400
C  43.84500 40.93000 23.64200
C  43.30900 42.42600 23.58000
C  43.06800 42.75000 25.08200
C  45.25100 40.77900 23.04200
C  42.04400 42.57400 22.70800
C  40.67700 42.31400 23.43800
N  42.14700 43.35500 27.90500
C  42.20300 44.29100 26.78500
C  41.67900 45.53400 27.26000
C  41.32200 45.29400 28.66900
C  41.68200 43.97200 28.97700
C  41.37000 46.74900 26.42600
C  40.68400 45.88800 29.91900
O  40.18300 46.96000 30.13100
C  40.91900 44.87000 31.02100
C  41.93100 45.48200 31.94000
O  43.12800 45.27900 31.80200
O  41.27000 46.20300 32.92400
C  41.94900 46.74200 34.16000
H  43.54400 38.36600 31.18500
H  44.30000 38.53300 24.83200
H  42.56400 44.80400 24.76700
H  42.41900 42.80900 32.77700
H  42.07700 39.91500 32.70600
H  44.26400 40.00900 33.75200
H  44.06500 41.75100 33.53200
H  44.92600 40.96000 32.38700
H  40.25500 41.08500 33.40200
H  39.65400 42.11700 32.21800
H  39.75600 43.89000 33.58100
H  41.26000 43.41100 34.44900
H  43.15500 35.35500 29.48200
H  43.79000 36.29200 30.74300
H  44.84600 35.40100 29.57100
H  43.20900 34.48500 27.58500
H  44.96800 34.16200 27.53300
H  44.07700 33.96300 26.19500
H  43.11200 40.29600 23.14400
H  44.09400 43.11700 23.27500
H  45.22400 39.86000 22.45700
H  45.99200 40.53400 23.80200
H  45.53300 41.50100 22.27600
H  41.99200 41.86900 21.87900
H  41.98400 43.49900 22.13400
H  40.76000 42.01800 24.48300
H  39.93600 41.71200 22.91200
H  40.17200 43.28000 23.45100
H  40.52600 46.59600 25.75400
H  42.23100 47.08500 25.84700
H  41.07700 47.53400 27.12300
H  39.95300 44.60900 31.45400
H  42.89000 47.23500 33.91600
H  42.12900 45.96800 34.90600
H  41.25000 47.44800 34.60900
Mg 17.18900 51.96700 25.96600
C  18.55100 50.73700 28.79900
C  14.36300 53.03400 27.85300
C  15.62500 53.10600 23.25300
C  19.63300 50.54400 23.97900
N  16.48000 51.81400 28.04700
C  17.29200 51.36200 29.06300
C  16.60400 51.55600 30.51300
C  15.29900 52.28500 30.10000
C  15.40400 52.43800 28.55900
C  13.97800 51.48200 30.57000
C  17.51300 52.44400 31.50300
C  17.76700 51.73300 32.80500
H  17.08100 52.41900 33.99000
N  15.24200 53.10200 25.67300
C  14.25300 53.43900 26.51500
C  13.21500 54.13700 25.82100
C  13.62000 54.22200 24.43300
C  14.85700 53.45200 24.43500
C  11.99900 54.66200 26.52500
C  12.99100 54.94000 23.28600
O  13.44100 54.92100 22.17100
C  11.83500 55.84800 23.48400
N  17.53100 51.72800 23.95200
C  16.77500 52.37500 23.00800
C  17.37500 52.30700 21.56400
C  18.82700 51.73400 21.82400
C  18.64800 51.29300 23.31600
C  16.57500 51.38900 20.54600
C  19.93700 52.70400 21.64400
C  19.77700 54.21600 21.97000
N  18.73300 50.78800 26.27600
C  19.68400 50.26600 25.40800
C  20.64000 49.48200 26.14900
C  20.30000 49.69300 27.46600
C  19.07700 50.42600 27.46800
C  21.76900 48.72900 25.63300
C  20.66100 49.38700 28.85700
O  21.61500 48.67300 29.28800
C  19.47000 50.01800 29.74400
C  18.81300 48.98700 30.59800
O  17.92300 48.18600 30.32600
O  19.45900 49.08600 31.80400
C  18.92000 48.33600 32.91500
H  13.59500 53.42000 28.52700
H  15.37900 53.72000 22.38400
H  20.50600 50.14300 23.46000
H  16.30300 50.58900 30.91500
H  15.25500 53.28000 30.54200
H  13.60800 50.83500 29.77400
H  13.29400 52.22200 30.98400
H  14.17400 50.87600 31.45400
H  17.02400 53.40200 31.68100
H  18.45800 52.60200 30.98300
H  18.84200 51.63300 32.95700
H  17.30600 50.74600 32.79900
H  11.94900 55.73400 26.71400
H  11.75700 54.22500 27.49400
H  11.22500 54.43200 25.79200
H  11.97500 56.48500 24.35700
H  10.95900 55.20200 23.54800
H  11.58100 56.39500 22.57600
H  17.41800 53.24100 21.00300
H  19.01900 50.94000 21.10200
H  17.00800 50.41400 20.31900
H  16.25000 51.84600 19.61100
H  15.63000 51.04400 20.96600
H  20.31100 52.70400 20.62000
H  20.78700 52.36800 22.23800
H  19.80500 54.79300 21.04600
H  20.65200 54.55100 22.52900
H  18.85400 54.46400 22.49400
H  22.30700 49.40000 24.96400
H  21.61500 47.88700 24.95800
H  22.43900 48.33300 26.39600
H  19.95200 50.78900 30.34600
H  19.80500 47.76400 33.19100
H  18.14600 47.57400 32.82400
H  18.72900 49.09700 33.67200

