158

Mg 6.34700 55.08100 41.39400
C  5.19200 51.77600 41.53600
C  9.34400 53.93600 39.96000
C  7.18200 58.23200 40.52800
C  3.16500 56.15500 42.28100
N  7.14000 53.08400 40.73900
C  6.44800 51.90900 40.90800
C  7.19500 50.75100 40.26600
C  8.66500 51.40800 40.33500
C  8.42900 52.91600 40.28700
C  9.58200 51.02000 41.55300
C  6.74700 50.35600 38.82500
C  5.68000 51.28000 38.10600
H  6.25600 52.39300 37.29600
N  8.01400 55.95600 40.36600
C  9.10100 55.29000 39.89100
C  10.09900 56.22300 39.38600
C  9.42000 57.50600 39.32900
C  8.16300 57.29000 40.10400
C  11.49100 55.82300 38.98300
C  9.96900 58.83300 38.71900
O  11.06700 58.92500 38.19200
C  9.15900 60.15700 38.72000
N  5.27100 56.99900 41.41500
C  5.91900 58.15200 41.17500
C  5.01500 59.30900 41.56000
C  3.74800 58.62900 42.06200
C  4.09800 57.13100 42.00300
C  5.76300 60.33800 42.44100
C  2.51900 59.21100 41.34900
C  2.12700 58.57600 40.05400
N  4.55400 54.16200 41.95600
C  3.38200 54.75400 42.33000
C  2.44800 53.69700 42.66200
C  3.18100 52.51500 42.50000
C  4.40000 52.89800 41.94000
C  1.06100 53.95900 43.19800
C  3.09100 51.07800 42.57100
O  2.16600 50.36800 43.03100
C  4.44400 50.54500 42.05100
C  4.18300 49.56800 41.00700
O  3.70000 49.79300 39.90900
O  4.58200 48.33000 41.45200
C  4.30000 47.28100 40.46700
H  10.35700 53.65300 39.66600
H  7.52500 59.23500 40.26400
H  2.24800 56.58300 42.69300
H  7.19700 49.84300 40.87000
H  9.17800 51.13600 39.41300
H  9.68300 51.81200 42.29600
H  10.57200 50.78600 41.16000
H  9.10700 50.25100 42.16300
H  6.35200 49.34000 38.85700
H  7.63500 50.53100 38.21800
H  5.03100 51.72500 38.86100
H  4.98500 50.61300 37.59500
H  11.72500 55.73000 37.92200
H  11.81100 54.91300 39.49200
H  12.19900 56.60500 39.25800
H  8.22100 60.18500 38.16500
H  9.92400 60.84300 38.35500
H  9.06600 60.53800 39.73700
H  4.95900 59.78500 40.58200
H  3.50300 58.80600 43.11000
H  5.08600 60.71700 43.20800
H  5.99000 61.16400 41.76800
H  6.67000 59.96200 42.91300
H  2.67100 60.28900 41.30100
H  1.68000 59.06400 42.02800
H  3.00600 58.28000 39.48300
H  1.56100 59.14300 39.31400
H  1.57700 57.69600 40.38600
H  0.52000 54.66300 42.56600
H  1.07300 54.29800 44.23400
H  0.55000 53.00200 43.08700
H  4.90100 50.04400 42.90500
H  3.22300 47.28400 40.29400
H  4.61800 46.34900 40.93400
H  4.91900 47.44100 39.58500
Mg 16.33400 52.32000 26.49500
C  17.99300 50.96000 29.17400
C  13.71400 53.20800 28.51000
C  14.76500 53.52100 23.77500
C  18.69200 50.83100 24.34200
N  15.86600 51.95600 28.61000
C  16.83900 51.62000 29.53300
C  16.37800 51.99400 30.96400
C  14.90300 52.52000 30.75800
C  14.77900 52.54900 29.22900
C  13.71200 51.59100 31.26800
C  17.31900 53.05800 31.62000
C  17.33900 53.18200 33.20400
H  16.43000 52.31000 34.03500
N  14.51500 53.28100 26.23800
C  13.55700 53.50700 27.13800
C  12.39500 54.17100 26.49300
C  12.77000 54.37200 25.10500
C  14.04000 53.74100 24.97700
C  11.22600 54.56200 27.31300
C  12.03800 55.03900 24.02200
O  12.46800 55.20400 22.86600
C  10.82800 55.67000 24.33300
N  16.64100 52.15400 24.42000
C  15.82000 52.80000 23.48700
C  16.33700 52.60200 22.04300
C  17.66200 51.76400 22.27400
C  17.65600 51.55700 23.77000
C  15.34900 52.02500 20.94100
C  18.93400 52.61700 21.84500
C  20.05400 51.87100 21.20000
N  18.03800 51.12400 26.65900
C  18.93400 50.64900 25.73300
C  20.06100 49.98900 26.33100
C  19.72900 50.14000 27.69200
C  18.46900 50.77900 27.85800
C  21.17700 49.19900 25.70100
C  20.12000 49.80200 29.08500
O  21.12900 49.27400 29.52600
C  19.04700 50.33900 30.01700
C  18.46200 49.39000 31.04500
O  17.64800 48.50200 30.88000
O  18.95200 49.65700 32.31500
C  18.50200 48.71900 33.35700
H  13.04500 53.63400 29.26000
H  14.31200 53.80500 22.82300
H  19.39200 50.35600 23.65300
H  16.37900 51.12400 31.62000
H  14.77600 53.47400 31.27000
H  14.13800 50.69000 31.70900
H  13.06200 51.32100 30.43600
H  13.12600 52.08700 32.04200
H  17.05800 54.00000 31.13900
H  18.32700 52.77600 31.31600
H  17.17800 54.24500 33.37900
H  18.35800 52.87700 33.44400
H  11.09700 55.63400 27.16300
H  11.31200 54.39400 28.38700
H  10.29300 54.08600 27.01200
H  10.25700 54.91300 24.87000
H  10.34700 55.96400 23.40000
H  11.07200 56.58400 24.87400
H  16.54000 53.60800 21.67400
H  17.66300 50.80600 21.75500
H  14.54500 51.48900 21.44400
H  15.96500 51.52500 20.19300
H  14.92600 52.86500 20.38900
H  19.32000 53.14700 22.71600
H  18.62200 53.41200 21.16900
H  20.12900 52.11500 20.14000
H  19.89000 50.79700 21.29700
H  20.94500 52.23500 21.71100
H  21.15100 49.31500 24.61800
H  21.04200 48.15900 25.99800
H  22.16000 49.56100 26.00300
H  19.53600 51.16000 30.54300
H  19.25800 48.77300 34.14100
H  18.60100 47.69300 33.00300
H  17.48200 48.84700 33.72000

