158

Mg 25.92600 -0.74300 29.72700
C  27.55600 -1.24600 32.68300
C  23.00500 -0.37400 31.47100
C  24.40100 -0.45300 26.85500
C  28.94500 -1.58200 27.97800
N  25.30900 -0.81000 31.83300
C  26.19800 -0.78900 32.91900
C  25.59700 -0.38600 34.24600
C  24.05700 -0.52000 33.83100
C  24.12700 -0.59900 32.28100
C  23.38000 -1.86600 34.30800
C  26.20000 1.02600 34.65000
C  27.08900 1.03500 35.89500
H  26.59200 1.90500 37.04600
N  23.93800 -0.51000 29.28000
C  22.85800 -0.34800 30.07100
C  21.63300 -0.12800 29.29300
C  21.99200 -0.27400 27.95000
C  23.48200 -0.39600 27.98300
C  20.22500 0.33500 29.86500
C  21.16600 -0.23300 26.67200
O  21.56100 -0.62900 25.56900
C  19.74000 0.31200 26.78600
N  26.56800 -1.19600 27.60400
C  25.76600 -0.68600 26.68300
C  26.41700 -0.52100 25.34900
C  27.94700 -0.81900 25.70700
C  27.84700 -1.19800 27.20200
C  25.85200 -1.38000 24.12700
C  28.99900 0.25900 25.32200
C  30.09100 -0.12200 24.33000
N  27.84600 -1.38900 30.16800
C  28.90800 -1.71400 29.39500
C  30.05700 -1.92800 30.21100
C  29.59300 -1.80500 31.52500
C  28.23500 -1.48500 31.44100
C  31.36900 -2.33500 29.79500
C  29.94700 -1.77800 32.97700
O  31.07100 -1.93900 33.53900
C  28.60600 -1.40800 33.72100
C  28.45300 -2.48500 34.71400
O  27.90000 -3.55500 34.48000
O  29.24200 -2.25000 35.86200
C  29.01000 -3.25100 36.84600
H  22.03600 -0.32900 31.97200
H  23.75100 -0.14900 26.03100
H  29.94500 -1.68300 27.55100
H  25.96400 -1.10800 34.97500
H  23.42600 0.28400 34.21000
H  23.01600 -1.74900 35.32900
H  24.16600 -2.61900 34.25800
H  22.46400 -2.13500 33.78200
H  25.39900 1.76000 34.73700
H  26.85500 1.41900 33.87300
H  28.04300 1.36400 35.48400
H  27.27900 0.03600 36.28900
H  20.25900 0.71000 30.88800
H  19.42700 -0.38100 29.66800
H  19.97200 1.19700 29.24800
H  19.87200 1.37600 26.98200
H  19.29300 -0.15800 27.66200
H  19.12900 0.17300 25.89400
H  26.27200 0.55400 25.24400
H  28.20100 -1.72000 25.14900
H  24.94800 -1.90100 24.44100
H  26.57400 -2.15100 23.85800
H  25.68100 -0.73900 23.26200
H  29.48300 0.60600 26.23500
H  28.42200 1.01000 24.78200
H  31.02200 0.27000 24.74000
H  30.00500 0.41900 23.38800
H  30.14100 -1.19600 24.15600
H  32.05400 -2.40900 30.64000
H  31.71000 -1.55000 29.11900
H  31.34600 -3.29800 29.28600
H  28.71200 -0.39800 34.11600
H  29.56600 -4.15300 36.58500
H  27.96400 -3.47600 37.05100
H  29.52300 -3.05900 37.78800
Mg 35.76800 49.50600 25.25300
C  35.83700 47.52100 28.12100
C  35.04100 52.30800 27.22800
C  35.38200 51.20700 22.39100
C  36.36400 46.61600 23.36500
N  35.24100 49.81600 27.30100
C  35.54800 48.86700 28.33600
C  35.41200 49.56900 29.72800
C  34.83000 51.01800 29.42100
C  35.14000 51.07800 27.85300
C  33.32500 51.07500 29.90900
C  36.85000 49.57600 30.36900
C  36.84100 49.42700 31.89800
H  35.68000 49.93600 32.74300
N  35.43500 51.47000 24.88300
C  35.15700 52.52600 25.80600
C  35.01000 53.76500 25.07800
C  35.12000 53.45100 23.67800
C  35.34300 51.97900 23.58300
C  34.88900 55.05700 25.73900
C  35.05200 54.38200 22.53100
O  35.07600 53.98000 21.34200
C  35.05700 55.88000 22.83000
N  36.03500 49.03700 23.20000
C  35.63200 49.86100 22.19200
C  35.64800 49.21300 20.83300
C  36.21600 47.83800 21.14900
C  36.26500 47.84200 22.68900
C  34.29200 49.19400 19.92000
C  37.61800 47.50000 20.63800
C  38.03200 46.00400 20.40800
N  36.01800 47.42900 25.61000
C  36.28600 46.38600 24.75900
C  36.40800 45.21600 25.51000
C  36.22600 45.61300 26.86300
C  35.95900 46.96100 26.85400
C  36.72300 43.88300 24.90000
C  36.29900 45.16100 28.20300
O  36.63100 44.06500 28.62300
C  35.98300 46.35600 29.07400
C  34.71100 46.12400 29.79600
O  33.60400 46.36300 29.36200
O  35.05100 45.72000 31.03900
C  33.91000 45.76000 31.96800
H  34.76800 53.17200 27.83600
H  35.16600 51.76900 21.48000
H  36.60700 45.78600 22.69900
H  34.77900 48.98900 30.40000
H  35.43600 51.71800 29.99700
H  33.09300 52.11100 30.15600
H  33.26800 50.57600 30.87700
H  32.50300 50.80300 29.24800
H  37.36700 50.45100 29.97400
H  37.41800 48.75400 29.93400
H  37.69000 50.05400 32.17200
H  37.21200 48.44300 32.18400
H  35.73500 55.71500 25.53800
H  34.77300 55.05700 26.82300
H  33.99600 55.59500 25.42000
H  34.11800 56.11100 23.33400
H  35.03900 56.43200 21.89100
H  35.99100 56.10100 23.34500
H  36.36000 49.64400 20.12900
H  35.57400 47.10800 20.65700
H  33.43000 49.67300 20.38400
H  34.00800 48.17600 19.65400
H  34.48600 49.61900 18.93500
H  38.40000 47.94100 21.25500
H  37.77700 47.89500 19.63500
H  38.87500 45.97500 19.71800
H  37.29200 45.49800 19.78900
H  38.22800 45.47500 21.34100
H  37.24800 43.24200 25.60800
H  37.46400 43.92700 24.10200
H  35.89700 43.37500 24.40400
H  36.83400 46.36400 29.75400
H  34.23000 45.27800 32.89200
H  33.01300 45.20700 31.68800
H  33.61200 46.76300 32.27500

