158

Mg 9.43500 48.09400 26.98600
C  7.48500 47.79000 29.92700
C  11.98800 49.45100 28.81500
C  11.23800 48.36100 24.15200
C  6.69300 46.86900 25.11900
N  9.61800 48.72300 29.14000
C  8.79200 48.24200 30.11000
C  9.59000 48.37900 31.42600
C  10.75900 49.35400 31.05800
C  10.86600 49.10100 29.58600
C  10.54400 50.83700 31.44900
C  10.01700 46.99300 31.99400
C  9.66000 46.77500 33.50500
H  10.52800 47.53200 34.60600
N  11.34800 48.78100 26.49000
C  12.27100 49.24800 27.41400
C  13.53100 49.42800 26.75300
C  13.31100 49.01700 25.39200
C  11.92100 48.76200 25.26800
C  14.80500 49.84100 27.61700
C  14.32100 48.83200 24.29800
O  14.03100 48.74200 23.09200
C  15.79600 48.83500 24.61100
N  8.98000 47.75300 24.96700
C  9.89700 47.93200 23.97200
C  9.43700 47.43400 22.58500
C  8.02800 46.72800 22.98000
C  7.90300 47.08100 24.47500
C  9.36200 48.51400 21.48500
C  7.86100 45.19100 22.85300
C  8.97000 44.34600 23.50800
N  7.41300 47.60600 27.38900
C  6.46600 47.11000 26.48600
C  5.22800 46.93300 27.26400
C  5.56200 47.16700 28.57600
C  6.91800 47.51800 28.67000
C  3.92400 46.48800 26.71400
C  5.08800 47.19700 29.95300
O  3.97400 47.10900 30.48000
C  6.31100 47.39800 30.85400
C  6.55900 46.02300 31.42700
O  7.17900 45.12700 30.90400
O  6.02800 45.93400 32.68600
C  6.21000 44.74000 33.48900
H  12.81500 49.71100 29.47800
H  11.79300 48.35500 23.21200
H  5.79800 46.72500 24.51000
H  9.02200 48.79200 32.26000
H  11.70500 49.03900 31.50000
H  9.73700 51.13200 30.77900
H  11.44700 51.34900 31.11700
H  10.39800 50.97800 32.52000
H  11.05400 46.73100 31.78500
H  9.38600 46.21200 31.56900
H  9.98600 45.74300 33.63100
H  8.59900 46.73900 33.75200
H  15.42300 48.97000 27.83800
H  14.53600 50.32100 28.55800
H  15.41600 50.56500 27.07800
H  16.08000 48.27000 25.49900
H  16.00400 49.90400 24.64700
H  16.34200 48.38600 23.78100
H  10.07900 46.63800 22.20800
H  7.19600 47.26900 22.53000
H  9.90700 49.43100 21.71000
H  8.33300 48.80600 21.27700
H  9.73900 48.04300 20.57600
H  7.52000 44.84000 21.87900
H  6.94000 44.98600 23.39700
H  8.48900 43.61300 24.15500
H  9.73000 44.91500 24.04500
H  9.43900 43.89500 22.63400
H  4.14600 45.72400 25.96900
H  3.46400 47.27900 26.12100
H  3.23400 46.04200 27.43000
H  6.11900 48.04200 31.71200
H  5.26800 44.44600 33.95100
H  6.93300 44.84400 34.29800
H  6.39200 43.74100 33.09200
Mg -11.89900 17.33100 39.63400
C  -8.57000 15.89200 39.60700
C  -10.42100 20.44400 39.13700
C  -14.85500 18.56400 38.74900
C  -13.04300 14.06800 39.45900
N  -9.69600 18.04100 39.41100
C  -8.54400 17.33900 39.49700
C  -7.35100 18.26200 39.49200
C  -8.00600 19.65700 39.67600
C  -9.52700 19.39100 39.46800
C  -7.76300 20.38700 41.03700
C  -6.60700 18.08700 38.08900
C  -5.17400 17.57200 38.18400
H  -4.92000 16.28900 37.50500
N  -12.68800 19.23200 39.19000
C  -11.85800 20.39300 39.00400
C  -12.68000 21.55100 38.80600
C  -14.01600 21.03100 38.53000
C  -13.90800 19.57800 38.78700
C  -12.14700 22.94600 38.87000
C  -15.28200 21.73900 38.07100
O  -15.25000 22.98900 37.98700
C  -16.58600 21.07200 37.86100
N  -13.70900 16.41100 39.10300
C  -14.80100 17.16400 38.92800
C  -16.06400 16.33500 39.20000
C  -15.47900 14.83700 39.10700
C  -13.99600 15.08400 39.24900
C  -16.72000 16.64100 40.56700
C  -15.70300 14.03400 37.79400
C  -17.12000 13.46700 37.63300
N  -11.07000 15.38600 39.59500
C  -11.67100 14.15300 39.61400
C  -10.77400 13.12300 39.90900
C  -9.52200 13.71700 39.89200
C  -9.78600 15.12600 39.66300
C  -11.16600 11.63100 40.10300
C  -8.10000 13.50400 39.95000
O  -7.37500 12.52000 40.20300
C  -7.47300 14.87200 39.73100
C  -6.68000 15.20100 40.91100
O  -7.15400 15.82200 41.87100
O  -5.38600 14.81400 40.75000
C  -4.45000 15.16900 41.83600
H  -9.90500 21.40500 39.06800
H  -15.88800 18.91900 38.76000
H  -13.45800 13.06300 39.55800
H  -6.66600 17.99200 40.29600
H  -7.62400 20.27500 38.86300
H  -7.74500 19.60200 41.79200
H  -8.54100 21.11700 41.26100
H  -6.81400 20.92300 41.01500
H  -6.45400 19.05200 37.60600
H  -7.27000 17.52500 37.43200
H  -4.98400 17.43300 39.24800
H  -4.49000 18.38300 37.93400
H  -11.93100 23.25500 37.84700
H  -11.31700 22.93600 39.57700
H  -12.97800 23.50500 39.30100
H  -16.38800 20.29600 37.12200
H  -17.36000 21.70400 37.42600
H  -16.96600 20.67500 38.80200
H  -16.75700 16.55800 38.38800
H  -15.93200 14.27100 39.92100
H  -15.91300 16.70500 41.29800
H  -17.39600 15.80400 40.74200
H  -17.18100 17.62200 40.68300
H  -14.81900 13.43200 37.58500
H  -15.71700 14.72700 36.95200
H  -17.60000 13.35300 38.60500
H  -16.82900 12.48800 37.25300
H  -17.75000 14.05400 36.96400
H  -10.61600 11.12600 39.30800
H  -12.23100 11.57500 39.87700
H  -11.02700 11.16000 41.07600
H  -6.77200 15.03700 38.91200
H  -3.44300 14.92000 41.49900
H  -4.73600 14.72800 42.79100
H  -4.43200 16.25700 41.89600

