158

Mg 41.39300 7.60300 29.16400
C  43.08600 9.08800 31.79700
C  39.22300 6.10900 31.39500
C  39.98700 5.94200 26.52300
C  44.06100 8.52700 27.06100
N  41.23700 7.59200 31.30100
C  41.86400 8.46900 32.19100
C  41.21600 8.53200 33.55200
C  40.18200 7.30300 33.40300
C  40.25200 6.90100 31.95800
C  40.60600 6.03400 34.30600
C  40.60100 9.93800 33.86300
C  40.18900 10.16300 35.32200
H  40.92400 11.04800 36.23500
N  39.67200 6.36600 28.98900
C  38.96000 5.90300 30.00900
C  37.84900 5.13000 29.48000
C  37.94900 5.14800 28.01100
C  39.24800 5.76100 27.74600
C  36.78900 4.53300 30.38400
C  37.00900 4.64900 26.91000
O  37.24200 4.70800 25.69400
C  35.68200 4.26300 27.29800
N  41.89400 7.29600 27.06300
C  41.16700 6.58200 26.19600
C  41.74700 6.71600 24.71600
C  42.93400 7.70500 24.92100
C  42.94100 7.91800 26.46000
C  42.08300 5.27100 24.24300
C  42.71500 9.03800 24.11900
C  41.68600 10.04300 24.60500
N  43.16700 8.57500 29.26500
C  44.19400 8.81000 28.34500
C  45.27700 9.61300 28.96200
C  44.90700 9.74700 30.30300
C  43.67900 9.04900 30.44700
C  46.51200 10.10800 28.33900
C  45.22700 10.34200 31.59300
O  46.14000 11.08000 31.86400
C  44.03400 9.87300 32.61200
C  44.64900 9.11800 33.71900
O  44.67000 7.89600 33.84500
O  45.04100 10.01900 34.71200
C  45.33800 9.39200 36.03400
H  38.69600 5.59800 32.20300
H  39.59700 5.51300 25.59700
H  44.75400 8.99500 26.35900
H  41.90600 8.24800 34.34700
H  39.16800 7.68900 33.50900
H  41.06900 6.26900 35.26500
H  41.27800 5.37700 33.75300
H  39.72800 5.46600 34.61300
H  39.70500 10.02800 33.24800
H  41.32200 10.74800 33.75000
H  40.22800 9.19000 35.81100
H  39.14300 10.46800 35.34600
H  37.03300 4.53900 31.44600
H  36.60000 3.47000 30.23500
H  35.91500 5.16300 30.22100
H  35.16300 5.12400 27.71900
H  35.58600 3.43000 27.99400
H  35.20900 3.96200 26.36300
H  40.90000 7.14400 24.18000
H  43.92900 7.27100 24.82200
H  41.60300 4.53300 24.88600
H  43.15600 5.14400 24.38700
H  41.96700 5.07100 23.17700
H  42.48000 8.78200 23.08600
H  43.69300 9.51200 24.03800
H  40.80300 9.94200 23.97400
H  42.09700 11.04400 24.47900
H  41.33400 10.00500 25.63700
H  46.17100 10.23000 27.31100
H  47.31900 9.37800 28.40600
H  46.64600 11.06900 28.83400
H  43.53700 10.74800 33.03200
H  46.15700 8.68800 35.89400
H  44.56300 8.80400 36.52700
H  45.70800 10.19300 36.67500
Mg 41.09400 41.34200 27.09000
C  40.19500 43.48900 29.77200
C  41.76200 38.91700 29.59500
C  42.12500 39.18000 24.72400
C  40.79900 43.80500 24.96200
N  41.27000 41.35200 29.47600
C  40.59900 42.24100 30.29000
C  40.65100 41.83200 31.80000
C  41.14400 40.31800 31.71800
C  41.48600 40.18100 30.12900
C  42.43400 39.95600 32.51000
C  39.31000 42.09400 32.56000
C  39.01900 41.18700 33.78100
H  38.50000 41.74600 35.16400
N  41.91200 39.42000 27.18600
C  42.06600 38.60900 28.29500
C  42.51800 37.24500 27.85300
C  42.48500 37.26400 26.44400
C  42.13700 38.64200 26.05700
C  43.09300 36.22300 28.88600
C  42.84100 36.07600 25.41000
O  42.82500 36.25800 24.21300
C  43.15100 34.67100 25.87900
N  41.52600 41.43700 25.12100
C  41.84900 40.50600 24.33000
C  41.95600 40.93400 22.93000
C  41.59600 42.48400 22.98700
C  41.31200 42.60700 24.43100
C  43.29500 40.56600 22.17400
C  40.40300 42.84400 22.02600
C  39.01000 42.60400 22.59400
N  40.61400 43.29900 27.23800
C  40.60900 44.21000 26.23000
C  40.09400 45.48800 26.80500
C  39.90800 45.25000 28.14900
C  40.30100 43.90200 28.41100
C  39.67300 46.70000 25.98700
C  39.42200 45.82500 29.36500
O  38.86000 46.88300 29.56100
C  39.65800 44.78000 30.51200
C  40.66500 45.27900 31.54000
O  41.89700 45.37700 31.25100
O  40.14800 45.51900 32.79100
C  41.06200 45.63100 33.92500
H  41.83800 38.11300 30.33000
H  42.46000 38.54600 23.90000
H  40.61400 44.59500 24.23100
H  41.42000 42.48100 32.21900
H  40.40800 39.58200 32.04200
H  43.20300 39.61600 31.81600
H  42.17100 39.24300 33.29100
H  42.82200 40.89000 32.91500
H  38.46400 42.02600 31.87600
H  39.34000 43.12200 32.92100
H  39.94000 40.65700 34.02300
H  38.25100 40.45900 33.51900
H  42.57800 35.28000 28.70300
H  42.79200 36.52800 29.88900
H  44.17400 36.09000 28.88700
H  42.18200 34.36600 26.27200
H  43.81600 34.70100 26.74200
H  43.43400 33.93700 25.12400
H  41.14400 40.44400 22.39400
H  42.36100 43.21600 22.72800
H  43.49100 41.35900 21.45200
H  43.21600 39.67200 21.55500
H  44.06500 40.38500 22.92500
H  40.50200 42.18600 21.16300
H  40.53600 43.90000 21.79100
H  38.73800 43.48900 23.16900
H  38.96600 41.71100 23.21800
H  38.40300 42.41300 21.70900
H  38.73500 46.53300 25.45900
H  40.45500 46.88700 25.25100
H  39.70000 47.60300 26.59700
H  38.67300 44.63300 30.95600
H  42.12300 45.39500 33.83900
H  40.67000 45.08200 34.78200
H  41.00000 46.68300 34.20100

