158

Mg 46.52600 24.76900 28.55800
C  47.07400 27.13300 31.06000
C  45.66200 22.53600 31.11300
C  46.35600 22.53500 26.25500
C  47.86400 27.10500 26.32700
N  46.00800 24.95400 30.82500
C  46.40800 25.97000 31.59400
C  46.02800 25.74300 33.07400
C  46.02400 24.19400 33.09500
C  45.90700 23.85000 31.61600
C  47.23400 23.52000 33.90100
C  44.87000 26.60100 33.53900
C  44.16000 26.20600 34.85000
H  44.39700 27.22500 35.97000
N  46.01300 22.86100 28.61300
C  45.65500 22.08600 29.70200
C  45.33100 20.74300 29.25200
C  45.54600 20.71400 27.84400
C  45.98900 22.04400 27.48300
C  44.84400 19.63200 30.12900
C  45.44700 19.50500 26.75400
O  45.57500 19.64700 25.52700
C  45.14300 18.11600 27.29000
N  46.96500 24.83000 26.51400
C  46.93400 23.72300 25.77600
C  47.11800 23.99000 24.27000
C  47.64500 25.41000 24.37500
C  47.44700 25.77900 25.81100
C  48.18800 23.03400 23.57400
C  47.02000 26.35800 23.32200
C  45.54500 26.84600 23.60100
N  47.29300 26.73700 28.62300
C  47.90200 27.50200 27.62800
C  48.43900 28.77000 28.16100
C  48.10400 28.59600 29.50500
C  47.46500 27.33500 29.72700
C  48.88200 29.91100 27.31000
C  48.20500 29.34000 30.76800
O  48.67000 30.44000 31.01500
C  47.59900 28.34500 31.83700
C  48.69700 27.87300 32.81900
O  49.62400 27.09900 32.53000
O  48.40200 28.35100 34.10500
C  49.03900 27.67800 35.27300
H  45.48700 21.80000 31.90000
H  46.38300 21.83400 25.41800
H  48.39500 27.73300 25.60800
H  46.89500 26.20900 33.54200
H  45.09100 23.90400 33.57800
H  48.09800 24.13400 34.15700
H  47.69600 22.77200 33.25700
H  46.89900 23.01600 34.80800
H  44.15000 26.68300 32.72400
H  45.29700 27.59900 33.63400
H  44.40500 25.20900 35.21500
H  43.08400 26.06900 34.74400
H  45.68500 18.93900 30.14000
H  43.85300 19.33300 29.78900
H  44.76100 19.93900 31.17100
H  45.13600 17.36100 26.50400
H  44.11500 18.25100 27.62800
H  45.70600 17.79200 28.16500
H  46.15600 24.04600 23.76000
H  48.72100 25.42200 24.20000
H  48.69400 22.42900 24.32700
H  48.75600 23.60600 22.84000
H  47.64500 22.25900 23.03200
H  46.93900 25.81900 22.37800
H  47.77300 27.13800 23.21800
H  45.67500 27.90900 23.80300
H  44.97200 26.40500 24.41600
H  44.85000 26.76400 22.76500
H  49.71800 29.58100 26.69400
H  49.10300 30.80400 27.89400
H  48.08100 30.21100 26.63500
H  46.73700 28.74700 32.36900
H  49.75300 26.89900 35.00800
H  48.20100 27.18500 35.76500
H  49.66100 28.32700 35.88900
Mg -0.65100 44.15800 25.81600
C  1.42200 43.89400 28.65400
C  -3.20500 42.81400 27.90700
C  -2.60600 44.06700 23.16300
C  2.11400 45.16700 23.95000
N  -0.92700 43.66300 28.13300
C  0.04000 43.66800 29.01500
C  -0.39600 43.19500 30.41300
C  -1.83800 42.62000 30.05700
C  -2.01000 43.02200 28.62800
C  -2.07700 41.04100 30.28900
C  -0.40500 44.42000 31.39700
C  -0.07500 44.20100 32.89700
H  -0.22800 42.77200 33.52500
N  -2.63900 43.64100 25.60200
C  -3.48500 43.11000 26.52400
C  -4.73200 42.73500 25.83600
C  -4.59400 42.94800 24.47300
C  -3.22900 43.50700 24.34800
C  -5.96800 42.20600 26.48000
C  -5.54200 42.65800 23.30300
O  -5.19000 42.80400 22.11400
C  -6.86600 42.02000 23.42300
N  -0.30400 44.54400 23.87400
C  -1.31200 44.63600 22.95600
C  -0.79600 45.13700 21.66900
C  0.60800 45.72200 21.98500
C  0.86200 45.13300 23.36300
C  -0.68400 44.09400 20.52900
C  0.50100 47.28800 21.95000
C  1.12200 47.89400 20.76200
N  1.43000 44.45900 26.15500
C  2.41800 44.77700 25.27000
C  3.69900 44.77000 25.97100
C  3.33600 44.38300 27.30600
C  1.94600 44.24100 27.37200
C  5.07600 45.06600 25.44400
C  3.90400 44.16600 28.60000
O  5.08500 44.24200 28.97100
C  2.71100 43.89300 29.53300
C  2.85600 42.57300 30.16500
O  2.83700 41.53400 29.53100
O  3.23900 42.68600 31.46600
C  3.76700 41.46100 32.07700
H  -3.95500 42.26900 28.48500
H  -3.22800 44.31200 22.30000
H  3.00000 45.53300 23.42600
H  0.26100 42.37800 30.71000
H  -2.57600 43.05900 30.72900
H  -2.80000 40.87600 31.08800
H  -1.13000 40.67900 30.69000
H  -2.28100 40.36400 29.45900
H  -1.46000 44.68900 31.43700
H  0.05100 45.30600 30.95400
H  -0.72400 44.90300 33.42000
H  0.94800 44.56400 33.00200
H  -6.72200 42.98800 26.39000
H  -5.73000 41.95400 27.51300
H  -6.44100 41.36100 25.97900
H  -6.85600 41.06000 23.94000
H  -7.03300 41.72000 22.38900
H  -7.68900 42.67400 23.71300
H  -1.43000 45.94200 21.29900
H  1.51300 45.37700 21.48400
H  -0.67800 43.11900 21.01600
H  0.23500 44.26500 19.97000
H  -1.41800 44.17200 19.72700
H  1.10200 47.51600 22.83000
H  -0.46600 47.75600 22.12900
H  2.03200 48.41900 21.05200
H  0.39500 48.51000 20.23100
H  1.39500 47.05800 20.11800
H  5.85300 44.54100 26.00100
H  5.28300 46.13600 25.40600
H  5.11200 44.62900 24.44700
H  2.66800 44.58000 30.37700
H  4.85100 41.49600 31.96600
H  3.41700 40.52100 31.65100
H  3.48400 41.46500 33.12900

