158

Mg 3.52100 0.63200 44.16300
C  6.39900 2.69200 43.79000
C  1.65900 3.11900 42.75000
C  1.14100 -1.67700 43.60300
C  5.79300 -2.05400 44.82600
N  4.02700 2.52100 43.12800
C  5.27000 3.22000 43.11500
C  5.18900 4.56600 42.52300
C  3.57800 4.81500 42.60700
C  3.00300 3.36500 42.77800
C  3.22500 5.74600 43.78700
C  5.70100 4.66000 41.09800
C  6.34500 3.49100 40.38900
H  6.80900 3.82400 38.98700
N  1.66400 0.69600 43.40200
C  1.05400 1.84500 42.88100
C  -0.27400 1.51000 42.55800
C  -0.50600 0.18500 43.02300
C  0.75300 -0.36400 43.36200
C  -1.29600 2.41600 41.95100
C  -1.86900 -0.51100 42.83800
O  -2.90200 0.07200 42.48800
C  -1.92600 -1.99400 43.04400
N  3.41500 -1.63900 44.40600
C  2.33000 -2.30200 43.98700
C  2.53200 -3.83300 44.02700
C  4.09100 -3.92900 44.51900
C  4.51200 -2.46900 44.57200
C  1.54500 -4.74100 44.70800
C  4.99000 -4.81600 43.61300
C  6.15100 -5.72100 44.21500
N  5.63200 0.29600 44.38000
C  6.40700 -0.81600 44.72300
C  7.77000 -0.42000 44.95000
C  7.79700 0.94500 44.72700
C  6.48100 1.37100 44.35500
C  8.93100 -1.30000 45.41400
C  8.66700 2.10800 44.72600
O  9.85100 2.27600 45.06600
C  7.76700 3.32300 44.16500
C  7.57000 4.31300 45.31800
O  8.55800 4.84900 45.77800
O  6.27800 4.65100 45.65700
C  6.26600 5.66500 46.76700
H  1.02600 3.92300 42.36900
H  0.44500 -2.48400 43.36600
H  6.46500 -2.87400 45.08700
H  5.75500 5.31800 43.07400
H  3.20900 5.19700 41.65500
H  4.02500 5.87500 44.51600
H  2.30300 5.43500 44.27900
H  2.85000 6.66800 43.34400
H  6.60200 5.27200 41.07500
H  5.02300 5.04400 40.33500
H  5.87200 2.51400 40.48800
H  7.25200 3.34100 40.97400
H  -1.62700 2.08000 40.96900
H  -0.90000 3.42000 41.79800
H  -2.23300 2.43100 42.50700
H  -1.47000 -2.32400 43.97800
H  -1.48100 -2.46800 42.16900
H  -2.96700 -2.30600 43.12700
H  2.44700 -4.09000 42.97100
H  4.07300 -4.14300 45.58700
H  0.88100 -4.21800 45.39600
H  2.04500 -5.52700 45.27400
H  0.89200 -5.13500 43.92900
H  5.25200 -4.08200 42.85100
H  4.40000 -5.56600 43.08700
H  6.27300 -6.57700 43.55100
H  5.70200 -6.05400 45.15100
H  7.04200 -5.10400 44.32700
H  8.59800 -2.18100 45.96300
H  9.64500 -0.78600 46.05900
H  9.49500 -1.71800 44.58000
H  8.25000 3.81800 43.32300
H  6.65500 6.52800 46.22600
H  6.92300 5.28300 47.54800
H  5.32000 5.77800 47.29700
Mg 41.43900 42.29900 27.20200
C  40.31600 44.23100 29.81800
C  42.50300 39.93900 29.57500
C  42.77500 40.29700 24.76300
C  40.50200 44.63200 24.92800
N  41.31000 42.07300 29.46300
C  40.79800 43.00700 30.29600
C  40.83700 42.52900 31.79900
C  41.62400 41.18500 31.60500
C  41.85100 41.02600 30.11600
C  42.86500 40.97300 32.47800
C  39.44100 42.46800 32.48400
C  39.39500 41.81400 33.85700
H  39.30200 42.76100 35.06900
N  42.47700 40.41300 27.12100
C  42.74500 39.58100 28.21500
C  43.52900 38.46300 27.75800
C  43.52400 38.53000 26.34900
C  42.91000 39.79600 26.02600
C  43.94900 37.29500 28.70700
C  43.95800 37.39700 25.30900
O  43.83500 37.46500 24.08600
C  44.39900 36.14500 25.94300
N  41.58800 42.37400 25.09800
C  42.20700 41.48000 24.30300
C  42.18200 41.96500 22.85200
C  41.36700 43.32100 22.91700
C  41.09800 43.47700 24.41300
C  43.50600 42.05300 22.03100
C  40.11200 43.29800 21.95600
C  38.93700 42.55700 22.44200
N  40.58500 44.13600 27.25600
C  40.22900 44.99400 26.27100
C  39.64900 46.17400 26.82900
C  39.60500 45.95400 28.21300
C  40.22200 44.67600 28.43000
C  39.10800 47.34100 26.13300
C  39.19800 46.46800 29.51500
O  38.56200 47.44300 29.79600
C  39.60700 45.32600 30.51800
C  40.20800 45.94100 31.70700
O  41.42200 46.11300 31.80900
O  39.22800 46.26200 32.63900
C  39.71000 47.03500 33.80600
H  42.89800 39.18400 30.25700
H  43.46800 39.78600 24.09200
H  40.10900 45.37800 24.23300
H  41.48000 43.23200 32.32800
H  40.92400 40.38800 31.85500
H  43.69500 41.05800 31.77700
H  42.85300 39.99200 32.95200
H  42.96800 41.82800 33.14600
H  38.76300 41.91400 31.83500
H  39.10000 43.49800 32.58800
H  40.21000 41.11000 34.02400
H  38.50100 41.19600 33.92500
H  44.02900 37.66400 29.73000
H  44.96500 36.96100 28.49400
H  43.31900 36.40800 28.77100
H  43.51600 35.78300 26.47000
H  45.28400 36.41600 26.51900
H  44.70200 35.35800 25.25300
H  41.65000 41.15700 22.34900
H  41.99500 44.16900 22.64400
H  43.60300 41.37600 21.18200
H  44.28700 41.76000 22.73400
H  43.70100 43.04700 21.62900
H  40.24400 42.99400 20.91700
H  39.93100 44.36500 21.82300
H  38.18000 43.25700 22.79400
H  39.09900 41.90600 23.30200
H  38.51100 42.00600 21.60400
H  39.98500 47.82700 25.70500
H  38.62800 48.05500 26.80200
H  38.43700 47.17700 25.28900
H  38.60300 45.01400 30.80600
H  38.94100 47.69700 34.20300
H  40.52900 47.66600 33.46000
H  40.02400 46.45800 34.67500

