158

Mg 44.58300 4.71400 46.94700
C  42.64400 7.49900 46.25400
C  42.05100 2.73700 46.10100
C  46.70800 2.12800 47.32700
C  47.41800 6.86000 47.20700
N  42.66400 5.11300 46.09800
C  42.10000 6.31900 45.85900
C  40.69800 6.11400 45.17000
C  40.36300 4.61700 45.48800
C  41.78200 4.08600 45.89900
C  39.25800 4.47500 46.58300
C  40.81500 6.46800 43.65200
C  39.92300 7.55600 43.13600
H  40.47600 8.40900 42.10200
N  44.42000 2.66300 46.74000
C  43.22600 2.05700 46.52700
C  43.42300 0.60500 46.58400
C  44.81300 0.43600 46.91700
C  45.39800 1.76200 47.01500
C  42.42000 -0.36500 46.20000
C  45.41800 -1.00500 47.13700
O  44.68500 -1.98700 47.03300
C  46.78800 -1.41600 47.37500
N  46.78700 4.54300 47.30300
C  47.35900 3.32300 47.50900
C  48.91200 3.43500 47.64000
C  49.09200 4.99500 47.69800
C  47.66600 5.47900 47.38400
C  49.44200 2.72300 48.93100
C  50.25100 5.54600 46.90100
C  51.30100 6.29800 47.74700
N  44.97300 6.76800 46.86200
C  46.12500 7.49300 47.05600
C  45.80200 8.88400 47.05300
C  44.39100 8.96400 46.79600
C  44.00000 7.66100 46.60400
C  46.81200 9.94300 47.20200
C  43.33200 9.83300 46.76600
O  43.28200 11.04100 46.86400
C  42.06500 8.91600 46.41600
C  41.07300 9.02000 47.58200
O  41.31300 8.53200 48.71200
O  39.91700 9.74600 47.14800
C  38.98400 10.11700 48.27100
H  41.17500 2.11400 45.90900
H  47.33900 1.24000 47.40300
H  48.26500 7.53900 47.32200
H  39.95700 6.71600 45.69600
H  39.94200 4.20500 44.57100
H  39.46500 3.53700 47.09900
H  38.25400 4.39100 46.16600
H  39.17000 5.27800 47.31400
H  40.71400 5.54500 43.08100
H  41.87900 6.63500 43.48600
H  39.65700 8.29000 43.89700
H  38.97600 7.13900 42.79500
H  42.70100 -0.70600 45.20400
H  41.39400 -0.01000 46.29000
H  42.40400 -1.20200 46.89800
H  46.98700 -2.30700 46.78000
H  46.96200 -1.55600 48.44200
H  47.63200 -0.78700 47.09200
H  49.59200 3.10700 46.85400
H  49.26100 5.33400 48.72000
H  50.29500 3.27700 49.32300
H  49.87100 1.75300 48.67900
H  48.66200 2.52900 49.66800
H  49.86500 6.16600 46.09200
H  50.73000 4.72800 46.36300
H  52.21800 5.71000 47.70300
H  50.97500 6.55300 48.75500
H  51.44000 7.29400 47.32500
H  47.53300 9.75800 46.40600
H  47.23600 9.91500 48.20600
H  46.37200 10.89400 46.90100
H  41.52900 9.32500 45.55900
H  39.10600 9.59700 49.22100
H  38.02600 9.72300 47.93200
H  38.86500 11.18400 48.45700
Mg 47.90400 35.70400 28.40600
C  46.18600 33.63400 30.56400
C  47.86800 38.16000 30.83700
C  49.22300 37.76100 26.17400
C  47.79600 33.14100 25.90500
N  47.36600 35.76800 30.49700
C  46.70600 34.77000 31.18600
C  46.79500 34.98600 32.64900
C  46.70700 36.59800 32.64000
C  47.39400 36.87900 31.27300
C  45.21000 37.10800 32.64400
C  48.11800 34.44400 33.24900
C  47.97400 33.87800 34.66600
H  47.25800 34.85700 35.64800
N  48.54300 37.73200 28.50300
C  48.37600 38.53400 29.55600
C  48.99000 39.79900 29.22400
C  49.39400 39.78500 27.87400
C  49.15400 38.37200 27.46300
C  49.07500 40.91800 30.25100
C  49.99500 40.88200 27.00600
O  50.17400 40.71500 25.79800
C  50.26600 42.20700 27.62800
N  48.14000 35.56600 26.20800
C  48.87500 36.60800 25.64200
C  49.51900 36.14400 24.32100
C  49.11700 34.61800 24.21700
C  48.24400 34.41100 25.47000
C  49.23500 36.98600 23.03700
C  50.36800 33.77300 24.21000
C  50.69600 33.00300 22.85100
N  47.16700 33.80600 28.20400
C  47.16000 32.88200 27.16000
C  46.53200 31.62500 27.65400
C  45.96900 31.96500 28.92600
C  46.47900 33.26300 29.23700
C  46.38100 30.47400 26.84300
C  45.17500 31.45300 29.95500
O  44.69800 30.33100 30.14100
C  45.20500 32.56200 31.08000
C  45.54700 32.01500 32.40100
O  46.48500 31.28100 32.66600
O  44.57500 32.49200 33.30400
C  44.57100 32.15900 34.71500
H  47.69300 38.86800 31.65000
H  49.71500 38.39800 25.43600
H  47.91200 32.30500 25.21200
H  45.94300 34.61000 33.21600
H  47.23300 37.14200 33.42400
H  44.50100 36.28100 32.61300
H  45.18300 37.76000 31.77100
H  44.90300 37.72000 33.49200
H  48.93900 35.16100 33.27100
H  48.55100 33.66300 32.62300
H  48.96400 33.95500 35.11700
H  47.64200 32.84400 34.57400
H  50.10900 41.26400 30.26100
H  48.71600 40.60700 31.23200
H  48.51100 41.81500 29.99600
H  50.85100 42.76000 26.89400
H  50.89300 42.24600 28.51800
H  49.37000 42.79300 27.83700
H  50.59600 36.24700 24.45700
H  48.49000 34.57400 23.32600
H  48.65900 37.87400 23.29900
H  48.82200 36.53600 22.13400
H  50.18700 37.37100 22.67200
H  50.24400 33.05700 25.02300
H  51.25100 34.37000 24.44000
H  50.61500 31.92400 22.98500
H  51.71100 33.19800 22.50500
H  50.05700 33.17000 21.98300
H  46.81900 30.54800 25.84800
H  45.31800 30.29300 26.68200
H  46.61200 29.54400 27.36300
H  44.20700 32.99900 31.13300
H  43.58400 31.73900 34.90800
H  44.46900 33.05500 35.32700
H  45.45300 31.54000 34.88300

