158

Mg 2.70100 -3.13000 45.13200
C  5.61000 -1.42200 44.55300
C  0.95700 -0.82700 43.12900
C  -0.12800 -5.12800 45.19700
C  4.45200 -5.71100 46.57800
N  3.24200 -1.34500 44.09300
C  4.49500 -0.88500 43.91700
C  4.58700 0.30400 42.85600
C  3.03200 0.65800 42.72100
C  2.34800 -0.61100 43.30400
C  2.57400 1.91900 43.53900
C  5.22500 -0.23100 41.55200
C  6.10100 0.85700 40.91500
H  5.49700 1.55600 39.63600
N  0.71600 -2.93500 44.27500
C  0.18200 -1.87600 43.58900
C  -1.22200 -2.10400 43.31600
C  -1.55200 -3.30000 43.96600
C  -0.26400 -3.85700 44.47900
C  -2.11100 -1.10700 42.52300
C  -3.01700 -3.75900 44.21000
O  -3.96900 -3.18100 43.70900
C  -3.39400 -5.00200 44.99600
N  2.25200 -5.30900 45.51800
C  0.99900 -5.77100 45.66700
C  0.90500 -7.10400 46.49000
C  2.44800 -7.40600 46.67100
C  3.10600 -6.09600 46.17600
C  -0.04300 -7.13300 47.74700
C  3.01600 -8.60900 45.90200
C  4.15600 -9.43100 46.54000
N  4.60500 -3.56900 45.52400
C  5.23200 -4.61500 46.15400
C  6.67000 -4.29600 46.41500
C  6.84100 -3.04900 45.76700
C  5.57300 -2.61500 45.27900
C  7.72300 -5.17300 47.02300
C  7.78500 -2.08600 45.41800
O  8.97500 -2.05700 45.63900
C  7.06200 -1.04400 44.48300
C  7.24300 0.18600 45.13500
O  6.62600 0.63000 46.10100
O  8.19900 0.77800 44.31700
C  8.58300 2.12900 44.59000
H  0.69600 -0.06600 42.39100
H  -1.01300 -5.74400 45.37100
H  4.97600 -6.53100 47.07300
H  5.03100 1.20600 43.27600
H  2.62900 0.93000 41.74500
H  2.14500 1.65900 44.50700
H  1.81300 2.35600 42.89200
H  3.40000 2.60800 43.71300
H  4.44800 -0.37000 40.80100
H  5.76400 -1.13000 41.85300
H  7.07500 0.40500 40.72500
H  6.25500 1.66200 41.63400
H  -1.59400 -0.30000 42.00300
H  -2.81200 -0.65800 43.22700
H  -2.65900 -1.66300 41.76300
H  -2.89900 -5.90100 44.62700
H  -4.44700 -5.27100 44.91200
H  -3.07000 -4.83400 46.02300
H  0.45200 -7.82200 45.80600
H  2.61700 -7.43300 47.74800
H  -0.92700 -7.73600 47.54100
H  -0.33900 -6.14800 48.11000
H  0.49200 -7.65300 48.54100
H  3.32800 -8.33600 44.89400
H  2.21100 -9.33600 45.80200
H  4.51200 -9.07300 47.50600
H  5.06200 -9.51700 45.93900
H  3.72600 -10.40700 46.76300
H  8.35900 -4.73200 47.79100
H  8.40100 -5.55200 46.25800
H  7.21600 -6.07100 47.37600
H  7.47600 -1.00200 43.47500
H  7.77900 2.86200 44.65300
H  9.37300 2.48800 43.93000
H  9.03700 2.21000 45.57700
Mg 16.90800 52.34400 26.52600
C  19.14200 51.13400 28.90700
C  14.57600 52.93700 28.86100
C  14.87800 53.50500 24.04000
C  19.21900 51.27500 24.05200
N  16.97200 52.10100 28.66200
C  17.96800 51.66100 29.44800
C  17.57300 51.80400 30.89700
C  16.04400 52.02100 30.84200
C  15.80100 52.33800 29.37100
C  15.19400 50.83900 31.46900
C  18.35900 52.95800 31.63100
C  18.52400 52.72500 33.18000
H  17.44900 51.76700 33.82500
N  14.99100 53.10300 26.44100
C  14.23400 53.36200 27.56700
C  13.07300 54.13300 27.20300
C  13.08700 54.24500 25.82100
C  14.37900 53.63400 25.34700
C  12.07200 54.66000 28.31000
C  12.05300 54.89400 24.90300
O  12.18900 54.95700 23.71500
C  10.88400 55.51000 25.60700
N  16.99600 52.34000 24.35000
C  16.06300 52.89900 23.52800
C  16.45200 52.68800 22.01300
C  17.93400 52.32000 22.10000
C  18.13200 52.03200 23.60700
C  15.49300 51.66300 21.40700
C  19.11300 53.30600 21.60500
C  19.80300 54.23100 22.60200
N  18.74100 51.35700 26.45800
C  19.51600 50.97700 25.40800
C  20.71000 50.22700 25.86500
C  20.57900 50.34100 27.23500
C  19.37800 51.05100 27.54900
C  21.91700 49.68600 25.07200
C  21.19800 49.98300 28.42700
O  22.26500 49.45200 28.63400
C  20.34900 50.50600 29.55600
C  19.96100 49.37100 30.40500
O  19.28800 48.34700 30.03600
O  20.50600 49.48200 31.66800
C  20.35600 48.33000 32.54800
H  13.92900 53.20300 29.70000
H  14.25200 53.86300 23.21900
H  20.08500 51.01000 23.44000
H  17.80200 50.86000 31.39000
H  15.73700 52.93900 31.34300
H  14.40600 51.16400 32.14800
H  15.79800 50.06200 31.93600
H  14.73200 50.27600 30.65800
H  17.85300 53.92400 31.63400
H  19.36500 52.93900 31.21300
H  18.41100 53.69500 33.66600
H  19.48600 52.28400 33.44100
H  11.74500 55.68700 28.14600
H  12.59100 54.64600 29.26800
H  11.26600 53.95100 28.50000
H  11.02600 56.43900 26.15900
H  10.40200 54.72300 26.18700
H  10.13700 55.76700 24.85600
H  16.33000 53.67400 21.56500
H  18.12600 51.35500 21.63100
H  16.03800 50.93700 20.80300
H  14.89900 52.24600 20.70400
H  14.80300 51.19900 22.11100
H  18.62000 53.89900 20.83500
H  19.84800 52.64700 21.14200
H  20.88900 54.22700 22.51000
H  19.51400 54.03500 23.63500
H  19.46200 55.24100 22.37600
H  21.55400 49.24400 24.14400
H  22.29700 48.88600 25.70800
H  22.60200 50.51600 24.89900
H  20.89000 51.24900 30.14300
H  20.58100 47.38600 32.05200
H  19.30100 48.22500 32.79900
H  20.90400 48.47700 33.47900

