158

Mg 44.66900 3.95500 46.45900
C  43.06400 7.15800 46.24300
C  41.81900 2.51400 45.72900
C  46.44700 1.23700 46.09100
C  47.77700 5.87500 46.13000
N  42.68800 4.80800 45.98200
C  42.19000 6.06100 45.95700
C  40.67600 6.16100 45.68100
C  40.32200 4.60400 45.65000
C  41.69400 3.87100 45.88100
C  39.28500 4.20100 46.70200
C  40.28400 6.91500 44.37300
C  41.33200 6.92600 43.32100
H  40.76400 6.94100 41.80800
N  44.18800 2.13500 45.87500
C  42.89400 1.67200 45.68700
C  42.96900 0.33300 45.46300
C  44.24500 -0.11800 45.66200
C  45.02100 1.05300 45.96300
C  41.81900 -0.59800 45.09300
C  44.78600 -1.56100 45.50100
O  44.04600 -2.43500 45.12600
C  46.22900 -1.95500 45.69000
N  46.87300 3.64400 46.05400
C  47.27200 2.36200 46.21300
C  48.82400 2.30700 46.25200
C  49.27000 3.72900 46.03800
C  47.93000 4.49300 46.06200
C  49.33400 1.62800 47.50600
C  50.19800 4.05600 44.83700
C  49.50200 4.16000 43.42400
N  45.35000 6.01400 46.40300
C  46.62100 6.63100 46.22200
C  46.53700 8.05600 46.14500
C  45.17700 8.25700 46.29900
C  44.47300 7.03700 46.32000
C  47.73300 8.91200 46.05000
C  44.13800 9.26000 46.55200
O  44.26600 10.45700 46.78200
C  42.75400 8.57800 46.45600
C  41.90600 8.83700 47.61600
O  41.97000 8.29800 48.70700
O  40.90800 9.77200 47.27500
C  39.85900 10.03300 48.25600
H  40.91200 1.92200 45.59800
H  47.01200 0.30900 46.20400
H  48.76800 6.33600 46.12300
H  40.03700 6.58000 46.45800
H  39.87300 4.31500 44.70000
H  38.66500 5.07500 46.90200
H  39.64700 3.98600 47.70700
H  38.66000 3.37200 46.37000
H  39.71700 7.82900 44.55500
H  39.51500 6.35500 43.84100
H  41.94800 6.02700 43.34600
H  41.96300 7.80500 43.45100
H  41.74000 -1.51500 45.67600
H  41.83600 -0.82400 44.02700
H  40.88600 -0.06200 45.26800
H  46.56200 -2.98600 45.57000
H  46.40600 -1.69700 46.73500
H  46.81300 -1.40200 44.95400
H  49.01200 1.69800 45.36800
H  49.83500 4.09200 46.89600
H  49.30700 0.54200 47.41800
H  48.51500 1.69400 48.22200
H  50.29300 1.93400 47.92300
H  50.93200 3.25000 44.84400
H  50.79600 4.89800 45.18600
H  48.45600 3.85400 43.39300
H  49.91900 3.59700 42.58900
H  49.43800 5.20700 43.12700
H  48.21000 8.58400 45.12600
H  48.38800 8.82200 46.91700
H  47.44800 9.95500 45.91500
H  42.12800 8.92000 45.63100
H  39.55800 11.07600 48.35200
H  39.97200 9.59900 49.25000
H  38.98300 9.45700 47.95700
Mg 27.18400 50.50000 26.61300
C  25.10000 51.48700 29.39100
C  29.37500 49.44600 29.11500
C  28.94700 49.45800 24.26200
C  24.68400 51.67100 24.50200
N  27.24000 50.53100 28.96600
C  26.28800 50.96200 29.87700
C  26.50700 50.48200 31.30100
C  27.89700 49.84600 31.16500
C  28.21000 49.95300 29.65400
C  29.00000 50.55400 32.03500
C  25.45900 49.52400 31.84000
C  24.77900 49.94800 33.19400
H  25.74900 50.45000 34.30600
N  28.92800 49.58100 26.66700
C  29.72500 49.24800 27.78100
C  30.91400 48.54000 27.25700
C  30.84000 48.55800 25.82600
C  29.52200 49.18800 25.51600
C  32.00500 47.92200 28.15400
C  31.91700 48.14100 24.88400
O  31.75600 48.09000 23.67500
C  33.33800 47.63200 25.32400
N  26.93900 50.72100 24.58200
C  27.81300 50.11400 23.82500
C  27.46500 50.33700 22.36100
C  25.93100 50.77800 22.46000
C  25.75900 50.98800 23.95500
C  28.40000 51.28200 21.57700
C  24.95200 49.62900 21.87100
C  23.70900 50.17900 21.18500
N  25.39900 51.64500 26.84500
C  24.44900 51.98100 25.91000
C  23.28500 52.49600 26.51100
C  23.53600 52.35500 27.85100
C  24.78900 51.82500 28.03900
C  22.04300 52.91100 25.79400
C  22.87900 52.51400 29.14800
O  21.75200 52.99000 29.38300
C  23.89600 51.98200 30.15100
C  24.25000 53.08100 31.06500
O  25.26500 53.74000 31.10800
O  23.30900 53.16100 32.03400
C  23.50100 54.05000 33.22200
H  29.98000 48.94000 29.87000
H  29.45600 48.90400 23.47000
H  23.79600 51.94700 23.92900
H  26.55400 51.35800 31.94700
H  27.88700 48.81100 31.50500
H  29.13800 50.07100 33.00300
H  28.69900 51.59700 32.12900
H  29.96300 50.65900 31.53700
H  25.95700 48.58900 32.09500
H  24.76700 49.21400 31.05700
H  24.29600 49.11900 33.71200
H  23.93000 50.59600 32.97700
H  32.29400 46.91800 27.84200
H  31.57900 47.66000 29.12200
H  32.83400 48.62900 28.16300
H  33.80700 48.17600 26.14400
H  34.01300 47.58300 24.46900
H  33.14300 46.60600 25.63600
H  27.58700 49.36600 21.88000
H  25.85200 51.73400 21.94300
H  29.14200 51.67700 22.27100
H  27.81600 52.17200 21.34000
H  28.84800 50.87400 20.67100
H  24.58100 49.07800 22.73500
H  25.56900 49.04100 21.19100
H  23.60100 49.81400 20.16300
H  23.64900 51.26700 21.21300
H  22.76000 49.78700 21.54900
H  21.78500 52.19400 25.01400
H  22.28700 53.81400 25.23500
H  21.17200 53.11700 26.41600
H  23.50300 51.22200 30.82600
H  22.64300 53.89700 33.87600
H  23.61300 55.10100 32.95700
H  24.39100 53.82100 33.80800

