158

Mg 46.75000 24.60400 28.21800
C  47.40900 27.01000 30.80400
C  45.70400 22.41100 30.58300
C  46.68900 22.29200 25.78300
C  47.88200 27.05700 25.92600
N  46.54700 24.76700 30.43600
C  46.98400 25.76800 31.28500
C  46.74800 25.35200 32.77400
C  46.30400 23.83700 32.68600
C  46.20000 23.62400 31.16500
C  47.21700 22.77700 33.23400
C  45.66000 26.22300 33.58800
C  46.01700 26.41000 35.08800
H  44.89400 26.32000 36.11300
N  45.89900 22.70000 28.08800
C  45.57900 21.96300 29.21700
C  45.23100 20.58300 28.74500
C  45.61900 20.50000 27.33900
C  46.07100 21.87300 26.98400
C  44.74500 19.45600 29.70800
C  45.68500 19.22100 26.47600
O  46.05700 19.24900 25.30300
C  45.30500 17.89400 27.07900
N  47.35400 24.65200 26.20900
C  47.29400 23.55000 25.41200
C  47.66000 23.89100 23.93300
C  47.76100 25.43400 23.92200
C  47.70200 25.73200 25.43600
C  48.89000 23.10600 23.31000
C  46.78100 26.27500 23.06500
C  45.30000 26.44500 23.59800
N  47.68400 26.51500 28.26300
C  47.92800 27.40700 27.25000
C  48.31600 28.73000 27.79000
C  48.05500 28.64000 29.17900
C  47.65400 27.27900 29.40200
C  48.83600 29.90200 26.98300
C  48.05500 29.39400 30.47000
O  48.27400 30.56100 30.76800
C  47.71900 28.26600 31.54700
C  48.86000 28.14900 32.47300
O  49.95500 27.77800 32.15400
O  48.57900 28.70900 33.63500
C  49.60700 28.67300 34.69800
H  45.42400 21.72400 31.38400
H  46.85600 21.58000 24.97200
H  48.14100 27.85200 25.22300
H  47.71400 25.44300 33.27200
H  45.30500 23.63200 33.07300
H  47.93300 23.32800 33.84300
H  47.92300 22.25900 32.58500
H  46.64100 22.18600 33.94700
H  44.70800 25.71900 33.41900
H  45.62000 27.15100 33.01900
H  46.31800 27.45600 35.14900
H  46.93100 25.84000 35.25300
H  45.52900 18.69800 29.71700
H  43.85700 19.06200 29.21400
H  44.48100 19.87000 30.68100
H  45.79400 17.56000 27.99400
H  45.59000 17.09800 26.39100
H  44.22600 18.00500 27.19400
H  46.81200 23.61600 23.30600
H  48.76600 25.79200 23.69900
H  48.45400 22.70200 22.39700
H  49.28600 22.38500 24.02500
H  49.57600 23.90200 23.02100
H  46.69100 25.75200 22.11300
H  47.35000 27.18900 22.89400
H  44.57400 26.23500 22.81300
H  45.08600 27.47300 23.88800
H  45.02200 25.92500 24.51500
H  48.02500 30.29300 26.36900
H  49.71600 29.69800 26.37400
H  48.88200 30.69900 27.72500
H  46.94800 28.71000 32.17700
H  49.41800 27.73200 35.21500
H  49.50100 29.52000 35.37600
H  50.64900 28.66200 34.37700
Mg 40.42500 41.25200 27.27600
C  39.81900 43.64500 30.00100
C  41.45100 39.05800 29.79200
C  41.16100 39.30200 24.91500
C  39.49400 43.87300 25.01500
N  40.53400 41.34700 29.58100
C  40.22700 42.37100 30.42400
C  40.28800 41.96100 31.92900
C  41.04900 40.64700 31.76700
C  41.06200 40.31100 30.26600
C  42.47200 40.61000 32.45000
C  38.91100 41.88600 32.61300
C  38.80500 41.37900 34.09500
H  38.15900 42.28700 35.09700
N  41.10700 39.37400 27.34000
C  41.52800 38.61800 28.40800
C  42.03600 37.34700 27.91800
C  42.02100 37.39400 26.50600
C  41.42700 38.71100 26.13200
C  42.57600 36.29900 28.91400
C  42.52100 36.31600 25.46100
O  42.55200 36.40700 24.25500
C  43.03000 35.07800 26.07100
N  40.48100 41.61500 25.24400
C  40.81000 40.58500 24.40400
C  40.57300 40.93200 22.91500
C  39.95400 42.32300 22.97500
C  39.83300 42.64000 24.50700
C  41.88700 40.92200 22.01800
C  38.55500 42.36300 22.39700
C  37.44800 41.55500 23.11600
N  39.73800 43.31700 27.42800
C  39.52500 44.23900 26.42400
C  39.24800 45.53400 27.02100
C  39.33500 45.30200 28.39100
C  39.69000 44.00600 28.61500
C  38.93500 46.78300 26.29100
C  39.17200 46.02900 29.60000
O  38.90700 47.17700 29.80300
C  39.44900 44.92300 30.73800
C  40.46100 45.37400 31.71100
O  41.62700 45.72700 31.39000
O  39.89200 45.55300 32.99700
C  40.89400 45.97100 34.00100
H  41.70800 38.38400 30.61100
H  41.38500 38.53100 24.17500
H  39.27000 44.67600 24.30900
H  40.73400 42.75900 32.52300
H  40.53400 39.83900 32.28600
H  42.85100 41.62500 32.56400
H  43.28700 40.16500 31.87800
H  42.43700 40.06300 33.39300
H  38.16900 41.28700 32.08500
H  38.40200 42.84800 32.56900
H  39.77300 41.01000 34.43500
H  38.16400 40.49800 34.11600
H  43.52400 35.86500 28.59600
H  41.81800 35.52500 29.03600
H  42.76800 36.79500 29.86500
H  43.97100 35.38300 26.53000
H  43.31000 34.38400 25.27900
H  42.25700 34.59700 26.67000
H  39.79100 40.25200 22.57500
H  40.63200 43.07500 22.57000
H  41.57500 40.59300 21.02700
H  42.63000 40.26100 22.46600
H  42.36100 41.89800 21.91700
H  38.66500 42.03600 21.36300
H  38.24900 43.40700 22.33200
H  37.80200 41.04100 24.00900
H  37.01100 40.87800 22.38200
H  36.58100 42.14900 23.40500
H  38.71300 46.57300 25.24500
H  39.77700 47.47100 26.37100
H  38.14100 47.27600 26.85300
H  38.54000 44.66300 31.28200
H  41.76600 46.48000 33.59100
H  41.27900 45.10100 34.53200
H  40.36500 46.65300 34.66700

