158

Mg 40.43800 8.24800 29.01000
C  42.19000 9.71800 31.73600
C  38.05300 7.16500 31.06100
C  39.09700 6.64200 26.43400
C  43.18400 9.14300 26.90200
N  40.17900 8.41300 31.21500
C  40.91500 9.11700 32.10600
C  40.25000 9.08900 33.52000
C  39.06500 8.10100 33.22900
C  39.07100 7.84200 31.75000
C  39.10400 6.79200 34.07900
C  39.84800 10.51700 34.09200
C  39.61600 10.45100 35.62700
H  40.83200 10.53700 36.56500
N  38.73500 7.26200 28.75000
C  37.82000 6.92000 29.69300
C  36.72100 6.19800 29.11000
C  36.93200 6.18700 27.71200
C  38.31100 6.60000 27.63100
C  35.55700 5.57300 29.94800
C  36.02800 5.61300 26.63600
O  36.32700 5.51700 25.47500
C  34.70100 5.11100 27.08300
N  41.16000 7.76100 26.97700
C  40.34500 7.11500 26.08300
C  40.84100 7.16300 24.64400
C  42.02200 8.22400 24.86300
C  42.15100 8.42100 26.37600
C  41.36700 5.85600 24.01200
C  41.88500 9.56900 24.09000
C  40.87700 10.71300 24.42000
N  42.36000 9.05500 29.20600
C  43.31600 9.35800 28.22400
C  44.43300 9.96400 28.87800
C  44.05900 10.19900 30.17500
C  42.75000 9.61100 30.39500
C  45.70500 10.38600 28.18700
C  44.50800 10.79400 31.46400
O  45.50400 11.42400 31.78500
C  43.24600 10.45000 32.50300
C  43.78900 9.70300 33.74900
O  43.69300 8.51800 33.97900
O  44.43500 10.55500 34.59200
C  45.28600 10.06700 35.67800
H  37.23700 6.83200 31.70500
H  38.60300 6.20800 25.56200
H  44.14400 9.33600 26.41900
H  40.89100 8.62700 34.27200
H  38.13300 8.50000 33.62900
H  38.29500 6.50000 34.74900
H  39.99300 6.86500 34.70500
H  39.20600 5.96400 33.37700
H  38.85100 10.76000 33.72300
H  40.47600 11.38100 33.87300
H  39.11400 9.51900 35.88700
H  38.91100 11.27400 35.74200
H  35.70300 5.73700 31.01600
H  35.58800 4.50300 29.74000
H  34.61900 6.06900 29.70100
H  34.80100 4.19000 27.65700
H  34.11100 4.77700 26.22900
H  34.23100 5.97800 27.54600
H  40.01200 7.58300 24.07400
H  42.98900 7.89600 24.48100
H  42.24400 6.08200 23.40600
H  40.58400 5.29600 23.50000
H  41.67900 5.30600 24.90000
H  41.86600 9.23900 23.05100
H  42.90200 9.94700 23.99400
H  40.49000 10.53300 25.42300
H  40.08000 10.91600 23.70600
H  41.39300 11.67300 24.40400
H  46.32600 11.02000 28.82000
H  45.39200 10.98500 27.33100
H  46.39700 9.62600 27.82400
H  42.67000 11.37100 32.58800
H  45.98300 10.81600 36.05300
H  45.83400 9.24700 35.21400
H  44.59700 9.70200 36.43900
Mg 47.73700 15.09000 27.23900
C  45.79900 15.23500 30.01500
C  49.94800 17.29000 28.62200
C  49.25300 15.33100 24.23600
C  45.09700 13.33300 25.60100
N  47.87800 16.21500 29.12400
C  47.05000 15.90100 30.12600
C  47.50100 16.55500 31.43300
C  48.83100 17.33600 31.00200
C  48.86700 17.06200 29.51500
C  48.94500 18.79800 31.45300
C  47.77600 15.44100 32.53100
C  47.24900 15.82300 33.93700
H  46.95600 17.26500 34.37000
N  49.38800 16.05200 26.63300
C  50.19000 16.90600 27.34400
C  51.37000 17.33900 26.57500
C  51.17600 16.61300 25.30200
C  49.88200 15.95200 25.31000
C  52.48800 18.22200 27.08900
C  52.03700 16.64600 24.11600
O  51.81700 16.13700 23.02900
C  53.30000 17.42800 24.16800
N  47.31700 14.29900 25.29700
C  48.08000 14.57100 24.21400
C  47.53200 13.88700 22.95200
C  46.25300 13.13700 23.36100
C  46.22500 13.54100 24.86200
C  47.23500 14.85900 21.76600
C  46.21900 11.65000 22.99100
C  46.69200 10.64600 24.16700
N  45.78800 14.41700 27.68100
C  44.87100 13.63900 26.95400
C  43.67700 13.47600 27.76200
C  44.03000 14.01400 29.01100
C  45.30000 14.58400 28.89700
C  42.32100 12.93300 27.37500
C  43.57800 14.21100 30.41700
O  42.51900 14.04600 30.92100
C  44.74400 14.94000 31.14200
C  44.16500 16.13500 31.79800
O  44.33800 17.29000 31.43400
O  43.48400 15.79900 32.96200
C  42.68900 16.82400 33.62200
H  50.67300 17.88900 29.17600
H  49.66400 15.38300 23.22500
H  44.28000 12.80900 25.10000
H  46.80600 17.33500 31.74400
H  49.67900 16.80000 31.42700
H  48.82800 19.35700 30.52500
H  49.98400 18.92600 31.75700
H  48.17200 19.20200 32.10700
H  48.84900 15.29000 32.65000
H  47.33000 14.51200 32.17700
H  47.89100 15.49400 34.75500
H  46.31700 15.30200 34.15400
H  52.21600 18.65300 28.05200
H  52.79500 19.04400 26.44200
H  53.30400 17.55200 27.35900
H  53.89000 17.38000 25.08300
H  53.08900 18.41200 23.75000
H  53.94900 17.00400 23.40100
H  48.30500 13.14500 22.75600
H  45.43800 13.66700 22.86700
H  46.19500 14.90600 21.44400
H  47.90800 14.50200 20.98700
H  47.55000 15.87500 22.00600
H  46.69600 11.32900 22.06500
H  45.14800 11.45700 22.91900
H  47.24700 9.81700 23.72600
H  45.84400 10.22300 24.70500
H  47.35600 11.05300 24.92900
H  42.21400 12.92800 26.29100
H  41.60200 13.65800 27.75700
H  42.18300 11.88800 27.65300
H  45.19100 14.27800 31.88300
H  43.00000 17.86600 33.54700
H  42.54400 16.53900 34.66400
H  41.71800 16.79600 33.12800

