158

Mg 6.45100 55.13500 39.32500
C  5.81000 51.71500 39.10500
C  9.75900 54.52000 38.43900
C  6.79400 58.44600 38.83000
C  2.97400 55.63900 39.58300
N  7.71100 53.32800 38.96900
C  7.17000 52.00800 38.88200
C  8.36000 51.02300 38.58900
C  9.63900 51.89200 38.64400
C  9.05300 53.33600 38.78400
C  10.69900 51.47400 39.83200
C  8.05900 50.29300 37.20300
C  7.69200 51.26100 36.03800
H  6.70900 50.75700 34.94400
N  8.00500 56.29500 38.79900
C  9.29700 55.89400 38.40400
C  10.12900 56.99300 38.20400
C  9.24900 58.21800 38.33600
C  7.92700 57.67500 38.61900
C  11.55800 56.90400 37.91600
C  9.76100 59.65400 38.18800
O  10.96200 59.93100 38.01400
C  8.77900 60.84400 38.40500
N  5.04200 56.83500 39.34000
C  5.45300 58.07300 39.09900
C  4.38600 59.14900 39.28900
C  3.10700 58.21200 39.43800
C  3.71800 56.82900 39.43600
C  4.64400 60.04100 40.60300
C  2.03100 58.46600 38.38300
C  1.32300 59.82800 38.49500
N  4.71800 53.95200 39.48500
C  3.42100 54.30500 39.66000
C  2.55200 53.09300 39.91600
C  3.53000 52.06000 39.73900
C  4.77600 52.63200 39.38600
C  0.98300 53.05700 40.07300
C  3.75900 50.68900 39.82500
O  3.04000 49.78400 40.20000
C  5.14100 50.40700 39.28400
C  4.94000 49.50300 38.15900
O  4.55400 49.90400 37.07400
O  5.38800 48.19400 38.44400
C  5.10900 47.26300 37.35900
H  10.79300 54.35400 38.12700
H  6.87500 59.53400 38.78000
H  1.89900 55.81300 39.66600
H  8.28500 50.23200 39.33500
H  10.13200 51.79400 37.67700
H  10.21700 50.94700 40.65600
H  11.09500 52.42000 40.20100
H  11.40300 50.92500 39.20700
H  7.25200 49.57800 37.36200
H  8.99500 49.78800 36.96200
H  8.63100 51.54500 35.56400
H  7.23700 52.18900 36.38300
H  11.58000 56.20800 37.07800
H  12.04400 56.50600 38.80700
H  12.01900 57.80600 37.51500
H  9.38700 61.70100 38.11600
H  8.41400 61.02300 39.41600
H  8.06100 60.64700 37.60900
H  4.29700 59.79900 38.41900
H  2.72600 58.33900 40.45100
H  5.63100 59.76300 40.97400
H  3.88700 59.96000 41.38300
H  4.61100 61.08900 40.30600
H  1.18100 57.78700 38.31200
H  2.60400 58.48500 37.45600
H  1.84300 60.42900 39.24200
H  0.30800 59.58800 38.81000
H  1.16000 60.29000 37.52100
H  0.90300 51.97300 40.15200
H  0.49600 53.53500 39.22300
H  0.63000 53.59200 40.95500
H  5.61200 49.90100 40.12600
H  4.03900 47.10500 37.22400
H  5.59900 46.31000 37.56300
H  5.62500 47.54700 36.44200
Mg -12.12500 16.27100 42.43900
C  -9.29300 14.32500 42.30700
C  -10.50300 18.88900 40.92700
C  -15.04000 17.82500 42.19300
C  -13.91400 13.40000 43.63700
N  -10.17800 16.47400 41.58200
C  -9.12000 15.61900 41.70500
C  -7.94400 16.04400 40.97700
C  -8.26300 17.55700 40.69400
C  -9.79400 17.64400 40.99700
C  -7.41600 18.68200 41.33100
C  -7.79300 15.20400 39.65600
C  -6.44100 14.67100 39.23200
H  -5.93200 15.04000 37.82400
N  -12.71900 18.10800 41.71800
C  -11.93200 19.03900 41.16200
C  -12.70300 20.24800 40.82300
C  -14.03600 19.95600 41.28900
C  -13.99900 18.54400 41.75600
C  -12.09600 21.46500 40.17700
C  -15.23600 20.89900 41.17800
O  -15.04700 21.99100 40.68700
C  -16.55000 20.47900 41.57700
N  -14.25300 15.59300 42.74900
C  -15.24500 16.51300 42.65800
C  -16.53200 15.92400 43.19000
C  -16.21200 14.44800 43.64200
C  -14.77000 14.43800 43.28200
C  -17.18700 16.78700 44.33100
C  -17.05600 13.30300 43.02200
C  -17.37500 12.10600 43.91300
N  -11.70400 14.24800 42.90800
C  -12.50800 13.28200 43.43200
C  -11.73500 12.09100 43.72300
C  -10.43200 12.47500 43.32900
C  -10.53100 13.76800 42.79700
C  -12.29000 10.84700 44.29400
C  -9.06100 11.92800 43.15700
O  -8.49800 10.87200 43.34800
C  -8.33600 13.15800 42.48200
C  -7.14400 13.50700 43.28000
O  -7.17300 13.90100 44.43500
O  -6.04600 13.40900 42.45400
C  -4.74700 13.91600 42.98400
H  -9.99800 19.69400 40.38900
H  -16.02500 18.27400 42.05400
H  -14.44700 12.53900 44.04600
H  -7.01000 16.01200 41.53700
H  -8.26000 17.78600 39.62800
H  -8.07900 19.18700 42.03400
H  -6.96800 19.31900 40.56900
H  -6.53500 18.28000 41.83100
H  -8.11300 15.79700 38.79900
H  -8.48600 14.36600 39.58100
H  -6.40500 13.59000 39.37100
H  -5.63600 15.06500 39.85300
H  -12.80700 21.91800 39.48500
H  -11.11600 21.28800 39.73300
H  -11.89500 22.30600 40.84100
H  -16.44200 20.28300 42.64400
H  -16.93900 19.71900 40.89900
H  -17.28400 21.26400 41.39700
H  -17.27300 15.87800 42.39200
H  -16.20500 14.33000 44.72600
H  -18.16400 17.09500 43.96100
H  -16.51600 17.63900 44.44700
H  -17.40200 16.14400 45.18400
H  -16.66200 13.02000 42.04600
H  -17.96000 13.89200 42.86600
H  -18.43200 12.22200 44.15000
H  -16.82000 12.12200 44.85100
H  -17.16200 11.23700 43.29100
H  -12.25900 11.10700 45.35200
H  -11.73400 9.96100 43.98600
H  -13.32100 10.77200 43.94800
H  -7.98100 12.73000 41.54500
H  -4.77300 14.93300 43.37700
H  -4.05500 13.88700 42.14200
H  -4.36300 13.26900 43.77200

