158

Mg 49.28800 34.61900 26.10100
C  47.00000 33.87000 28.78400
C  49.72800 37.62400 27.67900
C  50.93200 35.46200 23.61000
C  47.99900 31.74500 24.46200
N  48.71500 35.49400 28.17900
C  47.72800 34.96700 29.08500
C  47.60000 35.98800 30.19400
C  48.29900 37.29900 29.69400
C  48.95900 36.75200 28.46200
C  47.33500 38.54600 29.42900
C  48.12100 35.33200 31.51000
C  47.19900 35.50600 32.74300
H  47.41500 36.66400 33.76200
N  50.37000 36.24700 25.66600
C  50.44400 37.46200 26.44100
C  51.30400 38.40500 25.82800
C  51.69200 37.76700 24.61200
C  51.03100 36.45700 24.56000
C  51.63000 39.81100 26.33700
C  52.60600 38.26500 23.50000
O  52.76700 37.65800 22.41700
C  53.40600 39.50200 23.59500
N  49.22200 33.75600 24.20700
C  50.19300 34.28200 23.35400
C  50.55400 33.30800 22.17000
C  49.70400 32.11000 22.56800
C  48.81200 32.57300 23.74100
C  50.40400 33.84900 20.68700
C  50.48500 30.73700 22.83000
C  50.28900 29.59700 21.81600
N  47.76000 33.05900 26.56600
C  47.33700 32.00100 25.76300
C  46.53600 31.18700 26.59900
C  46.21300 32.01500 27.68500
C  47.03200 33.12400 27.63000
C  46.00600 29.85800 26.22400
C  45.37900 32.10600 28.83800
O  44.53000 31.34500 29.31900
C  45.79900 33.41800 29.56800
C  45.92300 32.97700 30.93300
O  46.80600 32.27500 31.34700
O  44.78600 33.23700 31.61900
C  44.73000 32.59800 32.94200
H  49.94600 38.59300 28.13200
H  51.52500 35.68700 22.72100
H  47.91400 30.71000 24.12700
H  46.53000 36.09700 30.37400
H  49.02900 37.54500 30.46500
H  46.36000 38.41300 29.89900
H  47.11900 38.59800 28.36200
H  47.70200 39.43300 29.94500
H  49.00200 35.93800 31.72000
H  48.28000 34.26600 31.34400
H  47.30300 34.58000 33.30700
H  46.17100 35.56800 32.38400
H  51.68500 40.40200 25.42300
H  52.58500 39.72100 26.85500
H  50.86000 40.15900 27.02500
H  54.18000 39.54900 22.82800
H  53.84200 39.64900 24.58300
H  52.76800 40.36300 23.39800
H  51.60800 33.11300 22.36500
H  49.06300 31.88600 21.71500
H  51.31900 33.76100 20.10200
H  50.09100 34.89200 20.74100
H  49.59000 33.36200 20.15000
H  50.19000 30.48900 23.85000
H  51.55500 30.91200 22.72000
H  49.79400 29.83100 20.87400
H  49.63000 28.88000 22.30500
H  51.26900 29.17800 21.58800
H  45.31900 29.30500 26.86500
H  46.89600 29.22900 26.19500
H  45.69100 29.86500 25.18100
H  45.02800 34.18800 29.58800
H  45.39900 33.20100 33.55700
H  45.03600 31.55400 32.88900
H  43.70500 32.65000 33.30800
Mg 0.26800 43.57300 25.26400
C  2.37100 43.15400 28.20700
C  -2.44400 42.79900 27.29500
C  -1.52200 43.56100 22.51900
C  3.22300 43.96600 23.41700
N  0.04200 42.84100 27.55600
C  0.99400 42.96300 28.50000
C  0.37600 42.79700 29.89100
C  -1.13800 42.51500 29.52200
C  -1.18200 42.70900 28.01700
C  -1.74200 41.09600 29.73100
C  0.58500 43.98300 30.82400
C  0.83900 43.72000 32.29400
H  0.60100 42.34700 32.99200
N  -1.70800 43.22500 24.95200
C  -2.70700 43.00000 25.90400
C  -4.01700 43.06000 25.20000
C  -3.73100 43.27100 23.78200
C  -2.25800 43.36500 23.68900
C  -5.33500 43.01900 25.90100
C  -4.67400 43.32700 22.67700
O  -4.27500 43.27400 21.55700
C  -6.17600 43.27800 22.91100
N  0.75200 43.74700 23.29500
C  -0.15900 43.78700 22.31600
C  0.48700 43.88500 20.96800
C  1.89500 44.32700 21.28200
C  1.97500 43.93400 22.77800
C  0.36100 42.51000 20.14400
C  2.11300 45.79300 21.05100
C  3.36600 46.29000 20.21200
N  2.38600 43.46100 25.64300
C  3.40800 43.76800 24.81200
C  4.66200 43.92200 25.57800
C  4.27800 43.64100 26.88200
C  2.90100 43.38900 26.89400
C  5.97800 44.19100 24.99100
C  4.84300 43.54300 28.17200
O  5.95200 43.81800 28.65500
C  3.56100 43.31100 29.14400
C  3.81200 42.04900 29.94200
O  3.59600 40.91200 29.61300
O  4.35600 42.34700 31.12500
C  4.65300 41.20700 31.97500
H  -3.29100 42.83200 27.98400
H  -2.05100 43.66000 21.56900
H  4.08300 44.36600 22.87600
H  0.77300 41.89500 30.35600
H  -1.81100 43.22300 30.00400
H  -2.77800 41.17500 30.06200
H  -1.20100 40.52200 30.48300
H  -1.85100 40.58300 28.77600
H  -0.25000 44.68200 30.85500
H  1.36200 44.63300 30.42100
H  0.41200 44.46000 32.97100
H  1.89600 43.81000 32.54300
H  -5.27100 42.82800 26.97200
H  -5.95400 42.21200 25.50800
H  -5.90800 43.94600 25.88500
H  -6.56000 42.28400 23.14100
H  -6.53900 43.64200 21.95100
H  -6.48900 44.06200 23.60100
H  -0.08100 44.55000 20.31600
H  2.64100 43.73600 20.75200
H  -0.18700 41.85700 20.82300
H  1.27700 42.02400 19.80900
H  -0.33800 42.49000 19.30700
H  2.12500 46.32200 22.00400
H  1.27000 46.22500 20.51300
H  2.96600 46.95100 19.44300
H  3.90800 45.46400 19.75200
H  4.09300 46.80800 20.83800
H  6.58000 44.67100 25.76200
H  5.94300 44.67300 24.01400
H  6.50400 43.26700 24.74900
H  3.61600 44.21600 29.74900
H  5.48200 40.59000 31.63000
H  3.82100 40.53600 32.18900
H  5.04100 41.69600 32.86800

