158

Mg 41.58100 41.02600 26.58800
C  41.21700 43.40100 29.06300
C  42.57000 38.74300 29.04700
C  42.79600 39.01300 24.17000
C  40.97200 43.43700 24.15900
N  41.87500 41.10300 28.82800
C  41.49400 42.15900 29.58500
C  41.50500 41.82700 31.03600
C  42.11200 40.39200 31.05000
C  42.18700 40.00500 29.53900
C  43.40600 40.27000 31.90500
C  40.23200 42.04000 31.83400
C  40.10800 41.28700 33.25200
H  39.25100 42.00500 34.36100
N  42.36300 39.13800 26.55300
C  42.62800 38.39300 27.67700
C  43.04700 37.02600 27.26800
C  43.27700 37.09900 25.79500
C  42.83700 38.46500 25.45800
C  43.38900 35.95200 28.21700
C  43.80000 36.09000 24.79100
O  43.88900 36.34600 23.55100
C  44.41000 34.72500 25.28400
N  41.76300 41.17300 24.49400
C  42.26600 40.20600 23.72700
C  42.23000 40.68600 22.20900
C  41.38900 41.92600 22.26100
C  41.41700 42.26100 23.70200
C  43.67400 40.83400 21.63200
C  39.91400 41.79000 21.81200
C  38.87700 41.34600 22.86300
N  41.21100 43.09500 26.56600
C  41.00200 43.91400 25.47800
C  40.81600 45.25300 25.99800
C  40.81500 45.13200 27.35100
C  41.06500 43.77300 27.66800
C  40.54200 46.45800 25.26400
C  40.63700 45.82900 28.68200
O  40.48900 47.04100 28.92400
C  40.89000 44.73900 29.77900
C  42.04400 45.19000 30.68200
O  43.14000 45.50000 30.38900
O  41.52200 45.32200 31.89900
C  42.50100 45.72700 32.94000
H  42.85100 38.09600 29.88100
H  43.42900 38.56500 23.40100
H  40.76900 44.19200 23.39700
H  42.22900 42.53400 31.44000
H  41.45100 39.68900 31.55800
H  44.21200 39.66500 31.48900
H  43.20800 39.85400 32.89200
H  43.83600 41.25700 32.07500
H  39.43800 41.72100 31.15700
H  40.20000 43.12900 31.86200
H  41.10700 41.09200 33.64200
H  39.51700 40.37500 33.16800
H  42.75500 35.15900 27.81900
H  43.02400 36.09500 29.23400
H  44.45600 35.73900 28.15000
H  44.90300 34.21800 24.45400
H  43.73900 34.04400 25.80700
H  45.25600 34.91900 25.94300
H  41.77700 39.83700 21.69700
H  41.81300 42.78400 21.74000
H  44.32400 40.06600 22.05100
H  44.05300 41.83300 21.84700
H  43.65600 40.75300 20.54500
H  39.93400 41.13700 20.94000
H  39.64200 42.79000 21.47200
H  39.28400 41.29300 23.87300
H  38.43300 40.39900 22.55500
H  38.06300 42.07000 22.83300
H  40.73400 46.33900 24.19700
H  41.19700 47.26600 25.59100
H  39.59900 46.95400 25.49300
H  39.98700 44.70400 30.38900
H  43.40000 45.12100 33.06000
H  42.12600 45.43300 33.92100
H  42.82100 46.76700 32.88000
Mg -5.92100 25.41900 25.84300
C  -4.09300 26.94200 28.44300
C  -7.02800 23.13300 28.12800
C  -7.07900 23.71100 23.30000
C  -3.97100 27.53900 23.62200
N  -5.51500 25.08400 28.04200
C  -4.89900 25.90800 28.86900
C  -5.18500 25.58800 30.33800
C  -5.84100 24.16500 30.13700
C  -6.21500 24.11300 28.68400
C  -4.99000 22.93600 30.69800
C  -6.14000 26.54400 30.99500
C  -6.12900 26.74800 32.57900
H  -5.73900 25.48200 33.45600
N  -6.99900 23.69300 25.74900
C  -7.49000 22.94800 26.77900
C  -8.44200 21.96500 26.25100
C  -8.49300 22.19300 24.85800
C  -7.48700 23.22300 24.57700
C  -9.19400 20.98700 27.17400
C  -9.26500 21.34400 23.87500
O  -9.10000 21.51900 22.65100
C  -10.16300 20.20600 24.26000
N  -5.56700 25.59100 23.84400
C  -6.21500 24.76300 23.01600
C  -5.70900 24.96100 21.53900
C  -4.86200 26.25000 21.62500
C  -4.75400 26.45800 23.11900
C  -5.00500 23.71500 20.94200
C  -5.54600 27.47500 20.88000
C  -5.71500 27.27600 19.32000
N  -4.33900 26.94400 25.93600
C  -3.74100 27.70000 25.02600
C  -2.95400 28.68700 25.61000
C  -3.03600 28.43900 27.01200
C  -3.87900 27.35700 27.07800
C  -2.16600 29.85900 24.99700
C  -2.57100 28.91300 28.26900
O  -1.87500 29.90200 28.63200
C  -3.31700 27.93400 29.29800
C  -2.35000 27.30300 30.19200
O  -1.34200 26.75000 29.82400
O  -2.71700 27.44700 31.51600
C  -1.75600 26.90700 32.47800
H  -7.44100 22.47900 28.90000
H  -7.49500 23.32700 22.36600
H  -3.59700 28.33700 22.97700
H  -4.22500 25.46100 30.83700
H  -6.75000 24.12900 30.73700
H  -5.37900 22.61900 31.66500
H  -4.00600 23.37200 30.86700
H  -4.98000 22.13600 29.95800
H  -7.17100 26.29300 30.74400
H  -5.88500 27.54700 30.65200
H  -7.10100 27.13800 32.88100
H  -5.38900 27.52600 32.76700
H  -8.84800 20.00400 26.85400
H  -10.26500 21.05300 26.97900
H  -8.94900 21.27900 28.19500
H  -10.99500 20.55400 24.87200
H  -9.66700 19.48800 24.91300
H  -10.51900 19.74700 23.33700
H  -6.66400 25.12200 21.03900
H  -3.86300 26.07300 21.22600
H  -5.66600 23.19700 20.24800
H  -4.64900 23.04600 21.72500
H  -4.08000 23.94100 20.41100
H  -5.00100 28.37300 21.17100
H  -6.56100 27.65500 21.23300
H  -5.47900 28.15800 18.72400
H  -6.71600 27.11000 18.92100
H  -5.13200 26.42900 18.96000
H  -2.33200 29.96400 23.92400
H  -1.07800 29.87600 25.06100
H  -2.47300 30.77200 25.50700
H  -3.93700 28.59000 29.90800
H  -0.76300 27.26200 32.20400
H  -1.99900 25.84400 32.49400
H  -1.92400 27.28900 33.48500

