158

Mg 35.64900 1.26400 29.36300
C  33.47300 2.44800 31.80400
C  38.26300 1.43700 31.50700
C  37.58500 0.44900 26.77000
C  32.97300 1.85400 26.99900
N  35.82800 1.95300 31.44700
C  34.76300 2.11800 32.27300
C  35.27600 2.19200 33.78100
C  36.86100 2.14000 33.61800
C  37.03200 1.86200 32.08100
C  37.64400 3.42800 34.08500
C  34.66300 1.09100 34.67700
C  34.45500 1.58000 36.14200
H  35.30700 2.67000 36.78500
N  37.64200 0.87200 29.21300
C  38.57200 0.89100 30.25000
C  39.92100 0.46100 29.73100
C  39.74200 0.19200 28.29400
C  38.26300 0.50700 28.04800
C  41.14900 0.59000 30.54300
C  40.87700 -0.12200 27.20100
O  40.74700 0.08400 25.97000
C  42.16900 -0.63000 27.77000
N  35.31000 1.11600 27.18300
C  36.31300 0.68600 26.37900
C  35.85600 0.67100 24.89900
C  34.29100 0.93300 25.06100
C  34.13700 1.38800 26.48000
C  36.64000 1.58700 23.91900
C  33.40000 -0.20800 24.50900
C  32.30900 0.24300 23.53200
N  33.66200 1.97300 29.32900
C  32.71600 2.10800 28.35100
C  31.42800 2.51600 28.85800
C  31.64100 2.68400 30.22900
C  33.02700 2.36000 30.48300
C  30.19100 2.70800 27.98900
C  31.07800 3.05500 31.48800
O  29.97900 3.41500 31.84200
C  32.26500 2.97300 32.53200
C  32.46000 4.32100 33.02400
O  33.51000 5.01400 32.71600
O  31.46900 4.67400 33.91300
C  31.74300 5.89600 34.64600
H  39.08700 1.48900 32.22300
H  38.25400 0.16200 25.95600
H  32.29600 2.20300 26.21600
H  34.99400 3.17900 34.14800
H  37.39900 1.39000 34.19700
H  37.83500 3.96000 33.15300
H  38.62200 3.25200 34.53400
H  37.02400 3.91600 34.83600
H  35.32100 0.22700 34.76800
H  33.72200 0.79900 34.21100
H  34.63200 0.72000 36.78800
H  33.41200 1.87200 36.26300
H  41.37800 -0.45600 30.74600
H  41.03700 1.17600 31.45500
H  41.88800 1.01200 29.86200
H  42.75300 0.20300 28.16200
H  42.75000 -1.03400 26.94100
H  41.96900 -1.51700 28.37000
H  36.00300 -0.34700 24.53800
H  33.99700 1.86300 24.57500
H  37.45300 2.16400 24.36100
H  36.05800 2.25700 23.28700
H  37.19500 0.96800 23.21500
H  33.03300 -0.75500 25.37800
H  34.01200 -0.88600 23.91400
H  31.38500 -0.27200 23.79700
H  32.49800 0.01000 22.48400
H  32.18100 1.31400 23.68500
H  29.90000 3.74000 27.79300
H  29.37000 2.20400 28.49900
H  30.30100 2.12100 27.07800
H  32.00800 2.40000 33.42300
H  31.38500 6.74200 34.06100
H  32.78700 5.94000 34.95800
H  31.10800 5.88200 35.53100
Mg -10.94100 39.94800 41.46200
C  -9.96400 36.66000 40.71500
C  -7.82900 41.08800 40.34700
C  -12.20900 43.05600 41.28500
C  -14.29900 38.72400 41.66100
N  -9.16900 38.93900 40.67000
C  -8.95700 37.55500 40.46300
C  -7.58100 37.31700 39.82800
C  -6.82900 38.68700 40.04300
C  -8.01000 39.63400 40.38200
C  -5.71000 38.80300 41.14000
C  -7.63900 36.78100 38.32400
C  -6.59600 35.72100 37.88200
H  -5.65200 36.18600 36.79900
N  -10.04700 41.83300 40.93000
C  -8.75600 42.12700 40.54800
C  -8.69300 43.55300 40.27400
C  -9.96100 44.11600 40.48500
C  -10.81600 42.97600 40.93000
C  -7.40600 44.24500 39.67300
C  -10.31400 45.53100 40.21100
O  -9.49300 46.28100 39.76300
C  -11.78300 45.95900 40.25700
N  -13.05900 40.73700 41.62000
C  -13.20200 42.12200 41.54800
C  -14.75100 42.44000 41.63400
C  -15.38900 41.06400 41.73700
C  -14.24300 40.09400 41.66000
C  -15.24900 43.60600 42.67600
C  -16.56900 40.73900 40.81400
C  -17.96800 40.66600 41.45900
N  -11.84400 38.11900 41.58000
C  -13.17700 37.80700 41.67700
C  -13.37400 36.43000 41.72800
C  -12.10300 35.87300 41.43200
C  -11.20400 36.97200 41.23500
C  -14.56300 35.74300 42.01000
C  -11.33400 34.71600 41.18300
O  -11.69000 33.53500 41.27800
C  -9.96800 35.17300 40.71800
C  -8.91000 34.64900 41.58800
O  -8.68900 34.87200 42.80700
O  -8.06500 33.91000 40.85200
C  -6.72300 33.69800 41.36500
H  -6.81800 41.36700 40.04600
H  -12.63400 44.05600 41.40200
H  -15.31100 38.31600 41.65100
H  -7.03100 36.55900 40.38700
H  -6.45400 38.97400 39.06000
H  -4.90500 39.44600 40.78700
H  -5.28100 37.80500 41.22900
H  -5.99000 39.08200 42.15600
H  -7.44100 37.63000 37.67000
H  -8.59400 36.34700 38.02700
H  -7.18100 34.88700 37.49400
H  -6.01700 35.34600 38.72600
H  -6.77600 43.40900 39.36800
H  -6.95300 44.82400 40.47700
H  -7.59400 44.90500 38.82600
H  -12.08700 46.09600 41.29500
H  -12.41800 45.25200 39.72300
H  -11.79600 46.93900 39.77900
H  -14.94700 42.81300 40.62900
H  -15.58000 40.90100 42.79800
H  -15.73800 43.07900 43.49600
H  -15.89800 44.23200 42.06400
H  -14.42400 44.05300 43.23000
H  -16.44100 39.80700 40.26400
H  -16.69200 41.54500 40.09000
H  -18.22500 39.60800 41.51300
H  -18.76700 41.28900 41.05600
H  -17.89100 40.97800 42.50100
H  -15.02600 36.24200 42.86100
H  -14.46100 34.69400 42.28600
H  -15.19100 35.82700 41.12300
H  -9.90300 34.74400 39.71800
H  -5.95000 34.35700 40.96800
H  -6.34900 32.74200 40.99800
H  -6.53300 33.62500 42.43600

