158

Mg 45.10500 4.55200 47.97700
C  43.10900 7.23000 47.44500
C  42.36100 2.45800 47.75100
C  47.25900 1.69800 47.69900
C  47.93200 6.59900 47.67000
N  43.01400 4.80200 47.39800
C  42.40700 6.01800 47.31100
C  40.91500 5.87500 47.05400
C  40.57500 4.36600 47.37700
C  42.03800 3.81400 47.56300
C  39.67200 4.10400 48.59700
C  40.63700 6.29100 45.59100
C  39.27100 6.90400 45.30600
H  38.62500 6.24400 44.05200
N  44.86300 2.31200 47.81600
C  43.64000 1.68000 47.82100
C  43.85800 0.29000 47.80200
C  45.25300 0.03500 47.86300
C  45.85300 1.37400 47.81800
C  42.69800 -0.71700 47.75100
C  45.88600 -1.31200 47.99700
O  45.17200 -2.31100 48.03800
C  47.37100 -1.48200 48.00500
N  47.31600 4.23400 47.80300
C  47.88700 2.97900 47.74700
C  49.43400 3.11600 47.62500
C  49.63900 4.61100 47.90500
C  48.22000 5.23900 47.77900
C  50.40400 2.23000 48.43300
C  50.65000 5.32600 46.92000
C  51.84600 6.11800 47.59800
N  45.53600 6.55700 47.89400
C  46.70000 7.25500 47.67200
C  46.46200 8.68300 47.58300
C  45.06200 8.72600 47.55200
C  44.51300 7.36900 47.61800
C  47.39200 9.86000 47.44500
C  43.88100 9.60800 47.38900
O  43.84900 10.82000 47.07400
C  42.59200 8.67000 47.41800
C  41.79000 8.93700 48.64300
O  42.11700 8.65200 49.79900
O  40.64800 9.60900 48.31800
C  39.70700 9.87900 49.45000
H  41.48400 1.81400 47.65900
H  47.90300 0.84000 47.49300
H  48.73800 7.33100 47.75000
H  40.34400 6.58200 47.65600
H  40.26300 3.73400 46.54600
H  38.82400 3.47000 48.33600
H  39.41900 5.11800 48.90500
H  40.24000 3.56500 49.35600
H  40.57400 5.36500 45.01900
H  41.40200 7.00500 45.28800
H  39.40500 7.98200 45.22500
H  38.55500 6.68300 46.09800
H  42.41500 -1.15200 48.70900
H  43.07200 -1.46800 47.05500
H  41.79200 -0.40400 47.23000
H  47.93000 -1.15800 47.12700
H  47.41900 -2.54900 48.22400
H  47.83600 -1.02200 48.87700
H  49.59600 2.91600 46.56600
H  49.87400 4.76100 48.95900
H  49.81400 1.47300 48.95000
H  51.03500 2.82700 49.09200
H  50.98300 1.72600 47.65900
H  50.07400 5.91300 46.20400
H  51.11100 4.59900 46.25100
H  52.69400 5.50300 47.29800
H  51.71800 6.26700 48.67000
H  51.95100 7.09700 47.13000
H  46.79500 10.71700 47.75700
H  47.69600 9.84100 46.39900
H  48.26600 9.81600 48.09500
H  41.99900 8.90000 46.53300
H  39.81500 10.89100 49.84000
H  39.75200 9.12100 50.23200
H  38.68300 9.86000 49.07700
Mg 9.00700 48.79600 25.89200
C  6.91400 49.02800 28.64500
C  11.74200 49.79400 27.96600
C  11.15200 48.33000 23.35600
C  6.35100 48.23600 23.84900
N  9.30600 49.40500 28.05400
C  8.31800 49.20800 29.02000
C  8.95400 49.46200 30.44200
C  10.40100 50.06500 30.10500
C  10.51800 49.75900 28.61300
C  10.67000 51.57500 30.49000
C  9.11800 48.24100 31.43400
C  8.80700 48.50500 32.86800
H  8.58500 47.28800 33.66800
N  11.12100 49.02400 25.63400
C  12.02900 49.47200 26.63600
C  13.40100 49.43300 26.06200
C  13.27800 48.95500 24.72600
C  11.81100 48.73500 24.49100
C  14.66900 49.81700 26.80300
C  14.37900 48.72200 23.70000
O  14.10300 48.20600 22.63400
C  15.89100 49.03400 24.00500
N  8.75900 48.63000 23.80800
C  9.73100 48.26000 23.03800
C  9.24300 47.80200 21.62600
C  7.68300 47.84900 21.75900
C  7.59500 48.27900 23.22700
C  9.83000 48.77900 20.46600
C  6.95300 46.50800 21.48000
C  5.64500 46.72800 20.70900
N  7.05800 48.65200 26.08700
C  6.04500 48.44500 25.16900
C  4.75700 48.40900 25.80400
C  5.03400 48.70400 27.23200
C  6.43400 48.77500 27.31500
C  3.52600 48.09000 25.08700
C  4.45900 48.89400 28.54900
O  3.28400 48.78400 28.98000
C  5.68900 49.10900 29.50400
C  5.58600 48.06200 30.52600
O  5.76800 46.88700 30.43800
O  5.23300 48.76600 31.74800
C  4.91400 47.98900 32.94200
H  12.47200 50.12400 28.70800
H  11.87500 48.05200 22.58600
H  5.46700 48.11400 23.21900
H  8.38700 50.19000 31.02300
H  11.25200 49.62200 30.62200
H  11.16100 51.68100 31.45700
H  9.66200 51.94300 30.67900
H  11.09600 52.18600 29.69400
H  10.12600 47.84000 31.54100
H  8.54900 47.39300 31.05200
H  7.89900 49.09900 32.97600
H  9.58700 49.11100 33.33000
H  15.25400 48.91800 26.99400
H  14.45600 50.33300 27.74000
H  15.19400 50.58000 26.22800
H  16.41700 49.02500 23.05100
H  16.30400 48.32300 24.72100
H  15.93700 50.03400 24.43700
H  9.70700 46.81800 21.56700
H  7.12000 48.54500 21.13700
H  9.35400 49.74600 20.62400
H  9.69800 48.33300 19.48000
H  10.90800 48.84800 20.61500
H  6.81300 45.82500 22.31800
H  7.59600 45.83200 20.91600
H  5.77900 46.05900 19.85900
H  5.56600 47.75900 20.36400
H  4.75300 46.47400 21.28200
H  3.21500 48.91000 24.43900
H  2.94400 47.77400 25.95300
H  3.73400 47.26700 24.40300
H  5.49700 50.10000 29.91600
H  5.83700 47.47900 33.21800
H  4.15400 47.25200 32.68200
H  4.52100 48.54600 33.79200

