158

Mg -11.37700 16.00100 41.29700
C  -8.17500 14.59800 41.08600
C  -10.14300 18.81600 39.73000
C  -14.52400 17.24200 41.04000
C  -12.47800 12.93000 42.34500
N  -9.42200 16.60900 40.51800
C  -8.28600 15.91100 40.52200
C  -7.11300 16.65100 39.74500
C  -7.77500 18.10700 39.51000
C  -9.22600 17.76400 39.84000
C  -7.15900 19.05800 40.52400
C  -6.74000 15.97300 38.44400
C  -5.26400 15.85700 38.00500
H  -4.87300 16.72700 36.87900
N  -12.23400 17.71500 40.38000
C  -11.52300 18.79800 39.88100
C  -12.41100 19.88700 39.52900
C  -13.73900 19.54400 39.94200
C  -13.57900 18.10500 40.46700
C  -12.00600 21.23200 39.06900
C  -15.04400 20.39100 39.90600
O  -14.95600 21.54400 39.56500
C  -16.35200 19.92400 40.40800
N  -13.29600 15.12000 41.50600
C  -14.39900 15.94100 41.57400
C  -15.64100 15.16100 42.08700
C  -14.97000 13.83300 42.65100
C  -13.52300 13.92900 42.07000
C  -16.48500 16.06900 43.11000
C  -15.69900 12.54700 42.35100
C  -16.56300 11.89200 43.46200
N  -10.52800 14.11400 41.65900
C  -11.12600 12.95900 42.12100
C  -10.12800 11.94100 42.31300
C  -8.99900 12.53000 41.87900
C  -9.26500 13.85100 41.51000
C  -10.32100 10.61600 42.83600
C  -7.56400 12.32600 41.73600
O  -6.94400 11.33100 41.88400
C  -6.91100 13.72700 41.24300
C  -5.95200 14.34600 42.18600
O  -6.21100 15.03700 43.16500
O  -4.72500 13.79600 41.90900
C  -3.63400 14.28600 42.67500
H  -9.79600 19.67300 39.14900
H  -15.55600 17.57900 41.16000
H  -12.78500 12.01600 42.85800
H  -6.18600 16.68300 40.31600
H  -7.71300 18.43100 38.47100
H  -7.98300 19.44700 41.12200
H  -6.63600 19.89400 40.05900
H  -6.54900 18.52500 41.25300
H  -7.24800 16.44200 37.60100
H  -7.07900 14.93800 38.48200
H  -4.93900 14.82400 37.88200
H  -4.63500 16.35100 38.74500
H  -11.85100 21.94500 39.87900
H  -12.70800 21.78200 38.44200
H  -11.08300 21.12700 38.50000
H  -17.11300 20.67600 40.19900
H  -16.20700 19.70400 41.46600
H  -16.65600 18.98100 39.95400
H  -16.33500 14.88800 41.29100
H  -14.81700 13.96300 43.72200
H  -17.50000 16.24000 42.75300
H  -16.10900 17.09200 43.12900
H  -16.44000 15.51200 44.04700
H  -14.93500 11.85700 41.99400
H  -16.28300 12.80500 41.46700
H  -16.22900 10.87000 43.64000
H  -17.56900 11.78000 43.05800
H  -16.47200 12.33400 44.45400
H  -11.35400 10.29300 42.70300
H  -10.23900 10.70400 43.91900
H  -9.58600 9.89200 42.48400
H  -6.39200 13.58700 40.29500
H  -3.22700 15.14200 42.13700
H  -2.93800 13.47500 42.89100
H  -3.92200 14.58700 43.68300
Mg -5.95500 25.05700 25.77100
C  -4.61900 26.82500 28.57700
C  -7.60100 22.99100 28.00800
C  -6.73400 23.23100 23.28100
C  -3.80200 26.95600 23.71700
N  -5.98100 24.89000 28.00000
C  -5.43300 25.77400 28.92300
C  -5.83300 25.40300 30.38000
C  -6.66200 24.00700 30.17100
C  -6.78400 23.99800 28.59000
C  -5.83400 22.74100 30.65300
C  -6.64900 26.55400 31.09600
C  -6.37900 26.70300 32.65000
H  -6.10500 25.55300 33.57400
N  -7.13400 23.37700 25.61600
C  -7.77900 22.68200 26.59700
C  -8.58300 21.63300 25.95700
C  -8.29600 21.68600 24.59900
C  -7.33700 22.76700 24.43000
C  -9.46500 20.77700 26.82700
C  -8.90800 20.84000 23.43000
O  -8.55000 21.01100 22.32100
C  -10.00700 19.81300 23.70600
N  -5.21400 25.04800 23.78900
C  -5.87600 24.24700 22.93300
C  -5.53200 24.56700 21.47700
C  -4.56200 25.72400 21.56900
C  -4.56100 26.02600 23.09600
C  -4.96900 23.34100 20.68900
C  -4.84400 26.91900 20.58200
C  -3.61800 27.64700 20.03700
N  -4.58900 26.64400 26.08300
C  -3.82800 27.30100 25.12900
C  -3.03500 28.30900 25.73300
C  -3.31500 28.25800 27.07600
C  -4.23800 27.16700 27.22700
C  -1.96800 29.17400 25.01400
C  -3.00600 28.70500 28.43700
O  -2.34800 29.66700 28.79200
C  -3.74900 27.75900 29.49300
C  -2.67900 26.92200 30.16700
O  -1.72400 26.47400 29.54200
O  -2.86400 26.97200 31.54300
C  -1.81800 26.22400 32.28100
H  -8.12200 22.47300 28.81600
H  -7.06100 22.70400 22.38200
H  -3.17800 27.45700 22.97500
H  -4.90700 25.27700 30.94000
H  -7.61600 24.21900 30.65400
H  -6.44900 22.10100 31.28600
H  -4.94900 22.92900 31.26000
H  -5.69100 22.07700 29.80000
H  -7.73600 26.47800 31.12400
H  -6.38600 27.43100 30.50500
H  -7.08100 27.33300 33.19500
H  -5.42400 27.22700 32.65600
H  -9.36600 19.71300 26.61000
H  -10.52200 21.02800 26.73800
H  -9.22400 20.82700 27.88900
H  -9.81100 19.16800 24.56300
H  -9.97700 19.11200 22.87100
H  -10.96700 20.32800 23.71400
H  -6.50100 24.83100 21.05400
H  -3.55700 25.31700 21.45700
H  -4.89000 22.46200 21.32800
H  -3.91700 23.50200 20.45300
H  -5.50200 23.18700 19.75000
H  -5.49400 27.62900 21.09200
H  -5.51500 26.57100 19.79700
H  -3.55700 28.68700 20.35800
H  -3.52500 27.59700 18.95300
H  -2.71200 27.24600 20.49000
H  -1.12100 29.49000 25.62300
H  -2.44500 29.97600 24.45100
H  -1.58300 28.54400 24.21200
H  -4.33900 28.30000 30.23300
H  -1.40600 26.84500 33.07700
H  -0.92800 25.96300 31.70800
H  -2.27000 25.38900 32.81600

