158

Mg 7.16500 53.78500 40.88600
C  6.43000 50.25700 40.54700
C  10.34800 53.15800 39.77600
C  7.47100 57.09400 40.35800
C  3.71900 54.21900 41.45300
N  8.22800 51.93700 40.15100
C  7.78700 50.64500 40.25000
C  8.87700 49.68000 39.80500
C  10.19000 50.58800 39.89700
C  9.58000 52.02400 39.84100
C  10.88600 50.34900 41.23200
C  8.85800 48.88200 38.45500
C  8.55700 49.78900 37.24300
H  7.56100 49.33300 36.20000
N  8.73000 54.98900 40.21500
C  9.99700 54.49600 39.86600
C  10.84100 55.70600 39.69000
C  10.04100 56.86600 39.87400
C  8.68600 56.36800 40.17600
C  12.26000 55.56900 39.17200
C  10.50700 58.29300 39.84100
O  11.65800 58.54900 39.52000
C  9.66700 59.46400 40.32400
N  5.69800 55.37400 40.66500
C  6.15800 56.69200 40.55000
C  5.08200 57.68800 40.75900
C  3.85000 56.73900 40.91900
C  4.45100 55.36500 41.05000
C  5.30900 58.63200 42.01700
C  2.92000 56.80300 39.67200
C  1.45800 57.04900 39.94500
N  5.40500 52.51200 41.11800
C  4.09000 52.86000 41.41400
C  3.25100 51.68600 41.74600
C  4.16300 50.67600 41.36200
C  5.42200 51.21800 41.00500
C  1.77000 51.76500 42.22900
C  4.31300 49.25000 41.31500
O  3.54000 48.34400 41.51900
C  5.73300 48.91200 40.74600
C  5.54000 48.06800 39.57500
O  4.95000 48.40400 38.56700
O  5.92000 46.78800 39.89300
C  5.29300 45.79500 38.99700
H  11.41700 52.98000 39.64000
H  7.60700 58.16600 40.19700
H  2.66200 54.42100 41.64000
H  8.80700 48.90400 40.56800
H  10.81600 50.43300 39.01900
H  10.90900 51.24900 41.84700
H  11.88500 50.00800 40.96100
H  10.37800 49.55700 41.78200
H  8.08000 48.11900 38.47700
H  9.82400 48.38600 38.35900
H  9.55000 50.03500 36.86700
H  8.25700 50.76400 37.62700
H  12.35600 56.42000 38.49700
H  12.53500 54.62000 38.71200
H  12.89000 55.80200 40.03000
H  10.26100 60.36400 40.48100
H  9.18800 59.17600 41.26000
H  8.92900 59.76700 39.58100
H  5.08800 58.34400 39.88900
H  3.32800 56.82300 41.87200
H  5.32800 59.67100 41.68800
H  6.35300 58.47900 42.29300
H  4.65700 58.38700 42.85500
H  3.00900 55.95700 38.99100
H  3.05900 57.76500 39.17800
H  0.88300 56.21300 39.54500
H  1.20400 58.01600 39.51100
H  1.33100 57.02500 41.02700
H  1.15400 51.51500 41.36600
H  1.34800 52.75000 42.42400
H  1.47300 51.11200 43.05000
H  6.30200 48.38600 41.51300
H  5.33200 46.06100 37.94000
H  4.20900 45.83300 39.10200
H  5.79000 44.87000 39.28900
Mg -11.80800 37.81200 41.79000
C  -9.52600 35.36600 40.98000
C  -10.03700 39.84400 39.64600
C  -14.44000 39.91300 41.55000
C  -14.01100 35.40200 43.12300
N  -10.04700 37.58200 40.35000
C  -9.21600 36.48600 40.23900
C  -7.94000 36.77100 39.46400
C  -8.15000 38.26000 39.08900
C  -9.49700 38.60700 39.72500
C  -6.94600 39.14300 39.41700
C  -7.72800 35.88300 38.21900
C  -6.24100 35.29500 37.93700
H  -5.22700 36.17800 37.12800
N  -12.03500 39.72100 40.96800
C  -11.13600 40.40800 40.26400
C  -11.53600 41.76400 40.11200
C  -12.91300 41.82400 40.62900
C  -13.16800 40.43100 41.05100
C  -10.64400 42.85000 39.49500
C  -13.72000 43.09500 40.78800
O  -13.35500 44.13600 40.27100
C  -14.93200 43.08300 41.66900
N  -13.95300 37.67000 42.21000
C  -14.80200 38.71800 41.99500
C  -16.16500 38.46400 42.58500
C  -16.01000 36.93700 43.06800
C  -14.55900 36.59900 42.78600
C  -16.59700 39.41400 43.66500
C  -16.95600 35.87900 42.44900
C  -18.19200 35.43700 43.17500
N  -11.79300 35.77800 42.02800
C  -12.64600 34.95700 42.85300
C  -12.00600 33.64200 43.00200
C  -10.74200 33.79900 42.34200
C  -10.68400 35.08800 41.70800
C  -12.50100 32.42000 43.79800
C  -9.48700 33.12200 42.02900
O  -9.15500 32.00100 42.33400
C  -8.56400 34.09500 41.15800
C  -7.29500 34.23100 41.93900
O  -6.50800 33.27800 42.07700
O  -7.13900 35.55200 42.35600
C  -5.99700 35.85200 43.23800
H  -9.52600 40.51500 38.95300
H  -15.21100 40.68500 41.51400
H  -14.69800 34.77100 43.69100
H  -7.09700 36.63500 40.14200
H  -8.33300 38.42600 38.02700
H  -7.19900 39.89700 40.16300
H  -6.62900 39.63500 38.49800
H  -6.07900 38.60800 39.80200
H  -7.92000 36.56700 37.39200
H  -8.41100 35.05000 38.04900
H  -6.37700 34.30400 37.50500
H  -5.84100 35.19300 38.94600
H  -10.82800 43.77800 40.03600
H  -10.87400 43.03300 38.44600
H  -9.59600 42.66600 39.72900
H  -15.22600 44.06900 42.03000
H  -14.75900 42.48200 42.56200
H  -15.71500 42.73200 40.99700
H  -16.85800 38.44100 41.74400
H  -16.16500 36.85100 44.14300
H  -17.38700 40.09500 43.34900
H  -15.72200 39.91400 44.08100
H  -17.07100 38.84700 44.46700
H  -16.44800 34.99000 42.07400
H  -17.21300 36.25100 41.45700
H  -18.43700 36.18200 43.93200
H  -17.90700 34.54700 43.73600
H  -19.00900 35.16000 42.50900
H  -12.96100 31.69000 43.13200
H  -13.20500 32.79400 44.54200
H  -11.69200 31.86300 44.27000
H  -8.29600 33.77400 40.15100
H  -6.41800 36.47300 44.02900
H  -5.28700 36.35300 42.58000
H  -5.54400 34.97700 43.70400

