158

Mg 3.03600 1.30100 44.22600
C  5.89600 3.30500 44.29900
C  1.63400 3.58100 42.08700
C  0.59400 -0.88200 43.52000
C  5.01500 -1.33400 45.51600
N  3.71200 3.14600 43.23900
C  4.91100 3.81500 43.47100
C  4.99600 5.21600 42.82100
C  3.48900 5.35700 42.40800
C  2.90800 3.93600 42.53800
C  2.69100 6.39900 43.26800
C  5.88300 5.46800 41.48100
C  6.04900 4.26200 40.55700
H  5.43700 4.42200 39.09000
N  1.21100 1.44000 43.22300
C  0.80300 2.43800 42.30800
C  -0.41900 2.12100 41.69900
C  -0.82900 0.83700 42.24000
C  0.34000 0.39600 43.09600
C  -1.24400 3.01800 40.77200
C  -2.18100 0.12000 41.95900
O  -3.05300 0.69000 41.26100
C  -2.55700 -1.32100 42.39600
N  2.80700 -0.81400 44.52400
C  1.71600 -1.45400 44.02900
C  1.90600 -2.93400 44.34500
C  3.22900 -3.12700 45.19900
C  3.74600 -1.65900 45.06500
C  0.59800 -3.55100 44.96000
C  4.16500 -4.22700 44.67800
C  4.29500 -5.40800 45.68400
N  5.01100 0.97800 44.89300
C  5.66500 -0.10200 45.44100
C  7.01900 0.30300 45.81400
C  7.14700 1.61700 45.37900
C  5.88600 1.99300 44.81500
C  8.02400 -0.60700 46.57800
C  8.01300 2.79500 45.46100
O  9.16600 2.89900 45.88000
C  7.20200 3.95400 44.78100
C  7.07000 5.11100 45.78000
O  7.94200 5.91100 46.02000
O  5.83700 5.23800 46.43300
C  5.70200 6.36600 47.36500
H  1.16000 4.40700 41.55200
H  -0.14100 -1.64800 43.26200
H  5.52400 -2.16600 46.00700
H  5.42300 5.94000 43.51600
H  3.41400 5.66400 41.36500
H  3.22700 6.71800 44.16200
H  1.78600 5.94100 43.66600
H  2.53400 7.22600 42.57500
H  6.88700 5.73800 41.80700
H  5.39300 6.30200 40.97900
H  5.58500 3.37200 40.98100
H  7.07800 3.90100 40.54100
H  -1.57300 2.48300 39.88100
H  -0.58900 3.82800 40.45000
H  -2.04900 3.38700 41.40800
H  -2.20800 -1.34600 43.42800
H  -2.03100 -2.09500 41.83700
H  -3.64600 -1.36900 42.39400
H  2.08600 -3.48800 43.42400
H  2.91700 -3.25000 46.23700
H  0.24100 -2.69600 45.53500
H  0.81000 -4.47200 45.50200
H  -0.25100 -3.76800 44.31200
H  5.17000 -3.86100 44.46800
H  3.70900 -4.73600 43.82900
H  4.37900 -4.99400 46.69000
H  5.02900 -6.20800 45.58800
H  3.32600 -5.89000 45.81400
H  8.44800 0.02900 47.35500
H  8.73600 -0.99000 45.84700
H  7.48000 -1.40000 47.09000
H  7.83100 4.35100 43.98500
H  4.62100 6.43300 47.49000
H  6.12100 7.31900 47.04100
H  6.27300 6.16700 48.27200
Mg 0.17700 43.47400 25.51700
C  2.37400 43.05500 28.22600
C  -2.51400 42.91100 27.70300
C  -2.01600 43.36100 22.98800
C  2.81900 43.92900 23.40300
N  0.03500 43.09300 27.64400
C  0.98500 43.10000 28.56900
C  0.43700 42.97700 30.00700
C  -0.99500 42.54900 29.76700
C  -1.19100 42.94000 28.30900
C  -1.31800 41.02800 30.01300
C  0.44600 44.29500 30.87500
C  -0.14100 44.22800 32.32000
H  -0.14500 42.74900 32.93300
N  -1.98300 43.07800 25.35700
C  -2.88400 42.87600 26.37900
C  -4.25500 42.78600 25.86300
C  -4.12900 42.87000 24.44600
C  -2.69300 43.09600 24.18400
C  -5.43200 42.47900 26.72100
C  -5.22100 42.75600 23.43800
O  -5.00400 43.00600 22.26600
C  -6.63500 42.41600 23.86000
N  0.37500 43.54500 23.50300
C  -0.70000 43.52200 22.66400
C  -0.12500 43.55600 21.26400
C  1.31300 43.97500 21.38200
C  1.53800 43.73500 22.83900
C  -0.36400 42.12100 20.64800
C  1.63100 45.42000 20.93900
C  1.01800 46.58800 21.71700
N  2.21300 43.44800 25.72900
C  3.20400 43.70200 24.78200
C  4.55700 43.46200 25.40300
C  4.21800 43.29400 26.76300
C  2.79300 43.36100 26.90200
C  5.89900 43.31400 24.79200
C  4.76400 42.99300 28.02800
O  5.94100 42.71300 28.37700
C  3.66100 43.04300 29.05200
C  3.65600 41.86900 29.89300
O  3.59600 40.71200 29.51900
O  3.93300 42.34500 31.15700
C  4.23700 41.27400 32.09900
H  -3.26700 42.74900 28.47700
H  -2.61800 43.23400 22.08600
H  3.64900 44.13200 22.72300
H  0.97000 42.20200 30.55800
H  -1.71600 43.20300 30.25800
H  -1.53600 40.50500 29.08200
H  -2.14700 40.89700 30.70800
H  -0.38300 40.59700 30.37200
H  -0.03100 45.10700 30.32600
H  1.44400 44.72300 30.96200
H  -1.09800 44.74400 32.39700
H  0.42500 44.85500 33.00900
H  -5.92400 43.35000 27.15400
H  -4.97200 41.90700 27.52600
H  -6.03600 41.67100 26.30700
H  -7.04400 43.01900 24.67100
H  -6.60600 41.38200 24.20500
H  -7.30000 42.52200 23.00300
H  -0.73500 44.27100 20.71300
H  1.99800 43.28000 20.89700
H  0.57500 41.57200 20.57700
H  -0.82000 42.24100 19.66500
H  -0.97800 41.59100 21.37600
H  1.27500 45.39700 19.90900
H  2.71400 45.53300 20.98800
H  1.83200 47.30900 21.78300
H  0.50900 46.39700 22.66200
H  0.35300 47.12800 21.04400
H  5.80800 42.81100 23.82900
H  6.56600 42.81800 25.49700
H  6.28200 44.31800 24.61000
H  3.70100 44.00300 29.56600
H  4.64200 41.73000 33.00200
H  4.94600 40.61200 31.60300
H  3.31000 40.74200 32.31500

