158

Mg 24.68200 -5.70000 46.31300
C  26.76700 -3.60000 44.28900
C  22.11800 -4.97400 44.22400
C  23.12500 -8.31700 47.63900
C  27.70000 -6.62100 48.01600
N  24.50300 -4.56300 44.42000
C  25.43200 -3.65100 43.96600
C  24.81000 -2.70800 42.93100
C  23.28100 -2.91600 43.17100
C  23.25100 -4.24400 43.94000
C  22.66700 -1.86000 44.10500
C  25.45400 -3.03600 41.48300
C  25.85600 -1.77300 40.60500
H  25.40500 -1.90500 39.16400
N  22.83500 -6.41600 46.02900
C  21.87900 -6.01700 45.13200
C  20.74000 -6.88100 45.14000
C  20.89900 -7.80900 46.16400
C  22.35000 -7.53700 46.69600
C  19.49100 -6.67400 44.14700
C  19.94800 -8.89300 46.57300
O  18.86700 -9.03600 45.98200
C  20.15600 -9.77900 47.76800
N  25.32900 -7.25900 47.62700
C  24.42400 -8.16200 48.14500
C  25.11700 -9.24300 48.99500
C  26.50900 -8.61700 49.21000
C  26.51500 -7.46400 48.21400
C  24.32700 -9.53200 50.30100
C  27.64700 -9.63400 48.79800
C  27.83100 -10.70900 49.81900
N  26.91500 -5.23700 46.27400
C  27.92600 -5.57800 47.06200
C  29.19600 -4.97700 46.55000
C  28.75600 -4.11600 45.53800
C  27.40900 -4.34000 45.38100
C  30.64100 -5.12800 47.12900
C  29.22600 -3.17100 44.50800
O  30.32800 -2.77400 44.12500
C  27.86900 -2.66700 43.80000
C  27.58900 -1.22800 44.25200
O  26.72300 -0.98100 45.07700
O  28.42800 -0.39500 43.60800
C  28.22900 0.99700 43.97700
H  21.31900 -4.77100 43.50800
H  22.72300 -9.27400 47.97700
H  28.43300 -6.92800 48.76500
H  25.05100 -1.67800 43.19200
H  22.66700 -3.05200 42.28100
H  22.71400 -0.90400 43.58400
H  23.12700 -1.85800 45.09300
H  21.58700 -1.96700 44.21000
H  24.67300 -3.60000 40.97500
H  26.25300 -3.77600 41.43200
H  26.94100 -1.80700 40.69900
H  25.50300 -0.84900 41.06500
H  18.65200 -7.35300 44.29400
H  19.86400 -6.81500 43.13300
H  19.25500 -5.61400 44.23400
H  21.04400 -10.34900 47.49700
H  19.32500 -10.42900 48.04200
H  20.41700 -9.19500 48.65100
H  25.05900 -10.11000 48.33700
H  26.55700 -8.21000 50.22000
H  24.86300 -9.27400 51.21500
H  24.28100 -10.61300 50.42900
H  23.30600 -9.15900 50.21600
H  28.61900 -9.14100 48.78000
H  27.50500 -10.14300 47.84500
H  27.30100 -11.62700 49.56600
H  27.55100 -10.43000 50.83500
H  28.88200 -10.99600 49.80900
H  31.12900 -4.16100 47.00500
H  31.16100 -5.80400 46.45000
H  30.72800 -5.50600 48.14800
H  27.99600 -2.70500 42.71800
H  29.11200 1.62900 43.88900
H  27.96500 1.01900 45.03400
H  27.45000 1.37700 43.31500
Mg 48.44300 34.98700 26.23300
C  46.76700 33.48700 28.82900
C  48.76600 37.92000 28.02400
C  49.84400 36.48500 23.59900
C  47.69600 32.13200 24.33100
N  47.89000 35.62600 28.14400
C  47.34900 34.82700 29.12400
C  47.24100 35.51600 30.47900
C  47.55100 36.96900 30.06400
C  48.12100 36.85300 28.63300
C  46.31200 37.96500 30.00800
C  48.25000 34.95100 31.54800
C  47.96800 35.20500 33.06500
H  47.25900 36.49600 33.40600
N  49.42900 36.85800 25.95100
C  49.38900 37.92100 26.80300
C  50.26400 38.98700 26.25800
C  50.56200 38.66500 24.97500
C  49.94400 37.25600 24.76700
C  50.62700 40.10800 27.12300
C  51.19900 39.54900 23.89400
O  51.41900 39.10200 22.76300
C  51.54500 40.99100 24.20700
N  48.61800 34.46900 24.24000
C  49.35900 35.24700 23.33300
C  49.54900 34.46500 22.04700
C  49.06900 33.05700 22.37200
C  48.41900 33.19100 23.75100
C  48.68100 35.07600 20.93500
C  50.22600 31.94900 22.21200
C  50.29600 31.09000 21.03000
N  47.30400 33.21600 26.41400
C  47.15200 32.09000 25.62600
C  46.28800 31.16200 26.33100
C  46.14500 31.64800 27.55800
C  46.77200 32.91400 27.60000
C  45.83000 29.82700 25.80100
C  45.50800 31.40300 28.84400
O  44.79800 30.47600 29.23300
C  45.68500 32.71000 29.65700
C  45.92100 32.34900 31.04100
O  46.85200 31.67400 31.43000
O  44.81500 32.73700 31.79000
C  44.73400 32.56500 33.22900
H  48.65200 38.90100 28.48900
H  50.43800 36.91300 22.78900
H  47.63500 31.32400 23.59900
H  46.29500 35.58200 31.01700
H  48.32600 37.38500 30.70800
H  45.43500 37.69900 30.59900
H  45.88300 38.22300 29.04000
H  46.81800 38.85500 30.38100
H  49.27000 35.23600 31.29000
H  48.14900 33.88300 31.35600
H  48.88100 35.13200 33.65500
H  47.35200 34.41200 33.48800
H  50.03200 40.98900 26.88300
H  51.69700 40.29600 27.03500
H  50.38100 40.02900 28.18100
H  50.79800 41.43900 24.86200
H  51.76400 41.63200 23.35300
H  52.36700 40.91900 24.91900
H  50.56800 34.49600 21.66000
H  48.20600 32.80900 21.75400
H  47.91600 35.80100 21.21400
H  48.25000 34.25200 20.36600
H  49.40300 35.53500 20.26000
H  50.15700 31.23800 23.03500
H  51.20100 32.40700 22.38100
H  49.62200 31.36600 20.21900
H  50.00700 30.11300 21.41500
H  51.30100 30.86400 20.67200
H  44.93400 30.12200 25.25600
H  45.59800 29.06600 26.54600
H  46.52100 29.48400 25.03100
H  44.76800 33.30000 29.63500
H  43.71900 32.95000 33.32800
H  45.53600 33.02200 33.80800
H  44.78700 31.51100 33.50400

