158

Mg 34.53400 2.89500 29.24000
C  32.29900 3.91600 31.79500
C  36.91400 2.53900 31.67100
C  36.67700 2.37700 26.68100
C  32.02200 3.53300 26.93800
N  34.62400 3.49400 31.47800
C  33.58100 3.75800 32.34700
C  34.03000 3.75100 33.81700
C  35.58600 3.33600 33.73000
C  35.71600 3.03300 32.20500
C  36.54500 4.45800 34.15300
C  33.17700 2.75300 34.61600
C  32.72500 3.11500 36.01100
H  33.39200 4.18200 36.92000
N  36.46500 2.36300 29.23900
C  37.28900 2.21900 30.33800
C  38.65600 1.82400 29.93500
C  38.58300 1.89000 28.50900
C  37.19500 2.17900 28.06200
C  39.70400 1.47900 30.97500
C  39.74400 1.55700 27.44900
O  39.49100 1.50600 26.28900
C  41.20800 1.32400 27.93700
N  34.35700 2.82400 27.09900
C  35.36900 2.60800 26.20100
C  34.92500 2.92400 24.72700
C  33.35900 2.79200 24.92600
C  33.22400 3.21900 26.40600
C  35.52900 4.23100 24.04100
C  32.70600 1.42700 24.59400
C  31.53200 1.49400 23.70100
N  32.59100 3.58900 29.30500
C  31.72000 3.76600 28.23800
C  30.44200 4.13300 28.75500
C  30.57000 4.24100 30.14000
C  31.94100 3.96100 30.43800
C  29.18300 4.38100 27.92600
C  29.87000 4.40600 31.45700
O  28.71900 4.77600 31.63000
C  30.92800 4.24900 32.54300
C  31.14600 5.59500 33.23300
O  31.75900 6.51800 32.73800
O  30.58600 5.47900 34.46300
C  30.51700 6.68900 35.27700
H  37.67500 2.48800 32.45200
H  37.41200 2.36500 25.87300
H  31.15100 3.50900 26.28000
H  33.95900 4.75500 34.23600
H  35.72700 2.45600 34.35700
H  37.11900 4.79800 33.29100
H  37.26600 4.13800 34.90500
H  36.02800 5.35900 34.48100
H  33.70500 1.79900 34.60600
H  32.24000 2.51100 34.11500
H  32.67300 2.19400 36.59200
H  31.70700 3.49600 35.93100
H  40.65700 1.93300 30.70300
H  39.87000 0.40900 30.85200
H  39.44900 1.73400 32.00300
H  41.19700 0.67500 28.81300
H  41.53600 2.35400 28.07700
H  41.78100 0.91700 27.10400
H  35.20000 2.06200 24.12000
H  32.90100 3.61500 24.37700
H  36.04300 4.82500 24.79700
H  34.75900 4.72600 23.44800
H  36.30200 4.00900 23.30700
H  32.42000 1.02000 25.56400
H  33.48700 0.88700 24.05700
H  30.66400 1.01200 24.15000
H  31.79600 1.01100 22.76000
H  31.25300 2.49700 23.38000
H  28.82900 3.36900 27.72900
H  29.51800 4.87500 27.01400
H  28.49600 5.02100 28.48000
H  30.61000 3.45700 33.22100
H  30.22500 7.54100 34.66400
H  31.49200 6.69100 35.76300
H  29.79300 6.45600 36.05800
Mg 49.51800 35.56600 27.50300
C  47.58800 34.46200 30.17300
C  50.30300 38.35200 29.22900
C  51.21100 36.45000 24.86100
C  48.43600 32.77600 25.64800
N  48.78000 36.44700 29.38000
C  48.10600 35.73600 30.36500
C  48.29800 36.43100 31.74100
C  48.89000 37.85500 31.33500
C  49.35500 37.55700 29.87800
C  47.83100 39.01200 31.27300
C  49.15500 35.74500 32.78600
C  48.83700 35.81000 34.22900
H  48.47000 37.25300 34.56800
N  50.55300 37.17700 27.10100
C  50.84500 38.20800 27.95900
C  51.85800 39.08600 27.34100
C  52.14600 38.52700 26.03600
C  51.25100 37.37900 25.90100
C  52.42400 40.36000 27.99100
C  53.30600 38.96600 25.05400
O  53.46900 38.42800 23.94100
C  54.10700 40.19500 25.37300
N  49.82100 34.64200 25.51100
C  50.53000 35.29700 24.64500
C  50.56200 34.65200 23.30600
C  49.89400 33.28800 23.52700
C  49.33100 33.55300 24.95400
C  49.90800 35.46100 22.09100
C  50.73800 32.03700 23.46100
C  50.04200 30.88900 22.76000
N  48.32300 33.93500 27.78500
C  47.96100 32.86100 27.02200
C  47.05200 31.95700 27.68700
C  46.85000 32.60100 28.92300
C  47.65800 33.77700 28.97000
C  46.49600 30.73200 27.09300
C  46.04400 32.53000 30.12500
O  45.13900 31.81500 30.53100
C  46.47000 33.77800 30.99600
C  46.79200 33.35400 32.38000
O  47.77000 32.65400 32.68100
O  45.73300 33.62300 33.17200
C  45.49200 32.94100 34.50100
H  50.63800 39.20800 29.81900
H  51.73000 36.93500 24.03200
H  48.03900 31.91500 25.10700
H  47.29700 36.61100 32.13300
H  49.81200 38.18400 31.81500
H  48.07700 39.48100 30.32100
H  48.04100 39.70700 32.08600
H  46.87000 38.49700 31.25800
H  50.16600 36.12000 32.62300
H  49.30100 34.71600 32.45800
H  49.56800 35.33900 34.88600
H  47.89600 35.26100 34.27800
H  53.49800 40.22800 28.12500
H  51.95200 40.64800 28.93000
H  52.30000 41.26000 27.38900
H  54.99200 40.23600 24.73800
H  54.49000 39.97700 26.37000
H  53.56000 41.13100 25.26200
H  51.62000 34.44700 23.14600
H  49.10200 33.17600 22.78700
H  49.34900 34.81200 21.41800
H  50.64400 35.91200 21.42600
H  49.31800 36.31000 22.43700
H  51.01000 31.56000 24.40300
H  51.62300 32.26400 22.86600
H  50.07600 30.00300 23.39300
H  50.51200 30.67000 21.80100
H  48.98400 30.97800 22.51300
H  47.18600 30.19500 26.44300
H  45.68600 31.07200 26.44800
H  46.02800 30.04400 27.79800
H  45.68900 34.49100 31.25800
H  46.33700 32.30200 34.76000
H  44.72800 32.16300 34.53700
H  45.15400 33.57500 35.32100

