158

Mg 40.15200 8.90300 29.04600
C  42.05900 9.90500 31.79100
C  38.29900 6.89700 31.20400
C  38.18200 8.00600 26.40200
C  42.49800 10.30900 26.89500
N  40.23600 8.37800 31.33300
C  40.91700 9.14400 32.22900
C  40.47200 8.85400 33.66000
C  39.42100 7.61400 33.41400
C  39.27200 7.59900 31.89100
C  39.92600 6.19700 34.06500
C  39.83200 10.03800 34.37800
C  39.31000 9.80900 35.82100
H  39.79300 10.82400 36.81000
N  38.36400 7.76600 28.84100
C  37.82500 7.01700 29.83800
C  36.60800 6.33600 29.30700
C  36.65700 6.64500 27.88100
C  37.73700 7.56300 27.65300
C  35.67000 5.48700 30.11600
C  35.80200 5.99000 26.79300
O  35.93600 6.18600 25.58800
C  34.93600 4.86600 27.20000
N  40.28000 9.00600 26.97000
C  39.36900 8.67100 26.10000
C  39.68600 9.14000 24.68300
C  40.95900 10.04700 24.83200
C  41.25900 9.80800 26.29700
C  39.67600 7.94600 23.57600
C  40.85400 11.58200 24.48200
C  39.59400 12.32700 24.83600
N  41.99700 9.70300 29.22500
C  42.83700 10.20100 28.22200
C  43.98900 10.79100 28.85800
C  43.64800 10.79600 30.23400
C  42.49300 10.10400 30.44400
C  45.23300 11.40500 28.26900
C  44.15400 11.23800 31.51500
O  45.15700 11.83900 31.81500
C  43.08500 10.70700 32.54300
C  43.72700 9.92200 33.60400
O  44.18700 8.81000 33.42800
O  43.62100 10.51000 34.84600
C  44.14700 9.77100 36.01500
H  37.57600 6.32300 31.78800
H  37.60700 7.72900 25.51500
H  43.15100 10.96800 26.31800
H  41.35300 8.50900 34.20200
H  38.42300 7.86700 33.77100
H  40.76900 6.30700 34.74700
H  40.06700 5.45100 33.28300
H  39.11500 5.87100 34.71600
H  38.93900 10.28900 33.80600
H  40.57600 10.83400 34.36300
H  39.66500 8.82500 36.12900
H  38.22700 9.73700 35.72200
H  34.63200 5.80600 30.02900
H  35.89100 5.71400 31.15900
H  35.97000 4.46200 29.89900
H  35.65300 4.15500 27.61100
H  34.54800 4.40000 26.29400
H  34.12700 5.11400 27.88600
H  38.92600 9.88100 24.43600
H  41.74300 9.74100 24.14000
H  38.82000 8.00100 22.90300
H  39.74000 6.92200 23.94500
H  40.52700 8.23200 22.95800
H  41.13600 11.69500 23.43500
H  41.59500 12.22900 24.95000
H  39.04000 12.67300 23.96200
H  39.81300 13.27900 25.32000
H  38.94900 11.69200 25.44400
H  46.08100 11.46300 28.95100
H  44.96500 12.38500 27.87400
H  45.48600 10.88100 27.34800
H  42.68900 11.58100 33.05900
H  44.92900 10.42700 36.39800
H  44.55000 8.77700 35.81900
H  43.50600 9.77400 36.89600
Mg 6.68300 53.67900 41.69800
C  5.69400 50.21000 41.01600
C  9.74300 52.83700 40.68600
C  7.29800 56.88600 41.60400
C  3.29400 54.28900 42.46700
N  7.48600 51.79000 40.81300
C  6.94900 50.55000 40.63000
C  7.91500 49.57100 40.03500
C  9.33200 50.25700 40.42000
C  8.85500 51.73900 40.64700
C  10.10900 49.62900 41.64100
C  7.74700 49.14400 38.60000
C  7.46900 50.29300 37.52500
H  6.67500 50.04400 36.31400
N  8.19700 54.74000 41.07700
C  9.47800 54.21300 40.79100
C  10.37500 55.33400 40.56500
C  9.63900 56.50600 40.88100
C  8.32600 56.04100 41.22100
C  11.77000 55.17500 40.17500
C  10.28300 57.87100 40.71400
O  11.41600 58.11200 40.40700
C  9.53900 59.08300 41.00600
N  5.44100 55.37600 41.88400
C  5.99700 56.60900 41.97300
C  4.88000 57.64000 42.13700
C  3.61200 56.80200 42.55000
C  4.11300 55.36600 42.23000
C  5.26500 58.79500 43.11900
C  2.24300 57.08700 41.76900
C  1.59700 58.51300 42.10100
N  4.82000 52.50500 41.79700
C  3.55000 52.91300 42.21900
C  2.68800 51.72000 42.34200
C  3.49600 50.66800 41.82800
C  4.77100 51.20300 41.58800
C  1.22000 51.72600 42.89900
C  3.50100 49.28700 41.49200
O  2.59800 48.47000 41.51600
C  4.94400 48.93300 40.96700
C  4.81100 48.24700 39.61100
O  4.39600 48.74800 38.58700
O  4.91100 46.88200 39.81800
C  4.35900 46.01800 38.76900
H  10.78000 52.58500 40.45800
H  7.47600 57.96200 41.64300
H  2.30000 54.49700 42.86900
H  7.78100 48.70900 40.68900
H  10.04000 50.34500 39.59600
H  10.20200 50.39600 42.40900
H  11.06700 49.23100 41.30600
H  9.46200 48.81900 41.97800
H  7.06400 48.29900 38.51400
H  8.77200 48.79400 38.47600
H  8.42500 50.61400 37.11100
H  7.05400 51.20200 37.96200
H  12.37600 55.69900 40.91400
H  12.21700 55.54400 39.25200
H  12.10100 54.14900 40.33700
H  8.72700 59.16000 40.28400
H  10.01800 60.05900 40.92600
H  9.23100 58.97500 42.04600
H  4.71800 58.03200 41.13300
H  3.41700 56.80300 43.62200
H  4.48600 58.87000 43.87800
H  5.38000 59.72100 42.55500
H  6.18300 58.50400 43.62900
H  1.43200 56.42400 42.07000
H  2.50100 57.00600 40.71300
H  2.32700 59.12700 42.63000
H  0.69200 58.29000 42.66600
H  1.40700 58.93600 41.11500
H  0.49900 51.59900 42.09200
H  1.12500 52.71800 43.34300
H  1.30300 50.94700 43.65700
H  5.34700 48.31900 41.77200
H  4.88200 46.28300 37.85100
H  3.28600 46.20600 38.74400
H  4.45900 44.95100 38.96600

