158

Mg 49.20100 46.60900 42.90000
C  46.06100 47.35100 41.69000
C  49.20400 43.67200 41.00700
C  52.69500 46.28800 43.18300
C  49.60800 50.06900 44.01800
N  47.84700 45.66800 41.50400
C  46.60100 46.17100 41.14500
C  45.90600 45.22300 40.12700
C  46.84400 43.93100 40.10100
C  48.02300 44.42400 40.96600
C  46.31700 42.56400 40.56600
C  45.93200 45.90300 38.69300
C  44.54700 46.05500 37.98500
H  44.27100 45.58200 36.56000
N  50.68300 45.12100 42.39600
C  50.42200 43.96100 41.66400
C  51.62600 43.23000 41.57000
C  52.68600 43.87200 42.23200
C  52.05200 45.16400 42.61900
C  51.59500 41.90100 41.03100
C  54.02900 43.34900 42.43500
O  54.42000 42.23400 42.09500
C  55.09100 44.14900 42.90800
N  50.86300 47.96400 43.54300
C  52.22800 47.58800 43.58000
C  53.05000 48.71200 44.08100
C  52.07800 49.82300 44.46400
C  50.75900 49.22900 44.00900
C  53.99800 48.27900 45.27400
C  52.31700 51.27400 43.68700
C  52.34500 52.52200 44.54500
N  47.99600 48.33100 43.03900
C  48.32100 49.66500 43.44100
C  47.11400 50.54400 43.19000
C  46.19500 49.59100 42.66400
C  46.83400 48.36200 42.41800
C  47.10900 52.09600 43.37500
C  44.86900 49.48600 42.17800
O  43.94000 50.30000 42.04900
C  44.80300 48.10400 41.42800
C  43.64300 47.32900 42.00300
O  43.36600 47.24800 43.21000
O  42.95300 46.64800 41.00800
C  41.98300 45.68800 41.47900
H  49.17600 42.80800 40.33900
H  53.78500 46.29000 43.25600
H  49.75500 51.00900 44.55400
H  44.96700 44.97000 40.61800
H  47.25500 43.74600 39.10900
H  46.07600 41.95800 39.69200
H  45.34600 42.70200 41.04200
H  47.06500 42.03400 41.15400
H  46.55500 45.48000 37.90500
H  46.27200 46.91900 38.89100
H  44.19300 47.08500 38.01300
H  43.86100 45.40800 38.53200
H  52.52100 41.47800 40.64000
H  50.96500 41.96500 40.14400
H  51.20300 41.17700 41.74500
H  54.99000 44.18000 43.99300
H  55.04800 45.08000 42.34300
H  56.04600 43.64500 42.75700
H  53.62300 49.03100 43.21100
H  51.95000 49.87900 45.54500
H  53.73000 47.23700 45.44800
H  53.79300 48.88500 46.15600
H  55.06900 48.34600 45.08300
H  51.61900 51.32100 42.85100
H  53.28700 51.22200 43.19300
H  51.38600 52.47800 45.06100
H  52.34200 53.39700 43.89500
H  53.24600 52.43100 45.15100
H  47.44500 52.27600 44.39700
H  46.06200 52.32700 43.17800
H  47.83600 52.65100 42.78200
H  44.69100 48.36500 40.37600
H  42.46200 44.87000 42.01500
H  41.44600 45.26200 40.63200
H  41.34300 46.11700 42.24900
Mg 36.29600 49.29700 24.85400
C  36.39300 47.45900 27.80300
C  34.87800 51.93400 26.72800
C  35.83700 51.00600 22.00700
C  37.30200 46.53900 23.11900
N  35.66100 49.63700 26.95100
C  36.02600 48.81600 27.97600
C  35.82800 49.41900 29.37000
C  35.06400 50.79000 29.02100
C  35.22500 50.81100 27.45300
C  33.57800 50.81600 29.45700
C  37.18500 49.71200 30.04500
C  37.27800 49.60800 31.57300
H  35.95900 49.66400 32.43500
N  35.49400 51.27100 24.43200
C  35.04200 52.16200 25.31400
C  34.86800 53.41400 24.61900
C  35.18000 53.27500 23.27300
C  35.53800 51.80700 23.15900
C  34.49900 54.68000 25.38000
C  35.33000 54.27400 22.21000
O  35.70100 53.97200 21.11300
C  34.78600 55.63700 22.43800
N  36.33900 48.71600 22.78900
C  36.23800 49.66900 21.78700
C  36.58300 49.11600 20.37000
C  37.29100 47.82500 20.85800
C  36.98400 47.65100 22.32200
C  35.28400 48.92900 19.50600
C  38.82000 47.74100 20.75900
C  39.57400 48.22700 19.50400
N  36.76600 47.33400 25.29100
C  37.15200 46.32000 24.53600
C  37.51100 45.20700 25.34200
C  37.17700 45.55600 26.64100
C  36.75800 46.90000 26.51800
C  38.18900 44.01900 24.90200
C  37.03100 45.10200 27.96100
O  37.20100 43.98400 28.48900
C  36.68800 46.37500 28.83100
C  35.53500 46.01600 29.70100
O  34.38100 45.63200 29.41800
O  35.89000 46.02900 31.02900
C  34.96200 45.25600 31.87300
H  34.49100 52.73800 27.35700
H  35.78000 51.45000 21.01100
H  37.74200 45.69800 22.57800
H  35.31900 48.73900 30.05300
H  35.61200 51.64500 29.41600
H  32.87400 51.04500 28.65600
H  33.33500 51.54100 30.23300
H  33.36100 49.81100 29.82000
H  37.54300 50.70400 29.77200
H  37.80400 48.95100 29.56900
H  37.91900 50.41300 31.93100
H  37.77400 48.64500 31.70100
H  34.14700 54.45800 26.38700
H  33.67800 55.15900 24.84600
H  35.41500 55.26700 25.30600
H  35.47200 56.02200 23.19200
H  33.73900 55.44900 22.67800
H  34.93600 56.36300 21.63900
H  37.36000 49.72300 19.90500
H  36.87100 46.93600 20.38700
H  34.44700 49.00700 20.20100
H  35.37300 47.98700 18.96500
H  35.34700 49.78400 18.83300
H  38.90900 46.65600 20.71100
H  39.29600 48.04400 21.69200
H  38.99900 48.50500 18.62100
H  40.23400 47.41900 19.18600
H  40.27200 49.03600 19.71900
H  37.96800 43.14400 25.51400
H  39.26100 44.20900 24.95900
H  37.72300 43.86800 23.92900
H  37.56000 46.72600 29.38200
H  35.64900 45.01500 32.68300
H  34.58700 44.33300 31.43000
H  34.21000 45.96200 32.22600

