158

Mg 7.96200 3.05100 27.75900
C  9.60000 2.09300 30.79800
C  5.97600 5.14800 29.65000
C  6.32500 3.77300 24.98800
C  9.69500 0.42600 26.20100
N  7.66000 3.34400 30.04800
C  8.44800 2.95900 31.03500
C  8.06500 3.73000 32.36000
C  6.83900 4.63600 32.00100
C  6.76300 4.32300 30.48600
C  5.47400 4.44600 32.80100
C  9.18800 4.45100 33.14900
C  8.67400 5.00900 34.48900
H  9.50800 4.66500 35.71000
N  6.46300 4.32200 27.34800
C  5.82100 5.15600 28.21900
C  5.01600 6.03500 27.43400
C  5.19600 5.78900 26.05500
C  5.90400 4.54300 26.08100
C  4.23200 7.13200 28.01700
C  4.82300 6.58500 24.85200
O  5.13900 6.21900 23.74300
C  4.07000 7.85700 24.99500
N  7.93100 2.12300 26.00200
C  7.20800 2.66500 24.92500
C  7.40900 1.87400 23.62000
C  8.54500 0.91800 24.06200
C  8.75900 1.14300 25.49900
C  6.20900 1.27200 22.90900
C  9.79200 1.03900 23.14400
C  10.71400 2.22800 23.35500
N  9.40100 1.49300 28.29300
C  10.01500 0.52900 27.56200
C  10.97000 -0.17900 28.39600
C  10.78000 0.41200 29.65100
C  9.81200 1.45900 29.52700
C  11.81700 -1.23900 27.94400
C  11.23000 0.40100 31.03800
O  12.06800 -0.32500 31.53900
C  10.37700 1.41700 31.88800
C  9.48600 0.64700 32.85000
O  8.55000 -0.11700 32.56500
O  9.97300 0.91700 34.06700
C  9.42700 0.21900 35.22600
H  5.44500 5.92100 30.20800
H  5.87700 4.01500 24.02200
H  10.20400 -0.39200 25.68600
H  7.69600 3.01300 33.09300
H  7.17200 5.66800 32.11700
H  5.57300 3.93800 33.76000
H  4.87800 3.84900 32.11100
H  4.96100 5.38800 32.99500
H  9.57800 5.29800 32.58300
H  9.98500 3.76800 33.44300
H  7.66200 4.63700 34.65000
H  8.67300 6.08200 34.30000
H  4.01800 7.04900 29.08300
H  3.22400 7.10500 27.60400
H  4.69900 8.09000 27.79100
H  3.04800 7.62000 25.29000
H  4.03200 8.20500 23.96300
H  4.54400 8.58300 25.65600
H  7.95900 2.59000 23.00900
H  8.18600 -0.09400 23.87600
H  6.36100 0.22900 22.63000
H  6.03700 1.81400 21.98000
H  5.29200 1.40900 23.48200
H  9.65600 1.26400 22.08600
H  10.39800 0.14700 23.30200
H  11.68200 1.82300 23.64900
H  10.30100 2.95200 24.05700
H  10.90800 2.72300 22.40400
H  11.45200 -2.13000 28.45400
H  12.87000 -1.06400 28.16400
H  11.59200 -1.37000 26.88500
H  10.97500 2.12700 32.46000
H  9.81100 0.50800 36.20500
H  9.76200 -0.79500 35.01100
H  8.33800 0.18700 35.25100
Mg 53.58400 25.51300 44.03800
C  50.74800 27.46500 43.93800
C  51.72200 22.87000 42.80200
C  56.42700 23.76100 43.84000
C  55.44800 28.42000 45.08300
N  51.56300 25.25700 43.43600
C  50.59800 26.21800 43.35100
C  49.23200 25.72100 42.78500
C  49.43600 24.19800 42.94600
C  51.02000 24.05000 43.14200
C  48.51500 23.44700 43.99700
C  48.97200 26.22700 41.26200
C  50.15600 26.29600 40.30000
H  50.10100 25.51500 38.93600
N  53.99500 23.58400 43.40500
C  53.13700 22.67400 42.86900
C  53.84400 21.49600 42.47900
C  55.21700 21.74900 42.86600
C  55.29900 23.07700 43.37000
C  53.16400 20.31300 41.96700
C  56.16000 20.62600 42.81700
O  55.81400 19.47500 42.52500
C  57.52600 20.74900 43.48800
N  55.70600 26.09900 44.13700
C  56.65600 25.12500 44.24300
C  57.97100 25.67000 44.87000
C  57.68000 27.20300 45.08200
C  56.20100 27.25200 44.73500
C  58.35800 25.00200 46.25000
C  58.45100 28.15300 44.15700
C  58.33100 27.89800 42.61200
N  53.18800 27.48400 44.50500
C  54.00800 28.56400 45.00000
C  53.20400 29.62300 45.42800
C  51.95900 29.28400 44.92200
C  51.95000 27.98300 44.42000
C  53.59700 30.90100 46.17900
C  50.58800 29.78400 44.82300
O  50.07300 30.81800 45.18900
C  49.77300 28.66200 44.08500
C  49.50700 29.12800 42.69200
O  50.33400 29.32500 41.79800
O  48.21700 29.39900 42.56400
C  47.67800 29.95300 41.36000
H  51.14700 22.02000 42.42800
H  57.34100 23.18200 43.98800
H  55.98800 29.26200 45.52200
H  48.35400 26.06800 43.33000
H  49.17800 23.70300 42.01000
H  49.03300 22.76000 44.66600
H  47.79100 22.89600 43.39700
H  48.01600 24.26000 44.52400
H  48.51900 27.21900 41.27900
H  48.19700 25.64100 40.76900
H  51.04100 25.84700 40.75100
H  50.46700 27.30800 40.03900
H  53.61700 19.89900 41.06700
H  52.10400 20.47400 41.77600
H  53.25700 19.49500 42.68100
H  57.91100 19.73500 43.38400
H  57.55800 21.02800 44.54100
H  58.10300 21.42900 42.86100
H  58.82500 25.62300 44.19400
H  57.68300 27.56300 46.11000
H  59.01900 24.16600 46.02300
H  57.44500 24.56300 46.65400
H  58.81200 25.65000 46.99900
H  59.49800 28.04800 44.44300
H  58.00300 29.14100 44.26900
H  59.28400 27.58700 42.18300
H  58.05500 28.84800 42.15400
H  57.59700 27.17200 42.26100
H  54.46500 30.86100 46.83600
H  52.79300 31.34400 46.76800
H  53.90500 31.66800 45.46800
H  48.80800 28.40700 44.52500
H  46.59800 30.05900 41.46900
H  47.85200 29.44500 40.41100
H  47.99900 30.99100 41.27900

