158

Mg 41.13400 41.01700 26.95400
C  40.38200 43.59200 29.32600
C  42.14600 39.11900 29.66300
C  41.70400 38.58800 24.76400
C  40.56700 43.24100 24.48400
N  41.21700 41.27400 29.22300
C  40.91600 42.41900 29.94400
C  41.02300 42.20500 31.54100
C  41.56600 40.74600 31.55500
C  41.70200 40.36600 30.03900
C  42.81400 40.50000 32.39100
C  39.67600 42.38900 32.26300
C  39.63800 43.31900 33.48800
H  38.89000 42.79200 34.76000
N  41.82800 39.12800 27.19300
C  42.19600 38.50100 28.35400
C  42.58900 37.12700 28.10100
C  42.53700 37.00200 26.62400
C  42.02800 38.26700 26.12100
C  43.17500 36.21800 29.17200
C  43.03400 35.73300 25.90500
O  43.10000 35.67200 24.70100
C  43.57500 34.55400 26.61300
N  41.40300 40.98400 24.86500
C  41.45200 39.81600 24.19000
C  41.06900 40.02300 22.68300
C  40.64500 41.48400 22.59600
C  40.83200 41.92000 24.07800
C  42.26200 39.75200 21.67300
C  39.19800 41.54900 22.21000
C  38.21900 40.94900 23.21600
N  40.57800 43.08100 26.90900
C  40.44700 43.80500 25.78500
C  40.04500 45.12700 26.19200
C  39.97600 45.14700 27.62800
C  40.31500 43.82500 27.93800
C  39.68800 46.31000 25.32100
C  39.67700 45.92300 28.76800
O  39.22000 47.04900 28.83600
C  39.77400 44.91700 29.89000
C  40.70400 45.63700 30.81500
O  41.91400 45.71600 30.69400
O  40.02600 46.08000 31.88800
C  40.89200 46.54600 33.00400
H  42.32700 38.53600 30.56900
H  41.77200 37.75900 24.05500
H  40.36900 43.77300 23.55100
H  41.77900 42.95800 31.76400
H  40.81700 40.08400 31.98800
H  43.45600 39.97500 31.68300
H  42.57300 39.85900 33.23800
H  43.32300 41.37200 32.80200
H  39.42000 41.40900 32.66400
H  38.83400 42.60000 31.60400
H  39.04600 44.20100 33.24200
H  40.67900 43.55900 33.70400
H  42.53900 35.33300 29.16700
H  43.11600 36.74000 30.12700
H  44.19200 35.89400 28.95200
H  42.81500 34.16600 27.29100
H  44.50900 34.83400 27.10100
H  44.00800 33.80600 25.94900
H  40.27900 39.32500 22.40600
H  41.34600 42.15600 22.10000
H  43.03500 39.14600 22.14600
H  42.69500 40.68500 21.31100
H  41.97400 39.11800 20.83500
H  39.19500 40.95600 21.29500
H  38.92500 42.59500 22.07000
H  38.40700 41.22200 24.25400
H  38.00600 39.90500 22.98600
H  37.25400 41.43000 23.05600
H  39.08600 46.02600 24.45700
H  40.63700 46.77800 25.06000
H  39.03400 46.87600 25.98500
H  38.82800 44.75500 30.40800
H  40.23400 46.77500 33.84200
H  41.53800 47.32800 32.60500
H  41.60700 45.82400 33.39700
Mg -9.85500 39.51000 39.60200
C  -9.23700 36.13300 39.09400
C  -6.73700 40.31900 38.88800
C  -10.74200 42.80400 39.75900
C  -13.33000 38.70200 39.22400
N  -8.31500 38.40600 38.72200
C  -8.17200 37.03500 38.70800
C  -6.74400 36.64000 38.43900
C  -6.01100 37.88100 38.92100
C  -7.05200 38.95700 38.78700
C  -5.34200 37.78500 40.36400
C  -6.45200 36.24300 36.87200
C  -6.90000 37.22300 35.63700
H  -7.99500 36.68800 34.75500
N  -8.84400 41.33700 39.42400
C  -7.54000 41.42400 39.15800
C  -7.19200 42.81600 39.10400
C  -8.31100 43.62600 39.34500
C  -9.38500 42.64300 39.53400
C  -5.78600 43.40300 38.67600
C  -8.48600 45.13100 39.44100
O  -7.47200 45.79200 39.25500
C  -9.75900 45.82100 39.79200
N  -11.75400 40.64200 39.41800
C  -11.85300 41.96600 39.70500
C  -13.22600 42.51400 39.51200
C  -14.08100 41.19700 39.14000
C  -12.97100 40.10500 39.17100
C  -13.89200 43.20400 40.78000
C  -14.84300 41.31700 37.79700
C  -16.25600 40.82200 37.97700
N  -11.10000 37.74900 39.49600
C  -12.47300 37.60600 39.43100
C  -12.78800 36.18400 39.25000
C  -11.50100 35.54400 39.08000
C  -10.57300 36.54400 39.28200
C  -14.15700 35.56700 39.22000
C  -10.73000 34.35100 38.65300
O  -11.20900 33.30200 38.26300
C  -9.24700 34.65300 38.75900
C  -8.64400 33.67900 39.70900
O  -8.89200 33.53600 40.92300
O  -7.45000 33.32600 39.16400
C  -6.37500 32.83500 40.12700
H  -5.68000 40.55300 38.74200
H  -11.10700 43.80600 39.99500
H  -14.37700 38.47100 39.01800
H  -6.59100 35.71200 38.99100
H  -5.13700 38.02300 38.28500
H  -5.61600 36.78200 40.69000
H  -5.80600 38.50800 41.03500
H  -4.25400 37.84800 40.34800
H  -6.77000 35.21200 36.71500
H  -5.37200 36.21200 37.01800
H  -6.00000 37.41500 35.05200
H  -7.28400 38.15000 36.06200
H  -5.16200 42.61200 38.26100
H  -5.19800 43.73400 39.53200
H  -5.83000 44.23100 37.96800
H  -10.02000 45.47700 40.79300
H  -10.40300 45.52200 38.96500
H  -9.66200 46.90300 39.70000
H  -13.08400 43.23500 38.70700
H  -14.77000 41.02200 39.96600
H  -14.76100 42.80200 41.30300
H  -14.09400 44.24400 40.52700
H  -13.11400 43.34200 41.53000
H  -14.36700 40.61400 37.11400
H  -14.78200 42.36400 37.50100
H  -17.03600 41.58000 38.03300
H  -16.47700 40.15100 38.80700
H  -16.34000 40.21100 37.07700
H  -14.98300 36.22700 39.48800
H  -14.08800 34.59500 39.70800
H  -14.35800 35.48400 38.15200
H  -8.74800 34.50100 37.80200
H  -6.56900 32.72700 41.19400
H  -5.52800 33.52100 40.11400
H  -5.96800 31.87900 39.79600

