158

Mg 47.23300 44.85300 44.06800
C  43.92400 44.72600 43.26200
C  47.65100 41.55200 43.00000
C  50.60000 45.37500 44.20600
C  46.77000 48.21800 45.02300
N  45.97700 43.39300 43.20500
C  44.64100 43.49100 42.98900
C  44.01100 42.19300 42.36200
C  45.18700 41.13100 42.65200
C  46.36200 42.06900 42.94500
C  44.87500 40.18100 43.81500
C  43.71600 42.37400 40.82500
C  42.32400 42.01500 40.29900
H  42.40200 41.12000 39.12700
N  48.87100 43.68000 43.74600
C  48.82400 42.30000 43.29000
C  50.18200 41.86500 43.06600
C  51.08500 42.90500 43.57200
C  50.20100 44.04500 43.84000
C  50.54200 40.58100 42.46900
C  52.60800 42.81300 43.73200
O  53.25500 41.70500 43.55000
C  53.35400 43.81300 44.51500
N  48.53900 46.58800 44.42800
C  49.89600 46.47000 44.49500
C  50.49100 47.76800 44.95900
C  49.27100 48.60600 45.37800
C  48.10100 47.76400 44.98800
C  51.59200 47.56700 46.08600
C  49.17600 50.08700 44.93400
C  48.53100 51.06600 45.91400
N  45.67400 46.21700 44.12200
C  45.62500 47.48900 44.60300
C  44.32000 48.03900 44.65700
C  43.57900 46.96300 44.03300
C  44.48500 45.86600 43.77600
C  43.84000 49.34300 45.01400
C  42.31000 46.57400 43.49600
O  41.25400 47.21600 43.32800
C  42.45200 45.12500 42.89600
C  41.40100 44.17900 43.50200
O  40.57500 43.57300 42.85100
O  41.54400 44.06600 44.84800
C  40.97200 42.85600 45.47300
H  47.72400 40.49600 42.72900
H  51.67000 45.57200 44.30600
H  46.60100 49.18800 45.49600
H  43.17600 41.83200 42.96100
H  45.37000 40.46400 41.81000
H  43.81800 40.20400 44.08100
H  45.29700 40.48900 44.77200
H  45.13800 39.14700 43.59400
H  44.57700 41.98900 40.27800
H  43.83000 43.44000 40.63200
H  41.84200 42.94800 40.00500
H  41.84300 41.54400 41.15600
H  49.73300 39.85600 42.37700
H  51.25800 40.23800 43.21600
H  51.00400 40.61900 41.48300
H  54.26600 43.37500 44.92000
H  52.75600 43.94600 45.41700
H  53.51000 44.75900 43.99800
H  50.92900 48.21900 44.06900
H  49.29500 48.59000 46.46800
H  52.62600 47.72700 45.77700
H  51.46800 46.57000 46.50900
H  51.36300 48.03200 47.04400
H  48.70300 50.08600 43.95200
H  50.18400 50.38100 44.64400
H  49.20300 51.88700 46.16400
H  48.15400 50.52800 46.78400
H  47.69300 51.50500 45.37100
H  43.80900 49.50200 46.09200
H  42.83800 49.50700 44.61900
H  44.46600 50.07300 44.50000
H  42.28700 45.06000 41.82100
H  41.13700 41.94600 44.89600
H  39.91700 43.02300 45.69300
H  41.45900 42.67000 46.43000
Mg 35.39000 49.33800 25.00900
C  35.00800 47.55000 28.08400
C  33.78200 52.03100 26.65300
C  35.19600 50.89700 22.14600
C  36.39600 46.40100 23.45700
N  34.57900 49.76100 27.18700
C  34.60700 48.92700 28.21600
C  34.03600 49.46600 29.50800
C  33.55300 50.92400 29.03200
C  34.04200 50.98200 27.54800
C  32.08100 51.22700 29.18600
C  35.07000 49.47300 30.69800
C  34.55100 49.09900 32.10400
H  33.00800 48.81800 32.27700
N  34.74300 51.22900 24.53300
C  34.11000 52.18400 25.33700
C  33.93300 53.41600 24.58700
C  34.33600 53.10800 23.22300
C  34.72600 51.66800 23.27100
C  33.13900 54.59200 25.12100
C  34.26500 54.09500 21.99700
O  34.30100 53.64600 20.82800
C  33.96200 55.57000 22.20400
N  35.62300 48.67800 23.05700
C  35.50200 49.56100 21.99500
C  35.93900 48.90000 20.66200
C  36.45200 47.46500 21.15600
C  36.21100 47.50700 22.64600
C  34.84500 48.98600 19.57800
C  37.83500 47.05700 20.71600
C  39.07800 47.39100 21.58500
N  35.72400 47.37200 25.58500
C  36.18900 46.24300 24.90000
C  36.32100 45.13100 25.75700
C  35.89100 45.57100 26.99500
C  35.44000 46.92800 26.87200
C  36.96900 43.76200 25.53400
C  35.80000 45.24000 28.38200
O  36.20500 44.25000 28.99900
C  35.12000 46.41100 29.09800
C  33.76000 45.92400 29.63700
O  32.68400 46.39300 29.26700
O  33.96700 45.26400 30.86100
C  32.77700 44.84800 31.60000
H  33.41300 52.85500 27.26600
H  35.23100 51.49200 21.23100
H  36.79500 45.48100 23.02500
H  33.18100 48.88300 29.85100
H  34.12800 51.64200 29.61600
H  31.90700 51.91100 30.01700
H  31.65700 50.26900 29.48800
H  31.61300 51.73600 28.34300
H  35.65100 50.39100 30.60500
H  35.84800 48.71000 30.73700
H  34.86400 49.91700 32.75400
H  35.13900 48.30900 32.57000
H  33.76700 55.47000 24.97300
H  32.98500 54.58600 26.20000
H  32.22800 54.65700 24.52600
H  32.90400 55.49400 22.45300
H  34.06300 55.97600 21.19800
H  34.44600 56.17700 22.96900
H  36.73400 49.61000 20.43200
H  35.95500 46.65500 20.62300
H  33.94500 49.23300 20.14100
H  34.71300 48.07800 18.98800
H  34.99300 49.81900 18.89000
H  38.11800 47.58400 19.80500
H  37.81800 46.00500 20.43200
H  39.54400 48.24700 21.09700
H  39.77400 46.55200 21.58500
H  38.85600 47.67200 22.61400
H  37.78300 43.76100 24.80900
H  36.14700 43.06900 25.35600
H  37.47800 43.50700 26.46400
H  35.67600 46.63200 30.00800
H  32.68900 43.76200 31.57900
H  31.78700 45.23500 31.35800
H  33.06300 45.12200 32.61600

