158

Mg -9.93100 39.55300 39.97600
C  -9.14400 36.15600 39.42700
C  -6.69200 40.33200 38.86000
C  -10.53600 42.77400 40.37200
C  -13.23100 38.72200 40.46100
N  -8.14800 38.44600 39.30000
C  -8.10600 37.06500 39.12700
C  -6.65400 36.57700 38.80600
C  -5.89200 37.90500 38.94400
C  -6.97100 38.99800 39.05800
C  -4.83600 38.12200 40.16400
C  -6.33800 35.84200 37.41100
C  -6.84400 36.59000 36.15000
H  -8.07000 36.11900 35.37200
N  -8.79600 41.31000 39.65400
C  -7.54900 41.40200 39.12900
C  -7.18900 42.77400 38.91200
C  -8.29000 43.55900 39.40700
C  -9.29900 42.58100 39.83400
C  -5.90500 43.34100 38.32500
C  -8.39500 45.10400 39.51500
O  -7.52900 45.75800 38.99300
C  -9.53500 45.87600 40.15000
N  -11.66700 40.54900 40.43600
C  -11.62300 41.88600 40.60000
C  -13.05800 42.46100 40.77100
C  -13.92700 41.13000 40.88200
C  -12.89900 40.10000 40.50800
C  -13.12400 43.45000 42.03500
C  -15.22900 40.96300 40.06200
C  -16.48000 40.71400 40.88600
N  -11.04200 37.82100 40.03300
C  -12.36900 37.62900 40.33500
C  -12.63100 36.20300 40.24900
C  -11.37900 35.60300 39.94800
C  -10.45400 36.60100 39.82900
C  -14.06400 35.70200 40.44000
C  -10.70900 34.31900 39.66800
O  -11.19400 33.15900 39.58800
C  -9.19600 34.65300 39.25300
C  -8.27400 33.85000 40.15900
O  -8.47700 33.58700 41.28600
O  -7.11400 33.54700 39.58800
C  -5.99700 32.91600 40.34200
H  -5.71000 40.68500 38.53700
H  -10.67100 43.82600 40.63200
H  -14.25100 38.39800 40.67900
H  -6.44800 35.96800 39.68600
H  -5.36800 37.88900 37.98900
H  -3.86100 38.31900 39.71800
H  -4.64700 37.20700 40.72500
H  -5.05500 38.91900 40.87400
H  -6.90200 34.91400 37.50500
H  -5.26500 35.67400 37.32000
H  -5.97600 36.41000 35.51600
H  -6.98000 37.64000 36.40700
H  -6.02200 43.57500 37.26700
H  -5.03100 42.70400 38.45900
H  -5.54800 44.25200 38.80600
H  -9.68800 45.55200 41.17900
H  -10.50100 45.65600 39.69400
H  -9.28800 46.93500 40.22200
H  -13.39800 43.11600 39.96900
H  -14.29500 40.91900 41.88500
H  -12.16500 43.66200 42.51000
H  -13.89300 43.17200 42.75600
H  -13.50600 44.39200 41.64100
H  -15.18900 40.21400 39.27100
H  -15.38900 41.93900 39.60200
H  -16.33300 39.80400 41.46700
H  -17.37900 40.45300 40.32600
H  -16.76000 41.53800 41.54200
H  -14.58800 36.13800 41.29000
H  -13.85500 34.64700 40.61900
H  -14.60200 35.88800 39.51100
H  -9.05400 34.22600 38.26100
H  -5.24300 32.70900 39.58200
H  -6.37300 31.94900 40.67500
H  -5.58600 33.49700 41.16800
Mg -12.34500 16.99900 42.20300
C  -9.19700 15.33000 41.78100
C  -10.91400 19.74000 40.64400
C  -15.46400 18.27400 41.79000
C  -13.75800 13.76500 43.02900
N  -10.31400 17.42600 41.18700
C  -9.14300 16.65800 41.29100
C  -7.85400 17.45500 40.89200
C  -8.44700 18.86000 40.72200
C  -9.98400 18.65300 40.84200
C  -7.99300 20.04000 41.70600
C  -7.14300 16.76400 39.62500
C  -5.65400 16.26500 39.69200
H  -5.36400 15.08900 38.64500
N  -13.10200 18.83500 41.35300
C  -12.33800 19.83200 40.77000
C  -13.23200 20.91300 40.37200
C  -14.51900 20.47800 40.73100
C  -14.45400 19.14400 41.35100
C  -12.70800 22.11700 39.66300
C  -15.74700 21.33800 40.45900
O  -15.66700 22.43300 39.89000
C  -17.09400 20.88200 40.83500
N  -14.31800 16.06700 42.41500
C  -15.44300 16.90500 42.30400
C  -16.72300 16.02900 42.46600
C  -16.14400 14.62200 43.04100
C  -14.67000 14.76800 42.76700
C  -17.81200 16.59500 43.37200
C  -16.79200 13.40900 42.23300
C  -17.12700 12.09200 42.98100
N  -11.59400 14.96300 42.47200
C  -12.30400 13.83600 42.82200
C  -11.31400 12.75100 42.93600
C  -10.07500 13.31600 42.61300
C  -10.31000 14.68500 42.26800
C  -11.56900 11.42500 43.44500
C  -8.61300 13.01900 42.44600
O  -7.91300 12.04900 42.79000
C  -7.97600 14.32200 41.93600
C  -7.19100 14.79700 43.11000
O  -7.52400 15.59800 44.00400
O  -5.93300 14.27000 43.01600
C  -4.99300 14.70300 44.13700
H  -10.51200 20.66500 40.22600
H  -16.51600 18.50600 41.61100
H  -14.17200 12.78000 43.25500
H  -7.12200 17.40000 41.69800
H  -8.34700 19.21900 39.69800
H  -8.89300 20.39400 42.20900
H  -7.53200 20.86000 41.15500
H  -7.15700 19.84700 42.37800
H  -7.05000 17.57100 38.89800
H  -7.74700 15.96600 39.19500
H  -5.41700 16.10400 40.74300
H  -4.96900 17.08800 39.49000
H  -13.15300 23.05600 39.99200
H  -12.78600 22.04300 38.57800
H  -11.64300 22.29300 39.81600
H  -17.25600 19.95900 40.27800
H  -17.82000 21.67400 40.65100
H  -16.92600 20.65100 41.88700
H  -17.15400 15.92200 41.47100
H  -16.25200 14.48800 44.11700
H  -17.48600 17.56800 43.73900
H  -18.12600 15.94600 44.18900
H  -18.70600 16.84200 42.80000
H  -15.99500 13.19400 41.52100
H  -17.66400 13.75400 41.67800
H  -16.46800 11.30300 42.61900
H  -18.17700 12.04500 42.69500
H  -16.87000 12.26200 44.02700
H  -11.74200 10.73400 42.62000
H  -12.42000 11.46400 44.12500
H  -10.61600 11.18000 43.91300
H  -7.38500 14.11900 41.04300
H  -4.81900 15.77800 44.17700
H  -4.02700 14.20800 44.03600
H  -5.42500 14.46400 45.10900

