158

Mg -1.81900 17.55500 26.39300
C  -2.08000 15.00300 28.87100
C  -2.23800 19.84800 28.92400
C  -2.20400 19.90500 24.09000
C  -2.16900 15.07900 24.05600
N  -1.97500 17.42200 28.67700
C  -1.96900 16.27800 29.42500
C  -2.00800 16.55500 30.95200
C  -2.48700 18.03600 30.95300
C  -2.14400 18.50400 29.48000
C  -3.97700 18.46600 31.41200
C  -0.67600 16.17300 31.75200
C  -0.29000 17.00900 33.04800
H  -0.34800 16.32600 34.41300
N  -2.10600 19.59900 26.52300
C  -2.24100 20.38100 27.62400
C  -2.56300 21.68600 27.24900
C  -2.40600 21.77700 25.82200
C  -2.19400 20.37500 25.40900
C  -2.82600 22.89000 28.19700
C  -2.55400 22.98600 24.87300
O  -2.31600 22.94300 23.67000
C  -2.85000 24.43800 25.39500
N  -2.37500 17.45600 24.44900
C  -2.27900 18.55800 23.59300
C  -2.31900 18.19500 22.11600
C  -2.09200 16.68400 22.15700
C  -2.13800 16.38000 23.65500
C  -3.54000 18.71300 21.31800
C  -0.71700 16.23400 21.58600
C  0.64600 16.68700 22.23100
N  -1.99300 15.42100 26.40200
C  -2.18400 14.53100 25.32400
C  -2.32500 13.17100 25.84000
C  -2.30000 13.32700 27.23300
C  -2.08400 14.69300 27.51400
C  -2.48200 11.86800 25.13100
C  -2.29300 12.64500 28.48900
O  -2.26500 11.44500 28.77900
C  -2.40900 13.75700 29.52500
C  -1.57600 13.36700 30.67500
O  -0.37200 13.29800 30.71100
O  -2.37000 12.96500 31.68300
C  -1.73100 12.24100 32.78500
H  -2.51000 20.62000 29.64600
H  -2.21400 20.60700 23.25300
H  -2.14100 14.38500 23.21300
H  -2.77400 15.96900 31.46000
H  -1.76500 18.68400 31.45000
H  -4.55600 18.83900 30.56700
H  -3.76900 19.30200 32.08100
H  -4.40400 17.64000 31.98000
H  0.18100 16.08100 31.08500
H  -0.77500 15.16900 32.16300
H  -0.74000 18.00200 33.04500
H  0.75700 17.29300 32.93900
H  -1.93100 23.49600 28.05400
H  -2.91800 22.46500 29.19700
H  -3.76200 23.37300 27.91500
H  -3.79900 24.45900 25.93100
H  -2.96500 25.12000 24.55300
H  -2.02000 24.79600 26.00400
H  -1.46800 18.66100 21.61800
H  -2.90300 16.13600 21.67800
H  -4.15900 19.21200 22.06300
H  -4.03600 17.91300 20.76800
H  -3.31500 19.47000 20.56700
H  -0.69800 16.51100 20.53200
H  -0.66800 15.14500 21.56000
H  1.16600 17.33900 21.52800
H  1.31200 15.87400 22.51900
H  0.46000 17.35500 23.07200
H  -1.51000 11.38700 25.02100
H  -2.87700 12.13100 24.15000
H  -3.23600 11.29900 25.67600
H  -3.45300 13.87800 29.81700
H  -1.19900 13.02900 33.31700
H  -0.99100 11.50200 32.47800
H  -2.50800 11.85500 33.44600
Mg 26.04700 50.04300 26.71000
C  24.20700 51.35800 29.32300
C  28.41100 48.98600 29.07800
C  28.21900 49.20200 24.24500
C  23.73200 51.08500 24.38500
N  26.36800 50.22800 28.89600
C  25.39300 50.70400 29.73000
C  25.69100 50.30900 31.28300
C  27.07200 49.71900 31.15400
C  27.36000 49.64600 29.62300
C  28.30600 50.32800 31.90300
C  24.63200 49.46600 31.92900
C  23.97400 50.13000 33.16000
H  23.66700 49.19300 34.32900
N  28.04000 49.13900 26.65800
C  28.79600 48.72200 27.74200
C  30.01800 48.08800 27.25600
C  30.00700 48.24300 25.79900
C  28.67900 48.90100 25.52900
C  31.11200 47.52000 28.10400
C  31.10700 47.87100 24.74100
O  30.98000 48.11500 23.56500
C  32.33200 47.13500 25.22700
N  26.05300 50.24000 24.58400
C  27.04900 49.79400 23.82000
C  26.67400 49.69500 22.32200
C  25.20500 50.20400 22.42500
C  24.89500 50.47400 23.87700
C  27.71000 50.32400 21.31700
C  24.22500 49.26400 21.62900
C  23.83400 47.90700 22.34100
N  24.25500 51.01300 26.78200
C  23.47400 51.40300 25.76100
C  22.37500 52.05300 26.30500
C  22.57300 52.11800 27.72800
C  23.76300 51.41400 28.01900
C  21.24100 52.68300 25.57800
C  22.08900 52.55400 28.97500
O  21.02300 53.13400 29.21000
C  23.15200 52.06800 30.14200
C  23.66800 53.21100 30.92400
O  24.70000 53.80700 30.71600
O  23.02800 53.18800 32.14400
C  23.59500 54.09400 33.11000
H  29.17600 48.60600 29.75900
H  28.80900 48.84700 23.39700
H  22.96200 51.38900 23.67400
H  25.82100 51.19800 31.89900
H  27.02900 48.65900 31.40600
H  29.07100 50.66600 31.20300
H  28.80200 49.64200 32.58900
H  28.09200 51.22500 32.48400
H  24.99000 48.47000 32.19100
H  23.93600 49.26200 31.11600
H  22.97100 50.41400 32.84100
H  24.48500 51.04500 33.46000
H  32.00900 48.12500 27.97200
H  31.24700 46.44300 28.00400
H  30.95800 47.66300 29.17300
H  33.02200 47.77600 25.77500
H  32.76400 46.84500 24.26900
H  31.99200 46.29500 25.83400
H  26.65200 48.60600 22.28600
H  25.29000 51.18300 21.95400
H  28.55400 50.80300 21.81400
H  27.06700 50.98300 20.73300
H  28.05600 49.52700 20.65800
H  24.70500 48.86100 20.73700
H  23.29000 49.80100 21.46900
H  24.18200 47.08000 21.72300
H  22.75600 47.74700 22.37700
H  24.11900 47.76000 23.38300
H  21.17400 52.38400 24.53200
H  21.49200 53.73800 25.69000
H  20.31400 52.56900 26.14000
H  22.51200 51.38000 30.69500
H  24.05700 54.98800 32.69000
H  24.25100 53.50300 33.75000
H  22.74300 54.37800 33.72800

