158

Mg 43.08900 4.32200 47.14700
C  40.84600 7.04800 46.91300
C  40.33900 2.25100 47.26700
C  45.12000 1.77400 47.02400
C  45.73000 6.50000 46.82800
N  40.86500 4.65200 47.23500
C  40.25600 5.81500 47.05100
C  38.71000 5.62400 47.20900
C  38.54100 4.17100 47.63200
C  39.97100 3.59800 47.32800
C  37.92200 3.84300 49.01200
C  37.78400 6.09500 45.97800
C  38.31900 5.68900 44.53500
H  38.47500 6.63800 43.40300
N  42.74900 2.34000 47.02700
C  41.56900 1.64700 47.11500
C  41.78300 0.22100 47.11900
C  43.18600 0.06500 46.95200
C  43.77100 1.42400 47.02400
C  40.70500 -0.72400 47.06100
C  43.89900 -1.24700 46.70200
O  43.29500 -2.33200 46.80400
C  45.27100 -1.29000 46.18200
N  45.08900 4.15700 46.67500
C  45.73100 2.98100 46.96300
C  47.25700 3.08800 47.07000
C  47.42900 4.64600 46.90700
C  45.99600 5.15500 46.84400
C  47.85800 2.44000 48.31000
C  48.29800 5.09300 45.71000
C  49.76500 4.61100 45.70400
N  43.29000 6.37100 46.76100
C  44.45800 7.08600 46.77900
C  44.11900 8.52800 46.86300
C  42.64500 8.56000 46.85200
C  42.25600 7.20700 46.80400
C  45.06600 9.74200 46.60400
C  41.43600 9.43400 46.84400
O  41.30800 10.65300 47.02000
C  40.23800 8.49000 46.88700
C  39.35900 8.80100 47.99000
O  39.63600 8.52200 49.16400
O  38.20600 9.39600 47.53500
C  37.29700 9.84400 48.63900
H  39.44700 1.63900 47.41300
H  45.80100 0.92300 47.07200
H  46.53800 7.16800 47.13400
H  38.28900 6.24300 48.00200
H  37.88500 3.71000 46.89300
H  36.99900 3.28000 48.87100
H  37.60900 4.64500 49.68000
H  38.44800 3.11400 49.62900
H  37.50000 7.14500 46.03500
H  36.78600 5.66900 46.07700
H  37.58000 4.98400 44.15500
H  39.24100 5.14900 44.75200
H  39.79300 -0.34700 47.52500
H  40.84400 -1.64600 47.62600
H  40.52000 -0.93400 46.00700
H  45.97800 -1.06300 46.98000
H  45.48100 -0.61100 45.35500
H  45.64400 -2.18600 45.68600
H  47.59100 2.65400 46.12700
H  47.93700 4.95300 47.82100
H  47.12800 2.30000 49.10700
H  48.63700 3.12100 48.65500
H  48.20600 1.42500 48.12000
H  48.28700 6.18000 45.62600
H  47.82500 4.63300 44.84200
H  49.75200 3.72400 45.07000
H  50.21200 4.29700 46.64700
H  50.30500 5.46800 45.30100
H  45.76500 9.53300 45.79400
H  45.72100 9.89400 47.46200
H  44.47400 10.63800 46.41700
H  39.60400 8.49800 46.00000
H  37.80400 10.60300 49.23500
H  36.91800 9.01000 49.22900
H  36.48400 10.42900 48.21000
Mg 40.60500 8.84300 28.96500
C  42.60300 10.23200 31.67400
C  38.78600 7.29700 31.53200
C  38.87300 7.72200 26.63200
C  43.12600 9.97900 26.79300
N  40.65300 8.89000 31.34000
C  41.44200 9.60500 32.17700
C  40.91300 9.62100 33.56100
C  39.90400 8.40700 33.49600
C  39.76800 8.13800 32.03400
C  40.21000 7.10500 34.32500
C  40.28800 11.08300 33.79100
C  39.56700 11.30400 35.18300
H  39.96500 12.48400 36.00800
N  39.03700 7.68400 29.02500
C  38.40800 7.13100 30.16200
C  37.18700 6.47600 29.78600
C  37.15600 6.54300 28.30700
C  38.37000 7.33400 27.92500
C  36.11100 5.96500 30.76300
C  36.24900 5.89000 27.31700
O  36.28300 6.12000 26.13000
C  35.23200 4.77000 27.91600
N  41.10200 8.71400 26.94400
C  40.03700 8.34300 26.15800
C  40.34700 8.61700 24.73900
C  41.66200 9.44900 24.82700
C  41.98900 9.38200 26.26200
C  40.46600 7.24200 23.85500
C  41.46200 10.94100 24.33600
C  40.43800 11.86700 25.10300
N  42.43500 9.78100 29.13800
C  43.37700 10.13400 28.16200
C  44.57300 10.77300 28.76300
C  44.23900 10.86600 30.06400
C  42.94100 10.31600 30.25900
C  45.76200 11.24900 28.10900
C  44.79300 11.35600 31.33500
O  45.85000 11.84400 31.65700
C  43.71000 10.94200 32.42900
C  44.38800 9.99100 33.41900
O  44.73000 8.83200 33.13800
O  44.52700 10.63000 34.56600
C  45.08500 9.80400 35.63100
H  38.20500 6.73000 32.26300
H  38.34900 7.41200 25.72600
H  43.97800 10.39400 26.25100
H  41.57300 9.33600 34.38000
H  38.98300 8.75300 33.96600
H  40.49600 6.18600 33.81300
H  39.44400 6.92000 35.07900
H  41.14000 7.32300 34.84900
H  39.57800 11.27000 32.98500
H  41.11800 11.78800 33.73800
H  39.62100 10.33500 35.68000
H  38.54600 11.55400 34.89600
H  36.06700 6.43700 31.74400
H  36.31400 4.92200 31.00700
H  35.08000 5.86200 30.42300
H  35.83000 4.23200 28.65200
H  34.94600 4.07500 27.12600
H  34.41800 5.27700 28.43200
H  39.55800 9.24200 24.32200
H  42.37700 8.89100 24.22200
H  40.52900 6.36900 24.50400
H  41.42900 7.37700 23.36300
H  39.69500 7.09400 23.09900
H  41.20000 11.00100 23.28000
H  42.48200 11.32100 24.28500
H  40.90300 12.83900 25.27000
H  40.29000 11.33900 26.04400
H  39.54600 11.84900 24.47700
H  46.33000 11.87100 28.80100
H  45.62700 11.72900 27.14000
H  46.47600 10.45500 27.89100
H  43.43600 11.88900 32.89400
H  45.66500 10.38900 36.34600
H  45.84100 9.07800 35.33300
H  44.30100 9.34500 36.23300

