158

Mg 25.89600 1.06900 29.71100
C  27.70600 0.76000 32.59400
C  23.15500 1.93200 31.56800
C  24.09300 1.46900 26.84500
C  28.56000 0.12500 27.85200
N  25.46900 1.38600 31.78400
C  26.37400 1.15600 32.79900
C  25.83500 1.47700 34.14500
C  24.27700 1.49500 33.87800
C  24.27900 1.65500 32.32300
C  23.40400 0.32000 34.40300
C  26.39900 2.82700 34.76200
C  27.28600 2.58600 36.08300
H  26.83200 3.27200 37.35800
N  23.89100 1.56100 29.27500
C  22.96400 1.91000 30.18700
C  21.69500 2.13300 29.50300
C  21.89500 1.91200 28.05100
C  23.31100 1.56300 27.99800
C  20.38900 2.54700 30.10700
C  20.99700 2.16800 26.81700
O  21.27900 1.99100 25.62900
C  19.56600 2.77200 27.05500
N  26.21800 0.60500 27.62600
C  25.44100 1.03800 26.64400
C  26.18800 1.23300 25.24900
C  27.59400 0.67500 25.59600
C  27.45800 0.44100 27.12000
C  25.49700 0.62000 24.04600
C  28.78900 1.55100 25.27300
C  28.80900 2.95500 26.05300
N  27.82400 0.34800 30.10100
C  28.79500 0.03800 29.18500
C  29.98400 -0.22600 30.02900
C  29.63700 0.08200 31.38200
C  28.27600 0.43600 31.34000
C  31.33900 -0.60600 29.65300
C  30.08100 0.12200 32.76600
O  31.16100 -0.09400 33.26400
C  28.79200 0.68500 33.60000
C  28.69800 -0.34700 34.62900
O  28.07200 -1.33800 34.44900
O  29.29300 0.08900 35.77400
C  29.04200 -0.77400 36.98400
H  22.33400 2.25000 32.21300
H  23.58400 1.81400 25.94300
H  29.50800 -0.05400 27.33900
H  26.08900 0.68100 34.84500
H  23.69100 2.38400 34.10700
H  23.16500 -0.35300 33.57900
H  22.44300 0.60900 34.82700
H  23.83300 -0.27100 35.21200
H  25.51500 3.43400 34.95700
H  26.98500 3.44800 34.08500
H  28.29700 2.77300 35.72200
H  27.35100 1.54800 36.41000
H  20.59900 2.57000 31.17700
H  19.57700 1.86600 29.85300
H  20.17300 3.56700 29.79100
H  19.05900 3.04700 26.13000
H  19.67800 3.79100 27.42600
H  18.93400 2.23900 27.76600
H  26.29500 2.26000 24.89900
H  27.75700 -0.28600 25.10800
H  26.19100 -0.08300 23.58400
H  25.11900 1.36700 23.34900
H  24.78100 -0.17100 24.27100
H  28.87700 1.83600 24.22500
H  29.77400 1.09600 25.38600
H  28.28700 2.81700 26.99900
H  28.32500 3.70000 25.42200
H  29.80800 3.32500 26.28100
H  31.19200 -1.40700 28.92800
H  31.91800 -1.06000 30.45700
H  31.85500 0.23300 29.18700
H  29.15700 1.63800 33.98400
H  29.05100 -1.82200 36.68700
H  28.17100 -0.46400 37.56100
H  29.88600 -0.59100 37.64900
Mg 55.67600 24.11700 43.92700
C  53.11800 26.50400 43.09700
C  53.69600 21.81500 42.27700
C  58.42100 22.34700 43.62700
C  57.45300 26.79500 45.35500
N  53.61700 24.17600 42.82500
C  52.78500 25.21000 42.56700
C  51.61400 24.67700 41.66700
C  51.65100 23.12600 42.03300
C  53.05300 23.01900 42.47000
C  50.68600 22.64900 43.15900
C  51.92800 25.00600 40.21600
C  50.69900 25.04800 39.28000
H  50.84000 25.75800 37.91700
N  56.02900 22.28800 43.08200
C  55.09900 21.46700 42.54700
C  55.68800 20.16000 42.43000
C  57.01300 20.24800 42.88000
C  57.23600 21.67900 43.18700
C  54.92800 18.91200 41.91900
C  57.97200 19.14300 42.90300
O  57.69000 18.07800 42.39200
C  59.29300 19.30100 43.44000
N  57.66800 24.59600 44.26200
C  58.65500 23.66500 44.19900
C  60.01100 24.19700 44.69500
C  59.63800 25.49200 45.37100
C  58.15600 25.65800 44.95600
C  60.74800 23.14300 45.58700
C  60.55400 26.73700 45.05300
C  60.15100 27.67100 43.89000
N  55.34800 26.17700 44.35600
C  56.16200 27.12000 44.97000
C  55.49800 28.35800 44.96100
C  54.37000 28.16300 44.26600
C  54.25800 26.85800 43.87900
C  55.94500 29.67800 45.48600
C  53.10000 28.82600 43.79200
O  52.73100 30.00000 43.89400
C  52.23700 27.64000 43.19100
C  51.58500 28.20100 42.00200
O  52.11800 28.40900 40.94300
O  50.30700 28.54800 42.28300
C  49.42600 28.53100 41.09900
H  53.12800 21.03300 41.76900
H  59.32500 21.74600 43.74400
H  57.96900 27.62300 45.84600
H  50.66000 25.05800 42.03000
H  51.52000 22.48700 41.15900
H  51.33100 22.34800 43.98500
H  50.05300 21.84300 42.78800
H  50.02600 23.39600 43.59900
H  52.66100 24.35600 39.73800
H  52.22900 26.05300 40.17300
H  49.89800 25.57400 39.79800
H  50.43000 24.00400 39.11900
H  54.09500 19.40000 41.41100
H  54.50600 18.23400 42.66100
H  55.47600 18.47500 41.08600
H  59.15800 19.60700 44.47700
H  59.81900 20.02000 42.81200
H  59.98500 18.46900 43.31100
H  60.56000 24.32800 43.76200
H  59.47400 25.38800 46.44300
H  61.66900 22.78700 45.12600
H  60.26100 22.19200 45.80500
H  61.11700 23.57400 46.51800
H  61.50400 26.33200 44.70300
H  60.70900 27.36000 45.93400
H  61.06400 27.86600 43.32700
H  59.70700 28.61800 44.19800
H  59.51200 27.11000 43.20900
H  55.19200 30.44800 45.65400
H  56.80900 29.99600 44.90300
H  56.32000 29.48800 46.49200
H  51.47200 27.40300 43.93100
H  49.54600 29.45100 40.52700
H  48.37600 28.37900 41.34600
H  49.73100 27.70300 40.45900

