158

Mg -2.43900 17.61100 26.78700
C  -3.09100 15.29700 29.56700
C  -2.87300 20.07200 28.98900
C  -2.48700 19.52200 24.15400
C  -2.56000 14.73900 24.69100
N  -3.00800 17.62700 29.03500
C  -3.02300 16.60900 29.96500
C  -3.00600 17.15000 31.38700
C  -3.11500 18.74300 31.11700
C  -3.02900 18.79500 29.62100
C  -4.23900 19.59200 31.65200
C  -1.66300 16.72100 32.21200
C  -1.17500 17.63000 33.27100
H  -0.70500 16.99000 34.67400
N  -2.64300 19.56100 26.56600
C  -2.79100 20.39800 27.62000
C  -2.86600 21.76100 27.10800
C  -2.75700 21.62300 25.69400
C  -2.69800 20.20900 25.36500
C  -2.93300 23.07300 27.98400
C  -2.89400 22.71700 24.63200
O  -2.95200 22.36300 23.45200
C  -2.85000 24.18700 25.02400
N  -2.54000 17.16500 24.73400
C  -2.43300 18.17200 23.84000
C  -2.27500 17.63200 22.34700
C  -2.02300 16.09200 22.64100
C  -2.29400 16.02300 24.10400
C  -3.53200 18.00300 21.45000
C  -0.61200 15.57500 22.16300
C  0.66000 16.14200 22.85200
N  -2.79200 15.44400 26.95300
C  -2.81500 14.45100 26.06700
C  -2.95400 13.19100 26.72700
C  -3.04800 13.44800 28.08500
C  -2.97300 14.87400 28.18100
C  -2.96500 11.82900 26.06000
C  -3.14700 12.85900 29.34500
O  -3.25400 11.66700 29.65100
C  -3.21700 14.01100 30.42500
C  -2.09700 13.68500 31.35700
O  -0.93500 13.86700 31.17200
O  -2.74800 13.05300 32.33500
C  -1.89600 12.70600 33.46800
H  -2.68000 20.79300 29.78700
H  -2.26000 20.03800 23.21800
H  -2.45200 13.88700 24.01700
H  -3.89000 16.83500 31.94200
H  -2.23600 19.26400 31.49700
H  -3.85400 20.39700 32.27800
H  -4.87000 18.96800 32.28500
H  -4.84200 20.03100 30.85800
H  -0.81900 16.52400 31.55100
H  -1.90700 15.79900 32.74100
H  -1.86800 18.44900 33.46300
H  -0.34100 18.16400 32.81500
H  -2.79800 22.75000 29.01600
H  -3.84500 23.65300 27.83800
H  -2.10500 23.67600 27.61300
H  -3.45100 24.50100 25.87700
H  -3.23800 24.87300 24.27100
H  -1.84300 24.55300 25.22500
H  -1.30200 17.97900 22.00100
H  -2.72700 15.45100 22.11000
H  -3.08400 18.49600 20.58700
H  -4.05500 18.71900 22.08400
H  -4.18600 17.14200 21.31100
H  -0.46300 15.75100 21.09800
H  -0.60100 14.48700 22.22000
H  0.39700 17.00600 23.46200
H  1.33100 16.54100 22.09200
H  1.06400 15.30600 23.42300
H  -3.19200 12.06000 25.01900
H  -3.71100 11.24100 26.59500
H  -2.02600 11.28000 26.12200
H  -4.21100 13.91900 30.86500
H  -1.56000 11.66900 33.45400
H  -2.47800 12.90900 34.36700
H  -1.05200 13.36400 33.67800
Mg 2.08900 -1.27900 44.96800
C  5.41100 -0.39700 44.06100
C  1.04100 0.98500 42.45000
C  -0.93000 -2.51300 45.41900
C  3.47800 -4.10400 46.62200
N  3.17900 0.08500 43.36500
C  4.55900 0.35900 43.28100
C  4.87200 1.54600 42.38900
C  3.39100 2.03100 42.00500
C  2.44800 0.95000 42.59700
C  3.00900 3.42500 42.55800
C  5.73100 1.07500 41.13800
C  6.95100 2.01000 40.86200
H  7.06400 2.55100 39.44600
N  0.27500 -0.71100 44.22700
C  0.03900 0.19400 43.19700
C  -1.36100 0.26900 43.04400
C  -1.97700 -0.65800 43.95800
C  -0.93000 -1.34900 44.63700
C  -2.07300 1.16500 42.10100
C  -3.49500 -0.73600 44.31400
O  -4.38400 -0.16000 43.66300
C  -3.97000 -1.51700 45.48900
N  1.35700 -3.07300 45.90300
C  0.05100 -3.25300 46.05200
C  -0.27500 -4.59000 46.81000
C  1.18000 -5.20300 47.02400
C  2.07400 -4.09100 46.50100
C  -1.02600 -4.27600 48.11400
C  1.34500 -6.58200 46.31500
C  1.43900 -7.83500 47.26200
N  3.98800 -2.03800 45.31800
C  4.34900 -3.13400 46.08600
C  5.83500 -3.19300 46.13200
C  6.29900 -2.06500 45.42000
C  5.13600 -1.44000 44.90400
C  6.60000 -4.26400 46.86400
C  7.43000 -1.28000 45.09000
O  8.55100 -1.30700 45.44600
C  6.88900 -0.14900 44.27000
C  7.17300 1.12100 45.01900
O  6.56300 1.63700 45.96800
O  8.31900 1.66200 44.50800
C  8.74400 2.97000 44.99800
H  0.70100 1.80600 41.81600
H  -1.86400 -3.01700 45.67500
H  3.85700 -5.10200 46.85200
H  5.36600 2.36700 42.90900
H  3.27800 1.90000 40.92900
H  3.80300 3.78400 43.21200
H  2.01900 3.41800 43.01400
H  2.94100 4.18400 41.77900
H  5.23300 1.13800 40.17000
H  6.02100 0.02500 41.18000
H  7.83300 1.42500 41.12400
H  7.02500 2.85600 41.54500
H  -2.68700 0.55400 41.43900
H  -1.42500 1.71300 41.41700
H  -2.67700 1.92200 42.60100
H  -3.37900 -1.46300 46.40300
H  -4.16500 -2.53200 45.14300
H  -4.95900 -1.16800 45.78700
H  -1.05500 -5.11000 46.25300
H  1.30000 -5.33600 48.09900
H  -1.58700 -5.18000 48.34900
H  -1.63700 -3.37800 48.02200
H  -0.20700 -4.14700 48.82100
H  2.32000 -6.69500 45.84000
H  0.56800 -6.68600 45.55700
H  1.63300 -7.56500 48.30000
H  2.25400 -8.49300 46.96200
H  0.46800 -8.33000 47.24000
H  6.63600 -5.14600 46.22400
H  6.21300 -4.55400 47.84100
H  7.60000 -3.85000 46.99400
H  7.35000 0.00600 43.29400
H  8.00100 3.72600 44.74400
H  9.69600 3.27200 44.56200
H  8.81900 3.07100 46.08000

