158

Mg 46.57500 15.56900 28.14100
C  44.56200 15.66900 31.04600
C  48.81000 17.67800 29.90300
C  48.47500 15.89400 25.43900
C  44.08300 14.03000 26.41100
N  46.60600 16.68000 30.20000
C  45.68500 16.46700 31.26100
C  46.22100 17.03500 32.63200
C  47.47100 17.85000 32.08000
C  47.66400 17.30100 30.62500
C  47.42800 19.34500 32.31600
C  46.52700 15.97900 33.73800
C  45.74500 16.24800 35.01000
H  45.85300 17.58400 35.68400
N  48.49200 16.46600 27.77300
C  49.24800 17.28900 28.56600
C  50.44800 17.70800 27.92400
C  50.42400 17.08300 26.65100
C  49.08700 16.43000 26.57300
C  51.62500 18.34500 28.64300
C  51.56300 17.00400 25.60900
O  51.50600 16.24700 24.64500
C  52.76200 17.76900 25.80500
N  46.30300 15.06400 26.30000
C  47.23100 15.23300 25.31600
C  46.78800 14.62400 23.96600
C  45.41700 13.98000 24.32900
C  45.21000 14.47700 25.79500
C  46.81500 15.63200 22.79000
C  45.39200 12.40000 24.00500
C  46.02600 11.44500 25.00100
N  44.71500 14.88300 28.57800
C  43.77000 14.28300 27.76600
C  42.56200 14.07100 28.50100
C  42.87400 14.53300 29.85800
C  44.15100 15.04800 29.83300
C  41.33700 13.43900 27.77600
C  42.33300 14.73500 31.22100
O  41.22100 14.31300 31.73900
C  43.47400 15.40400 32.03500
C  42.90400 16.62400 32.75200
O  43.00100 17.79800 32.42500
O  42.29600 16.23900 33.92300
C  41.62900 17.36300 34.61700
H  49.54700 18.32800 30.37800
H  49.03800 16.04400 24.51500
H  43.28300 13.65400 25.77000
H  45.48500 17.77500 32.94600
H  48.36900 17.55200 32.62200
H  46.70500 19.62600 33.08200
H  47.25000 19.85900 31.37100
H  48.39400 19.71000 32.66300
H  47.57800 16.12400 33.98700
H  46.30600 14.94300 33.47900
H  46.10000 15.46800 35.68400
H  44.72500 16.02600 34.69500
H  52.40800 17.59100 28.56400
H  51.48800 18.55900 29.70300
H  51.91000 19.24900 28.10400
H  52.27900 18.66500 26.19400
H  53.28000 18.11700 24.91100
H  53.27200 17.07900 26.47600
H  47.42600 13.78000 23.70400
H  44.61500 14.47500 23.78100
H  47.40800 16.51000 23.04700
H  45.89100 15.98200 22.33100
H  47.49300 15.19100 22.06000
H  45.87200 12.21400 23.04400
H  44.32400 12.22500 23.87100
H  46.31900 11.95200 25.92100
H  46.85500 10.92400 24.52200
H  45.28600 10.67500 25.21600
H  41.73100 12.59000 27.21800
H  40.83300 14.19200 27.17000
H  40.60700 13.00000 28.45600
H  43.76500 14.70400 32.81800
H  42.31400 18.04600 35.11900
H  40.97300 16.95200 35.38400
H  41.01300 17.79000 33.82600
Mg -11.13200 16.24700 42.45000
C  -7.83200 17.31800 42.33300
C  -12.10200 19.65200 42.24100
C  -14.41600 15.42100 42.29900
C  -10.24500 12.95500 42.60600
N  -10.05800 18.23000 41.93800
C  -8.75900 18.37900 42.10400
C  -8.37800 19.90900 42.01100
C  -9.72300 20.52800 42.39000
C  -10.73200 19.44100 42.11200
C  -9.76900 21.31700 43.74400
C  -7.86700 20.28600 40.57500
C  -6.31700 20.57900 40.22800
H  -5.53500 19.54600 39.38300
N  -13.04200 17.34300 42.20800
C  -13.20600 18.73100 42.22900
C  -14.58300 19.01600 42.25400
C  -15.26500 17.83000 42.14000
C  -14.26200 16.74600 42.28600
C  -15.12400 20.44700 42.40500
C  -16.73800 17.70100 42.11000
O  -17.46900 18.70900 42.14400
C  -17.41400 16.34200 41.91800
N  -12.13400 14.45600 42.32100
C  -13.52900 14.39100 42.33400
C  -13.89600 12.91900 42.50100
C  -12.63100 12.16900 42.11900
C  -11.60100 13.23000 42.30200
C  -14.37100 12.65300 43.95300
C  -12.65100 11.54800 40.71600
C  -12.88600 10.02800 40.89100
N  -9.37200 15.31700 42.47500
C  -9.15900 13.96900 42.64300
C  -7.68800 13.72100 42.84700
C  -7.14100 15.03900 42.73600
C  -8.22300 15.94300 42.54900
C  -7.09500 12.37100 42.83500
C  -5.88300 15.85000 42.72500
O  -4.71900 15.55400 42.98100
C  -6.35300 17.29100 42.70400
C  -6.18900 17.81700 44.03700
O  -6.29000 17.20800 45.07900
O  -5.84600 19.12800 43.98600
C  -5.10500 19.62900 45.18700
H  -12.39300 20.67500 42.48600
H  -15.40200 14.96600 42.18400
H  -9.90300 11.95000 42.86500
H  -7.70900 20.13700 42.84100
H  -9.98900 21.35600 41.73200
H  -8.81600 21.47200 44.24900
H  -10.35100 20.71500 44.44200
H  -10.42900 22.18400 43.70700
H  -8.37900 21.21100 40.31000
H  -8.29000 19.53500 39.90900
H  -5.78700 20.53000 41.17900
H  -6.27500 21.50800 39.66000
H  -15.87200 20.63700 41.63500
H  -14.34900 21.19600 42.24600
H  -15.59500 20.53600 43.38400
H  -18.46300 16.38900 41.62700
H  -17.50800 15.78700 42.85100
H  -16.86100 15.85500 41.11500
H  -14.74400 12.72300 41.84500
H  -12.42200 11.43500 42.89800
H  -15.38300 12.24600 43.96700
H  -14.24200 13.53800 44.57500
H  -13.80200 11.84900 44.41800
H  -11.67900 11.67600 40.23900
H  -13.42000 12.07200 40.14900
H  -11.97000 9.56000 40.53100
H  -13.73900 9.68700 40.30300
H  -12.91400 9.61600 41.90000
H  -6.92200 12.09500 41.79500
H  -7.82300 11.71600 43.31300
H  -6.17200 12.53300 43.39100
H  -5.79500 17.90400 41.99600
H  -4.51900 18.78100 45.54000
H  -5.79800 19.93500 45.97100
H  -4.52600 20.52300 44.95300

