158

Mg 47.08000 34.82500 28.28400
C  45.70700 32.61800 30.51400
C  47.51600 37.12300 30.87400
C  47.80200 37.24800 25.96600
C  46.31800 32.56700 25.73800
N  46.72800 34.85400 30.43200
C  46.18300 33.78600 31.17900
C  46.25000 34.19200 32.72900
C  46.28300 35.74500 32.69100
C  46.95600 35.88600 31.26800
C  44.89800 36.49700 32.94000
C  47.44800 33.54300 33.45800
C  47.33000 33.21300 34.87900
H  46.51400 34.18700 35.78600
N  47.85800 36.82500 28.42600
C  47.98900 37.55500 29.55300
C  48.65200 38.75400 29.22500
C  48.61000 38.85500 27.78100
C  48.01400 37.61700 27.34100
C  49.11900 39.77700 30.28500
C  49.11700 39.92700 26.85700
O  48.97000 39.93100 25.65200
C  49.72300 41.19400 27.43300
N  47.01200 34.92600 26.17000
C  47.44800 35.98300 25.47000
C  47.22600 35.83000 24.02300
C  46.74500 34.35200 23.93200
C  46.66700 33.84300 25.37400
C  46.17400 36.81400 23.38900
C  47.80900 33.45200 23.23000
C  49.11100 33.06500 24.01800
N  46.26400 32.91600 28.10500
C  46.11000 32.08900 27.01900
C  45.37900 30.89900 27.45200
C  45.13700 31.12000 28.79600
C  45.83900 32.29300 29.16700
C  44.99000 29.68600 26.59700
C  44.58100 30.51900 29.99100
O  44.12400 29.40200 30.10800
C  44.77200 31.56800 31.04700
C  45.08500 30.90500 32.28000
O  46.20100 30.58400 32.68800
O  43.87800 30.70500 32.94100
C  44.00900 30.21600 34.29100
H  47.60700 37.89000 31.64500
H  47.99400 37.92400 25.13000
H  46.20200 31.89100 24.88800
H  45.35200 33.95100 33.29700
H  47.00100 36.16500 33.39600
H  45.11100 37.11600 33.81100
H  44.10300 35.80700 33.22100
H  44.62100 37.05400 32.04500
H  48.34200 34.13500 33.26600
H  47.60700 32.55800 33.02000
H  48.27900 33.22000 35.41500
H  46.90000 32.22000 35.01300
H  50.11600 40.12600 30.01700
H  49.12300 39.11000 31.14800
H  48.46000 40.63000 30.44500
H  49.12600 41.48900 28.29700
H  49.72100 41.85200 26.56400
H  50.72800 41.06700 27.83600
H  48.17700 35.87700 23.49200
H  45.79100 34.20700 23.42400
H  45.28200 36.29300 23.04300
H  46.67600 37.33200 22.57100
H  45.97600 37.55300 24.16500
H  48.02400 33.82400 22.22800
H  47.32900 32.48800 23.06500
H  49.11100 32.04100 24.39000
H  49.28400 33.80400 24.80000
H  49.98500 33.08300 23.36600
H  45.61200 28.79100 26.56300
H  44.87400 30.05300 25.57700
H  44.01500 29.44500 27.02100
H  43.78900 32.03900 31.03200
H  43.08900 30.03400 34.84700
H  44.57200 31.02800 34.75100
H  44.67100 29.35500 34.38900
Mg 16.31100 51.96000 24.57200
C  17.88900 50.79900 27.59600
C  13.58200 52.83900 26.56200
C  14.80000 52.81400 21.86600
C  18.96800 50.48300 22.75100
N  15.81700 51.71400 26.82500
C  16.67800 51.38100 27.85600
C  16.14600 51.70200 29.30400
C  14.68400 52.11700 28.89400
C  14.65400 52.30200 27.33200
C  13.59500 51.15900 29.44900
C  16.92700 52.84200 30.06700
C  16.75500 52.92000 31.66600
H  15.85200 51.80700 32.40900
N  14.41500 52.83200 24.22300
C  13.40400 53.06800 25.11100
C  12.32800 53.59400 24.38400
C  12.62400 53.70600 23.01100
C  13.98300 53.08500 23.00500
C  11.04300 54.01700 25.17600
C  11.80100 54.21200 21.78900
O  12.29600 54.31200 20.62900
C  10.35600 54.66700 21.94200
N  16.98100 51.89500 22.60800
C  16.02000 52.17600 21.69600
C  16.48600 51.80600 20.28700
C  18.01100 51.49900 20.53400
C  18.01900 51.26800 22.02800
C  15.70600 50.66100 19.72100
C  18.83100 52.72200 20.13500
C  20.38500 52.53200 20.33500
N  18.05600 50.80500 25.04200
C  19.01900 50.29200 24.20400
C  19.96800 49.58200 25.01500
C  19.58700 49.81000 26.32200
C  18.40800 50.49400 26.32800
C  21.14800 48.89600 24.53200
C  19.95700 49.44700 27.71100
O  20.95000 48.88000 28.16600
C  18.85300 50.18700 28.58000
C  18.30500 49.15400 29.55800
O  17.56500 48.23100 29.22600
O  18.54500 49.49200 30.89700
C  18.19300 48.47700 31.90200
H  12.68500 53.05700 27.14600
H  14.16900 52.93800 20.98300
H  19.81200 49.99500 22.26000
H  16.10800 50.71700 29.77000
H  14.43200 53.06100 29.37700
H  13.11000 50.74800 28.56300
H  12.92800 51.83800 29.97900
H  13.87900 50.39800 30.17500
H  16.57600 53.75700 29.59100
H  17.98400 52.77400 29.80600
H  16.43500 53.94500 31.85400
H  17.77800 52.88000 32.04300
H  10.95200 55.10300 25.19800
H  10.98400 53.67500 26.20900
H  10.11300 53.68100 24.71800
H  10.43900 55.40300 22.74100
H  9.74800 53.80400 22.21300
H  10.01300 55.03600 20.97500
H  16.27900 52.66500 19.64900
H  18.33700 50.62900 19.96300
H  16.40300 50.15900 19.05000
H  14.98200 51.16400 19.08000
H  15.26800 50.05900 20.51800
H  18.47600 53.55800 20.73600
H  18.63900 53.04400 19.11100
H  20.69600 51.53900 20.01200
H  20.64300 52.51700 21.39400
H  20.98900 53.27900 19.81900
H  21.83500 49.39700 23.85000
H  20.87600 47.87300 24.27400
H  21.79200 48.57800 25.35200
H  19.40100 50.98500 29.08200
H  18.49800 47.45400 31.67900
H  17.14400 48.38200 32.18300
H  18.70100 48.72600 32.83300

