158

Mg 46.98300 45.71100 43.83200
C  43.60300 44.74700 43.48000
C  47.82700 42.45300 42.57100
C  50.07600 46.62000 43.25800
C  45.86200 48.99600 44.07000
N  45.87500 43.91700 43.10000
C  44.49700 43.73900 43.20200
C  44.07500 42.26800 42.95500
C  45.46400 41.57800 42.75500
C  46.46300 42.73500 42.75500
C  45.69800 40.43200 43.81400
C  42.98600 41.92200 41.78700
C  43.20700 42.54700 40.39600
H  43.02600 41.64400 39.17100
N  48.76200 44.61300 43.20000
C  48.88900 43.34600 42.81400
C  50.26800 43.01300 42.57800
C  51.00200 44.22200 42.70000
C  49.95800 45.20500 43.06600
C  50.78900 41.63500 42.25400
C  52.49500 44.41900 42.44500
O  53.19400 43.45000 42.14900
C  53.10300 45.81300 42.62100
N  47.78500 47.50300 43.57100
C  49.12300 47.62600 43.45100
C  49.53600 49.11200 43.50100
C  48.08700 49.81200 43.46500
C  47.18800 48.73400 43.78600
C  50.28800 49.48800 44.79800
C  47.72600 50.41700 42.04000
C  48.01500 51.97500 41.90500
N  45.12200 46.74300 43.95600
C  44.81600 48.07600 44.06400
C  43.35300 48.22600 44.14700
C  42.86300 46.92900 44.00600
C  43.92200 46.10100 43.78600
C  42.48700 49.48300 44.14700
C  41.62100 46.17000 43.92000
O  40.44000 46.57200 43.85700
C  42.02600 44.70900 43.48200
C  41.49100 43.74200 44.51800
O  40.75300 42.74400 44.38400
O  41.88600 44.15400 45.72600
C  41.29800 43.47700 46.87200
H  48.00500 41.42400 42.25200
H  51.11300 46.93500 43.38900
H  45.49300 50.02300 44.10500
H  43.72400 41.83800 43.89300
H  45.41400 41.17600 41.74300
H  46.74400 40.36200 44.11000
H  45.54500 39.49100 43.28600
H  45.17500 40.46400 44.77000
H  41.98500 42.07200 42.19000
H  43.03400 40.83400 41.74600
H  44.23100 42.91800 40.43200
H  42.54200 43.40900 40.34700
H  51.45700 41.69400 41.39500
H  49.93200 40.98500 42.07700
H  51.31600 41.19800 43.10100
H  53.16600 46.08700 43.67400
H  52.57500 46.54400 42.01000
H  54.15200 45.71200 42.34000
H  50.12000 49.49700 42.66500
H  48.08900 50.61900 44.19700
H  50.71600 48.59900 45.26000
H  49.75000 50.09300 45.52700
H  51.12000 50.11200 44.47300
H  46.63700 50.36900 42.02700
H  48.21300 49.95600 41.18100
H  47.16200 52.64800 41.82000
H  48.66300 52.01800 41.03000
H  48.74300 52.25000 42.66900
H  42.18300 49.73100 43.13000
H  43.07400 50.29800 44.57100
H  41.65600 49.33200 44.83600
H  41.57500 44.56600 42.50000
H  41.57400 42.44200 46.66900
H  40.21000 43.41900 46.86100
H  41.58000 43.89800 47.83700
Mg -0.08200 43.94800 24.84500
C  1.97800 43.24600 27.54400
C  -2.55400 42.78900 26.59900
C  -1.88800 43.78400 21.93900
C  2.72900 44.73500 22.90700
N  -0.23000 43.32400 26.87200
C  0.69600 43.18700 27.87300
C  0.10800 42.86000 29.19700
C  -1.39900 42.52600 28.79800
C  -1.40700 42.82500 27.31000
C  -1.78200 40.98900 29.12600
C  0.18700 44.02500 30.31900
C  0.94800 43.73300 31.58300
H  0.90300 42.25100 32.23300
N  -1.98100 43.47600 24.39300
C  -2.89400 42.99700 25.20900
C  -4.18600 42.74500 24.51200
C  -4.03500 43.19500 23.21700
C  -2.59800 43.54800 23.11900
C  -5.38400 42.28300 25.28300
C  -5.05400 43.30700 22.05000
O  -4.78500 43.74500 20.91200
C  -6.48300 42.81000 22.36200
N  0.33600 44.14000 22.67900
C  -0.54600 44.11300 21.69200
C  0.06200 44.63500 20.36100
C  1.44100 45.12200 20.78500
C  1.53500 44.71300 22.26300
C  0.07000 43.57900 19.19000
C  1.63000 46.67800 20.56900
C  0.62900 47.59800 21.44800
N  1.95800 43.99000 25.14000
C  2.99100 44.36500 24.26700
C  4.23200 44.33200 24.93700
C  3.91400 43.85900 26.18000
C  2.49300 43.69600 26.30400
C  5.58200 44.79700 24.42600
C  4.45000 43.49100 27.45500
O  5.57900 43.54000 27.91700
C  3.25900 43.03900 28.43500
C  3.51300 41.68500 28.88400
O  3.15300 40.67300 28.29800
O  4.01200 41.69600 30.13700
C  4.36000 40.45200 30.78900
H  -3.41800 42.39600 27.13900
H  -2.48900 43.81000 21.02800
H  3.54200 45.16100 22.31500
H  0.68400 41.97900 29.48000
H  -2.17000 43.17800 29.21000
H  -0.95000 40.49800 29.63100
H  -2.14000 40.34800 28.32100
H  -2.64400 40.98800 29.79300
H  -0.81200 44.29600 30.66000
H  0.64800 44.89500 29.85200
H  0.68900 44.50200 32.31000
H  2.00500 43.92900 31.39900
H  -5.88000 43.21100 25.56800
H  -5.17100 41.80300 26.23700
H  -6.00300 41.51800 24.81500
H  -6.80900 43.42000 23.20500
H  -6.45400 41.73500 22.53800
H  -7.24700 42.90500 21.59000
H  -0.52000 45.50700 20.06300
H  2.13500 44.61700 20.11300
H  0.57900 44.08500 18.36900
H  -0.91100 43.17300 18.94400
H  0.78500 42.87000 19.60800
H  1.48600 46.83600 19.50000
H  2.67200 46.85600 20.83500
H  0.11600 48.17900 20.68200
H  1.21700 48.31900 22.01600
H  -0.12700 47.00600 21.96500
H  6.22700 45.20400 25.20500
H  5.41800 45.51800 23.62600
H  6.03000 43.94900 23.90700
H  3.24000 43.73300 29.27600
H  3.67800 39.65500 30.49500
H  4.32500 40.56200 31.87300
H  5.30900 40.04300 30.44200

