158

Mg -3.25300 16.83300 26.01400
C  -3.15300 14.63700 28.75900
C  -3.50200 19.37200 28.26200
C  -3.22900 18.91700 23.32600
C  -3.20600 14.03600 23.94100
N  -3.37500 16.89800 28.28200
C  -3.25000 15.98800 29.20100
C  -3.48100 16.52000 30.59200
C  -3.86900 17.99900 30.29700
C  -3.50700 18.11100 28.88700
C  -5.29900 18.48800 30.62400
C  -2.26500 16.26300 31.52000
C  -2.17800 17.06200 32.88900
H  -2.08700 16.23400 34.17600
N  -3.33600 18.90000 25.88400
C  -3.45300 19.75500 26.91900
C  -3.43000 21.08000 26.44500
C  -3.36700 20.97000 24.94600
C  -3.33900 19.53100 24.64600
C  -3.64000 22.34200 27.28400
C  -3.30700 22.06300 23.92800
O  -3.26300 21.84000 22.70400
C  -3.14600 23.55000 24.36400
N  -3.40300 16.52400 23.89000
C  -3.27200 17.49700 23.04400
C  -3.08000 16.95500 21.57200
C  -2.83400 15.42500 21.77700
C  -3.17700 15.28000 23.29200
C  -4.41900 17.28400 20.67200
C  -1.43000 14.84900 21.51600
C  -0.20600 15.60100 22.03300
N  -3.28600 14.82800 26.18800
C  -3.17400 13.84000 25.32300
C  -3.06300 12.57600 25.95300
C  -3.03400 12.86100 27.35200
C  -3.11200 14.23000 27.43000
C  -2.81500 11.22200 25.24900
C  -2.81300 12.23600 28.64300
O  -2.47600 11.02900 28.93500
C  -2.96200 13.39100 29.64600
C  -1.68300 13.29400 30.35300
O  -0.65500 13.89300 30.13600
O  -1.88700 12.43400 31.46600
C  -0.78400 12.46000 32.45200
H  -3.33900 20.20100 28.95300
H  -3.10900 19.52400 22.42700
H  -3.10600 13.17700 23.27500
H  -4.31200 15.91700 30.95700
H  -3.18700 18.68600 30.79800
H  -5.25200 18.94500 31.61300
H  -5.99900 17.66400 30.76700
H  -5.64600 19.30400 29.99100
H  -1.31400 16.33900 30.99400
H  -2.59800 15.27500 31.83800
H  -3.03900 17.73100 32.88900
H  -1.26600 17.65800 32.85100
H  -3.81400 22.12600 28.33800
H  -4.44200 22.97100 26.89700
H  -2.72100 22.88700 27.49900
H  -2.23800 23.66700 24.95600
H  -4.08000 23.82900 24.85100
H  -2.89700 24.06500 23.43500
H  -2.23300 17.43800 21.08300
H  -3.56100 14.86400 21.18900
H  -4.44200 18.34100 20.40600
H  -5.36300 17.16400 21.20300
H  -4.43700 16.62400 19.80500
H  -1.27200 14.78700 20.43900
H  -1.30600 13.87700 21.99300
H  -0.40300 16.34900 22.80100
H  0.28600 16.04400 21.16700
H  0.46200 14.89900 22.53200
H  -3.78900 10.80400 24.99400
H  -2.17500 10.65100 25.92100
H  -2.34500 11.40500 24.28200
H  -3.71200 13.32000 30.43400
H  0.20200 12.21400 32.05800
H  -0.99700 11.83400 33.31800
H  -0.89400 13.46500 32.86000
Mg 52.74900 23.19700 43.96100
C  49.83100 24.96800 43.17800
C  51.08000 20.38200 44.04500
C  55.68700 21.69000 43.72200
C  54.39900 26.32200 43.64000
N  50.66300 22.69900 43.35800
C  49.65500 23.56300 43.35100
C  48.26900 22.84100 43.42900
C  48.82600 21.47900 44.04300
C  50.28500 21.47400 43.83500
C  48.47600 21.03700 45.51600
C  47.54400 22.71000 42.04900
C  48.12100 22.01800 40.87100
H  47.94600 22.71900 39.49100
N  53.31900 21.32300 43.74900
C  52.47400 20.28500 43.95000
C  53.27000 19.09400 44.04900
C  54.65700 19.40100 44.08900
C  54.62400 20.84000 43.82500
C  52.70300 17.72300 44.06100
C  55.74800 18.34400 44.33000
O  55.49200 17.22700 44.63400
C  57.14900 18.70000 44.04700
N  54.74100 23.94100 43.59100
C  55.81000 23.02400 43.68600
C  57.15100 23.76900 43.97100
C  56.75400 25.28100 43.65000
C  55.18300 25.15500 43.64700
C  57.78900 23.53900 45.41500
C  57.16900 25.89800 42.30200
C  57.81900 27.28600 42.39400
N  52.29700 25.31100 43.72100
C  52.96000 26.45200 43.62700
C  52.14400 27.59900 43.56800
C  50.86400 27.08600 43.29800
C  51.04500 25.67600 43.37800
C  52.61600 29.07500 43.53600
C  49.53900 27.43900 42.98700
O  49.02400 28.51300 42.91800
C  48.86500 26.02100 42.73800
C  48.72100 26.04500 41.23600
O  49.50600 25.63300 40.37900
O  47.48700 26.59600 40.94000
C  47.25000 26.67000 39.50200
H  50.60800 19.40600 44.18200
H  56.60700 21.10400 43.77400
H  54.81700 27.31900 43.48700
H  47.64300 23.39200 44.13000
H  48.40600 20.70100 43.40600
H  49.38700 20.79300 46.06100
H  47.82100 20.16700 45.47400
H  48.01000 21.80300 46.13600
H  47.15800 23.66700 41.69700
H  46.67300 22.16900 42.41800
H  47.74900 20.99500 40.92500
H  49.20400 21.94700 40.98000
H  53.32900 17.02700 43.50400
H  51.67600 17.67900 43.69900
H  52.54200 17.27900 45.04300
H  57.69200 17.75500 44.01100
H  57.45100 19.23000 44.95100
H  57.19500 19.29200 43.13300
H  57.85900 23.36100 43.24900
H  56.98300 25.96800 44.46500
H  58.02000 24.49600 45.88400
H  58.67100 22.89900 45.36800
H  56.91600 23.09500 45.89400
H  56.22100 25.95300 41.76500
H  57.88200 25.18000 41.89700
H  57.24000 28.09700 41.95100
H  58.73700 27.06700 41.85000
H  58.11700 27.56700 43.40400
H  52.02500 29.71500 44.19100
H  52.55600 29.40700 42.50000
H  53.63200 29.17000 43.92000
H  47.90700 25.93600 43.25100
H  46.68400 25.80900 39.14700
H  48.13700 26.75700 38.87500
H  46.57900 27.52800 39.45600

