158

Mg 24.82500 -7.86800 47.50500
C  26.95700 -5.23400 46.25900
C  22.46600 -6.94300 45.28000
C  23.24400 -10.70000 48.24400
C  27.75400 -9.06900 49.17900
N  24.84500 -6.36700 45.78000
C  25.71800 -5.31800 45.58800
C  25.16900 -4.25100 44.62200
C  23.66500 -4.75700 44.52200
C  23.64500 -6.09100 45.21500
C  22.74300 -3.68100 45.03500
C  26.02100 -4.17600 43.29600
C  26.58200 -2.76000 42.99000
H  26.28200 -2.26700 41.58700
N  23.05300 -8.67500 46.89900
C  22.17800 -8.09200 46.00200
C  20.98300 -8.83800 45.79000
C  21.15200 -9.93300 46.72600
C  22.48000 -9.81700 47.38200
C  19.86900 -8.47100 44.75700
C  20.05600 -11.04100 47.00900
O  19.03400 -11.02300 46.39600
C  20.42500 -12.04600 48.08400
N  25.46400 -9.66000 48.44100
C  24.53700 -10.61700 48.71300
C  25.15700 -11.67900 49.60400
C  26.52400 -11.09600 50.10300
C  26.61300 -9.87900 49.16400
C  24.27600 -12.28600 50.71000
C  27.79900 -12.04300 50.05100
C  28.76200 -12.16700 51.21000
N  26.88000 -7.25800 47.84000
C  27.93000 -7.82200 48.55000
C  29.05100 -6.96600 48.58800
C  28.72800 -5.90700 47.76100
C  27.41100 -6.20100 47.24500
C  30.29100 -7.28500 49.42700
C  29.12800 -4.62500 47.30100
O  30.16300 -3.95900 47.43800
C  28.03200 -4.21000 46.21300
C  27.56600 -2.81700 46.51600
O  26.58200 -2.45100 47.14500
O  28.37000 -1.89500 45.89400
C  27.90600 -0.53000 45.80700
H  21.74200 -6.54300 44.56700
H  22.78900 -11.64700 48.54100
H  28.41300 -9.46400 49.95400
H  25.15900 -3.27700 45.11100
H  23.31400 -4.90800 43.50100
H  23.28000 -2.79200 45.36600
H  22.12000 -4.04700 45.85100
H  22.07000 -3.45700 44.20700
H  25.47000 -4.49800 42.41300
H  26.90400 -4.81200 43.35700
H  27.65600 -2.93800 43.04100
H  26.34000 -1.91800 43.63800
H  20.15900 -8.66000 43.72400
H  19.51300 -7.44200 44.70900
H  18.93100 -9.00800 44.89600
H  21.19500 -12.69400 47.66700
H  19.57700 -12.70300 48.27900
H  20.71900 -11.47500 48.96500
H  25.43300 -12.53000 48.98100
H  26.52700 -10.74000 51.13300
H  23.31600 -11.80200 50.89100
H  24.85300 -12.18300 51.62900
H  24.10600 -13.34700 50.52600
H  28.44000 -11.74900 49.22000
H  27.31600 -12.99400 49.82600
H  29.75100 -12.20100 50.75400
H  28.53800 -13.05400 51.80300
H  28.73700 -11.21700 51.74400
H  29.98100 -7.52700 50.44400
H  30.89700 -6.37900 49.42200
H  30.75900 -8.20600 49.07700
H  28.46900 -4.14600 45.21700
H  26.83600 -0.59300 45.60700
H  28.45700 -0.07700 44.98300
H  28.03800 0.01000 46.74400
Mg -8.51200 40.58900 43.03600
C  -7.59400 37.38200 41.82800
C  -5.96700 41.92700 41.19000
C  -9.92100 43.69100 43.36200
C  -11.33600 39.20700 44.30600
N  -6.87500 39.69500 41.66800
C  -6.75800 38.37900 41.31300
C  -5.45500 38.14500 40.44300
C  -4.82700 39.55100 40.53400
C  -5.97200 40.47700 41.10400
C  -3.46900 39.66500 41.28600
C  -5.82500 37.64300 39.02600
C  -5.33400 36.25000 38.65200
H  -4.19600 36.12100 37.60200
N  -7.91100 42.57400 42.44100
C  -6.86100 42.85500 41.69800
C  -6.71800 44.20400 41.57800
C  -7.83400 44.86200 42.21400
C  -8.68000 43.69900 42.74500
C  -5.50200 44.83800 40.90800
C  -8.11600 46.25000 42.30700
O  -7.35800 47.03700 41.76600
C  -9.15500 46.82300 43.22200
N  -10.25700 41.37000 43.77000
C  -10.65100 42.67000 43.87400
C  -12.09100 42.80700 44.35600
C  -12.50900 41.37600 44.69600
C  -11.27600 40.58300 44.21700
C  -12.35500 43.84700 45.39500
C  -13.98800 40.92900 44.33500
C  -15.16400 41.83300 44.84100
N  -9.38800 38.64000 43.03100
C  -10.52100 38.22800 43.66000
C  -10.67400 36.77600 43.56100
C  -9.50900 36.40500 42.86800
C  -8.76000 37.59000 42.53500
C  -11.85100 35.98300 44.16400
C  -8.77000 35.27900 42.33500
O  -8.97200 34.06700 42.52000
C  -7.57500 35.90400 41.51800
C  -6.27300 35.32600 41.93800
O  -5.61800 35.70800 42.88200
O  -6.11200 34.21500 41.20900
C  -5.02300 33.38600 41.56800
H  -5.08300 42.35200 40.70900
H  -10.44100 44.64900 43.42900
H  -12.22200 38.81800 44.81100
H  -4.75500 37.43800 40.88700
H  -4.78700 40.09000 39.58800
H  -2.74700 40.19100 40.66200
H  -3.07300 38.67400 41.50400
H  -3.46700 40.05300 42.30500
H  -5.63900 38.44200 38.30800
H  -6.90500 37.49800 39.04400
H  -6.19200 35.67800 38.30100
H  -4.99400 35.74100 39.55400
H  -5.25600 44.37500 39.95200
H  -4.66800 44.73900 41.60300
H  -5.60700 45.92100 40.83700
H  -8.96200 47.88000 43.40200
H  -9.15100 46.35200 44.20500
H  -10.16400 46.83400 42.81100
H  -12.64200 43.04600 43.44600
H  -12.39800 41.30600 45.77800
H  -11.46800 44.15800 45.94700
H  -13.18700 43.68000 46.08000
H  -12.70800 44.74200 44.88300
H  -14.18800 40.02400 44.90800
H  -14.10200 40.72700 43.27000
H  -15.55000 41.39100 45.76000
H  -15.97400 42.09400 44.16000
H  -14.82100 42.86500 44.91700
H  -12.67500 35.90800 43.45500
H  -12.31400 36.60000 44.93500
H  -11.38100 35.05000 44.47600
H  -7.74000 35.76000 40.45000
H  -4.76600 32.76200 40.71300
H  -5.09900 32.80400 42.48700
H  -4.11200 33.94800 41.77300

