158

Mg 47.74300 15.25700 27.45700
C  45.58600 14.98000 30.26100
C  49.63000 17.39900 29.32100
C  49.68800 15.36100 24.87100
C  45.40400 13.32400 25.67300
N  47.65100 16.02900 29.57900
C  46.73400 15.74600 30.60800
C  47.05500 16.42200 31.94000
C  48.13400 17.47000 31.43200
C  48.57600 16.87000 30.03300
C  47.54500 18.90200 31.32500
C  47.60500 15.38400 32.98300
C  47.07400 15.58500 34.42900
H  48.12600 15.43800 35.58000
N  49.44000 16.22300 27.15900
C  50.08600 17.02800 28.04200
C  51.34700 17.36900 27.45700
C  51.38200 16.84600 26.10500
C  50.11600 16.13900 25.98100
C  52.45500 18.04000 28.22800
C  52.46600 16.86600 25.02800
O  52.28300 16.37500 23.88100
C  53.76200 17.54800 25.22100
N  47.54000 14.44700 25.55600
C  48.56300 14.61700 24.61900
C  48.28800 13.87500 23.35200
C  46.90800 13.13900 23.62500
C  46.61500 13.67100 25.07700
C  48.18100 14.78500 22.11300
C  47.02200 11.62400 23.65200
C  47.61100 10.85300 22.48000
N  45.85300 14.40300 27.87600
C  45.03900 13.68200 27.03400
C  43.82300 13.35300 27.74600
C  43.97000 13.80200 29.09000
C  45.25300 14.48200 29.05500
C  42.58300 12.54200 27.12700
C  43.40100 13.87100 30.37800
O  42.27800 13.55400 30.74300
C  44.50100 14.59000 31.28300
C  43.80900 15.71400 31.95500
O  43.72600 16.87200 31.56900
O  43.48200 15.32400 33.27300
C  42.97300 16.40400 34.18300
H  50.24600 18.05100 29.94300
H  50.46300 15.08100 24.15500
H  44.63600 12.75300 25.14900
H  46.23400 16.97400 32.39800
H  49.06500 17.47800 32.00100
H  48.29400 19.64700 31.59200
H  46.65900 18.93600 31.95900
H  47.33900 19.27700 30.32200
H  48.68900 15.48800 32.94200
H  47.28700 14.37800 32.70800
H  46.40800 14.76700 34.70200
H  46.60400 16.54400 34.64900
H  51.94000 18.42200 29.10900
H  52.86600 18.81500 27.58000
H  53.11900 17.27400 28.63000
H  53.64800 18.62600 25.33100
H  54.33500 17.28700 24.33100
H  54.12500 17.16900 26.17700
H  49.11100 13.20100 23.11500
H  46.12200 13.42800 22.92800
H  49.19700 14.73500 21.72300
H  47.94600 15.83600 22.28300
H  47.57800 14.21800 21.40400
H  46.00400 11.29300 23.86000
H  47.64000 11.35700 24.50900
H  46.92400 10.08600 22.12200
H  48.58100 10.47700 22.80600
H  47.88000 11.43300 21.59700
H  42.21400 11.63700 27.61100
H  42.76900 12.24100 26.09600
H  41.65600 13.11600 27.15500
H  44.72500 13.91600 32.11000
H  42.80000 15.92000 35.14500
H  42.02700 16.88300 33.93400
H  43.70600 17.19700 34.33400
Mg 46.49100 34.85200 27.53700
C  44.65700 33.01300 30.03500
C  46.74700 37.30300 29.91000
C  47.51000 36.69200 25.18000
C  45.46100 32.26300 25.29500
N  45.71400 35.19600 29.67500
C  45.15100 34.23300 30.51300
C  45.25900 34.63600 32.04000
C  45.47300 36.13900 31.84900
C  46.15800 36.21100 30.45000
C  44.20400 37.02700 31.92100
C  46.50000 33.89300 32.64000
C  46.72600 34.02900 34.19300
H  45.79900 34.99700 34.92100
N  47.13400 36.68400 27.57300
C  47.23200 37.56700 28.61200
C  47.70300 38.86600 28.15900
C  48.00400 38.74400 26.75600
C  47.45300 37.37300 26.40900
C  47.98700 40.10200 29.04900
C  48.62600 39.71400 25.80800
O  48.83200 39.41100 24.58900
C  49.00600 41.12500 26.28600
N  46.52900 34.44600 25.54500
C  47.04900 35.44900 24.75300
C  46.97000 35.04800 23.26300
C  46.21100 33.67300 23.24800
C  45.96900 33.45100 24.76000
C  46.30800 36.14800 22.33000
C  46.76300 32.50000 22.41300
C  45.88000 32.11000 21.21000
N  45.42000 32.98500 27.64800
C  45.23900 32.04200 26.66300
C  44.64200 30.93900 27.21900
C  44.39000 31.23100 28.54200
C  44.85000 32.51200 28.70900
C  44.30300 29.67800 26.45200
C  43.80500 30.65500 29.74300
O  43.30400 29.52500 29.93300
C  43.78700 31.83600 30.69300
C  44.00000 31.42000 32.12100
O  45.04600 30.87100 32.45900
O  43.01300 31.86300 32.94000
C  43.24100 31.71200 34.34300
H  46.93200 38.13700 30.59000
H  47.84700 37.23900 24.29700
H  45.25700 31.47000 24.57300
H  44.35200 34.37700 32.58600
H  46.18300 36.40300 32.63300
H  43.31200 36.46800 31.63900
H  44.33000 37.86800 31.23900
H  44.06600 37.60900 32.83200
H  47.42600 34.23700 32.17900
H  46.42400 32.82000 32.46300
H  47.74100 34.34100 34.43800
H  46.70800 33.00800 34.57600
H  47.53800 40.00300 30.03700
H  47.63600 41.03200 28.60200
H  49.01500 40.18600 29.39900
H  49.70800 41.02800 27.11400
H  48.09300 41.61600 26.62300
H  49.45800 41.67700 25.46200
H  47.96300 34.93900 22.82700
H  45.23300 33.86300 22.80600
H  46.08100 36.93600 23.04800
H  45.40000 35.86600 21.79700
H  47.07200 36.54500 21.66200
H  46.94100 31.61900 23.02900
H  47.73100 32.78000 21.99700
H  46.41800 32.61400 20.40800
H  44.85500 32.43100 21.39700
H  45.85800 31.03100 21.05100
H  45.26900 29.17300 26.44100
H  43.90800 29.84900 25.45000
H  43.60000 29.03000 26.97600
H  42.73900 32.10000 30.83300
H  43.97300 30.97400 34.66900
H  42.30300 31.39700 34.80000
H  43.42500 32.69400 34.77900

