158

Mg 44.78200 3.27100 47.38900
C  42.57500 6.02600 47.21000
C  42.07300 1.24200 47.03900
C  46.90100 0.52800 47.38300
C  47.42300 5.39800 47.38400
N  42.59900 3.64900 47.08300
C  41.91000 4.83700 47.03200
C  40.39500 4.68100 46.64900
C  40.30400 3.10800 47.02400
C  41.74100 2.61300 47.04500
C  39.42100 2.78100 48.31600
C  39.97100 5.03000 45.15800
C  39.01800 6.21800 45.03300
H  38.39400 6.34400 43.63600
N  44.51100 1.15300 47.25700
C  43.28700 0.52800 47.10500
C  43.57300 -0.90000 47.00700
C  44.95600 -1.09900 46.87800
C  45.58500 0.22200 47.20500
C  42.47100 -1.90800 46.95500
C  45.60200 -2.45000 46.51200
O  44.89000 -3.42300 46.29100
C  47.16800 -2.62100 46.34400
N  46.85500 2.97700 47.09900
C  47.51500 1.76800 47.40300
C  49.03900 1.98100 47.64200
C  49.16900 3.53900 47.58700
C  47.72200 4.05600 47.34600
C  49.58000 1.31500 48.89300
C  50.13900 4.00700 46.42700
C  51.45800 4.75800 46.81900
N  45.06000 5.32500 47.22700
C  46.15400 6.04400 47.31000
C  45.85100 7.46700 47.31700
C  44.45800 7.48300 47.20900
C  43.97500 6.14300 47.23800
C  46.74600 8.61500 47.34100
C  43.30600 8.36100 47.12700
O  43.27500 9.60100 47.06000
C  42.05500 7.42600 47.05100
C  41.18100 7.72200 48.18800
O  41.53100 7.60500 49.37400
O  39.92600 8.26900 47.82100
C  38.94600 8.61600 48.78700
H  41.15900 0.68200 46.83100
H  47.63800 -0.26900 47.26000
H  48.31500 6.01400 47.51900
H  39.81900 5.26100 47.37100
H  39.87300 2.57700 46.17600
H  39.12600 3.74000 48.74300
H  40.02200 2.27200 49.07000
H  38.56200 2.19800 47.98500
H  39.46200 4.12900 44.81600
H  40.86700 5.00200 44.53800
H  39.47500 7.15300 45.35800
H  38.17900 6.01700 45.69900
H  42.57600 -2.53000 46.06700
H  41.45500 -1.52200 46.87600
H  42.49900 -2.52600 47.85300
H  47.48200 -1.82400 45.67000
H  47.34400 -3.62900 45.96800
H  47.66000 -2.53900 47.31300
H  49.58800 1.50600 46.82900
H  49.52000 3.83300 48.57600
H  48.75100 1.23700 49.59600
H  50.37900 1.95900 49.26200
H  50.02100 0.35000 48.64300
H  49.67700 4.64600 45.67400
H  50.46400 3.16000 45.82300
H  51.44200 5.77100 46.41900
H  52.17800 4.19200 46.22800
H  51.61000 4.66700 47.89400
H  46.95000 8.86400 46.30000
H  47.58400 8.24300 47.93200
H  46.09500 9.39300 47.73900
H  41.48300 7.51200 46.12700
H  39.15600 8.24300 49.78900
H  37.95100 8.36200 48.42200
H  39.00400 9.70200 48.85900
Mg 6.52900 54.56800 40.96100
C  6.21300 51.01600 40.79100
C  9.74900 54.30400 40.10100
C  6.54000 57.97900 40.64800
C  2.95200 54.58400 41.29200
N  7.77500 52.87200 40.43600
C  7.50000 51.52400 40.50900
C  8.72200 50.72800 40.21700
C  9.84600 51.79500 40.23400
C  9.05900 53.10400 40.29000
C  10.79400 51.62100 41.49600
C  8.68700 49.95000 38.88200
C  8.50200 50.72800 37.51100
H  7.17400 50.65700 36.79500
N  7.89200 55.94200 40.41200
C  9.21400 55.64100 40.12000
C  9.93800 56.88900 39.94100
C  9.02400 57.89100 39.98600
C  7.72400 57.32200 40.35600
C  11.41800 56.82700 39.61700
C  9.26100 59.36000 39.64400
O  10.44200 59.76300 39.58400
C  8.19400 60.31500 39.31900
N  4.99100 56.07700 40.93200
C  5.25700 57.45100 40.98100
C  3.90100 58.20200 41.22200
C  2.80100 57.13500 41.16400
C  3.57600 55.79300 41.09300
C  4.08100 59.03000 42.46700
C  1.78200 57.26400 39.99400
C  0.32500 57.56400 40.38100
N  4.89500 53.13800 41.16300
C  3.52700 53.28000 41.37300
C  2.91400 51.98400 41.60300
C  3.97600 51.12400 41.47100
C  5.14000 51.81800 41.11600
C  1.45700 51.56300 41.90300
C  4.30400 49.74800 41.42700
O  3.57600 48.82900 41.72500
C  5.73800 49.55700 40.93600
C  5.65400 48.91200 39.57600
O  5.13100 49.42900 38.62000
O  6.28000 47.73800 39.67500
C  6.00900 47.02200 38.45600
H  10.83900 54.27400 40.03700
H  6.48500 59.07000 40.64100
H  1.91400 54.60900 41.62800
H  8.72700 50.09200 41.10300
H  10.41300 51.82800 39.30300
H  11.63300 51.03400 41.12300
H  10.26400 51.14200 42.32000
H  11.04900 52.57600 41.95600
H  8.08500 49.04900 38.99700
H  9.69900 49.59400 38.68500
H  9.13500 50.37200 36.69800
H  8.69700 51.79900 37.57000
H  12.10000 57.53200 40.09200
H  11.46700 57.08100 38.55800
H  11.80700 55.80900 39.65400
H  7.45300 59.68800 38.82200
H  8.50200 61.17000 38.71800
H  7.77000 60.76500 40.21600
H  3.83000 58.84700 40.34600
H  2.22400 56.99100 42.07700
H  4.21000 60.05600 42.12300
H  5.01700 58.77600 42.96400
H  3.18800 58.99200 43.09000
H  1.67900 56.26500 39.57000
H  2.12200 57.87500 39.15800
H  -0.10900 58.43600 39.89100
H  0.15300 57.61400 41.45700
H  -0.23700 56.66800 40.11900
H  1.32100 50.51700 42.17700
H  0.76800 51.65900 41.06400
H  1.21400 52.08800 42.82700
H  6.35200 48.86200 41.50900
H  5.04500 47.19300 37.97700
H  6.12600 46.01400 38.85300
H  6.86400 47.30200 37.84100

