158

Mg 3.29900 -1.69200 43.70300
C  6.48700 -0.16700 43.35100
C  1.96600 1.27800 42.51800
C  0.34200 -3.12200 43.64200
C  4.79000 -4.50300 44.98600
N  4.19400 0.24900 42.82300
C  5.47700 0.70800 42.87900
C  5.57200 2.16000 42.38900
C  4.09400 2.56600 42.26400
C  3.37600 1.25300 42.54300
C  3.61100 3.56300 43.28000
C  6.37500 2.34400 41.07000
C  5.82900 1.62300 39.79600
H  6.58400 2.01000 38.51000
N  1.40500 -1.03500 42.99000
C  1.06900 0.21500 42.52800
C  -0.34300 0.19600 42.13600
C  -0.86100 -0.95900 42.69500
C  0.27800 -1.76500 43.18400
C  -1.06200 1.36000 41.38300
C  -2.41200 -1.25100 42.63200
O  -3.33100 -0.50200 42.18900
C  -2.91000 -2.66400 43.12200
N  2.64600 -3.51400 44.29600
C  1.38100 -3.92500 44.05400
C  1.17900 -5.43400 44.45600
C  2.64800 -5.89700 44.76700
C  3.41600 -4.56500 44.63300
C  0.16000 -5.58300 45.67900
C  3.18300 -7.13700 43.89400
C  2.92800 -8.57700 44.34000
N  5.13700 -2.23400 44.11800
C  5.63800 -3.42500 44.68600
C  7.01200 -3.29000 44.96400
C  7.43200 -2.07800 44.35800
C  6.27100 -1.47000 43.88800
C  7.80800 -4.30300 45.58200
C  8.56900 -1.30400 44.10300
O  9.75700 -1.47600 44.21400
C  7.99700 -0.00300 43.42400
C  8.45100 1.20200 44.26000
O  9.31300 1.95200 43.76900
O  7.88600 1.34900 45.52600
C  8.19300 2.61000 46.15700
H  1.54000 2.24200 42.23200
H  -0.51600 -3.78800 43.52300
H  5.11800 -5.44000 45.44000
H  6.03400 2.78100 43.15600
H  3.77500 2.91400 41.28200
H  4.44500 4.18900 43.59900
H  3.15300 3.02900 44.11200
H  2.87500 4.23300 42.83600
H  7.44000 2.17800 41.23100
H  6.54500 3.40200 40.86700
H  4.78300 1.87800 39.62600
H  5.88400 0.54300 39.93300
H  -2.10000 1.20900 41.08600
H  -0.46000 1.61400 40.51100
H  -1.13300 2.24000 42.02300
H  -2.51500 -2.90100 44.11000
H  -2.76900 -3.44900 42.37900
H  -3.96200 -2.54400 43.37900
H  0.77600 -6.09100 43.68500
H  2.80700 -6.27200 45.77800
H  -0.87600 -5.79000 45.40900
H  0.06500 -4.55700 46.03600
H  0.53900 -6.21100 46.48400
H  4.25100 -6.99100 43.73000
H  2.70700 -7.01500 42.92000
H  2.42600 -9.22700 43.62300
H  2.28500 -8.56100 45.22000
H  3.80400 -9.13400 44.67400
H  7.74900 -4.01000 46.63000
H  8.73700 -4.30700 45.01200
H  7.29300 -5.26400 45.58100
H  8.50000 0.18600 42.47600
H  8.08900 2.53900 47.23900
H  7.57600 3.34900 45.64700
H  9.18200 3.04900 46.02600
Mg -9.85900 17.66900 42.80000
C  -6.32600 17.54500 43.03900
C  -9.63100 21.15500 42.31400
C  -13.07300 17.77200 41.85100
C  -9.99800 14.21400 43.04500
N  -8.11200 19.16900 42.59000
C  -6.77000 18.84200 42.80700
C  -5.98500 20.19400 42.75700
C  -7.08100 21.28200 42.69900
C  -8.39200 20.53400 42.52900
C  -7.15600 22.29600 43.84300
C  -4.87100 20.30400 41.51600
C  -4.92700 19.29200 40.40900
H  -5.09300 19.84400 39.01300
N  -11.13800 19.25700 42.25400
C  -10.88800 20.62700 42.25200
C  -12.03100 21.36500 41.83000
C  -13.06900 20.42900 41.59500
C  -12.45400 19.06000 41.85900
C  -12.00900 22.82400 41.57000
C  -14.43300 20.78000 41.02300
O  -14.69500 21.91700 40.71100
C  -15.46700 19.72400 40.77100
N  -11.32000 16.21700 42.51000
C  -12.60400 16.50300 42.25100
C  -13.49900 15.27700 42.31500
C  -12.52100 14.12100 42.64200
C  -11.11600 14.89700 42.63200
C  -14.78200 15.33200 43.19900
C  -12.46600 12.98700 41.61500
C  -13.68900 12.15700 41.28800
N  -8.46200 16.15300 42.91200
C  -8.68500 14.83100 43.14500
C  -7.45700 14.15600 43.43700
C  -6.46100 15.15700 43.30900
C  -7.12700 16.34900 43.04900
C  -7.09700 12.72600 43.62700
C  -5.04800 15.44400 43.39800
O  -4.08500 14.77900 43.59400
C  -4.98300 16.99800 43.40000
C  -4.46200 17.50300 44.68000
O  -3.50200 18.23100 44.71700
O  -5.20300 17.09200 45.81000
C  -4.71000 17.41900 47.14400
H  -9.66000 22.24500 42.25500
H  -14.15000 17.67400 41.69800
H  -10.07100 13.12600 43.10200
H  -5.41900 20.33700 43.67700
H  -7.06600 21.90300 41.80300
H  -6.19300 22.46600 44.32400
H  -7.86400 21.90800 44.57700
H  -7.52600 23.26000 43.49500
H  -3.84500 20.33600 41.88200
H  -5.10700 21.26400 41.05700
H  -5.60700 18.44300 40.47700
H  -3.96500 18.78000 40.40400
H  -12.38400 23.06600 40.57500
H  -11.04000 23.32200 41.53800
H  -12.68800 23.39600 42.20200
H  -15.62400 19.22400 41.72700
H  -15.19100 19.02200 39.98400
H  -16.39300 20.16600 40.40200
H  -13.90000 15.07200 41.32200
H  -12.66300 13.57300 43.57400
H  -15.63600 15.37500 42.52200
H  -14.70500 16.23500 43.80400
H  -14.85900 14.44900 43.83300
H  -11.67200 12.28400 41.86700
H  -12.31600 13.54600 40.69100
H  -14.19900 12.07100 42.24700
H  -13.39900 11.18200 40.89500
H  -14.31100 12.66800 40.55400
H  -7.07700 12.47800 44.68800
H  -6.14900 12.43100 43.17800
H  -7.80800 12.10200 43.08400
H  -4.20800 17.31200 42.70100
H  -3.68900 17.78200 47.26300
H  -4.95900 16.68800 47.91400
H  -5.26300 18.27500 47.53000

