158

Mg 53.10300 23.41100 45.28300
C  50.56300 25.63300 44.19600
C  51.30300 20.81200 44.27200
C  55.93000 21.66000 45.69300
C  54.77800 26.37000 46.37700
N  51.28000 23.25300 44.07200
C  50.29800 24.23800 43.85700
C  49.00000 23.65800 43.26400
C  49.16100 22.23100 43.84600
C  50.67400 22.03400 44.08100
C  48.32600 21.97900 45.09600
C  49.06200 23.79800 41.68000
C  47.73600 24.34000 41.03100
H  47.10300 23.43200 39.88100
N  53.56000 21.49100 44.90000
C  52.66200 20.51900 44.53200
C  53.26600 19.23700 44.43100
C  54.58100 19.36000 44.94500
C  54.75700 20.89000 45.23000
C  52.63100 18.01900 43.89500
C  55.71100 18.31700 45.12600
O  55.46400 17.14400 44.87400
C  57.09400 18.52600 45.60600
N  55.04000 23.94600 45.85300
C  56.04000 23.02600 45.90400
C  57.36800 23.70500 46.32900
C  56.98200 25.13600 46.45100
C  55.46900 25.14300 46.24400
C  58.12100 23.02600 47.51100
C  57.72500 26.17100 45.53300
C  58.77200 26.99900 46.30100
N  52.78400 25.53200 45.40100
C  53.47500 26.56400 45.96200
C  52.67900 27.79000 46.00100
C  51.53200 27.49600 45.22800
C  51.63900 26.12400 44.90400
C  53.05600 29.06600 46.67200
C  50.41500 28.03900 44.59700
O  49.99500 29.17400 44.54600
C  49.73700 26.79400 43.86000
C  49.73600 27.15300 42.34700
O  50.74000 27.41300 41.70000
O  48.48200 27.52700 41.94500
C  48.48800 28.24500 40.63300
H  50.66300 19.94400 44.10100
H  56.88500 21.13800 45.78300
H  55.42400 27.17200 46.73900
H  48.07300 24.12000 43.60200
H  48.79900 21.61100 43.02600
H  48.99200 21.63500 45.88700
H  47.62500 21.19900 44.79900
H  47.81600 22.84600 45.51500
H  49.30800 22.85500 41.19000
H  49.92400 24.38800 41.37000
H  48.04300 25.25200 40.51900
H  46.93300 24.57300 41.73000
H  51.55600 17.99400 44.07500
H  52.97100 17.13700 44.43800
H  52.85600 17.80700 42.85000
H  57.60200 18.82400 44.68900
H  57.51300 17.58500 45.96400
H  57.33300 19.22600 46.40600
H  57.98800 23.49300 45.45800
H  57.19300 25.32200 47.50400
H  57.53600 22.28200 48.05200
H  58.45100 23.73000 48.27600
H  59.10000 22.61600 47.26200
H  57.01800 26.80400 44.99600
H  58.35200 25.75100 44.74600
H  58.34600 28.00100 46.24700
H  59.63300 26.99900 45.63300
H  59.04900 26.68800 47.30800
H  52.17000 29.51100 47.12500
H  53.34600 29.75200 45.87600
H  53.79600 29.00100 47.47000
H  48.68700 26.73700 44.14800
H  47.55400 28.78500 40.78500
H  48.43100 27.54800 39.79700
H  49.30400 28.92000 40.37700
Mg 26.16800 50.32900 26.22100
C  24.04900 51.48600 28.76400
C  28.58500 49.62200 28.52700
C  28.11100 49.29700 23.62700
C  23.78200 51.48600 23.88000
N  26.35100 50.74900 28.42500
C  25.32000 51.01800 29.24300
C  25.75200 50.85900 30.71100
C  27.25000 50.25700 30.69100
C  27.46000 50.18300 29.17000
C  28.29900 51.09500 31.48800
C  24.58300 50.13700 31.51900
C  25.03300 49.42400 32.76200
H  24.13600 49.40500 34.00100
N  28.09200 49.71600 26.08900
C  28.90700 49.39000 27.18000
C  30.12300 48.74400 26.68900
C  30.07700 48.84200 25.24500
C  28.71200 49.31800 24.94100
C  31.24200 48.28000 27.63500
C  31.19500 48.53200 24.27300
O  31.11400 48.71600 23.03600
C  32.58900 48.10200 24.75700
N  26.06100 50.57500 24.06400
C  26.91700 49.95300 23.25300
C  26.38300 50.03200 21.81800
C  24.93400 50.55700 21.91900
C  24.92500 50.88700 23.41500
C  27.29300 50.84900 20.84200
C  23.87500 49.44100 21.51800
C  23.89500 48.12900 22.31200
N  24.25800 51.26800 26.27200
C  23.46100 51.62400 25.26900
C  22.14200 52.11500 25.80900
C  22.32200 51.98900 27.22100
C  23.67300 51.53300 27.41500
C  21.05100 52.64800 24.98500
C  21.65500 52.20500 28.51900
O  20.53800 52.43100 28.85000
C  22.83400 51.98700 29.55200
C  23.14500 53.22400 30.30500
O  23.66100 54.21400 29.77600
O  23.03800 53.09900 31.64400
C  23.48900 54.30100 32.47200
H  29.26000 49.24700 29.29800
H  28.74100 48.85300 22.85400
H  23.06300 51.67700 23.08100
H  25.69800 51.89100 31.05600
H  27.27900 49.23400 31.06700
H  29.01200 50.40800 31.94500
H  27.78800 51.65200 32.27400
H  28.95600 51.66400 30.83100
H  24.04000 49.39400 30.93500
H  23.83700 50.90700 31.71600
H  26.03800 49.76300 33.01300
H  25.19800 48.35500 32.62700
H  32.10200 48.94700 27.57500
H  31.64800 47.31000 27.34900
H  30.91400 48.17100 28.66900
H  33.20800 47.91900 23.87800
H  32.45000 47.20000 25.35400
H  32.98200 48.80200 25.49500
H  26.24900 49.05000 21.36700
H  24.82600 51.47000 21.33400
H  28.15900 51.11100 21.45000
H  26.84700 51.75700 20.43700
H  27.54500 50.20200 20.00100
H  24.11900 49.21700 20.47900
H  22.90000 49.91600 21.41200
H  23.86200 47.33700 21.56500
H  23.03900 47.86600 22.93300
H  24.83000 48.00600 22.86000
H  20.90300 51.98800 24.13000
H  21.37000 53.61600 24.59700
H  20.13800 52.68500 25.57900
H  22.40400 51.23300 30.21100
H  24.44900 53.97800 32.87400
H  22.87300 54.59800 33.32100
H  23.61200 55.21300 31.88900

