158

Mg 8.81900 3.73000 27.52100
C  10.13800 2.23100 30.37800
C  6.72600 5.53700 29.55200
C  7.32300 5.07100 24.69400
C  10.53600 1.47400 25.50600
N  8.39500 3.68700 29.69300
C  9.14600 3.20400 30.67500
C  8.62800 3.67500 32.09200
C  7.45600 4.63100 31.76500
C  7.50100 4.58400 30.23900
C  5.99000 4.29600 32.24400
C  9.74600 4.19800 33.06300
C  9.18800 5.00000 34.29900
H  9.85900 4.70200 35.63300
N  7.21200 5.09700 27.10200
C  6.52200 5.78900 28.08000
C  5.73300 6.83900 27.46500
C  6.01800 6.81300 26.07500
C  6.88100 5.61800 25.90800
C  4.86800 7.76100 28.25100
C  5.51700 7.66100 25.02200
O  5.83200 7.44300 23.87500
C  4.69400 8.87300 25.29500
N  8.87100 3.29500 25.40600
C  8.16800 3.96900 24.46700
C  8.41600 3.47700 22.99100
C  9.47800 2.37200 23.25800
C  9.73900 2.41400 24.76000
C  6.96900 3.10100 22.43700
C  10.85200 2.62000 22.46800
C  11.39900 1.39100 21.77000
N  9.97800 2.16800 27.80200
C  10.60200 1.27200 26.90700
C  11.43900 0.34500 27.65500
C  11.31900 0.71900 28.98800
C  10.42000 1.83000 29.07500
C  12.15300 -0.84900 27.09600
C  11.81000 0.43400 30.33500
O  12.53400 -0.40000 30.71200
C  11.06000 1.45000 31.28100
C  10.21300 0.65700 32.24100
O  9.33300 -0.15800 31.91600
O  10.71900 0.85500 33.54600
C  9.76000 0.42500 34.59400
H  6.10300 6.21300 30.14000
H  6.91500 5.46200 23.75900
H  11.17100 0.80900 24.91600
H  8.16900 2.89200 32.69500
H  7.66800 5.65400 32.07700
H  5.81900 3.30700 31.82000
H  5.33600 5.08300 31.86900
H  5.80300 4.32800 33.31700
H  10.34100 4.68000 32.28700
H  10.32000 3.38800 33.51400
H  8.10600 4.90600 34.39400
H  9.39800 6.05800 34.14300
H  3.80600 7.53700 28.15100
H  5.03400 8.79700 27.95400
H  5.10100 7.69800 29.31400
H  3.89700 8.59600 25.98400
H  4.38500 9.26600 24.32600
H  5.46300 9.48700 25.76500
H  8.87400 4.29300 22.43100
H  9.05900 1.45800 22.83700
H  6.77900 2.03400 22.32300
H  6.70100 3.69800 21.56600
H  6.20800 3.35700 23.17400
H  11.63200 2.98300 23.13800
H  10.75300 3.47200 21.79600
H  11.22900 1.53500 20.70300
H  11.04100 0.46500 22.22000
H  12.46900 1.46700 21.95900
H  12.28500 -1.53500 27.93300
H  13.09200 -0.65900 26.57700
H  11.58300 -1.34200 26.30900
H  11.67600 2.09700 31.90600
H  8.77100 0.13600 34.24000
H  9.63800 1.20300 35.34700
H  10.15400 -0.41300 35.16900
Mg 17.35300 52.21800 26.52000
C  19.23800 50.70200 29.01900
C  14.94900 53.13100 28.97600
C  15.47400 53.70800 24.06400
C  19.69800 51.12600 24.12900
N  17.02600 51.75900 28.78000
C  18.02700 51.20700 29.58200
C  17.65400 51.47900 31.06200
C  16.11400 51.84900 30.95200
C  16.04300 52.33400 29.48800
C  15.19900 50.61000 31.05600
C  18.47300 52.67600 31.55300
C  18.69800 52.85500 33.07300
H  17.89800 51.91700 34.04500
N  15.56600 53.34500 26.50900
C  14.70700 53.52700 27.61800
C  13.62200 54.35500 27.19900
C  13.80800 54.66800 25.87900
C  14.95200 53.86800 25.41900
C  12.42200 54.56200 28.11500
C  12.88400 55.48300 24.96700
O  13.10200 55.48000 23.79800
C  11.76600 56.33900 25.44000
N  17.57800 52.27900 24.33100
C  16.59000 52.91000 23.58500
C  16.96500 52.72800 22.06200
C  18.52600 52.28900 22.16100
C  18.59200 51.80500 23.58000
C  15.95000 51.77400 21.44100
C  19.56100 53.46500 22.01200
C  20.64900 53.26900 21.04500
N  19.00600 51.01500 26.44000
C  19.91200 50.68300 25.44100
C  21.09100 50.02300 25.95600
C  20.79700 49.93800 27.38000
C  19.56500 50.62100 27.59900
C  22.34300 49.45400 25.24600
C  21.26700 49.52600 28.68500
O  22.25100 48.81900 28.94600
C  20.38300 50.18400 29.76200
C  20.05400 49.16200 30.83900
O  19.41700 48.09600 30.76600
O  20.83300 49.55900 31.91500
C  20.85600 48.56900 33.04600
H  14.31600 53.53000 29.77100
H  14.94700 54.24000 23.26900
H  20.51000 50.72200 23.52000
H  17.79400 50.57700 31.65700
H  15.77200 52.55700 31.70600
H  14.40800 50.64200 30.30700
H  14.69700 50.51700 32.02000
H  15.77800 49.69500 30.93600
H  18.04700 53.57300 31.10300
H  19.51400 52.54000 31.26000
H  18.65300 53.92500 33.27600
H  19.77900 52.77700 33.18900
H  12.38700 53.78700 28.87900
H  11.44500 54.43600 27.64800
H  12.38500 55.55000 28.57400
H  10.89200 55.78800 25.78800
H  11.47600 57.12400 24.74200
H  12.25500 56.80100 26.29800
H  16.86000 53.70600 21.59200
H  18.84500 51.54000 21.43500
H  15.07900 51.59700 22.07300
H  16.41300 50.80900 21.23900
H  15.57900 52.26300 20.54100
H  20.01600 53.63500 22.98800
H  19.01100 54.40600 22.02000
H  20.56100 52.34700 20.47200
H  21.68400 53.35100 21.37900
H  20.46400 54.08300 20.34500
H  23.22100 49.92200 25.69200
H  22.27700 49.76600 24.20300
H  22.41400 48.36900 25.32100
H  21.04900 50.92200 30.20900
H  21.71000 48.95700 33.60200
H  21.05500 47.53700 32.75700
H  20.01300 48.62600 33.73400

