158

Mg 26.75300 51.13400 27.00600
C  24.40000 52.11300 29.36700
C  28.86600 50.19900 29.46300
C  28.80700 50.14600 24.58100
C  24.58300 52.50100 24.38200
N  26.54100 51.23900 29.16600
C  25.44200 51.44500 29.94100
C  25.74600 51.15600 31.41500
C  27.35000 50.88400 31.41500
C  27.61700 50.68600 29.89800
C  28.13200 52.11300 32.01300
C  24.82900 50.02400 31.95000
C  24.08100 50.37900 33.22600
H  24.80000 51.10500 34.36100
N  28.56700 50.28300 26.98500
C  29.28700 49.96400 28.15200
C  30.53900 49.29000 27.70300
C  30.54800 49.31100 26.32400
C  29.30200 49.94900 25.87100
C  31.68200 48.77000 28.61100
C  31.67500 48.86600 25.43300
O  31.66400 49.15900 24.23300
C  32.83700 48.02500 25.86200
N  26.62200 51.22500 24.69500
C  27.59900 50.73400 24.00800
C  27.25300 50.75000 22.54100
C  25.87700 51.48800 22.41800
C  25.64100 51.74400 23.89400
C  28.43300 51.33500 21.62800
C  24.73700 50.61600 21.77800
C  24.42100 51.10500 20.37200
N  24.93300 52.17900 26.83100
C  24.12400 52.60900 25.77800
C  22.89700 53.24600 26.27300
C  23.02600 53.07100 27.68600
C  24.27400 52.48900 27.98200
C  21.89100 53.93700 25.47600
C  22.27300 53.25500 28.92200
O  21.15700 53.69500 29.14200
C  23.22000 52.65300 30.08200
C  23.61500 53.89000 30.89900
O  24.44400 54.75500 30.60200
O  22.90500 53.86300 32.04200
C  23.22400 54.86300 33.04500
H  29.50200 49.80300 30.25700
H  29.50400 49.73600 23.84700
H  23.99600 52.91300 23.55800
H  25.65000 52.09500 31.96000
H  27.49700 49.98300 32.01000
H  27.70400 52.69000 32.83200
H  28.39000 52.68400 31.12100
H  29.02300 51.72900 32.51100
H  25.27600 49.04900 32.14800
H  24.02000 49.78600 31.25900
H  23.73700 49.41300 33.59500
H  23.25400 51.01800 32.91600
H  31.80400 47.70200 28.42700
H  31.56900 48.98200 29.67400
H  32.57000 49.36000 28.38900
H  33.31000 47.71500 24.93000
H  32.52200 47.18100 26.47600
H  33.53500 48.64300 26.42800
H  27.21000 49.71600 22.20000
H  26.05100 52.49800 22.04700
H  27.93500 51.92900 20.86100
H  28.97800 50.55900 21.09000
H  29.08400 51.87200 22.31800
H  23.86700 50.83800 22.39600
H  24.94800 49.54800 21.72000
H  24.92200 52.03000 20.09000
H  23.37300 51.38100 20.25100
H  24.73400 50.30200 19.70400
H  21.63700 53.33100 24.60700
H  22.13400 54.94000 25.12400
H  21.02700 54.02900 26.13400
H  22.80500 51.83800 30.67400
H  22.81900 55.79000 32.63900
H  24.30000 55.03500 33.06600
H  22.82600 54.57100 34.01700
Mg 6.87800 54.38200 40.25500
C  7.02100 50.72400 39.70000
C  10.15000 54.42800 39.61700
C  6.60000 57.70000 40.43900
C  3.37100 53.92700 40.43000
N  8.46100 52.67700 39.43000
C  8.27000 51.34800 39.42700
C  9.60500 50.70000 39.11100
C  10.66500 51.84700 39.49600
C  9.72100 53.08500 39.44900
C  11.42800 51.68300 40.85200
C  9.78300 50.29200 37.65800
C  9.31800 51.18200 36.51000
H  7.83700 51.11300 36.09900
N  8.21500 55.85600 40.03100
C  9.53400 55.67400 39.71600
C  10.18500 57.00500 39.81100
C  9.18700 57.91900 40.12600
C  7.90300 57.20600 40.18900
C  11.60600 57.24000 39.64000
C  9.42900 59.42700 40.40100
O  10.55500 59.91700 40.40700
C  8.27200 60.30600 40.72800
N  5.21300 55.63400 40.18800
C  5.36100 56.92100 40.54800
C  4.02200 57.60200 40.93300
C  2.99000 56.48300 40.71100
C  3.91000 55.23700 40.46300
C  4.01100 58.42400 42.34100
C  2.10300 56.76400 39.55300
C  0.60500 56.44300 39.83200
N  5.41700 52.71200 40.12900
C  4.09300 52.73200 40.26500
C  3.61200 51.38200 40.37000
C  4.75500 50.55300 40.23900
C  5.83500 51.40200 39.99800
C  2.30400 50.92200 40.70000
C  5.24400 49.24600 40.30700
O  4.62400 48.26100 40.70000
C  6.67500 49.24200 39.72600
C  6.61100 48.60000 38.24400
O  5.66400 48.63900 37.48800
O  7.74800 47.75500 38.00600
C  7.76000 47.06500 36.68200
H  11.22300 54.43500 39.41400
H  6.40900 58.72200 40.77200
H  2.28600 53.80500 40.43800
H  9.63700 49.82300 39.75700
H  11.37200 52.11800 38.71300
H  11.59500 52.62000 41.38300
H  12.39000 51.36100 40.45400
H  11.00900 50.84800 41.41200
H  9.36300 49.31400 37.42200
H  10.86600 50.18300 37.58800
H  9.83000 50.82800 35.61500
H  9.60600 52.22400 36.64900
H  11.66600 58.14300 39.03300
H  12.06200 56.38800 39.13600
H  12.12400 57.33300 40.59500
H  8.59000 61.28000 41.09800
H  7.87200 59.92300 41.66700
H  7.55200 60.39600 39.91400
H  3.98100 58.43200 40.22600
H  2.47500 56.22100 41.63500
H  3.62600 59.44100 42.26100
H  5.04800 58.43700 42.67800
H  3.45700 57.95400 43.15300
H  2.40400 56.17500 38.68700
H  2.22400 57.78100 39.18100
H  0.51400 55.89600 40.77100
H  0.09700 55.95400 39.00200
H  0.10000 57.40200 39.94600
H  1.89800 50.73900 39.70600
H  1.78400 51.74300 41.19400
H  2.33000 50.01900 41.31100
H  7.36700 48.68700 40.35900
H  8.02600 46.02000 36.83800
H  8.57500 47.54200 36.13700
H  6.84300 47.25400 36.12300

