158

Mg 46.63800 4.22700 46.94300
C  44.55700 6.79600 46.69200
C  43.84400 2.11700 46.49400
C  48.84200 1.69500 46.55500
C  49.29800 6.50200 46.85700
N  44.47400 4.45500 46.59500
C  43.83900 5.65400 46.51600
C  42.44100 5.46500 45.97300
C  42.03400 4.01600 46.55500
C  43.52300 3.44900 46.58900
C  41.31700 3.95700 47.89000
C  42.30200 5.80100 44.52900
C  41.48600 7.06800 44.16500
H  42.00200 8.13000 43.11400
N  46.40600 2.23600 46.49100
C  45.11700 1.54200 46.38600
C  45.47900 0.14900 46.21500
C  46.91000 0.02000 46.19500
C  47.41800 1.37800 46.39200
C  44.41300 -0.91700 46.01800
C  47.68500 -1.28900 45.75500
O  47.09500 -2.33700 45.54900
C  49.21100 -1.36800 45.56900
N  48.77400 4.13700 46.67600
C  49.44400 2.95700 46.71900
C  50.94300 3.16000 46.63300
C  51.16300 4.70500 46.68100
C  49.63100 5.15000 46.71400
C  51.62000 2.40700 47.85100
C  52.03200 5.29100 45.52600
C  53.50500 5.03000 45.44400
N  46.93500 6.29800 46.94200
C  48.01400 7.12800 46.95000
C  47.67200 8.55600 46.96800
C  46.22300 8.45300 46.89800
C  45.89900 7.05100 46.84500
C  48.51800 9.74000 47.21000
C  45.08100 9.22100 46.95300
O  44.88800 10.40800 47.17400
C  43.87100 8.13500 46.68800
C  42.80800 8.24700 47.66700
O  42.74900 7.55700 48.69000
O  41.85100 9.17100 47.27500
C  40.73000 9.22200 48.14400
H  42.90600 1.55800 46.48700
H  49.60200 0.91800 46.45200
H  50.10300 7.22100 47.02500
H  41.81700 6.17100 46.52100
H  41.52700 3.45900 45.76800
H  40.31000 3.65800 47.59800
H  41.14200 4.88700 48.43000
H  41.69700 3.18400 48.55800
H  41.85300 4.88600 44.14200
H  43.30300 5.89500 44.10800
H  41.48200 7.59300 45.12000
H  40.45000 6.77400 43.99900
H  44.71000 -1.65400 45.27300
H  43.46000 -0.54400 45.64200
H  44.13300 -1.41300 46.94800
H  49.73700 -1.18800 46.50600
H  49.50000 -0.58400 44.86900
H  49.63400 -2.34400 45.33000
H  51.26300 2.78700 45.66000
H  51.63300 5.16700 47.55000
H  50.99500 1.81700 48.52200
H  52.15200 3.09000 48.51300
H  52.37200 1.72400 47.45600
H  51.75900 6.34600 45.55400
H  51.61800 4.91600 44.59100
H  53.70900 4.74600 44.41100
H  53.76600 4.25000 46.15900
H  54.12500 5.90400 45.63900
H  48.29200 10.05300 48.22900
H  48.19500 10.55700 46.56500
H  49.58400 9.56900 47.36400
H  43.57000 8.24200 45.64600
H  40.29100 8.22500 48.14000
H  40.02900 9.90600 47.66600
H  41.01600 9.46900 49.16700
Mg 47.32200 24.58800 27.91000
C  48.14600 26.48800 30.56700
C  47.00900 21.73700 30.00700
C  46.44600 22.68200 25.21200
C  48.14800 27.15700 25.73200
N  47.67300 24.20400 30.04500
C  47.76700 25.17700 30.97200
C  47.68900 24.66200 32.42100
C  47.58900 23.16700 32.11700
C  47.39100 22.97100 30.63300
C  48.64600 22.17300 32.75200
C  46.57300 25.37900 33.22000
C  46.90400 26.32600 34.33300
H  45.87900 26.57300 35.53200
N  46.85900 22.51600 27.63300
C  46.78500 21.56000 28.57600
C  46.59900 20.26800 27.92200
C  46.25500 20.54800 26.55300
C  46.47800 21.95600 26.43600
C  46.64400 18.93500 28.69600
C  45.87900 19.61800 25.41900
O  45.61700 19.99400 24.27100
C  45.79100 18.22200 25.70900
N  47.44500 24.83000 25.76700
C  46.91500 23.94500 24.91700
C  46.82700 24.56500 23.46500
C  47.21000 26.02400 23.63400
C  47.59900 26.08900 25.13400
C  47.63400 23.79800 22.36000
C  45.97600 26.99700 23.29800
C  46.19300 28.38600 22.68300
N  48.08600 26.40400 28.03600
C  48.40900 27.36800 27.09500
C  49.05400 28.45800 27.77300
C  48.90600 28.19400 29.15800
C  48.31100 26.94000 29.27300
C  49.65800 29.60000 27.04300
C  49.12800 28.73100 30.46900
O  49.67800 29.84000 30.72700
C  48.62700 27.66000 31.43500
C  49.88400 27.24800 32.31500
O  50.64000 26.26300 32.11900
O  49.96200 28.11800 33.35800
C  50.73600 27.65500 34.50200
H  46.83900 20.91300 30.70300
H  46.11800 22.26900 24.25500
H  48.47100 27.96100 25.06600
H  48.63000 24.79600 32.95400
H  46.60300 22.83400 32.44000
H  49.12300 22.72800 33.56000
H  49.41400 21.92600 32.02000
H  48.11300 21.31300 33.15900
H  45.89100 24.56800 33.47800
H  46.04100 25.93000 32.44400
H  46.98300 27.31300 33.87700
H  47.84700 26.04200 34.80200
H  47.03100 18.23600 27.95400
H  45.64600 18.59500 28.97100
H  47.33500 18.96300 29.53800
H  46.80600 17.87700 25.51700
H  45.10800 17.72400 25.02100
H  45.29500 17.95100 26.64100
H  45.77400 24.50800 23.19100
H  48.10300 26.23500 23.04600
H  48.28400 23.08500 22.86800
H  48.20900 24.45400 21.70700
H  47.04500 23.09600 21.76800
H  45.47900 26.92500 24.26600
H  45.35800 26.57100 22.50800
H  45.84400 28.41300 21.65100
H  47.23500 28.70600 22.71400
H  45.54100 29.12400 23.14800
H  50.11200 29.19200 26.14000
H  50.50100 30.06200 27.55600
H  48.89700 30.35900 26.86500
H  47.87900 28.03200 32.13500
H  50.62600 28.45400 35.23600
H  51.80400 27.67800 34.28700
H  50.34800 26.67100 34.76600

