158

Mg -2.59700 17.13000 26.40000
C  -2.98500 14.73000 28.99000
C  -2.83600 19.56700 28.72600
C  -2.52300 19.43200 23.93900
C  -2.45200 14.52500 24.17300
N  -2.80600 17.08000 28.53400
C  -2.96200 16.02300 29.42800
C  -3.19900 16.55400 30.89700
C  -3.44900 18.15000 30.76300
C  -2.97300 18.30400 29.24500
C  -4.91300 18.58900 31.12200
C  -1.97700 16.29700 31.79700
C  -1.88700 16.94700 33.17600
H  -1.26600 16.21000 34.38000
N  -2.46700 19.17000 26.34500
C  -2.64000 20.04700 27.40100
C  -2.65600 21.41900 26.91800
C  -2.35800 21.41300 25.56500
C  -2.44500 19.95800 25.19900
C  -2.95200 22.61900 27.76200
C  -2.09300 22.53200 24.57600
O  -1.92200 22.30800 23.36200
C  -1.91800 23.88300 25.06500
N  -2.36900 17.00800 24.42000
C  -2.38700 18.08300 23.55700
C  -2.28200 17.60900 22.04800
C  -2.03100 16.02500 22.23900
C  -2.27700 15.80800 23.69000
C  -3.64700 17.96500 21.40400
C  -0.59000 15.63200 21.74300
C  0.51200 15.64400 22.78900
N  -2.73700 15.05400 26.43300
C  -2.58000 14.14500 25.48100
C  -2.73600 12.78400 26.04300
C  -2.96500 12.94400 27.38200
C  -2.87200 14.39800 27.60200
C  -2.32200 11.58000 25.31100
C  -3.18500 12.23700 28.66400
O  -3.35900 11.07200 28.87600
C  -3.10100 13.36400 29.71400
C  -1.94500 13.09500 30.58300
O  -0.82500 13.48000 30.44600
O  -2.39300 12.37800 31.70600
C  -1.51700 11.96600 32.84400
H  -3.07600 20.24900 29.54400
H  -2.60600 20.14500 23.11600
H  -2.37800 13.78600 23.37200
H  -4.10400 16.10400 31.30600
H  -2.68200 18.65600 31.34900
H  -5.59300 17.80300 31.45200
H  -5.31000 18.76000 30.12100
H  -4.90000 19.47900 31.75100
H  -1.11000 16.59700 31.20800
H  -2.08900 15.28700 32.19100
H  -2.96400 17.09500 33.25900
H  -1.30500 17.85000 32.99300
H  -3.37800 22.42300 28.74700
H  -3.74300 23.11400 27.19900
H  -2.10200 23.29900 27.79400
H  -2.84400 24.20700 25.53900
H  -1.80200 24.60800 24.25900
H  -1.09000 23.87600 25.77400
H  -1.48800 18.16100 21.54400
H  -2.65300 15.40700 21.59200
H  -4.34800 17.13000 21.39100
H  -3.55100 18.16700 20.33700
H  -4.09800 18.83800 21.87600
H  -0.31600 16.20700 20.85800
H  -0.62500 14.57600 21.47500
H  1.04200 14.69200 22.75700
H  0.15000 15.94700 23.77100
H  1.26700 16.31400 22.37700
H  -2.08000 10.79100 26.02300
H  -1.41100 11.75500 24.73900
H  -3.10600 11.24100 24.63300
H  -3.89300 13.38200 30.46300
H  -1.77800 10.91700 32.98400
H  -1.91700 12.50100 33.70500
H  -0.44200 12.13200 32.77100
Mg 17.44000 52.61000 26.25700
C  18.96300 51.34300 29.10400
C  14.85100 53.88000 28.18100
C  16.01500 53.54100 23.36500
C  19.92800 50.88900 24.42300
N  16.98700 52.55100 28.38700
C  17.77400 51.96900 29.40900
C  17.18800 52.38700 30.81500
C  15.79700 52.97500 30.40900
C  15.86900 53.18900 28.89600
C  14.60300 52.14500 30.79300
C  18.14500 53.44900 31.46900
C  18.31000 53.37400 32.99700
H  17.09200 53.04800 33.91800
N  15.72600 53.70400 25.81400
C  14.82300 54.14200 26.76600
C  13.91700 54.95900 26.09100
C  14.25300 54.96300 24.63200
C  15.36200 54.07500 24.54100
C  12.89500 55.72500 26.87400
C  13.53800 55.60300 23.49500
O  13.98300 55.51500 22.38200
C  12.41700 56.51500 23.76700
N  17.79400 52.12100 24.14400
C  17.12300 52.76000 23.17800
C  17.71400 52.51200 21.72600
C  19.18800 51.96000 22.21000
C  19.02100 51.63600 23.67500
C  16.91000 51.62400 20.78500
C  20.35400 53.01100 22.01900
C  21.64900 52.49000 21.44100
N  19.12400 51.36400 26.62300
C  19.94100 50.71000 25.77200
C  20.89000 49.91400 26.51600
C  20.52200 50.12900 27.83600
C  19.41800 50.99400 27.84700
C  22.02700 49.02900 26.05200
C  20.84300 49.82800 29.20000
O  21.72000 49.24100 29.84300
C  19.84300 50.66900 30.07400
C  19.21000 49.78600 31.03200
O  18.33500 49.01000 30.71400
O  19.79100 49.87600 32.31000
C  19.04200 49.14600 33.32100
H  13.99000 54.19100 28.77600
H  15.68500 53.91500 22.39400
H  20.68300 50.42900 23.78200
H  17.04800 51.51300 31.45100
H  15.57000 53.91700 30.90900
H  13.99800 52.74200 31.47500
H  14.95100 51.32900 31.42700
H  14.15800 51.77900 29.86800
H  17.73800 54.44100 31.27400
H  19.02500 53.60500 30.84500
H  18.76100 54.29400 33.37100
H  19.18500 52.73100 33.09900
H  12.12600 55.08200 27.30500
H  12.44200 56.53200 26.29900
H  13.36900 56.12500 27.77000
H  11.56900 56.03900 24.26100
H  12.12600 56.92600 22.80000
H  12.82600 57.31300 24.38700
H  17.83000 53.48800 21.25500
H  19.48900 51.08000 21.64100
H  15.98200 51.18000 21.14700
H  17.59300 50.82000 20.51000
H  16.62200 52.20100 19.90600
H  20.46500 53.56900 22.94800
H  19.93600 53.66700 21.25500
H  21.92200 53.17100 20.63500
H  21.42900 51.46900 21.12600
H  22.43500 52.60100 22.18800
H  22.69500 49.11800 26.90900
H  22.39300 49.38500 25.08900
H  21.72300 47.99100 25.91800
H  20.31100 51.41300 30.71900
H  17.96500 49.30200 33.37200
H  19.53300 49.30900 34.28000
H  19.22500 48.08400 33.15800

