158

Mg 1.69500 7.10200 25.23400
C  2.27800 9.23700 27.96900
C  2.02000 4.40300 27.37500
C  1.63600 5.23100 22.65300
C  1.84400 10.05500 23.18700
N  2.25900 6.86900 27.39900
C  2.24400 7.87100 28.34700
C  2.06100 7.32500 29.77200
C  2.17800 5.78100 29.60500
C  2.13800 5.68300 28.03600
C  3.45800 5.15600 30.29800
C  0.77200 7.84300 30.40400
C  0.83900 7.91100 31.96100
H  2.08200 7.35500 32.71700
N  1.59300 5.03100 25.09000
C  1.77400 4.08300 26.05200
C  1.82900 2.82200 25.47600
C  1.69200 3.00500 24.07100
C  1.62000 4.43900 23.82000
C  1.89000 1.51400 26.29800
C  1.48900 2.01700 22.92300
O  1.02400 2.29400 21.85600
C  1.56600 0.51200 23.27800
N  1.73600 7.57500 23.25600
C  1.60800 6.65400 22.36900
C  1.67500 7.16900 20.96700
C  1.49600 8.69400 21.16900
C  1.68000 8.78700 22.64300
C  2.96300 6.65900 20.09200
C  0.09500 9.22700 20.66500
C  -0.03700 9.36500 19.08400
N  1.99600 9.31500 25.44800
C  2.02000 10.31600 24.53100
C  2.17400 11.58400 25.23600
C  2.23000 11.26200 26.62700
C  2.20100 9.83700 26.63700
C  2.29000 12.93900 24.66600
C  2.43700 11.76800 27.95100
O  2.77800 12.86800 28.29300
C  2.24000 10.45800 28.97200
C  3.38400 10.56600 29.94600
O  4.53300 10.09600 29.80600
O  3.06400 11.36300 31.02000
C  4.12200 11.65900 32.01100
H  1.86500 3.52500 28.00500
H  1.76400 4.67400 21.72300
H  1.67900 10.91500 22.53600
H  2.88100 7.79600 30.31400
H  1.38200 5.19100 30.05900
H  3.91500 5.83100 31.02100
H  4.23300 4.88400 29.58100
H  3.12900 4.23400 30.77800
H  -0.15900 7.28800 30.28100
H  0.53000 8.82000 29.98600
H  -0.11900 7.62400 32.39500
H  0.73900 8.98100 32.13900
H  2.72100 0.91300 25.92700
H  0.98100 0.97500 26.03300
H  2.01600 1.63900 27.37400
H  0.69400 0.37300 23.91800
H  2.44000 0.31000 23.89700
H  1.56600 -0.13500 22.40100
H  0.87400 6.75000 20.35800
H  2.23100 9.24000 20.57700
H  3.79500 6.59600 20.79300
H  3.15600 7.44500 19.36100
H  2.92900 5.73000 19.52300
H  -0.00100 10.27700 20.94100
H  -0.69700 8.67200 21.16800
H  -0.53500 8.45900 18.74000
H  0.93000 9.35600 18.58000
H  -0.61200 10.22600 18.74200
H  1.52400 13.50000 25.20100
H  2.04100 12.92600 23.60500
H  3.31400 13.28600 24.80700
H  1.30400 10.69000 29.48000
H  3.62400 11.61500 32.98000
H  4.65800 12.60700 31.96900
H  4.85100 10.86900 32.19500
Mg 46.46200 15.66700 27.82400
C  44.48200 15.48300 30.76200
C  48.39900 18.09600 29.40600
C  48.32000 15.98600 25.07100
C  44.18200 13.65500 26.21700
N  46.37500 16.75100 29.80700
C  45.60800 16.33000 30.88100
C  46.04100 17.07700 32.14800
C  47.03600 18.17300 31.65300
C  47.31000 17.66800 30.19900
C  46.58900 19.63000 31.63100
C  46.66100 16.07400 33.19500
C  46.50800 16.63300 34.60900
H  47.66200 16.41800 35.53300
N  48.20000 16.76500 27.36700
C  48.80700 17.73300 28.12800
C  49.93800 18.27800 27.37800
C  49.96200 17.68800 26.13900
C  48.80400 16.75400 26.15500
C  50.71200 19.46000 27.87000
C  51.00500 17.79900 25.01100
O  50.95100 17.24500 23.93400
C  52.28500 18.62900 25.27800
N  46.25900 15.01500 25.89200
C  47.20800 15.20500 24.93600
C  46.80600 14.49500 23.63300
C  45.78900 13.49200 24.10900
C  45.31000 14.10000 25.50200
C  46.34100 15.45800 22.44600
C  46.26500 12.04200 24.22200
C  47.28200 11.71100 25.28900
N  44.66400 14.84100 28.29100
C  43.81400 14.02100 27.52300
C  42.70600 13.51300 28.30700
C  42.96100 14.02700 29.62200
C  44.15800 14.89300 29.51200
C  41.56700 12.59500 28.00700
C  42.45700 14.09200 30.94000
O  41.42700 13.59000 31.50500
C  43.45800 14.91900 31.75500
C  42.74000 15.94300 32.58800
O  42.28700 16.98500 32.10700
O  42.81100 15.56600 33.91700
C  42.22300 16.52800 34.87300
H  49.02700 18.78000 29.98000
H  48.69100 16.13000 24.05400
H  43.63300 12.82400 25.76800
H  45.20100 17.60200 32.60200
H  48.01400 18.09200 32.12600
H  47.44300 20.25000 31.90400
H  45.74700 19.79500 32.30300
H  46.30200 19.97300 30.63700
H  47.72400 16.00400 32.96200
H  46.26600 15.06200 33.29000
H  45.56200 16.35000 35.07000
H  46.56700 17.71100 34.46300
H  51.72400 19.15300 28.13400
H  50.18600 19.95800 28.68500
H  50.89000 20.25000 27.14000
H  52.00600 19.68200 25.25500
H  52.87500 18.45700 24.37800
H  52.96700 18.26700 26.04700
H  47.68500 13.96000 23.27600
H  44.94600 13.58300 23.42500
H  46.85000 15.31300 21.49300
H  46.63100 16.48400 22.67200
H  45.27200 15.43000 22.23300
H  46.60600 11.63800 23.26800
H  45.41800 11.36900 24.35000
H  48.21700 11.48900 24.77400
H  46.98200 10.83500 25.86500
H  47.52500 12.51300 25.98600
H  40.71400 13.17700 27.65800
H  41.22100 12.04800 28.88400
H  41.87300 11.92300 27.20400
H  43.89000 14.17400 32.42300
H  41.23100 16.91200 34.63300
H  42.88700 17.34300 35.16300
H  41.94500 15.87300 35.69800

