158

Mg -0.34900 7.96400 26.24000
C  0.58400 10.01100 28.87500
C  -0.20000 5.30700 28.30500
C  -0.84700 6.02400 23.59000
C  0.16300 10.77300 24.00100
N  0.27400 7.71600 28.30000
C  0.32400 8.67200 29.22300
C  0.26000 8.12400 30.65300
C  0.40700 6.59000 30.45700
C  0.20400 6.52200 28.89300
C  1.68100 6.05200 31.00600
C  -1.16600 8.55900 31.17800
C  -1.25800 8.87200 32.68400
H  -0.10400 8.33000 33.54400
N  -0.44700 5.93900 25.97400
C  -0.54900 5.01000 26.95700
C  -1.00700 3.77000 26.38400
C  -1.16800 3.95600 25.01600
C  -0.75900 5.34200 24.82100
C  -1.14600 2.50100 27.24300
C  -1.65100 2.98400 23.79600
O  -1.63700 3.27300 22.62200
C  -1.83400 1.58300 24.17500
N  -0.26300 8.36700 24.15600
C  -0.70400 7.42300 23.28300
C  -0.91700 7.91000 21.86000
C  -0.55200 9.45700 22.03200
C  -0.22600 9.56000 23.49300
C  -0.02300 7.13000 20.84800
C  -1.80000 10.34600 21.69800
C  -2.76700 10.98400 22.80200
N  0.19800 9.96800 26.35200
C  0.42000 10.96400 25.40300
C  0.92100 12.16500 26.09100
C  1.00300 11.81700 27.46100
C  0.48900 10.55900 27.58000
C  1.30700 13.42800 25.44800
C  1.22700 12.34300 28.76700
O  1.63700 13.42800 29.17200
C  0.97600 11.21000 29.75400
C  2.25000 11.10600 30.52500
O  3.24400 10.58200 30.06900
O  2.12500 11.56600 31.77000
C  3.31800 11.57100 32.56900
H  -0.14500 4.43600 28.96100
H  -1.34200 5.52100 22.75700
H  0.09200 11.66600 23.37700
H  0.97400 8.74900 31.19100
H  -0.43700 6.08800 30.93000
H  2.17500 6.72000 31.71200
H  2.31300 5.71000 30.18700
H  1.35900 5.14700 31.52000
H  -1.82100 7.70100 31.02600
H  -1.61700 9.43600 30.71300
H  -2.27200 8.57200 32.94800
H  -1.16300 9.95400 32.76700
H  -2.20200 2.23100 27.22200
H  -0.89900 2.60900 28.29900
H  -0.67200 1.61200 26.82800
H  -0.90200 1.08900 23.90100
H  -2.61700 1.12800 23.56800
H  -2.09400 1.50200 25.23100
H  -1.96700 7.66100 21.70300
H  0.38800 9.73500 21.55400
H  0.32300 6.27900 21.43400
H  0.88600 7.67900 20.60200
H  -0.55700 6.87000 19.93300
H  -2.46800 9.89200 20.96600
H  -1.39100 11.09300 21.01700
H  -3.80400 10.80900 22.51500
H  -2.75800 12.07400 22.81800
H  -2.68700 10.59400 23.81700
H  0.62100 14.25600 25.63200
H  1.45900 13.27900 24.37900
H  2.29200 13.73600 25.79800
H  0.14600 11.44400 30.42100
H  3.82700 12.53500 32.56400
H  4.09300 10.87300 32.25200
H  3.01400 11.35400 33.59300
Mg 54.36000 25.52500 45.85900
C  51.87700 27.72100 44.45500
C  52.81800 22.91400 44.16200
C  57.20300 23.66900 46.25400
C  55.91400 28.19300 47.25300
N  52.68300 25.34800 44.31700
C  51.84400 26.34100 44.00500
C  50.75800 25.77400 42.95500
C  50.84800 24.21000 43.10100
C  52.11300 24.10200 43.90800
C  49.63700 23.62300 43.90400
C  50.96900 26.25200 41.41100
C  52.30700 26.59600 40.93500
H  52.82200 25.69600 39.75500
N  54.92100 23.51000 45.36800
C  54.11700 22.62600 44.69200
C  54.75400 21.30200 44.66900
C  55.95000 21.46000 45.39700
C  56.05900 22.94200 45.76300
C  54.07400 20.04800 44.18000
C  56.95300 20.33300 45.70300
O  56.80700 19.23300 45.22900
C  58.09800 20.45900 46.62300
N  56.39000 25.90800 46.41100
C  57.36300 24.95600 46.64400
C  58.67700 25.66400 47.05800
C  58.13900 27.07400 47.52800
C  56.66600 27.01400 47.16700
C  59.62600 24.93800 48.08000
C  58.89700 28.34500 46.96000
C  59.03800 28.69300 45.52100
N  53.94200 27.58800 45.96400
C  54.66700 28.53200 46.63200
C  53.95100 29.84100 46.57900
C  52.79700 29.54200 45.73600
C  52.92600 28.20400 45.32700
C  54.38600 31.10500 47.22400
C  51.61600 30.10200 45.06600
O  51.08200 31.20600 45.07800
C  50.92000 28.92400 44.30400
C  50.77200 29.24000 42.89200
O  51.71100 29.64400 42.23000
O  49.45500 29.06300 42.49100
C  49.12700 29.65100 41.17600
H  52.31100 21.99400 43.86200
H  58.12900 23.09200 46.21400
H  56.27700 29.13000 47.68000
H  49.83000 26.25000 43.27100
H  50.96200 23.71200 42.13800
H  49.97600 23.19700 44.84900
H  49.14400 22.83400 43.33600
H  48.94000 24.41600 44.17700
H  50.35200 27.13800 41.26500
H  50.51000 25.55300 40.71300
H  53.02600 26.52300 41.75200
H  52.20000 27.60500 40.53800
H  54.78500 19.30300 43.82300
H  53.41800 20.26100 43.33600
H  53.57600 19.48700 44.97000
H  58.52000 19.45900 46.72300
H  57.67100 20.86900 47.53800
H  58.88000 21.09800 46.21400
H  59.27200 25.87000 46.16800
H  58.06500 27.17100 48.61100
H  59.89700 25.46900 48.99300
H  60.57800 24.68400 47.61500
H  59.23800 23.98900 48.44900
H  59.91100 28.05500 47.23700
H  58.61000 29.28000 47.44100
H  58.47600 27.93800 44.97000
H  60.09700 28.57800 45.29000
H  58.71100 29.71600 45.34000
H  53.62000 31.87800 47.15700
H  55.31400 31.43100 46.75500
H  54.53400 30.86700 48.27800
H  49.98500 28.72500 44.82800
H  49.05800 30.73700 41.24000
H  48.14000 29.33200 40.84100
H  49.90600 29.47800 40.43400

