158

Mg 47.47500 17.04100 28.83200
C  45.61200 15.64900 31.68800
C  49.33400 18.70000 30.93600
C  49.10600 17.95200 26.07900
C  45.03600 15.47500 26.82100
N  47.38400 17.21900 31.12100
C  46.68400 16.55300 32.09600
C  47.14100 16.97200 33.52300
C  48.16300 18.13600 33.18100
C  48.26500 18.03000 31.65000
C  47.99400 19.57500 33.77100
C  47.87200 15.84600 34.39200
C  48.45300 16.21800 35.71500
H  48.04200 17.40500 36.50300
N  49.09100 18.10200 28.53400
C  49.71900 18.73400 29.55800
C  50.96200 19.26500 29.03500
C  50.96000 18.93200 27.62900
C  49.68800 18.37700 27.31300
C  52.01400 19.97900 29.93000
C  52.05500 19.06400 26.61000
O  51.88200 18.90300 25.35800
C  53.27500 19.56200 27.17400
N  47.02000 16.87900 26.76800
C  47.91200 17.37500 25.83200
C  47.37400 17.09600 24.34500
C  46.08300 16.29200 24.60000
C  45.98500 16.23100 26.13500
C  47.15400 18.38400 23.46100
C  46.13900 14.79600 24.09600
C  45.12700 14.42400 23.01100
N  45.73800 15.82500 29.16900
C  44.96900 15.20000 28.21400
C  43.91700 14.45000 28.82500
C  44.16200 14.61500 30.25000
C  45.30400 15.42600 30.33100
C  42.76100 13.71200 28.19400
C  43.59100 14.29900 31.47400
O  42.59500 13.69100 31.73200
C  44.47500 15.06300 32.50600
C  43.64100 16.05700 33.15300
O  42.83300 16.75500 32.64900
O  43.93500 15.99000 34.45900
C  43.34200 16.90800 35.47500
H  49.94000 19.24300 31.66500
H  49.65200 18.23600 25.17700
H  44.31200 15.06800 26.11200
H  46.29800 17.32000 34.12000
H  49.18200 17.86100 33.45300
H  47.90600 20.42800 33.09900
H  48.71500 19.74100 34.57200
H  46.98700 19.35200 34.12300
H  48.52500 15.24300 33.76100
H  47.06800 15.14200 34.60600
H  49.52100 16.28600 35.51000
H  48.16300 15.30900 36.24300
H  51.74600 20.08800 30.98100
H  52.31200 20.89800 29.42500
H  52.88200 19.33100 30.05700
H  53.16100 20.61800 27.41700
H  54.01200 19.52400 26.37200
H  53.52600 18.78700 27.89900
H  48.17600 16.56000 23.83700
H  45.18200 16.82900 24.30400
H  47.66400 18.22700 22.51000
H  47.71800 19.23900 23.83500
H  46.12900 18.75000 23.40700
H  46.07700 14.06400 24.90200
H  47.06500 14.55700 23.57300
H  45.66100 13.63100 22.48700
H  44.77400 15.27500 22.42800
H  44.20800 14.07400 23.48000
H  42.75000 13.82600 27.11000
H  41.81300 14.14800 28.51100
H  42.83700 12.66200 28.47900
H  44.74800 14.30500 33.24000
H  42.85800 16.22900 36.17800
H  42.62800 17.58600 35.00800
H  44.21900 17.36700 35.93200
Mg -2.19100 35.05000 26.95200
C  -3.59900 33.18200 29.66200
C  -1.12700 37.32400 29.49000
C  -1.07200 37.06500 24.59200
C  -3.77500 33.07600 24.67500
N  -2.31700 35.18300 29.32300
C  -2.88500 34.29400 30.19000
C  -2.74400 34.80600 31.69000
C  -2.05900 36.22900 31.52200
C  -1.85700 36.30900 30.04100
C  -2.79100 37.49800 32.17500
C  -2.01500 33.77600 32.61500
C  -2.85200 33.37900 33.81200
H  -2.10600 32.78400 35.02400
N  -1.09800 36.86200 27.08000
C  -0.78000 37.59200 28.15100
C  0.17200 38.60200 27.71700
C  0.19100 38.59800 26.26700
C  -0.71200 37.55300 25.89000
C  0.94500 39.45500 28.64900
C  0.92500 39.41900 25.22600
O  0.65600 39.38800 24.03600
C  2.08800 40.37900 25.65300
N  -2.41500 35.03900 24.90700
C  -1.89200 35.99500 24.15400
C  -2.01200 35.61800 22.65000
C  -2.83700 34.38300 22.68300
C  -2.97500 34.08100 24.19800
C  -2.51600 36.69500 21.65000
C  -2.42000 33.22000 21.79900
C  -1.68700 32.04600 22.40000
N  -3.54000 33.52400 27.09200
C  -4.03400 32.73300 26.03300
C  -4.94800 31.75700 26.50800
C  -4.70600 31.89100 27.93100
C  -3.85900 32.90200 28.24600
C  -5.76400 30.87000 25.69200
C  -5.05000 31.23600 29.25900
O  -5.68800 30.24900 29.55900
C  -4.33900 32.14800 30.33800
C  -5.35300 32.64300 31.28500
O  -6.00000 33.69400 31.14400
O  -5.58500 31.76400 32.30400
C  -6.63400 32.15700 33.25700
H  -0.87800 38.11000 30.20600
H  -0.68700 37.67100 23.76900
H  -4.27100 32.39200 23.98400
H  -3.74600 34.84000 32.11900
H  -1.03400 36.35300 31.87400
H  -3.25500 38.06000 31.36500
H  -2.00300 38.16700 32.52200
H  -3.47900 37.26700 32.98900
H  -1.04800 34.18500 32.90800
H  -1.88500 32.90100 31.97700
H  -3.57200 32.62200 33.50300
H  -3.43900 34.22200 34.17800
H  0.84800 39.32400 29.72700
H  0.50700 40.44200 28.50400
H  2.00400 39.55200 28.41300
H  3.01400 39.88200 25.94300
H  1.75800 41.12200 26.37900
H  2.40500 40.88900 24.74400
H  -0.99600 35.34800 22.36300
H  -3.79000 34.65500 22.22900
H  -2.75100 37.57500 22.25000
H  -3.36700 36.32800 21.07700
H  -1.72700 36.87500 20.92100
H  -1.81400 33.44100 20.92000
H  -3.38200 32.87100 21.42100
H  -0.90300 31.79000 21.68600
H  -2.36800 31.21600 22.58500
H  -1.15200 32.26200 23.32500
H  -6.41300 31.33300 24.94900
H  -6.49100 30.34500 26.31200
H  -5.15900 30.02700 25.35900
H  -3.58700 31.59700 30.90100
H  -7.62400 32.45400 32.90900
H  -6.38200 33.08000 33.77900
H  -6.67200 31.38600 34.02600

