158

Mg 36.54200 49.06900 26.30800
C  36.38000 46.98500 29.22000
C  35.61900 51.64000 28.29200
C  35.89000 50.76000 23.48900
C  36.91000 46.09500 24.39000
N  36.17500 49.22800 28.44000
C  36.27800 48.33700 29.44800
C  36.18900 48.94700 30.84700
C  35.53100 50.34800 30.56600
C  35.75100 50.44000 28.94000
C  33.97400 50.47500 30.85900
C  37.47100 49.12300 31.65600
C  37.36400 48.72500 33.13100
H  37.21600 49.83100 34.13600
N  36.04800 51.01100 25.95600
C  35.70500 51.94900 26.90900
C  35.63100 53.28600 26.24700
C  35.70200 53.06200 24.82000
C  35.88900 51.55400 24.69600
C  35.45300 54.57200 26.96700
C  35.53700 54.00300 23.63800
O  35.74500 53.64300 22.46500
C  35.22600 55.40200 23.94500
N  36.35900 48.58200 24.23500
C  36.17300 49.43600 23.25500
C  36.26900 48.84600 21.85600
C  36.87900 47.38000 22.17700
C  36.73100 47.34500 23.69900
C  34.80400 48.79800 21.11000
C  38.37300 47.13500 21.70800
C  38.62500 45.86600 20.94200
N  36.61700 46.98600 26.65100
C  36.79100 45.93100 25.78200
C  36.83000 44.67900 26.53700
C  36.63100 45.04400 27.87000
C  36.53700 46.44500 27.92300
C  37.01800 43.26800 25.96300
C  36.41700 44.51100 29.22000
O  36.35200 43.37000 29.66500
C  36.43400 45.80100 30.10900
C  35.19300 45.74800 30.94700
O  34.07000 45.72700 30.56200
O  35.61400 45.80600 32.31400
C  34.52400 45.95200 33.29500
H  35.28100 52.52100 28.84200
H  35.54200 51.38900 22.66600
H  37.10000 45.21500 23.77200
H  35.45200 48.39500 31.43000
H  36.08600 51.17300 31.01200
H  33.48900 49.50400 30.96200
H  33.53600 51.11000 30.08900
H  33.76600 51.04800 31.76300
H  37.83100 50.15100 31.63500
H  38.23700 48.49900 31.19600
H  38.18300 48.05000 33.38200
H  36.49400 48.07100 33.18500
H  34.52500 54.91100 26.50800
H  36.22500 55.32700 26.82000
H  35.37900 54.44600 28.04700
H  35.17100 55.90400 22.97900
H  35.99600 55.89100 24.54200
H  34.29800 55.36300 24.51600
H  36.92400 49.51600 21.29900
H  36.26000 46.57300 21.78600
H  34.05600 49.16800 21.81100
H  34.44900 47.80900 20.81900
H  34.80500 49.45800 20.24300
H  39.00600 47.16400 22.59500
H  38.65200 48.02800 21.14800
H  37.80900 45.15300 21.05500
H  39.55300 45.41600 21.29500
H  38.71300 46.15300 19.89400
H  38.09000 43.23100 25.77100
H  36.45400 43.14800 25.03800
H  36.63600 42.45900 26.58500
H  37.42000 45.80400 30.57400
H  33.57000 45.90700 32.77000
H  34.70600 46.77000 33.99200
H  34.61700 45.04100 33.88600
Mg 6.21900 54.03100 40.87300
C  5.24200 50.69300 40.67500
C  9.28400 53.09600 39.64900
C  6.89400 57.22900 40.16900
C  2.78400 54.82400 41.61300
N  7.15000 52.09600 40.31700
C  6.57500 50.84100 40.36000
C  7.58100 49.76000 39.92800
C  8.92900 50.55900 40.03700
C  8.46300 52.03100 39.97800
C  9.93500 50.12400 41.18400
C  7.41300 49.14400 38.48000
C  6.62300 49.91800 37.43800
H  7.39900 50.67900 36.32200
N  7.91800 55.07600 40.03300
C  9.12200 54.45100 39.68000
C  10.07800 55.42800 39.31200
C  9.39800 56.67100 39.31600
C  7.97900 56.38700 39.78900
C  11.53600 55.10200 38.97100
C  9.95600 57.96400 38.96100
O  11.10600 58.07000 38.61600
C  9.09600 59.27000 38.87800
N  4.88300 55.77000 40.69700
C  5.53300 56.99300 40.55200
C  4.47500 58.11000 40.70400
C  3.18000 57.31800 41.13800
C  3.64700 55.86800 41.17600
C  4.89200 59.08600 41.82900
C  1.84900 57.54100 40.28400
C  0.47000 57.64200 40.92600
N  4.32400 53.00200 41.12100
C  3.06000 53.49200 41.54000
C  2.20100 52.39900 41.79700
C  3.00800 51.28000 41.47900
C  4.27600 51.71000 41.05200
C  0.79200 52.40400 42.19900
C  3.06900 49.81000 41.45500
O  2.20900 48.94300 41.83500
C  4.49800 49.33600 40.94200
C  4.38700 48.48000 39.76000
O  3.79900 48.83300 38.74700
O  5.04600 47.32300 40.06300
C  5.03300 46.25800 39.02100
H  10.25600 52.64900 39.42900
H  7.06900 58.30200 40.27100
H  1.78900 55.16400 41.91100
H  7.54700 48.92500 40.62700
H  9.57500 50.46500 39.16400
H  10.79300 49.56800 40.80500
H  9.44800 49.50500 41.93700
H  10.33600 50.98200 41.72300
H  6.93700 48.16400 38.50800
H  8.32400 49.00600 37.89900
H  6.14400 50.69200 38.03800
H  5.75600 49.38000 37.05500
H  11.71000 54.02600 38.99700
H  12.24700 55.36800 39.75200
H  11.75600 55.41000 37.94900
H  8.13400 58.98100 38.45500
H  9.62300 60.03700 38.31100
H  9.08700 59.77100 39.84600
H  4.54700 58.54000 39.70500
H  2.87900 57.55400 42.15900
H  5.35500 59.94200 41.33700
H  5.63100 58.54600 42.41900
H  4.14900 59.42200 42.55200
H  1.90600 56.65600 39.65100
H  2.03600 58.43800 39.69300
H  -0.02000 58.44400 40.37400
H  0.59600 57.91900 41.97300
H  -0.05500 56.68800 40.89200
H  0.26200 52.15600 41.27900
H  0.47900 53.34200 42.65900
H  0.63100 51.60500 42.92200
H  4.98400 48.86600 41.79700
H  5.92500 45.66800 39.23000
H  5.05900 46.61900 37.99300
H  4.04700 45.79900 39.09700

