158

Mg 0.08100 43.58900 26.16400
C  2.34700 42.88700 28.81300
C  -2.31100 42.17400 28.24800
C  -2.11500 43.54400 23.72100
C  2.70700 44.19600 23.99600
N  0.09100 42.76300 28.30100
C  1.07000 42.79600 29.27700
C  0.50700 42.31600 30.58600
C  -0.95300 41.94200 30.29100
C  -1.09100 42.32600 28.85600
C  -1.46000 40.48100 30.65300
C  0.47400 43.57500 31.57500
C  -0.19600 43.45000 32.97300
H  -0.55100 42.07100 33.54400
N  -2.05800 43.08600 26.01600
C  -2.79100 42.49000 26.95500
C  -4.18100 42.25500 26.49200
C  -4.14900 42.61500 25.14000
C  -2.76900 43.11900 24.90400
C  -5.24800 41.79900 27.41300
C  -5.32300 42.66400 24.11200
O  -5.22100 42.94000 22.93700
C  -6.70300 42.36400 24.56500
N  0.27400 43.91700 24.19100
C  -0.80200 43.95400 23.38700
C  -0.42900 44.21500 21.85000
C  1.05800 44.53400 22.02100
C  1.39600 44.21100 23.49800
C  -0.68700 42.97100 20.91600
C  1.53200 45.92800 21.69500
C  1.26100 47.14000 22.57900
N  2.16000 43.67800 26.34600
C  3.08900 43.92500 25.31900
C  4.43800 43.72400 25.95500
C  4.13500 43.42900 27.30300
C  2.77900 43.28900 27.47600
C  5.74300 43.93400 25.21400
C  4.86400 43.06200 28.49700
O  6.02200 42.94600 28.75200
C  3.63200 42.89500 29.62000
C  3.85600 41.74600 30.56500
O  3.68400 40.64700 30.20100
O  4.10200 42.16200 31.91800
C  4.29600 40.95800 32.83400
H  -3.06500 41.81100 28.95000
H  -2.75200 43.43800 22.84100
H  3.42800 44.58500 23.27500
H  1.11900 41.47900 30.92200
H  -1.55400 42.60100 30.91900
H  -0.71900 39.94600 31.24600
H  -1.77000 39.80100 29.85900
H  -2.32500 40.49900 31.31700
H  -0.05900 44.32500 30.99100
H  1.47800 43.96300 31.74800
H  -1.10600 44.03300 33.11200
H  0.54900 43.92900 33.60800
H  -5.64000 42.74000 27.79900
H  -4.95900 41.08100 28.18000
H  -6.11300 41.40000 26.88300
H  -6.95600 42.82400 25.52000
H  -6.71200 41.27800 24.66100
H  -7.48400 42.67600 23.87200
H  -1.02400 45.03500 21.44800
H  1.60800 43.84700 21.37800
H  0.23500 42.70600 20.39700
H  -1.55400 43.16700 20.28500
H  -0.95200 42.11100 21.53200
H  1.11600 46.24400 20.73800
H  2.60000 45.86500 21.48800
H  0.95500 47.95900 21.92900
H  2.23800 47.40200 22.98700
H  0.63100 46.95900 23.45100
H  5.50000 44.78600 24.57900
H  6.17800 43.16700 24.57300
H  6.50400 44.16700 25.95900
H  3.66300 43.79100 30.24000
H  3.68900 40.07100 32.65600
H  4.24300 41.24300 33.88500
H  5.32300 40.60700 32.73800
Mg -2.18200 34.86700 26.86800
C  -3.82800 33.12100 29.49600
C  -0.95700 36.98800 29.33100
C  -0.89500 36.70000 24.42500
C  -3.79700 32.87900 24.61900
N  -2.29300 34.95900 29.14900
C  -2.89100 34.07500 29.93800
C  -2.74900 34.37100 31.46600
C  -1.98900 35.72700 31.41100
C  -1.80600 35.98200 29.83800
C  -2.66300 36.98100 32.14800
C  -2.01200 33.17300 32.23500
C  -2.66200 32.56700 33.45600
H  -1.79200 32.41000 34.74900
N  -0.94200 36.52100 26.83800
C  -0.57100 37.27200 27.94000
C  0.38300 38.30600 27.46000
C  0.18700 38.33900 26.04300
C  -0.51300 37.14500 25.73500
C  1.26000 39.18200 28.32200
C  0.65500 39.42100 25.07000
O  0.51200 39.41900 23.85300
C  1.36900 40.57000 25.53900
N  -2.34200 34.77800 24.90100
C  -1.62400 35.57400 24.05200
C  -1.72200 35.22400 22.63700
C  -2.44800 33.88300 22.75700
C  -2.88000 33.77500 24.14800
C  -2.44100 36.21500 21.75300
C  -1.55100 32.60200 22.45400
C  -0.26400 32.26200 23.26700
N  -3.66000 33.34500 26.97100
C  -4.20200 32.60700 25.97000
C  -5.20700 31.80400 26.51300
C  -5.07100 31.89400 27.87300
C  -4.03000 32.79200 28.10400
C  -6.27100 31.09300 25.63400
C  -5.46000 31.33400 29.10100
O  -6.21700 30.41700 29.40800
C  -4.70900 32.11600 30.23900
C  -5.74700 32.71700 31.18900
O  -6.67600 33.41800 30.81100
O  -5.61700 32.18900 32.44000
C  -6.61000 32.42300 33.46000
H  -0.75200 37.66700 30.16100
H  -0.34400 37.18700 23.61800
H  -4.12600 32.11700 23.90900
H  -3.72800 34.50400 31.92500
H  -0.99700 35.64900 31.85700
H  -1.80100 37.51900 32.54400
H  -3.25200 36.74500 33.03400
H  -3.28300 37.65000 31.55200
H  -0.97200 33.45000 32.40800
H  -1.97200 32.31400 31.56500
H  -3.12100 31.62000 33.17000
H  -3.41500 33.28900 33.77200
H  0.96700 40.22600 28.20600
H  2.19500 38.84800 27.87200
H  1.22400 38.96400 29.38900
H  0.78700 41.00700 26.34900
H  1.37400 41.26900 24.70200
H  2.35900 40.33200 25.93000
H  -0.76700 35.09900 22.12800
H  -3.34700 33.93200 22.14200
H  -2.08200 37.21400 22.00100
H  -3.52500 36.15000 21.85100
H  -2.22500 35.96700 20.71400
H  -1.26000 32.72600 21.41200
H  -2.24800 31.76600 22.51200
H  -0.51400 31.86000 24.24900
H  0.27100 33.20500 23.38300
H  0.30400 31.48100 22.76200
H  -6.20300 31.26500 24.56000
H  -7.26900 31.10400 26.07200
H  -5.96500 30.05300 25.74000
H  -4.00600 31.53700 30.83800
H  -7.62100 32.51900 33.06300
H  -6.47500 33.32300 34.06100
H  -6.60800 31.53900 34.09700

