158

Mg 17.31400 -0.52800 27.85300
C  16.10200 1.54000 30.48300
C  19.18700 -2.22300 30.11600
C  18.67100 -2.03900 25.20100
C  15.58100 1.70900 25.64000
N  17.56300 -0.37500 29.96200
C  16.98600 0.47900 30.82600
C  17.47100 0.23400 32.27500
C  18.51900 -0.86900 32.15900
C  18.37600 -1.23100 30.65900
C  19.98300 -0.54400 32.58900
C  16.38000 -0.21400 33.26300
C  16.39500 0.64700 34.54800
H  17.73800 1.04300 35.27400
N  18.73200 -2.03400 27.65200
C  19.34300 -2.62100 28.70700
C  20.02500 -3.78800 28.20700
C  19.94900 -3.73100 26.78800
C  19.18500 -2.52300 26.45100
C  20.90800 -4.75100 28.94600
C  20.65200 -4.55200 25.59700
O  20.49900 -4.31200 24.39000
C  21.44800 -5.76000 25.86800
N  17.31000 -0.00600 25.71300
C  17.96500 -0.87100 24.84500
C  17.48800 -0.60300 23.36900
C  16.43900 0.48100 23.54000
C  16.34000 0.67100 25.12000
C  18.56500 -0.12700 22.37100
C  15.13200 0.36300 22.70300
C  15.00800 1.41800 21.61400
N  16.09400 1.22200 27.99400
C  15.44400 2.03000 27.01600
C  14.61500 3.08500 27.61600
C  14.88300 2.88800 29.02000
C  15.69300 1.73400 29.16500
C  13.72700 4.23200 27.10300
C  14.64900 3.49600 30.39600
O  13.93700 4.42400 30.74100
C  15.43900 2.61600 31.39600
C  16.39500 3.55300 31.90600
O  17.46000 3.88300 31.44600
O  15.83800 4.04600 33.12400
C  16.69700 5.12700 33.67400
H  19.72600 -2.94300 30.73500
H  18.85300 -2.70500 24.35500
H  14.96600 2.25600 24.92300
H  17.96300 1.13100 32.65100
H  18.30700 -1.84900 32.58700
H  20.70100 -0.36500 31.78800
H  20.36500 -1.48500 32.98500
H  19.93900 0.29400 33.28400
H  16.53400 -1.24900 33.57000
H  15.42400 0.01500 32.79200
H  15.68600 0.30000 35.30000
H  15.92600 1.60300 34.31600
H  20.75600 -4.76200 30.02500
H  21.97100 -4.65600 28.72500
H  20.67700 -5.79100 28.72000
H  21.96900 -6.06800 24.96100
H  20.90700 -6.56100 26.37200
H  22.30100 -5.47800 26.48500
H  16.95100 -1.51700 23.11400
H  16.94000 1.40800 23.25900
H  19.52500 -0.03000 22.87900
H  18.29800 0.82700 21.91600
H  18.71300 -0.81000 21.53500
H  14.38300 0.37000 23.49400
H  15.15100 -0.58000 22.15600
H  14.57900 2.24500 22.18100
H  14.41700 1.11100 20.75200
H  15.96600 1.79700 21.25700
H  14.07400 4.67200 26.16800
H  13.66300 4.99300 27.88100
H  12.78900 3.68000 27.03900
H  14.69900 2.28800 32.12600
H  17.73100 4.78800 33.72300
H  16.46000 5.41800 34.69800
H  16.65100 5.97800 32.99500
Mg -5.84500 25.40300 26.31500
C  -4.61700 26.91200 29.10700
C  -7.75100 23.26000 28.37400
C  -6.54600 23.47100 23.71700
C  -3.82300 27.29400 24.33600
N  -6.11200 24.98500 28.51300
C  -5.56100 25.89400 29.45000
C  -6.07100 25.60300 30.85400
C  -6.81100 24.21000 30.64800
C  -6.94000 24.11300 29.12100
C  -6.19100 23.00200 31.30200
C  -6.98100 26.72400 31.35700
C  -7.06800 26.97300 32.85400
H  -6.47100 25.92000 33.79800
N  -7.18400 23.74300 26.00100
C  -7.89200 23.07700 27.00000
C  -8.83200 22.11800 26.35800
C  -8.49500 22.18100 24.92400
C  -7.32400 23.17700 24.76500
C  -9.84100 21.30000 27.07300
C  -9.00400 21.34500 23.82800
O  -8.78200 21.46400 22.65200
C  -9.97300 20.21600 24.20200
N  -5.31600 25.38100 24.30600
C  -5.62600 24.45600 23.42800
C  -5.15100 24.79100 22.03500
C  -4.53600 26.19500 22.20900
C  -4.52600 26.34100 23.68700
C  -4.28600 23.66200 21.42400
C  -5.35900 27.36000 21.43300
C  -6.34500 28.22900 22.24800
N  -4.52700 26.84200 26.59800
C  -3.81700 27.55900 25.69300
C  -2.98700 28.56200 26.40000
C  -3.28400 28.38100 27.76100
C  -4.21100 27.32100 27.78400
C  -2.20900 29.74200 25.77000
C  -3.10700 28.86400 29.14500
O  -2.40000 29.78200 29.60000
C  -3.94900 27.90500 29.98800
C  -3.03400 27.26300 31.00900
O  -2.39500 26.30500 30.67500
O  -3.12600 27.95500 32.21000
C  -2.22500 27.39200 33.18200
H  -8.29500 22.54100 28.98900
H  -7.04300 23.14300 22.80100
H  -3.10000 27.87100 23.75500
H  -5.20300 25.48600 31.50300
H  -7.81500 24.18300 31.07100
H  -5.46800 23.26900 32.07300
H  -5.74200 22.38300 30.52600
H  -6.95300 22.44000 31.84100
H  -7.98400 26.48800 31.00000
H  -6.70300 27.63900 30.83500
H  -8.13600 26.94800 33.06600
H  -6.58800 27.92100 33.09900
H  -10.84300 21.60500 26.77100
H  -9.94900 21.44100 28.14800
H  -9.74800 20.24800 26.80200
H  -9.40800 19.41500 24.68000
H  -10.34500 19.85200 23.24400
H  -10.77500 20.62400 24.81700
H  -6.00700 24.88000 21.36600
H  -3.51900 26.23900 21.81800
H  -3.34500 23.98200 20.97700
H  -4.80700 23.11400 20.64000
H  -4.01200 22.96800 22.21900
H  -5.91700 26.90400 20.61400
H  -4.61200 27.94300 20.89400
H  -6.20800 28.08500 23.32000
H  -7.38000 27.99400 22.00100
H  -6.30100 29.31600 22.18100
H  -2.48700 29.99900 24.74800
H  -1.14800 29.49200 25.79700
H  -2.41300 30.56300 26.45700
H  -4.61700 28.53400 30.57700
H  -1.29900 27.03000 32.73400
H  -2.80000 26.63100 33.70900
H  -2.16000 28.26000 33.83800

