158

Mg -0.88700 34.95100 27.14800
C  -2.70800 33.16600 29.50400
C  0.48500 36.78500 29.78300
C  0.84800 36.65600 24.92900
C  -2.13100 32.86600 24.71600
N  -1.16100 35.00500 29.35200
C  -1.90200 34.12400 30.09000
C  -1.64100 34.38500 31.57600
C  -0.71300 35.62500 31.58500
C  -0.45500 35.78000 30.14800
C  -1.41800 36.91900 32.11200
C  -1.21800 33.14900 32.42700
C  -1.96600 32.85600 33.78000
H  -1.17600 32.78900 35.03400
N  0.47100 36.57600 27.31700
C  0.93500 37.13500 28.45000
C  1.92200 38.11700 28.08700
C  2.04100 38.09200 26.67100
C  1.06800 37.09900 26.22500
C  2.69400 38.97700 29.06100
C  2.98300 38.97600 25.81300
O  3.13200 38.77200 24.60900
C  3.94400 40.06600 26.28100
N  -0.67200 34.79700 25.05000
C  -0.02300 35.73600 24.32700
C  -0.01500 35.44000 22.84500
C  -0.87000 34.10300 22.82400
C  -1.30100 33.92100 24.27700
C  -0.68200 36.58000 21.98700
C  -0.07400 32.86000 22.33000
C  -0.82400 31.73200 21.59700
N  -2.27800 33.41300 27.04500
C  -2.69600 32.65200 25.98400
C  -3.70500 31.59700 26.48600
C  -3.74400 31.77600 27.81200
C  -2.84200 32.92000 28.13700
C  -4.35500 30.43400 25.68600
C  -4.31100 31.30800 29.06100
O  -5.18200 30.45000 29.28700
C  -3.58500 32.16600 30.16800
C  -4.74800 32.84900 30.86500
O  -5.28300 33.85300 30.49000
O  -4.96800 32.23800 32.12100
C  -5.90200 32.94000 33.04900
H  1.03400 37.26200 30.59800
H  1.38000 37.21100 24.15300
H  -2.54800 32.30000 23.88000
H  -2.58200 34.77400 31.96300
H  0.27800 35.62500 32.04000
H  -2.23400 36.71700 32.80700
H  -1.79700 37.42100 31.22200
H  -0.73800 37.61700 32.60100
H  -0.16400 33.18800 32.70100
H  -1.17400 32.25500 31.80500
H  -2.49900 31.91300 33.65600
H  -2.74300 33.61600 33.86100
H  2.40700 40.00100 28.82100
H  3.75600 38.76300 28.93500
H  2.38600 38.67600 30.06200
H  4.87200 39.55300 26.53300
H  3.45900 40.55800 27.12500
H  4.05700 40.80100 25.48400
H  1.01800 35.23300 22.56800
H  -1.73700 34.17900 22.16800
H  -0.81600 36.27800 20.94900
H  0.02500 37.40900 22.02800
H  -1.65400 36.85100 22.39900
H  0.49600 32.42600 23.15100
H  0.59100 33.28700 21.57800
H  -0.59000 30.78000 22.07200
H  -0.40400 31.76700 20.59100
H  -1.89300 31.89400 21.73500
H  -5.39000 30.74500 25.54800
H  -4.30900 29.51000 26.26300
H  -3.73700 30.32300 24.79500
H  -3.05400 31.56100 30.90300
H  -6.27500 32.08000 33.60500
H  -6.72200 33.51300 32.61500
H  -5.38200 33.53800 33.79700
Mg -4.44400 25.97600 26.18100
C  -3.05300 27.29500 29.15800
C  -6.37100 23.82300 28.03100
C  -5.15600 24.16300 23.37700
C  -2.06400 27.82400 24.41500
N  -4.56400 25.46500 28.40300
C  -4.02000 26.27200 29.41000
C  -4.58500 25.87600 30.82300
C  -5.46800 24.62000 30.43800
C  -5.51800 24.62900 28.89400
C  -4.84400 23.34900 31.01700
C  -5.36400 27.12600 31.40300
C  -5.11600 27.47900 32.88100
H  -4.91500 26.23500 33.84200
N  -5.72500 24.38700 25.73300
C  -6.49800 23.73800 26.61300
C  -7.47600 22.88900 25.89600
C  -7.06700 22.94700 24.53700
C  -5.89700 23.82700 24.47700
C  -8.53900 22.12200 26.60300
C  -7.62700 22.11000 23.35900
O  -7.19200 22.11700 22.23300
C  -8.78700 21.22900 23.66500
N  -3.66600 25.97500 24.17900
C  -4.18900 25.16500 23.17500
C  -3.36400 25.43400 21.88500
C  -2.50200 26.70700 22.14800
C  -2.74900 26.84900 23.66000
C  -2.44500 24.28000 21.33300
C  -2.80500 27.94900 21.36400
C  -1.60600 28.20400 20.39100
N  -2.86600 27.28800 26.62300
C  -2.13700 28.06100 25.81600
C  -1.32900 28.99500 26.57700
C  -1.55900 28.71100 27.89200
C  -2.62100 27.67600 27.88300
C  -0.42200 30.01400 25.92600
C  -1.25300 28.99400 29.27800
O  -0.41900 29.68900 29.82200
C  -2.29800 28.17400 30.17500
C  -1.42700 27.37900 31.01400
O  -0.65000 26.50300 30.65500
O  -1.73600 27.61200 32.31700
C  -0.94300 26.93400 33.30700
H  -7.02700 23.13100 28.56100
H  -5.35600 23.67900 22.41900
H  -1.38000 28.42700 23.81500
H  -3.73800 25.58900 31.44600
H  -6.53100 24.73000 30.65500
H  -4.25700 22.92300 30.20300
H  -5.61400 22.61400 31.25200
H  -4.22600 23.61500 31.87500
H  -6.42200 26.99500 31.17400
H  -4.91700 27.91600 30.79900
H  -6.04300 27.99300 33.13700
H  -4.28900 28.18900 32.88400
H  -9.50700 22.33300 26.14800
H  -8.60700 22.41900 27.65000
H  -8.38300 21.04700 26.51500
H  -8.63100 20.51500 24.47400
H  -9.28400 20.81700 22.78700
H  -9.53800 21.93900 24.01200
H  -4.13800 25.67400 21.15600
H  -1.44100 26.46300 22.19400
H  -1.49500 24.49700 20.84600
H  -3.07000 23.82700 20.56300
H  -2.14800 23.66700 22.18400
H  -2.94000 28.84100 21.97500
H  -3.67900 27.73000 20.75000
H  -0.77400 27.50300 20.45600
H  -1.16400 29.18700 20.55000
H  -2.05200 28.28100 19.39900
H  -0.80900 30.44200 25.00200
H  0.61800 29.75500 25.72500
H  -0.31800 30.77300 26.70100
H  -2.98700 28.87400 30.64700
H  -1.09700 25.85700 33.36800
H  -1.37300 27.34200 34.22200
H  0.11900 27.17500 33.30700

