158

Mg 43.10900 41.74300 27.94700
C  42.31000 44.11100 30.42300
C  43.95000 39.56700 30.54700
C  44.35600 39.73800 25.67100
C  42.51700 44.21700 25.49200
N  42.92700 41.76700 30.15800
C  42.66500 42.84600 30.96300
C  42.57300 42.44500 32.41200
C  43.49000 41.25400 32.43200
C  43.41100 40.79000 30.96100
C  44.98700 41.44000 33.04300
C  41.15500 42.31800 33.08200
C  40.80100 43.35300 34.17300
H  40.39400 42.83500 35.58600
N  43.89000 39.82000 28.04400
C  44.12800 39.05500 29.23400
C  44.64700 37.77100 28.90700
C  44.84600 37.82100 27.49800
C  44.31100 39.11600 26.97300
C  44.93000 36.62300 29.94800
C  45.40300 36.73700 26.56200
O  45.42800 36.88900 25.32800
C  45.80700 35.36100 27.04500
N  43.53800 42.08700 25.85900
C  44.07400 41.00100 25.17500
C  44.19300 41.39600 23.67000
C  43.35000 42.66600 23.63800
C  43.12200 43.03300 25.06300
C  45.67300 41.43700 23.12300
C  41.98700 42.44800 22.85300
C  41.04300 41.35800 23.51100
N  42.53500 43.75500 27.88700
C  42.27500 44.61000 26.81000
C  41.73400 45.85000 27.27500
C  41.73000 45.71200 28.69500
C  42.23200 44.43700 28.97600
C  41.21200 46.92500 26.36000
C  41.37900 46.34000 29.95000
O  40.92000 47.41700 30.23100
C  41.61800 45.30900 31.10200
C  42.49100 46.05100 32.05800
O  43.62200 46.49700 31.82200
O  41.80200 46.38000 33.20900
C  42.49900 47.11200 34.18600
H  44.34900 38.86500 31.28300
H  44.82200 39.11900 24.90100
H  42.10600 44.86500 24.71500
H  43.11200 43.24500 32.92000
H  42.99600 40.40400 32.90100
H  45.67500 41.27300 32.21500
H  45.16100 40.73200 33.85300
H  45.17300 42.41700 33.48900
H  41.01500 41.24800 33.23500
H  40.51100 42.67500 32.27800
H  39.98400 44.00400 33.86100
H  41.64200 44.03300 34.30900
H  46.00100 36.49100 30.10100
H  44.62800 35.62300 29.63700
H  44.36300 36.80200 30.86200
H  46.41000 35.43600 27.95000
H  46.50400 35.01400 26.28300
H  44.91200 34.73900 27.04400
H  43.66500 40.64100 23.08800
H  43.87400 43.51900 23.20700
H  46.09900 42.43400 23.23600
H  45.69000 41.10000 22.08600
H  46.26500 40.76100 23.74000
H  42.21200 42.26500 21.80200
H  41.50600 43.42500 22.81800
H  40.70700 40.58400 22.82000
H  40.10900 41.72600 23.93400
H  41.65400 40.80500 24.22400
H  42.02900 47.34300 25.77100
H  40.72500 47.64600 27.01700
H  40.50300 46.56300 25.61500
H  40.67800 45.02500 31.57500
H  42.47200 46.51800 35.10000
H  42.04600 48.10100 34.25100
H  43.54600 47.33700 33.98300
Mg 5.65200 52.93600 41.46600
C  4.49700 49.67400 40.95300
C  8.64200 52.01200 40.06900
C  6.45700 56.23800 41.14800
C  2.33900 53.74300 41.99800
N  6.43200 51.00300 40.52200
C  5.80900 49.82000 40.40300
C  6.72300 48.67400 39.94200
C  8.10400 49.42600 40.03700
C  7.74300 50.89800 40.10700
C  9.07700 49.07600 41.17200
C  6.46700 48.25200 38.47900
C  6.17600 49.29700 37.43600
H  5.69200 48.74700 36.06400
N  7.35000 53.98900 40.83000
C  8.50300 53.41500 40.29600
C  9.48100 54.46900 39.97900
C  8.79900 55.69900 40.28200
C  7.46700 55.36700 40.81500
C  10.92000 54.17400 39.57500
C  9.42000 57.12200 40.26000
O  10.48100 57.22000 39.73100
C  8.83200 58.28800 40.91300
N  4.57300 54.82800 41.75700
C  5.08400 56.07300 41.49200
C  4.02700 57.14600 41.50200
C  2.71300 56.32400 41.87600
C  3.23300 54.87800 41.91300
C  4.19500 58.29500 42.44500
C  1.57100 56.68100 40.89300
C  1.41900 55.87800 39.61000
N  3.88200 51.95000 41.68300
C  2.64600 52.38200 42.10300
C  1.68600 51.31000 42.31600
C  2.44300 50.18900 42.00500
C  3.69800 50.66300 41.54200
C  0.17000 51.42600 42.59000
C  2.35800 48.76600 41.73500
O  1.43200 47.96100 41.88600
C  3.69000 48.41600 41.08200
C  3.32300 48.00400 39.73100
O  2.93800 48.75600 38.81200
O  3.40700 46.68700 39.63600
C  3.05500 46.06400 38.34600
H  9.61500 51.62700 39.75400
H  6.48600 57.30700 40.92300
H  1.29600 54.01800 42.16900
H  6.69400 47.73900 40.50300
H  8.64900 49.43500 39.09400
H  8.82400 48.05300 41.44900
H  9.00000 49.66800 42.08400
H  10.08300 49.22100 40.77800
H  5.59600 47.60000 38.55300
H  7.24600 47.56500 38.14900
H  7.12000 49.84000 37.37800
H  5.44800 49.99300 37.85400
H  11.34400 53.34600 40.14400
H  11.59100 55.01100 39.76600
H  11.09200 53.99500 38.51400
H  9.60800 59.02800 41.11300
H  8.42300 57.94000 41.86100
H  8.09000 58.78500 40.28900
H  4.06100 57.48100 40.46600
H  2.37000 56.60800 42.87100
H  5.01900 58.10800 43.13300
H  3.24900 58.49700 42.94800
H  4.30200 59.23800 41.91000
H  1.53400 57.70900 40.53500
H  0.66100 56.45500 41.44900
H  2.40300 55.60700 39.22900
H  0.93600 56.46200 38.82700
H  0.84500 54.96500 39.77000
H  -0.19000 50.64800 43.26400
H  -0.41500 51.47500 41.67200
H  0.02700 52.39700 43.06500
H  4.28900 47.58900 41.46300
H  3.86200 45.35200 38.17200
H  3.00700 46.76900 37.51600
H  2.04800 45.64900 38.39200

