158

Mg 8.99600 3.26200 27.07800
C  10.13100 1.76900 30.00800
C  7.13000 5.47700 29.01500
C  7.34400 4.22000 24.27400
C  10.46700 0.69300 25.21200
N  8.52500 3.46800 29.25300
C  9.22500 2.76500 30.25400
C  8.95500 3.39000 31.62600
C  7.87600 4.38000 31.35700
C  7.81400 4.50300 29.78000
C  6.42500 4.14100 31.90100
C  10.22100 4.09500 32.18400
C  10.76100 3.58000 33.50300
H  10.94900 4.46500 34.71600
N  7.49300 4.64500 26.68400
C  6.93000 5.53800 27.59700
C  6.13300 6.54500 26.91000
C  6.34900 6.30600 25.54800
C  7.06000 5.00100 25.43900
C  5.16000 7.51500 27.53900
C  5.95700 7.19600 24.27200
O  6.20600 6.89200 23.11800
C  5.32400 8.55500 24.48000
N  8.80500 2.47200 25.01200
C  8.12600 3.10600 24.06400
C  8.29000 2.46900 22.70800
C  9.46900 1.50000 23.01000
C  9.58700 1.55000 24.46600
C  6.97200 1.66000 22.32000
C  10.78700 1.77500 22.24300
C  11.25600 0.55700 21.36600
N  10.14000 1.63100 27.47700
C  10.73100 0.72700 26.61700
C  11.48500 -0.24100 27.40600
C  11.33200 0.18700 28.76400
C  10.41300 1.27500 28.65200
C  12.39700 -1.39800 26.93700
C  11.75300 -0.04000 30.11800
O  12.70100 -0.74800 30.53900
C  10.93400 1.02800 31.00800
C  10.18100 0.30300 32.04200
O  9.06500 -0.13200 31.96700
O  10.98500 0.22200 33.15800
C  10.36600 -0.57500 34.24200
H  6.54500 6.17000 29.62300
H  6.82800 4.62600 23.40200
H  11.02400 -0.07300 24.66800
H  8.70600 2.51400 32.22500
H  8.05000 5.39500 31.71300
H  6.48000 3.14500 32.33900
H  5.68400 4.12400 31.10200
H  6.26900 4.97600 32.58400
H  10.07100 5.15000 32.41500
H  11.00200 3.93000 31.44200
H  11.79100 3.37900 33.20600
H  10.31200 2.71000 33.98100
H  4.21100 6.97900 27.53600
H  5.09600 8.47800 27.03300
H  5.42300 7.77900 28.56400
H  5.19000 9.13600 23.56700
H  5.96700 9.18600 25.09400
H  4.37000 8.45300 24.99700
H  8.61700 3.26200 22.03500
H  9.03900 0.50800 22.87300
H  6.71000 2.05900 21.34100
H  6.07200 1.84500 22.90700
H  7.11700 0.58000 22.32400
H  11.53500 1.85500 23.03200
H  10.55900 2.69000 21.69600
H  10.45400 -0.13800 21.11500
H  11.95500 0.01000 22.00000
H  11.72200 0.91800 20.44900
H  13.44000 -1.08100 26.89800
H  12.11300 -1.74900 25.94500
H  12.33600 -2.30500 27.53800
H  11.58600 1.73800 31.51600
H  9.66900 0.09700 34.74300
H  11.16200 -0.69000 34.97700
H  9.89700 -1.54500 34.07500
Mg -12.38800 39.29800 42.83300
C  -10.90900 36.36600 41.62000
C  -10.12700 41.13500 41.04400
C  -14.08400 41.98900 43.71500
C  -15.19300 37.32200 43.66500
N  -10.69600 38.82100 41.57800
C  -10.29400 37.54900 41.24900
C  -9.04900 37.57700 40.44300
C  -8.78500 39.12300 40.28300
C  -9.95400 39.71800 40.94700
C  -7.39000 39.50000 40.67600
C  -9.21600 36.86400 39.05400
C  -8.14600 35.75000 38.83800
H  -7.02800 36.12500 37.93100
N  -12.11600 41.28600 42.49600
C  -11.15900 41.86700 41.68800
C  -11.26900 43.28200 41.75100
C  -12.43600 43.58900 42.43800
C  -12.94800 42.29100 42.99500
C  -10.24300 44.21500 41.06700
C  -12.95500 44.96400 42.64100
O  -12.38900 45.94700 42.06600
C  -14.13800 45.27000 43.59600
N  -14.37300 39.53400 43.54800
C  -14.72600 40.80400 44.07000
C  -16.10600 40.82200 44.67800
C  -16.51500 39.31500 44.68300
C  -15.36100 38.69100 43.87500
C  -16.23900 41.58900 46.01100
C  -17.91500 39.00700 44.11600
C  -18.79200 38.02900 44.90400
N  -12.94900 37.27200 42.71700
C  -14.14300 36.65600 43.14700
C  -14.04600 35.26000 42.85300
C  -12.72400 35.03700 42.31400
C  -12.14400 36.34100 42.27400
C  -15.09600 34.23600 43.17300
C  -11.78100 34.06100 41.78800
O  -11.95600 32.85600 41.84400
C  -10.52900 34.88300 41.34600
C  -9.30100 34.35500 42.01200
O  -8.89500 34.66400 43.11900
O  -8.71700 33.44800 41.15500
C  -7.64100 32.66400 41.65600
H  -9.42000 41.74000 40.47300
H  -14.59900 42.89900 44.02800
H  -16.11000 36.83600 44.00600
H  -8.24000 37.11000 41.00500
H  -8.86100 39.37400 39.22500
H  -7.46300 40.52600 41.03900
H  -6.67000 39.57200 39.86100
H  -6.92600 38.84200 41.41100
H  -9.01100 37.56500 38.24500
H  -10.16900 36.37500 38.85100
H  -8.60600 34.79700 38.57500
H  -7.66700 35.49700 39.78400
H  -10.78200 44.64600 40.22200
H  -9.29300 43.82000 40.70800
H  -10.17500 45.12400 41.66400
H  -15.12300 44.94200 43.26200
H  -14.17300 46.35900 43.56300
H  -13.83900 45.02100 44.61400
H  -16.78300 41.34000 43.99900
H  -16.43400 38.89900 45.68700
H  -15.28100 42.01700 46.30500
H  -16.61900 40.96900 46.82300
H  -17.09000 42.26400 46.10200
H  -17.90900 38.46000 43.17300
H  -18.45900 39.94900 44.05700
H  -19.35100 37.20300 44.46700
H  -19.52600 38.67900 45.38000
H  -18.18900 37.62400 45.71700
H  -15.66000 34.08400 42.25300
H  -15.70300 34.62400 43.99000
H  -14.58300 33.32700 43.48900
H  -10.40500 34.81500 40.26500
H  -7.89900 32.14500 42.57900
H  -6.77700 33.31000 41.81100
H  -7.46500 31.91600 40.88300

