158

Mg 25.58700 1.40500 29.45000
C  27.49300 1.44800 32.47900
C  22.65900 1.46500 31.38600
C  23.82100 1.47200 26.57600
C  28.53100 0.98600 27.61200
N  25.13000 1.31400 31.78000
C  26.04900 1.64300 32.69900
C  25.40100 1.94200 34.03300
C  23.92200 1.62600 33.66800
C  23.89600 1.49600 32.18600
C  23.33800 0.34300 34.34500
C  25.77200 3.26800 34.65500
C  26.32300 3.19700 36.09700
H  25.98200 4.23800 37.11900
N  23.58800 1.39700 29.02800
C  22.53400 1.44600 29.94800
C  21.32600 1.43800 29.21600
C  21.64400 1.48600 27.80100
C  23.06700 1.56800 27.77600
C  20.00200 1.60000 29.85900
C  20.71900 1.27000 26.63100
O  21.08200 1.34600 25.47000
C  19.31100 0.95200 26.91500
N  26.12600 1.40200 27.35300
C  25.19900 1.41800 26.36500
C  25.94900 1.64400 25.01000
C  27.47100 1.75200 25.42100
C  27.38200 1.25800 26.88200
C  25.55100 0.57200 23.90100
C  28.15900 3.05100 25.10200
C  27.44900 4.25400 25.61800
N  27.53100 1.13300 29.94100
C  28.64700 0.88500 29.02300
C  29.88000 0.94100 29.80500
C  29.43700 0.96500 31.17000
C  28.03600 1.18400 31.19900
C  31.27200 0.86600 29.33700
C  29.87500 0.91600 32.52700
O  30.99100 0.61200 32.92200
C  28.65400 1.38700 33.39200
C  28.63100 0.37300 34.51900
O  28.09400 -0.70300 34.40500
O  29.30900 0.87000 35.60400
C  29.44500 -0.00700 36.81200
H  21.80400 1.58200 32.05500
H  23.26900 1.57400 25.63900
H  29.41500 1.00000 26.97100
H  25.72400 1.16400 34.72400
H  23.36800 2.49200 34.02900
H  22.81500 -0.22300 33.57500
H  22.77600 0.60700 35.24100
H  24.11500 -0.33000 34.70800
H  24.99500 4.02600 34.54900
H  26.63400 3.55300 34.05100
H  27.39900 3.37100 36.10000
H  26.29200 2.27300 36.67400
H  19.40900 0.68600 29.84400
H  19.40300 2.36300 29.36200
H  20.11800 2.01400 30.86100
H  19.26700 -0.00800 27.43000
H  18.85200 0.91800 25.92700
H  18.84500 1.78500 27.44000
H  25.57200 2.58000 24.59800
H  28.04000 1.03300 24.83200
H  26.38000 0.42400 23.20900
H  24.69400 1.03100 23.40700
H  25.20800 -0.31800 24.42900
H  28.32700 3.13100 24.02800
H  29.17200 2.86800 25.46000
H  26.61200 4.09000 26.29600
H  26.99200 4.87900 24.85100
H  28.12600 4.81700 26.26100
H  31.34000 1.36900 28.37300
H  31.54300 -0.19000 29.35400
H  31.93800 1.40200 30.01200
H  28.71800 2.37700 33.84300
H  28.55600 -0.03600 37.44200
H  30.23100 0.31500 37.49500
H  29.60100 -1.04500 36.52000
Mg -1.13300 34.22300 27.60200
C  -3.10100 32.44600 29.90600
C  0.26400 35.98200 30.20000
C  0.11600 36.20900 25.37900
C  -2.75200 32.37000 24.97500
N  -1.53900 34.34200 29.69000
C  -2.39400 33.50900 30.40500
C  -2.23300 33.75100 31.95500
C  -1.45100 35.16500 31.99600
C  -0.85500 35.19400 30.59200
C  -2.35800 36.47400 32.20000
C  -1.47600 32.54500 32.75400
C  -2.17600 32.12500 34.11200
H  -1.45200 31.73700 35.52800
N  0.09100 35.77800 27.74600
C  0.75500 36.32300 28.93000
C  1.69900 37.30700 28.56500
C  1.67200 37.41500 27.15200
C  0.56500 36.47900 26.69400
C  2.60400 38.10300 29.53600
C  2.58300 38.14500 26.15400
O  2.36400 38.16800 24.95400
C  3.75500 38.93100 26.59500
N  -1.57500 34.49000 25.43200
C  -0.78400 35.37300 24.77500
C  -0.79300 35.19100 23.24300
C  -1.58900 33.75300 23.17800
C  -1.99000 33.49200 24.61300
C  -1.51700 36.33700 22.43600
C  -0.62000 32.67100 22.54500
C  -1.16500 31.79800 21.47900
N  -2.66400 32.75600 27.45100
C  -3.13200 32.08400 26.27600
C  -3.99400 31.01800 26.72800
C  -4.01700 31.08700 28.12600
C  -3.19000 32.15400 28.53300
C  -4.66400 30.06800 25.81500
C  -4.46600 30.41300 29.35500
O  -5.12300 29.40600 29.53000
C  -4.06700 31.37400 30.53000
C  -5.25300 32.00400 31.17800
O  -5.73000 33.08600 30.95200
O  -5.75000 31.09900 32.15400
C  -6.62000 31.61500 33.17000
H  0.72100 36.48000 31.05800
H  0.39400 36.93300 24.61100
H  -3.18700 31.87100 24.10700
H  -3.25800 33.90000 32.29400
H  -0.65400 35.04700 32.73000
H  -3.29900 36.15400 32.64900
H  -2.69600 36.99200 31.30200
H  -1.85000 37.19900 32.83500
H  -0.40900 32.70900 32.90500
H  -1.47200 31.74200 32.01800
H  -2.75100 31.22400 33.90000
H  -2.90400 32.91800 34.28400
H  2.09400 38.23900 30.49000
H  2.67300 39.10600 29.11600
H  3.56500 37.60000 29.64600
H  4.49500 38.27300 27.05000
H  3.46700 39.75300 27.25100
H  4.26100 39.42600 25.76600
H  0.26800 35.14100 22.99800
H  -2.55100 33.95900 22.70900
H  -1.45900 37.21500 23.08100
H  -2.52600 36.01500 22.18200
H  -0.87600 36.55900 21.58300
H  -0.26800 31.96500 23.29700
H  0.21800 33.22500 22.12000
H  -1.23500 30.80400 21.92100
H  -0.50400 31.78500 20.61200
H  -2.18400 32.10300 21.24100
H  -3.97600 29.86000 24.99500
H  -5.56200 30.55600 25.43600
H  -4.90700 29.13000 26.31400
H  -3.53000 30.83100 31.30700
H  -6.02900 31.86600 34.05100
H  -7.22500 30.75900 33.46800
H  -7.26600 32.42700 32.83600

