158

Mg 6.64500 53.57700 40.76500
C  6.24900 50.03200 40.53600
C  9.95700 53.13300 39.98600
C  6.83800 56.79500 40.38800
C  3.06900 53.78000 40.85500
N  7.89900 51.86700 40.26800
C  7.56100 50.53500 40.21000
C  8.70000 49.64100 39.82200
C  9.90100 50.57100 40.19000
C  9.24800 52.00000 40.13200
C  10.59400 50.32100 41.57900
C  8.76500 49.00800 38.39800
C  8.41200 49.88600 37.12700
H  7.65000 51.20700 37.24900
N  8.26900 54.85300 40.33800
C  9.54500 54.44700 40.10600
C  10.26900 55.61500 40.13500
C  9.47300 56.72200 40.19700
C  8.11900 56.18900 40.23600
C  11.77900 55.62900 39.92600
C  9.80900 58.23400 40.06400
O  11.00000 58.50400 40.02400
C  8.82600 59.35600 40.03800
N  5.23700 54.95700 40.53500
C  5.61200 56.24300 40.58400
C  4.37500 57.17400 40.47400
C  3.21900 56.21200 40.23900
C  3.83900 54.91700 40.65400
C  4.16100 58.08600 41.69600
C  2.68000 56.14000 38.87100
C  1.13400 56.23400 38.65300
N  4.98300 52.19200 40.85000
C  3.60700 52.40300 40.97600
C  2.94800 51.07500 41.15000
C  4.00500 50.13700 41.01300
C  5.17500 50.86000 40.77000
C  1.49900 50.88700 41.32400
C  4.27400 48.71700 41.12000
O  3.55400 47.69300 41.21900
C  5.76300 48.64600 40.67800
C  5.73300 47.81800 39.54700
O  5.52200 48.14600 38.40600
O  6.22500 46.54800 39.92100
C  6.04100 45.45400 39.04800
H  11.04600 53.10400 39.91300
H  6.80700 57.88600 40.41400
H  1.98400 53.75900 40.97600
H  8.70800 48.75300 40.45500
H  10.67600 50.50000 39.42700
H  11.59900 49.94400 41.38700
H  10.03500 49.49400 42.01700
H  10.55500 51.18500 42.24200
H  8.05300 48.18800 38.49500
H  9.72900 48.50200 38.34500
H  7.73400 49.14600 36.70100
H  9.26000 50.06100 36.46600
H  12.02700 56.44100 39.24200
H  12.16500 54.71900 39.46700
H  12.21300 55.62200 40.92500
H  9.36100 60.30600 40.00500
H  8.29200 59.23600 40.98000
H  8.06900 59.24200 39.26200
H  4.44500 57.81200 39.59300
H  2.38700 56.40300 40.91700
H  4.59800 59.05400 41.45200
H  4.38300 57.64700 42.66800
H  3.13100 58.44200 41.73700
H  2.93000 55.16300 38.45800
H  3.08600 56.89900 38.20200
H  0.85900 56.62500 37.67300
H  0.86000 57.01100 39.36700
H  0.76200 55.23100 38.86100
H  1.37400 50.24300 42.19500
H  1.14100 50.22400 40.53700
H  0.91500 51.80600 41.37100
H  6.40800 48.10900 41.37300
H  6.88100 45.51800 38.35600
H  5.10700 45.68900 38.53700
H  5.88000 44.49000 39.53000
Mg -11.47400 37.88400 43.30900
C  -9.52100 35.23800 42.14000
C  -9.40300 40.05900 41.98900
C  -13.80600 40.26900 43.94300
C  -14.00700 35.44800 44.12600
N  -9.70900 37.59100 42.13400
C  -9.03100 36.47800 41.87900
C  -7.63700 36.80200 41.23000
C  -7.49200 38.36100 41.33100
C  -8.89300 38.70900 41.89100
C  -6.34500 38.79500 42.29500
C  -7.66500 36.29800 39.76400
C  -6.53700 35.55800 39.24600
H  -5.76000 36.33200 38.15700
N  -11.68000 39.91400 42.94800
C  -10.65800 40.62100 42.28700
C  -11.02600 42.02700 42.16100
C  -12.36600 42.14300 42.79100
C  -12.69700 40.75400 43.27100
C  -10.07300 43.11000 41.67200
C  -13.23700 43.38700 42.94800
O  -12.71600 44.53900 42.78800
C  -14.66200 43.26100 43.27200
N  -13.55900 37.84400 43.94100
C  -14.21000 38.97900 44.20800
C  -15.61700 38.68400 44.78800
C  -15.72300 37.14500 44.92400
C  -14.36500 36.79100 44.23800
C  -15.81900 39.43000 46.23000
C  -17.05800 36.47400 44.50100
C  -17.32600 36.33100 43.00800
N  -11.77200 35.73000 43.25000
C  -12.81300 34.87600 43.63600
C  -12.47700 33.53400 43.37300
C  -11.21300 33.61600 42.64700
C  -10.81500 34.99100 42.68300
C  -13.19100 32.28300 43.77200
C  -10.08100 32.79900 42.09400
O  -9.87200 31.60400 41.94500
C  -8.99100 33.85100 41.64900
C  -7.68500 33.37100 42.21800
O  -7.05000 32.40800 41.77900
O  -7.20100 34.17600 43.24000
C  -5.90900 33.78200 43.71800
H  -8.61400 40.78500 41.78000
H  -14.57000 41.01700 44.16400
H  -14.65900 34.60600 44.36500
H  -6.81000 36.36000 41.78600
H  -7.32600 38.94400 40.42500
H  -5.40600 38.94300 41.76100
H  -6.20900 38.12900 43.14800
H  -6.58900 39.80000 42.63900
H  -7.82700 37.15000 39.10300
H  -8.49400 35.62400 39.54900
H  -6.88900 34.58700 38.89900
H  -5.84900 35.27000 40.04000
H  -10.17400 43.43800 40.63800
H  -9.02400 42.88800 41.86900
H  -10.23500 44.02000 42.25000
H  -15.30100 42.48500 42.85000
H  -15.12800 44.20000 42.97400
H  -14.75800 43.08100 44.34200
H  -16.36800 39.15400 44.15300
H  -15.42700 36.81900 45.92100
H  -15.13100 40.25000 46.43400
H  -15.66300 38.75500 47.07200
H  -16.80400 39.89700 46.21600
H  -17.90900 37.01500 44.91400
H  -16.88800 35.52000 45.00000
H  -16.84600 37.17100 42.50600
H  -18.39200 36.27400 42.78600
H  -16.89800 35.41600 42.59800
H  -13.72300 32.39900 44.71600
H  -12.56100 31.39600 43.83100
H  -14.00200 32.11200 43.06500
H  -9.01800 33.85200 40.55900
H  -6.11300 32.81800 44.18600
H  -5.50100 34.50500 44.42400
H  -5.17200 33.73200 42.91700

