158

Mg 24.46600 -4.75700 45.92100
C  26.89700 -2.68900 44.45200
C  22.26500 -3.73700 43.36100
C  22.54800 -7.56000 46.33700
C  27.06600 -6.31600 47.55700
N  24.61500 -3.37600 44.03600
C  25.66400 -2.57400 43.78500
C  25.25500 -1.52800 42.71100
C  23.77100 -1.82200 42.43600
C  23.48700 -3.04300 43.30600
C  22.86400 -0.68600 42.85200
C  26.08600 -1.60500 41.40000
C  25.94600 -0.73800 40.14600
H  25.50100 -1.23600 38.78500
N  22.66800 -5.45900 45.04800
C  21.89800 -4.90900 44.05600
C  20.65400 -5.67400 43.88300
C  20.65700 -6.70600 44.80500
C  21.99800 -6.57300 45.48000
C  19.65200 -5.31000 42.74400
C  19.62700 -7.81100 44.93700
O  18.75700 -7.81200 44.10700
C  19.60200 -8.72600 46.16900
N  24.71200 -6.61100 46.77000
C  23.76500 -7.69300 46.89800
C  24.33800 -8.87800 47.57300
C  25.70600 -8.40700 48.06000
C  25.86700 -6.98100 47.47100
C  23.45900 -9.47000 48.74300
C  26.87100 -9.41200 47.68500
C  27.92900 -9.75900 48.77000
N  26.44400 -4.42600 46.26300
C  27.39200 -5.11800 46.95900
C  28.64400 -4.46000 46.97700
C  28.47500 -3.45600 46.03000
C  27.18900 -3.51900 45.52000
C  29.87700 -4.88100 47.72100
C  29.18000 -2.36800 45.34100
O  30.32700 -1.93300 45.50300
C  28.17500 -1.85200 44.29000
C  27.86300 -0.38900 44.44100
O  27.22600 0.13400 45.36600
O  28.30800 0.17300 43.29100
C  28.09800 1.67800 43.18900
H  21.52300 -3.40300 42.63200
H  22.02900 -8.50800 46.49200
H  27.80000 -6.83000 48.18100
H  25.53300 -0.52100 43.02400
H  23.63800 -1.93000 41.36000
H  22.08700 -0.45500 42.12200
H  23.53800 0.14500 43.05800
H  22.39700 -1.03100 43.77400
H  25.70700 -2.51000 40.92700
H  27.14400 -1.72700 41.63200
H  26.86700 -0.16000 40.06800
H  25.14600 -0.09300 40.50700
H  19.96200 -5.92400 41.89900
H  19.55400 -4.24700 42.52500
H  18.68100 -5.57500 43.16200
H  18.60500 -9.15800 46.24900
H  19.78100 -8.14200 47.07200
H  20.35700 -9.49600 46.01200
H  24.44600 -9.59800 46.76200
H  25.68700 -8.28600 49.14300
H  23.83200 -9.54700 49.76500
H  23.51100 -10.53900 48.54000
H  22.43100 -9.11200 48.68900
H  27.46200 -8.92600 46.90900
H  26.43500 -10.31500 47.25600
H  27.83600 -10.81600 49.02000
H  27.66900 -9.07600 49.57900
H  28.95000 -9.58500 48.43300
H  30.57400 -5.38400 47.05000
H  29.65600 -5.43100 48.63600
H  30.42000 -3.96900 47.96500
H  28.70400 -2.04900 43.35800
H  28.47900 2.16900 44.08400
H  27.04400 1.88100 43.00000
H  28.62900 2.04800 42.31100
Mg -2.16100 34.70600 26.82600
C  -4.07700 33.31000 29.38600
C  -1.14200 37.12000 29.00700
C  -0.86500 36.22900 24.24900
C  -3.65500 32.28100 24.66500
N  -2.75200 35.22600 28.93100
C  -3.41700 34.48100 29.82100
C  -3.26100 34.97600 31.28900
C  -2.37900 36.24100 31.14200
C  -2.05400 36.21000 29.63300
C  -3.14600 37.57300 31.56500
C  -2.58500 33.88000 32.11300
C  -2.39000 34.33300 33.60900
H  -2.92100 33.51300 34.77700
N  -1.10100 36.38400 26.68200
C  -0.66700 37.21200 27.65700
C  0.17700 38.28400 27.13500
C  0.12600 38.12700 25.67600
C  -0.54100 36.85200 25.50100
C  0.65200 39.38600 28.00400
C  0.79400 38.98200 24.63400
O  0.63800 38.81500 23.41900
C  1.58400 40.11200 25.14500
N  -2.13400 34.16300 24.73500
C  -1.58900 35.08900 23.86100
C  -1.78900 34.53500 22.46700
C  -2.46700 33.12100 22.59000
C  -2.78200 33.16000 24.06600
C  -2.50300 35.46400 21.47200
C  -1.51200 31.96000 22.24200
C  -0.07700 31.80100 22.73700
N  -3.58800 33.17000 26.91800
C  -4.11900 32.29900 25.98700
C  -5.08700 31.38200 26.63200
C  -5.00800 31.67500 28.00000
C  -4.17500 32.81200 28.07900
C  -5.96500 30.30200 26.04900
C  -5.47700 31.27400 29.26400
O  -6.24400 30.37500 29.44400
C  -4.88300 32.32400 30.32500
C  -5.92000 32.90300 31.14900
O  -6.64100 33.79300 30.83000
O  -5.96600 32.29800 32.36400
C  -7.12000 32.57400 33.24700
H  -0.49400 37.61900 29.73100
H  -0.52100 36.57100 23.27100
H  -4.11900 31.46900 24.10200
H  -4.26800 35.13200 31.67700
H  -1.46700 36.15400 31.73300
H  -3.94100 37.51300 32.30700
H  -3.57000 38.06300 30.68800
H  -2.48700 38.28200 32.06700
H  -1.58500 33.72700 31.70600
H  -3.20700 32.98500 32.12800
H  -2.91800 35.27500 33.76200
H  -1.34500 34.62900 33.70300
H  1.73300 39.51100 27.94400
H  0.59800 39.10300 29.05600
H  0.05700 40.28400 27.84000
H  0.94700 40.77900 25.72500
H  2.13400 40.57700 24.32700
H  2.27100 39.73300 25.90200
H  -0.79100 34.36000 22.06600
H  -3.40300 33.13400 22.03100
H  -3.06300 36.17700 22.07600
H  -3.10700 35.00400 20.68900
H  -1.76600 35.99400 20.86900
H  -1.51200 31.88600 21.15400
H  -1.99800 31.04400 22.57600
H  0.08400 30.91000 23.34400
H  0.32900 32.69400 23.21300
H  0.49900 31.76900 21.81300
H  -5.96100 30.26800 24.95900
H  -6.97000 30.43500 26.45000
H  -5.54500 29.35900 26.40000
H  -4.23700 31.68000 30.92100
H  -7.94400 33.06900 32.73200
H  -7.03000 33.05800 34.21900
H  -7.50400 31.61400 33.59000

