158

Mg 25.38300 2.44400 29.58400
C  27.44600 2.26200 32.24000
C  22.68800 2.92400 31.81300
C  23.15000 2.07700 27.04000
C  27.86100 1.04400 27.53200
N  25.09300 2.48600 31.75900
C  26.10500 2.60800 32.56100
C  25.69100 3.01300 34.00800
C  24.13000 3.07300 33.88400
C  23.94700 2.78300 32.39300
C  23.51900 1.98100 34.72500
C  26.39400 4.32800 34.50700
C  27.28500 4.19500 35.80700
H  26.91300 5.11900 36.91800
N  23.21100 2.61600 29.44600
C  22.25600 2.78400 30.47900
C  20.96900 2.97800 29.89600
C  21.04500 2.66500 28.54600
C  22.48300 2.40500 28.23500
C  19.78500 3.36700 30.76200
C  19.94400 2.60000 27.41200
O  20.10200 2.30100 26.24900
C  18.62200 3.00200 27.87200
N  25.48700 1.60400 27.53300
C  24.46200 1.82500 26.66500
C  24.90200 1.52500 25.17700
C  26.40400 1.18400 25.39000
C  26.60300 1.27400 26.90600
C  24.04000 0.45400 24.47900
C  27.46600 1.86400 24.54800
C  27.85000 3.27500 25.11100
N  27.32600 1.75800 29.79000
C  28.19500 1.26700 28.87000
C  29.49500 1.09700 29.53700
C  29.23600 1.50500 30.88700
C  27.89800 1.83700 30.97900
C  30.70700 0.44600 29.00700
C  29.78400 1.69000 32.25100
O  30.93400 1.41100 32.67700
C  28.63600 2.09700 33.16100
C  28.50300 1.06800 34.27100
O  27.79800 0.06700 34.26000
O  29.35400 1.37600 35.33800
C  29.25900 0.43700 36.43600
H  21.89400 3.10100 32.54200
H  22.44700 1.98800 26.20900
H  28.61900 0.72500 26.81300
H  25.84100 2.28300 34.80300
H  23.64100 4.01200 34.14700
H  24.07500 1.29000 35.35800
H  22.87400 1.33900 34.12600
H  22.86700 2.60000 35.34100
H  25.67300 5.12400 34.69000
H  27.20500 4.57800 33.82300
H  28.29200 4.34100 35.41600
H  27.16200 3.19100 36.21100
H  19.11400 4.07200 30.27100
H  20.07900 3.69100 31.76000
H  19.17500 2.46600 30.83300
H  17.78700 2.90700 27.17700
H  18.62400 4.01800 28.26700
H  18.46600 2.38100 28.75400
H  24.74400 2.47600 24.66900
H  26.46200 0.13200 25.11100
H  23.41300 0.89000 23.70100
H  23.30500 -0.01900 25.13000
H  24.63100 -0.30400 23.96400
H  27.08500 2.08800 23.55100
H  28.38600 1.28100 24.52600
H  27.52100 3.63100 26.08700
H  27.46200 4.00100 24.39700
H  28.94000 3.25300 25.08000
H  30.75600 -0.48000 29.58000
H  31.56300 1.01900 29.36400
H  30.68600 0.30600 27.92600
H  28.93000 2.98800 33.71600
H  30.28400 0.34700 36.79600
H  29.05700 -0.62200 36.28000
H  28.65600 0.75000 37.28800
Mg 26.96500 49.48600 26.39600
C  24.85500 50.45300 28.97700
C  29.19600 48.28000 28.63900
C  28.96000 48.54100 23.86500
C  24.61700 50.79600 24.15200
N  27.00300 49.46200 28.61000
C  26.01600 49.78400 29.48300
C  26.41000 49.49300 30.94400
C  27.94500 49.00600 30.84600
C  28.10400 48.95900 29.24700
C  28.96700 49.94600 31.52300
C  25.42200 48.48000 31.65800
C  24.66100 48.94300 32.92000
H  25.41300 49.57800 34.06700
N  28.74800 48.57500 26.28400
C  29.49600 48.18300 27.30600
C  30.60400 47.43100 26.84500
C  30.69100 47.68100 25.45400
C  29.38500 48.28400 25.14500
C  31.53500 46.66300 27.70900
C  31.81000 47.41600 24.44500
O  31.70600 47.69600 23.22900
C  32.95900 46.68600 24.90100
N  26.81400 49.71400 24.31900
C  27.78700 49.25900 23.48100
C  27.37000 49.49600 22.03700
C  25.95800 50.09900 22.12700
C  25.76800 50.19600 23.62900
C  28.42200 50.34300 21.22800
C  24.80500 49.30000 21.44600
C  24.10400 49.96400 20.24400
N  25.23500 50.49700 26.46000
C  24.41600 51.03400 25.46600
C  23.33300 51.68300 26.05800
C  23.44700 51.48400 27.37300
C  24.56000 50.73300 27.59800
C  22.17500 52.30700 25.35300
C  22.83800 51.71900 28.60400
O  21.85700 52.38200 28.89000
C  23.79400 51.14600 29.74800
C  24.41800 52.24100 30.53000
O  25.39400 52.89300 30.22400
O  23.60500 52.42100 31.61400
C  24.21500 53.31700 32.63400
H  29.87100 47.81500 29.36100
H  29.47700 48.20700 22.96300
H  23.87000 51.15200 23.44000
H  26.32300 50.50100 31.34900
H  28.04900 48.07300 31.39900
H  28.49500 50.77800 32.04600
H  29.64800 50.40500 30.80600
H  29.63700 49.35300 32.14500
H  25.87700 47.52700 31.92900
H  24.60800 48.28800 30.96000
H  24.13400 48.17300 33.48300
H  23.93300 49.73700 32.75100
H  31.87800 45.73500 27.25100
H  31.08100 46.48800 28.68500
H  32.45100 47.20600 27.94100
H  33.24500 47.17900 25.83100
H  33.68600 46.77300 24.09400
H  32.63600 45.64800 24.98400
H  27.38200 48.48900 21.61900
H  25.90900 51.12700 21.76900
H  29.36800 50.38500 21.76700
H  28.14300 51.39400 21.15600
H  28.72400 49.79400 20.33600
H  23.97100 49.19900 22.14000
H  25.13000 48.30200 21.15000
H  23.02600 49.84000 20.34200
H  24.37000 49.41100 19.34300
H  24.31600 51.02600 20.12200
H  21.96600 51.93100 24.35100
H  22.52600 53.31900 25.15000
H  21.24500 52.19400 25.91100
H  23.19100 50.46700 30.35200
H  23.40600 53.52500 33.33500
H  24.59800 54.29600 32.34400
H  25.03200 52.84100 33.17600

