158

Mg 5.81200 53.86000 38.80700
C  5.05600 50.42900 39.02200
C  9.07100 53.10000 38.00100
C  6.28300 57.12200 38.18200
C  2.38400 54.57500 39.59900
N  6.87200 52.01100 38.28900
C  6.34600 50.73600 38.53500
C  7.44800 49.67300 38.32500
C  8.72700 50.49600 38.35800
C  8.22100 51.96000 38.20000
C  9.54800 50.19900 39.71100
C  7.39700 48.93000 36.94800
C  7.00400 49.75700 35.73500
H  5.74100 49.50100 34.94900
N  7.44300 54.97900 38.16600
C  8.72400 54.45300 38.05300
C  9.60300 55.56100 37.84200
C  8.88100 56.80000 37.90500
C  7.47900 56.32300 38.10900
C  11.13100 55.43500 37.60600
C  9.40400 58.23500 37.61200
O  10.61300 58.46300 37.43100
C  8.49300 59.36800 37.47200
N  4.47300 55.56200 38.71000
C  4.90700 56.80800 38.41100
C  3.80500 57.86800 38.68500
C  2.57700 56.97300 39.00600
C  3.18200 55.61500 39.16400
C  4.04100 58.87300 39.73400
C  1.45000 56.98200 37.82000
C  -0.02000 57.01500 38.30400
N  4.06900 52.77900 39.35100
C  2.76700 53.23900 39.65100
C  2.03200 52.09500 40.07500
C  2.80500 50.92700 39.91300
C  4.06900 51.42800 39.37200
C  0.59800 52.12900 40.55500
C  2.97400 49.46100 39.98300
O  2.12100 48.63600 40.35700
C  4.38100 49.14500 39.32300
C  4.06200 48.23600 38.18000
O  3.80100 48.62900 37.02500
O  4.13300 46.93600 38.58000
C  4.24400 45.91400 37.52400
H  10.13200 52.85700 38.09100
H  6.48400 58.19000 38.07600
H  1.33400 54.79500 39.80200
H  7.46500 48.95600 39.14500
H  9.41300 50.25800 37.54500
H  10.46800 49.67500 39.45200
H  9.05900 49.51800 40.40800
H  9.70200 51.07700 40.33800
H  6.81500 48.01000 36.99700
H  8.39100 48.49900 36.82600
H  7.75100 49.61400 34.95400
H  7.01100 50.81200 36.00700
H  11.34300 55.45200 36.53700
H  11.46200 54.47900 38.01200
H  11.64500 56.18700 38.20500
H  7.70200 59.07600 36.78200
H  8.96500 60.28500 37.11900
H  8.03800 59.56900 38.44100
H  3.75900 58.33000 37.69900
H  2.00900 57.18700 39.91100
H  4.95700 58.58400 40.25000
H  3.22900 59.09700 40.42600
H  4.32400 59.75700 39.16300
H  1.71300 56.08400 37.26000
H  1.53300 57.84700 37.16300
H  -0.73800 56.32700 37.85900
H  -0.42400 57.94600 37.90500
H  -0.12600 57.00100 39.38800
H  0.51100 51.60100 41.50400
H  0.00000 51.68700 39.75800
H  0.23200 53.14900 40.66800
H  4.92100 48.50200 40.01900
H  3.26100 45.78500 37.07300
H  4.63700 45.06300 38.08000
H  4.99000 46.30400 36.83000
Mg 9.57400 47.94800 24.15600
C  7.18500 48.72500 26.70500
C  12.02900 49.08400 26.30100
C  11.79800 47.70700 21.73500
C  6.93500 47.51500 21.92200
N  9.61700 48.71900 26.19100
C  8.55000 48.81400 27.10800
C  9.04500 49.22100 28.47800
C  10.40000 49.86700 28.08600
C  10.72100 49.21600 26.77000
C  10.49600 51.40200 28.11500
C  9.23000 48.00900 29.41600
C  8.68600 48.35800 30.79600
H  8.19400 47.20400 31.69900
N  11.74600 48.25800 24.07400
C  12.58600 48.67200 25.07500
C  13.95300 48.69100 24.63800
C  13.86500 48.31400 23.25200
C  12.40900 48.11800 22.93000
C  15.21300 48.99000 25.49600
C  14.99300 48.06700 22.22800
O  14.76600 47.79900 21.08800
C  16.37600 48.09800 22.68900
N  9.44300 47.69500 22.14900
C  10.52700 47.45100 21.35100
C  10.12800 46.94500 19.93200
C  8.54600 46.77900 20.08200
C  8.26200 47.32600 21.44100
C  10.60800 47.88400 18.72000
C  7.95000 45.38000 19.95700
C  8.78400 44.24000 20.53900
N  7.48500 48.09500 24.27100
C  6.55400 47.87700 23.26900
C  5.18300 48.16500 23.83200
C  5.37100 48.45200 25.20700
C  6.79100 48.31900 25.40800
C  3.84900 48.07800 23.11300
C  4.70600 48.65500 26.50000
O  3.56600 48.81700 26.80800
C  5.87500 48.80600 27.48900
C  5.59700 47.76000 28.48300
O  6.08000 46.63000 28.51400
O  4.69600 48.21800 29.46100
C  4.38200 47.23900 30.53300
H  12.72100 49.52300 27.02200
H  12.60400 47.51000 21.02500
H  6.20700 47.35600 21.12400
H  8.21200 49.89200 28.69100
H  11.08300 49.46500 28.83500
H  10.88700 51.70900 29.08500
H  9.46000 51.73100 28.03800
H  10.99100 51.81100 27.23300
H  10.26700 47.71200 29.57100
H  8.63300 47.14200 29.13100
H  7.85400 49.06100 30.75400
H  9.49400 48.81500 31.36700
H  14.77700 49.12100 26.48600
H  15.71000 49.91700 25.21000
H  15.85300 48.10700 25.50400
H  16.60400 47.23800 23.31900
H  16.50200 49.09800 23.10500
H  16.87400 47.87800 21.74500
H  10.57000 45.94900 19.90000
H  7.96300 47.41800 19.42100
H  10.92300 48.81800 19.18600
H  9.89800 48.32900 18.02300
H  11.52800 47.48900 18.28900
H  7.79500 45.16300 18.90100
H  6.94500 45.37100 20.37800
H  8.23700 43.72800 21.33100
H  9.69300 44.61400 21.01200
H  9.09800 43.55200 19.75500
H  3.11700 47.55000 23.72300
H  4.05400 47.35300 22.32600
H  3.52200 49.01700 22.66400
H  5.82100 49.79400 27.94600
H  4.40400 47.64900 31.54300
H  5.05500 46.38400 30.60600
H  3.40500 46.79500 30.34100

