158

Mg 0.90900 8.27100 27.13800
C  1.65200 10.10400 30.19600
C  0.57900 5.58700 29.05500
C  0.55700 6.63200 24.29700
C  1.91700 11.12700 25.34100
N  1.41700 7.82100 29.38600
C  1.56000 8.72400 30.40900
C  1.26600 8.06700 31.76400
C  1.11000 6.56200 31.35400
C  0.96300 6.62700 29.84000
C  2.26600 5.70800 31.87100
C  -0.11700 8.56700 32.45100
C  -0.44100 8.27800 33.96000
H  0.50900 7.39800 34.77600
N  0.58300 6.36200 26.78500
C  0.40800 5.40500 27.64700
C  0.13300 4.17900 26.96600
C  0.12200 4.46400 25.58200
C  0.45300 5.93000 25.51000
C  -0.06100 2.88600 27.64800
C  -0.22400 3.53100 24.42400
O  -0.21400 3.83900 23.22100
C  -0.71600 2.18700 24.80200
N  1.27400 8.73700 25.06800
C  1.00700 7.91600 24.09000
C  1.48000 8.49500 22.79300
C  1.63000 9.98600 23.15200
C  1.57000 9.97600 24.62000
C  2.76600 7.83600 22.14300
C  0.68900 10.93500 22.31200
C  -0.80200 11.20100 22.61400
N  1.61200 10.22400 27.54900
C  1.96400 11.32700 26.75300
C  2.22600 12.50100 27.56300
C  2.13800 12.04200 28.86800
C  1.76000 10.66500 28.83200
C  2.43800 13.89400 27.03000
C  2.28100 12.44700 30.22100
O  2.72700 13.49300 30.63000
C  1.85100 11.26700 31.06700
C  2.83400 11.19500 32.24300
O  3.92100 10.68900 32.17200
O  2.26600 11.73300 33.36300
C  3.00400 11.55400 34.64800
H  0.29800 4.69200 29.61500
H  0.54600 6.00700 23.40100
H  2.22200 11.89400 24.62600
H  2.06800 8.33500 32.45200
H  0.18900 6.22500 31.83100
H  1.80100 4.98200 32.53800
H  2.99600 6.29800 32.42400
H  2.77000 5.21900 31.03700
H  -0.87700 8.01400 31.89900
H  -0.18800 9.63100 32.22300
H  -1.42200 7.80900 33.87700
H  -0.55900 9.20900 34.51600
H  -1.09000 2.54600 27.53500
H  -0.05900 2.91200 28.73800
H  0.64500 2.15400 27.25500
H  0.18100 1.62100 25.05600
H  -1.31300 1.68000 24.04300
H  -1.44900 2.06300 25.59900
H  0.68300 8.27900 22.08100
H  2.64100 10.33100 22.93600
H  3.58700 8.53300 22.31300
H  2.67300 7.73200 21.06200
H  3.03400 6.89200 22.61800
H  0.76500 10.52800 21.30400
H  1.22800 11.88200 22.29000
H  -1.39200 11.16600 21.69800
H  -0.84800 12.22000 22.99700
H  -1.30600 10.49000 23.26800
H  3.49600 14.15500 26.99100
H  1.87500 14.59300 27.64700
H  2.03500 14.03900 26.02800
H  0.90000 11.62100 31.46400
H  2.22900 11.31800 35.37800
H  3.46200 12.42900 35.10800
H  3.72300 10.73800 34.57300
Mg 48.34500 24.69900 27.53800
C  49.26700 26.98200 29.85800
C  47.66900 22.42000 30.04600
C  47.65100 22.35400 25.14000
C  49.76300 26.70700 25.04300
N  48.38300 24.70300 29.76400
C  48.82900 25.74800 30.51600
C  48.52200 25.58200 32.05500
C  48.23300 24.00500 32.09300
C  48.12100 23.61600 30.53900
C  49.29800 23.12900 32.80200
C  47.27400 26.41300 32.43800
C  46.69300 26.05000 33.76400
H  46.52200 27.14800 34.82300
N  47.67500 22.70200 27.54800
C  47.44300 21.95000 28.64200
C  46.81700 20.69000 28.27000
C  46.70200 20.71700 26.81500
C  47.30200 22.01000 26.42800
C  46.36800 19.68600 29.26000
C  46.13100 19.69700 25.86600
O  46.03600 19.97300 24.67800
C  45.54700 18.43200 26.41200
N  48.71900 24.61000 25.41900
C  48.25800 23.53700 24.71800
C  48.50100 23.73600 23.18800
C  49.03900 25.24700 23.09100
C  49.19400 25.56700 24.54300
C  49.54900 22.73000 22.42200
C  48.04400 26.20200 22.37600
C  48.67300 27.36700 21.57100
N  49.16200 26.49000 27.41200
C  49.73600 27.19800 26.36200
C  50.19700 28.45300 26.88200
C  49.95800 28.46000 28.20900
C  49.38200 27.23200 28.49700
C  50.85600 29.53100 26.03400
C  50.11600 29.18000 29.42400
O  50.56700 30.29400 29.62600
C  49.63100 28.27100 30.55500
C  50.70000 28.10400 31.51800
O  51.72900 27.49600 31.23500
O  50.33800 28.60000 32.77900
C  51.32900 28.44100 33.85700
H  47.27300 21.81600 30.86400
H  47.38300 21.63600 24.36100
H  49.95100 27.40400 24.22300
H  49.35700 25.93900 32.65900
H  47.22000 23.73900 32.39400
H  48.89600 22.19000 33.18200
H  49.92500 23.63400 33.53700
H  49.93300 22.91400 31.94300
H  46.48700 26.22700 31.70700
H  47.58200 27.45800 32.44900
H  47.28900 25.26400 34.22800
H  45.72100 25.61500 33.53400
H  45.39200 19.21400 29.14800
H  46.51600 20.05200 30.27600
H  47.02100 18.81300 29.27800
H  45.51300 17.77000 25.54700
H  44.54600 18.66100 26.78000
H  46.24200 17.93000 27.08500
H  47.57200 23.58100 22.64000
H  50.03600 25.32100 22.65500
H  50.41300 23.37200 22.25100
H  49.17500 22.27500 21.50600
H  49.80200 22.02600 23.21500
H  47.51500 26.75900 23.14900
H  47.34800 25.57300 21.82100
H  48.40000 28.34400 21.96800
H  48.50500 27.24700 20.50100
H  49.76100 27.42600 21.52700
H  50.92800 29.20800 24.99500
H  51.88000 29.84400 26.24200
H  50.08400 30.29700 26.09900
H  48.80100 28.86000 30.94400
H  52.33900 28.23100 33.50500
H  50.98200 27.58000 34.42700
H  51.43500 29.34200 34.46100

