158

Mg 0.69700 7.07700 25.14100
C  1.30200 8.92100 28.12400
C  1.02800 4.22900 27.26000
C  0.01900 5.26900 22.60100
C  0.88000 9.99500 23.38200
N  1.01800 6.60400 27.40800
C  1.19600 7.56400 28.41000
C  1.56800 6.89300 29.73400
C  1.72000 5.37500 29.38700
C  1.22800 5.38700 27.95000
C  3.15700 4.80400 29.56100
C  0.59800 7.26700 30.84800
C  1.18200 7.79600 32.17600
H  2.11000 6.91200 32.98900
N  0.60800 4.97700 24.87500
C  0.63900 3.99900 25.89100
C  0.45000 2.71700 25.24500
C  0.24100 2.97100 23.87000
C  0.31900 4.40600 23.67100
C  0.34500 1.46700 25.97100
C  -0.03800 1.96400 22.63800
O  -0.23000 2.50700 21.53400
C  -0.16600 0.47700 22.77900
N  0.71400 7.50000 23.22000
C  0.22000 6.60200 22.35100
C  -0.11700 7.28300 21.00300
C  -0.26700 8.78200 21.44400
C  0.55200 8.77800 22.73000
C  1.16500 7.00800 19.98900
C  -1.66400 9.39400 21.60200
C  -1.75100 10.88200 21.15800
N  1.13400 9.13800 25.61600
C  1.16200 10.22100 24.80300
C  1.36600 11.40000 25.63200
C  1.39600 10.88800 26.88500
C  1.27700 9.52400 26.82100
C  1.40900 12.87100 25.16700
C  1.62100 11.39500 28.24400
O  1.75100 12.47400 28.71400
C  1.52700 10.08000 29.09800
C  2.74000 10.01700 29.94700
O  3.85100 9.59200 29.61600
O  2.56000 10.75500 31.10400
C  3.60700 10.90400 32.04900
H  1.15600 3.28600 27.79500
H  -0.33500 4.69800 21.74000
H  0.70800 10.88900 22.77900
H  2.48800 7.37900 30.05900
H  1.02300 4.77900 29.97700
H  3.66700 5.48600 30.24100
H  3.70300 4.77500 28.61800
H  3.14900 3.79300 29.96800
H  -0.04400 6.40100 31.00500
H  -0.05300 8.03700 30.43400
H  0.48200 8.01800 32.98200
H  1.75200 8.68200 31.89600
H  0.09600 1.57400 27.02600
H  1.31500 0.97300 25.92500
H  -0.44900 0.83600 25.57300
H  -1.15100 0.20900 23.16200
H  0.61200 -0.07300 23.30800
H  -0.15200 0.05300 21.77500
H  -1.08200 7.02000 20.57100
H  0.25100 9.47800 20.78500
H  1.96400 6.80600 20.70300
H  1.34100 7.90200 19.39100
H  0.91200 6.15800 19.35600
H  -1.97900 9.38200 22.64500
H  -2.40800 8.96200 20.93200
H  -2.59700 11.05800 20.49300
H  -0.94800 11.24600 20.51700
H  -1.77700 11.52900 22.03500
H  1.05100 12.84200 24.13800
H  2.37900 13.34600 25.31500
H  0.68100 13.47500 25.70900
H  0.69500 10.29700 29.76700
H  3.39600 11.70900 32.75300
H  4.62300 11.14600 31.73800
H  3.63100 9.91800 32.51300
Mg 9.35300 48.24200 26.58900
C  7.40600 48.40400 29.47100
C  11.98600 49.25500 28.63800
C  11.39000 47.98700 23.98500
C  6.60700 47.63000 24.67600
N  9.58600 48.83100 28.82700
C  8.69400 48.70900 29.83700
C  9.36400 48.99500 31.17300
C  10.58100 49.84800 30.72300
C  10.81700 49.28300 29.29100
C  10.35000 51.38100 30.80500
C  9.71400 47.62800 31.89500
C  10.10700 47.70400 33.41000
H  9.46500 46.56300 34.33100
N  11.35000 48.33400 26.35800
C  12.26500 48.81600 27.32700
C  13.65400 48.57200 26.79900
C  13.52000 48.21200 25.46400
C  12.04900 48.15000 25.19200
C  14.95300 48.80700 27.66100
C  14.66800 47.78100 24.42700
O  14.36600 47.30800 23.33200
C  16.10800 47.77500 24.87400
N  9.09800 47.70800 24.66500
C  10.06900 47.75400 23.72400
C  9.50700 47.49900 22.33000
C  7.93600 47.45100 22.48700
C  7.88500 47.56400 24.03100
C  9.96400 48.37200 21.15700
C  7.15500 46.25200 21.83100
C  6.14700 46.67000 20.77400
N  7.40000 48.19300 26.93300
C  6.37500 47.79800 26.03900
C  5.10300 47.63200 26.75800
C  5.51000 47.92600 28.11500
C  6.88400 48.24400 28.17100
C  3.80500 47.17300 26.24500
C  4.91200 47.98600 29.45900
O  3.73200 47.78800 29.76600
C  6.20000 48.16100 30.38500
C  6.37900 46.91800 31.14300
O  6.91000 45.86400 30.73600
O  5.92100 47.02900 32.47100
C  5.97700 45.71000 33.12300
H  12.80000 49.71800 29.19900
H  12.12400 47.93900 23.17900
H  5.73900 47.32900 24.08500
H  8.61500 49.49600 31.78700
H  11.41400 49.56700 31.36700
H  9.50000 51.64100 31.43600
H  10.12900 51.71000 29.79000
H  11.25500 51.93500 31.05400
H  10.64400 47.33800 31.40600
H  8.85300 46.97200 31.76600
H  9.91300 48.74900 33.65400
H  11.18300 47.53600 33.35600
H  14.72600 48.89400 28.72300
H  15.43100 49.77300 27.49800
H  15.58400 47.91900 27.62100
H  16.34700 48.76200 25.26900
H  16.73800 47.48200 24.03400
H  16.07600 46.95900 25.59600
H  9.87600 46.51100 22.05500
H  7.52200 48.41100 22.17800
H  9.17300 48.78200 20.52900
H  10.70700 47.80200 20.60000
H  10.49700 49.20800 21.60900
H  6.56500 45.76400 22.60600
H  7.89700 45.55300 21.44300
H  5.93200 45.82400 20.12300
H  6.61000 47.56100 20.34900
H  5.20100 46.99300 21.21000
H  4.02600 46.50600 25.41200
H  3.27600 48.06500 25.91200
H  3.19100 46.56400 26.90800
H  6.06600 49.01300 31.05100
H  5.91700 45.93800 34.18700
H  6.86700 45.17400 32.79300
H  5.14500 45.08500 32.79800

