158

Mg -1.16000 17.45600 25.93200
C  -1.67900 15.04600 28.54900
C  -1.48800 19.96100 28.23100
C  -1.06900 19.51600 23.43300
C  -1.47400 14.68400 23.67000
N  -1.59000 17.46900 28.13100
C  -1.56700 16.39100 28.97500
C  -1.45600 16.91000 30.41500
C  -1.88200 18.37600 30.29000
C  -1.61200 18.64800 28.83000
C  -3.38700 18.60100 30.69000
C  -0.09200 16.65800 31.12500
C  -0.03800 15.83400 32.40600
H  0.81500 16.09500 33.63200
N  -1.24400 19.49700 25.82300
C  -1.36300 20.33100 26.89600
C  -1.39000 21.74400 26.32700
C  -1.13700 21.60000 24.92900
C  -1.27600 20.16700 24.65400
C  -1.68900 22.93500 27.10800
C  -1.03500 22.65600 23.89900
O  -1.21500 22.43800 22.70300
C  -0.80600 24.06300 24.32000
N  -1.42700 17.19500 23.83000
C  -1.22500 18.14300 23.01200
C  -1.40500 17.79300 21.55100
C  -1.17900 16.21500 21.61800
C  -1.33800 15.97100 23.10200
C  -2.78100 18.21200 20.90400
C  0.08200 15.77100 20.84600
C  1.43400 16.38800 21.26900
N  -1.35000 15.31900 26.05000
C  -1.55100 14.35300 25.02400
C  -1.66500 13.07900 25.63500
C  -1.77500 13.29900 26.96400
C  -1.56700 14.67800 27.21100
C  -1.79100 11.80100 24.87500
C  -1.93800 12.67600 28.29400
O  -2.00700 11.52000 28.57100
C  -2.00700 13.80100 29.32100
C  -1.04600 13.38600 30.40900
O  0.16700 13.29700 30.36600
O  -1.78300 13.10800 31.45600
C  -1.19500 12.43700 32.60900
H  -1.59700 20.74900 28.97800
H  -0.82900 20.20600 22.62100
H  -1.41500 13.85200 22.96500
H  -2.27300 16.38300 30.90900
H  -1.28400 19.04100 30.91300
H  -3.46700 19.15300 31.62700
H  -3.93200 17.67100 30.85700
H  -3.93100 19.04400 29.85600
H  0.42900 17.58800 31.35500
H  0.52400 16.12700 30.39900
H  0.24400 14.80200 32.19800
H  -1.01100 15.97300 32.87700
H  -2.53200 23.37800 26.57800
H  -0.83800 23.61200 27.03100
H  -2.05400 22.74700 28.11800
H  -1.64800 24.47800 24.87400
H  -0.49300 24.74000 23.52500
H  0.08000 24.09600 24.95300
H  -0.72500 18.30800 20.87200
H  -2.08800 15.68300 21.34000
H  -3.18700 18.70400 21.78800
H  -3.44400 17.43800 20.51600
H  -2.57300 18.98600 20.16600
H  -0.08000 16.08100 19.81400
H  0.13900 14.68300 20.83700
H  1.80900 16.88200 20.37200
H  2.12900 15.74300 21.80600
H  1.16700 17.16200 21.98900
H  -1.06100 11.12600 25.32200
H  -1.74400 11.83800 23.78700
H  -2.75500 11.33100 25.07100
H  -3.02800 13.76700 29.70100
H  -1.03300 11.42300 32.24200
H  -1.88400 12.57800 33.44200
H  -0.26800 12.92100 32.91600
Mg -4.33300 25.05500 25.64200
C  -2.78100 26.53300 28.41900
C  -5.62300 22.69900 27.93400
C  -5.44100 23.25900 22.99200
C  -2.67200 27.26900 23.62600
N  -4.28000 24.70400 27.94900
C  -3.57300 25.48200 28.79700
C  -4.13000 25.13700 30.22500
C  -4.73500 23.73200 30.08700
C  -4.98600 23.74500 28.58000
C  -3.89600 22.53200 30.56800
C  -5.15900 26.20500 30.72200
C  -5.11400 26.25000 32.25500
H  -5.03600 24.87100 32.93000
N  -5.34200 23.29100 25.47400
C  -5.76800 22.53900 26.53200
C  -6.47800 21.42200 26.04900
C  -6.40400 21.43200 24.60000
C  -5.69400 22.69300 24.27300
C  -7.12400 20.47600 27.02100
C  -6.89100 20.48000 23.53800
O  -6.59600 20.56700 22.35100
C  -7.72700 19.24500 23.89500
N  -3.84500 25.07900 23.53900
C  -4.68600 24.38300 22.65700
C  -4.63500 25.01200 21.25500
C  -3.70800 26.24300 21.45000
C  -3.38900 26.22300 22.98300
C  -4.12800 24.08300 20.09900
C  -4.33700 27.59200 21.13300
C  -4.38900 27.98100 19.62000
N  -3.01300 26.65200 25.93700
C  -2.37000 27.45300 24.95800
C  -1.55100 28.43200 25.60500
C  -1.63600 28.10400 26.99300
C  -2.50800 26.98400 27.14200
C  -0.86900 29.51500 24.96300
C  -1.14600 28.39800 28.35600
O  -0.30800 29.18800 28.70600
C  -1.90100 27.43800 29.34500
C  -0.98200 26.71400 30.20300
O  -0.46000 25.69000 29.90500
O  -0.94400 27.32600 31.43100
C  -0.20300 26.51700 32.46000
H  -6.10400 22.04100 28.66000
H  -5.89600 22.79300 22.11600
H  -2.25200 27.97100 22.90300
H  -3.31400 25.12000 30.94800
H  -5.73200 23.72000 30.52800
H  -3.95900 21.67100 29.90200
H  -4.13500 22.14300 31.55800
H  -2.84300 22.77500 30.43000
H  -6.17300 25.92000 30.44100
H  -4.96700 27.14600 30.20700
H  -5.91700 26.90700 32.59100
H  -4.13600 26.68600 32.45900
H  -7.70400 20.96100 27.80700
H  -6.31000 19.86600 27.41200
H  -7.65500 19.69600 26.47700
H  -8.60400 19.47600 24.50000
H  -7.10200 18.54900 24.45400
H  -8.08200 18.68300 23.03100
H  -5.61100 25.26200 20.84000
H  -2.76000 26.05200 20.94800
H  -3.32200 23.42600 20.42600
H  -3.65500 24.70400 19.33900
H  -4.90900 23.52800 19.57900
H  -3.73200 28.40100 21.54100
H  -5.30900 27.76500 21.59600
H  -5.45100 28.12800 19.42400
H  -4.01800 27.19200 18.96500
H  -3.79700 28.88700 19.48700
H  0.03800 29.71100 25.53600
H  -1.41800 30.45000 24.84600
H  -0.61200 29.28500 23.92900
H  -2.60200 28.00200 29.96100
H  0.71800 27.08000 32.61600
H  0.09900 25.51200 32.16500
H  -0.77200 26.45600 33.38700

