158

Mg -1.50900 17.89000 26.01700
C  -1.60600 15.41400 28.58700
C  -1.86600 20.29100 28.46200
C  -1.42700 20.08000 23.69200
C  -1.33800 15.26600 23.74000
N  -1.63000 17.80900 28.29300
C  -1.51200 16.76100 29.13800
C  -1.50200 17.28800 30.63800
C  -2.01600 18.77400 30.52400
C  -1.91100 18.98100 29.00400
C  -3.51600 19.09600 30.96000
C  -0.11000 17.23500 31.43300
C  -0.10900 17.85600 32.89400
H  0.32400 17.09000 34.08000
N  -1.33600 19.93000 26.07000
C  -1.68200 20.69600 27.14000
C  -1.68500 22.12900 26.67300
C  -1.53200 22.12100 25.31200
C  -1.50500 20.71800 24.97200
C  -2.02900 23.30600 27.69000
C  -1.66200 23.30100 24.27200
O  -1.62700 23.07300 23.05100
C  -1.86200 24.67400 24.79400
N  -1.41300 17.68400 24.00900
C  -1.44300 18.77400 23.20600
C  -1.41200 18.42600 21.65300
C  -1.40300 16.84600 21.65100
C  -1.40000 16.56900 23.21300
C  -2.61600 19.03200 20.84100
C  -0.17100 16.19000 21.01700
C  -0.42000 14.93100 20.24100
N  -1.70100 15.74000 26.08400
C  -1.72400 14.84300 25.01900
C  -1.78300 13.44100 25.65800
C  -1.76100 13.62100 27.11100
C  -1.63100 15.04200 27.23300
C  -1.72700 12.20300 24.85800
C  -1.81200 12.97900 28.44000
O  -1.85700 11.81000 28.81900
C  -1.80600 14.14100 29.40500
C  -0.72800 13.84800 30.35600
O  0.46500 13.95600 30.13000
O  -1.26300 13.43500 31.58800
C  -0.33600 12.93500 32.59600
H  -2.15900 21.16800 29.04400
H  -1.28300 20.76000 22.85000
H  -1.36000 14.43500 23.03200
H  -2.29900 16.83300 31.22700
H  -1.39400 19.48900 31.06200
H  -4.24300 19.20200 30.15500
H  -3.51500 20.03500 31.51400
H  -3.90200 18.26300 31.54700
H  0.71300 17.61700 30.82900
H  0.11000 16.17500 31.56200
H  -1.13900 18.14100 33.10700
H  0.43200 18.80000 32.96300
H  -3.04500 23.67600 27.55200
H  -1.29000 24.03800 27.36100
H  -1.71600 23.17600 28.72600
H  -1.73800 25.42600 24.01500
H  -1.08800 24.80500 25.55000
H  -2.84300 24.55100 25.25300
H  -0.53100 18.74900 21.09800
H  -2.33900 16.53100 21.19200
H  -2.30500 19.71100 20.04700
H  -3.19000 19.66600 21.51700
H  -3.19300 18.18600 20.46700
H  0.52300 16.00500 21.83700
H  0.26000 16.81100 20.23200
H  0.41400 14.23000 20.26800
H  -0.38800 15.12800 19.16900
H  -1.42100 14.54700 20.43900
H  -2.07400 12.30400 23.83000
H  -2.34900 11.57100 25.49200
H  -0.71900 11.80400 24.97100
H  -2.70100 14.21600 30.02400
H  -0.78700 13.37300 33.48600
H  0.70600 13.22800 32.47100
H  -0.35300 11.89400 32.92100
Mg 41.26500 8.46800 30.14400
C  43.26200 10.01200 32.76500
C  39.21400 7.27000 32.42400
C  39.75700 6.92500 27.67000
C  43.88100 9.50900 27.94500
N  41.17400 8.75400 32.32400
C  42.02500 9.36400 33.20600
C  41.44800 9.42500 34.62900
C  40.26200 8.29600 34.48600
C  40.17000 8.10500 32.98400
C  40.47400 6.96100 35.20900
C  41.01500 10.84000 35.06600
C  40.45800 11.06400 36.47000
H  41.25900 11.92400 37.41100
N  39.69600 7.25200 30.03400
C  38.88200 6.91600 31.08200
C  37.75800 6.22500 30.57000
C  37.90300 6.16500 29.19100
C  39.13300 6.74000 28.90700
C  36.66100 5.76600 31.44300
C  36.89700 5.49100 28.19700
O  37.03700 5.60400 26.93900
C  35.58900 4.85700 28.70800
N  41.82800 8.18400 28.14200
C  40.91100 7.58300 27.27200
C  41.33100 7.74400 25.78900
C  42.66500 8.52600 25.87700
C  42.82900 8.75000 27.43000
C  41.20700 6.43800 25.02500
C  42.90000 9.77700 25.01400
C  41.94600 11.00600 25.36400
N  43.17100 9.51100 30.26200
C  44.07400 9.79600 29.29600
C  45.23000 10.48300 29.79800
C  44.95100 10.59300 31.17800
C  43.67000 9.95700 31.42300
C  46.36400 11.01000 28.99300
C  45.44300 11.10200 32.39600
O  46.51600 11.67100 32.61700
C  44.38000 10.74100 33.47900
C  45.09000 9.89700 34.52100
O  45.55700 8.80300 34.36900
O  44.77700 10.37900 35.73500
C  45.14200 9.46900 36.85800
H  38.46900 6.88200 33.12100
H  39.19800 6.45400 26.85900
H  44.55700 9.83100 27.15000
H  42.17200 9.08800 35.37000
H  39.31100 8.71200 34.81800
H  39.84000 6.81200 36.08300
H  41.48200 6.91700 35.62100
H  40.34900 6.07000 34.59400
H  40.30600 11.19600 34.31900
H  41.90800 11.46000 34.98900
H  40.33900 10.07700 36.91800
H  39.43400 11.42800 36.39200
H  36.87500 5.84100 32.50900
H  36.59400 4.69700 31.24200
H  35.75800 6.25700 31.08200
H  35.03200 5.57200 29.31300
H  35.88700 3.99900 29.31100
H  35.08500 4.47000 27.82200
H  40.69400 8.39800 25.19400
H  43.37900 7.77800 25.53100
H  40.51400 5.76600 25.53000
H  42.18300 5.96500 24.92000
H  40.83700 6.63500 24.01900
H  42.77000 9.54400 23.95800
H  43.94400 10.07300 25.11500
H  41.14500 10.75700 26.06000
H  41.30700 11.34200 24.54700
H  42.55300 11.84400 25.70700
H  46.34800 10.83300 27.91800
H  47.30000 10.55000 29.30800
H  46.54400 12.05200 29.25600
H  44.09600 11.68500 33.94400
H  46.22300 9.36600 36.94900
H  44.85900 8.44600 36.61300
H  44.77200 9.77300 37.83700

