158

Mg 26.50000 -0.44200 29.11800
C  28.12900 -0.89700 32.12300
C  23.53000 -0.60000 30.87100
C  24.77100 -0.21900 26.17200
C  29.25900 -1.06200 27.37100
N  25.94800 -0.72000 31.22300
C  26.80100 -0.76500 32.31200
C  26.11600 -0.79200 33.70600
C  24.57400 -0.67900 33.25000
C  24.67300 -0.62200 31.69000
C  23.68200 -1.79000 33.84800
C  26.49100 0.33100 34.68500
C  25.67200 0.38000 35.99100
H  26.47100 0.22800 37.27000
N  24.50500 -0.25500 28.63400
C  23.41300 -0.43800 29.48900
C  22.14500 -0.27500 28.75200
C  22.45400 0.01600 27.37800
C  24.00900 -0.15700 27.35200
C  20.77100 -0.43900 29.39600
C  21.49300 0.30600 26.19500
O  21.85100 0.48200 25.02700
C  20.06000 0.34900 26.44500
N  26.96600 -0.75700 27.07000
C  26.15100 -0.39900 26.05900
C  26.85900 -0.23600 24.71500
C  28.36800 -0.40000 25.10100
C  28.22000 -0.69600 26.62400
C  26.26900 -1.36600 23.69700
C  29.31800 0.84900 24.91100
C  30.76200 0.62400 24.65600
N  28.32900 -0.87500 29.59100
C  29.36100 -1.12300 28.76800
C  30.53700 -1.45400 29.51500
C  30.10300 -1.35500 30.87600
C  28.75900 -0.97800 30.87300
C  31.91000 -1.76400 28.94400
C  30.54200 -1.46300 32.19700
O  31.67800 -1.63700 32.70500
C  29.30200 -1.09400 33.13200
C  29.08800 -2.25300 34.04900
O  28.68900 -3.38100 33.76800
O  29.40800 -1.82300 35.29700
C  29.19800 -2.82500 36.43900
H  22.62000 -0.58300 31.47400
H  24.15800 -0.16200 25.27000
H  30.20200 -1.20300 26.83900
H  26.34800 -1.75300 34.16600
H  24.12500 0.29100 33.46300
H  23.55700 -2.53200 33.05900
H  22.72900 -1.33200 34.11200
H  24.13500 -2.14100 34.77600
H  26.59500 1.38200 34.41400
H  27.55000 0.14300 34.86600
H  24.81200 -0.29000 36.01000
H  25.16900 1.33400 36.15000
H  20.14600 -1.11700 28.81400
H  20.22400 0.50400 29.43200
H  21.00100 -0.89700 30.35800
H  19.62700 0.79000 25.54700
H  20.01700 1.11800 27.21600
H  19.47400 -0.55300 26.62300
H  26.61100 0.78400 24.42100
H  28.88700 -1.25500 24.66700
H  25.90900 -2.11100 24.40600
H  27.08600 -1.83100 23.14500
H  25.39500 -1.01300 23.14900
H  29.42100 1.47700 25.79600
H  29.08500 1.54300 24.10400
H  31.34800 1.36100 25.20600
H  31.06500 0.80100 23.62400
H  31.07700 -0.41900 24.69600
H  32.11400 -1.51600 27.90300
H  32.03700 -2.83700 29.08900
H  32.70500 -1.33300 29.55200
H  29.56500 -0.20200 33.70000
H  29.53800 -3.80200 36.09500
H  28.17100 -2.94300 36.78500
H  29.87900 -2.79300 37.29000
Mg 46.16400 44.93000 43.81500
C  42.73600 44.70800 43.17500
C  46.45400 41.54300 43.14200
C  49.51700 45.29200 43.52100
C  45.89700 48.48900 43.74700
N  44.76300 43.38900 43.08700
C  43.37300 43.46800 42.94500
C  42.79600 42.11400 42.75700
C  43.97600 41.15400 43.04200
C  45.13600 42.07300 43.19400
C  43.71600 40.31200 44.33500
C  41.95500 41.88800 41.37600
C  42.31900 42.61500 40.06900
H  42.48800 41.80200 38.84700
N  47.78900 43.55200 43.40200
C  47.69100 42.19900 43.10300
C  48.94700 41.59300 42.96200
C  49.88000 42.62800 43.15200
C  49.11300 43.88800 43.38800
C  49.18400 40.12600 42.65700
C  51.33200 42.48600 42.98400
O  51.84000 41.46200 42.63000
C  52.18600 43.73800 43.16700
N  47.55200 46.60100 43.93100
C  48.85900 46.45200 43.74100
C  49.66800 47.76900 43.70300
C  48.51300 48.82500 43.80200
C  47.23100 47.94600 43.73300
C  50.83500 47.81100 44.72300
C  48.43200 50.00700 42.73000
C  48.34700 51.42800 43.29500
N  44.67300 46.29800 43.75600
C  44.70300 47.75900 43.72700
C  43.28400 48.20900 43.85000
C  42.58200 47.03100 43.63500
C  43.43400 45.92400 43.55000
C  42.84300 49.65200 43.85600
C  41.16300 46.59600 43.43300
O  40.19000 47.28000 43.30200
C  41.22500 45.03800 43.18000
C  40.42500 44.26500 44.23900
O  39.45000 43.58700 44.06300
O  41.21300 44.33700 45.36000
C  40.95900 43.27800 46.34800
H  46.55000 40.46700 42.98500
H  50.56500 45.52000 43.31300
H  45.78300 49.57400 43.78100
H  42.13400 42.16400 43.62200
H  44.23800 40.49200 42.21700
H  44.13900 39.31700 44.47000
H  42.63300 40.28800 44.45600
H  44.14500 40.85300 45.17900
H  40.87900 41.91200 41.54400
H  41.91400 40.81100 41.21400
H  43.30200 43.08300 40.11100
H  41.59700 43.40600 39.86500
H  50.19400 39.72500 42.57300
H  48.51000 39.58200 41.99600
H  49.13600 39.78600 43.69200
H  52.06900 44.17600 44.15800
H  52.02600 44.37500 42.29700
H  53.20900 43.37300 43.07800
H  50.18600 47.82700 42.74600
H  48.56100 49.27300 44.79400
H  50.61600 48.69800 45.31800
H  51.72100 47.79000 44.08800
H  50.86200 46.87700 45.28600
H  47.58300 49.79600 42.08000
H  49.40500 49.89600 42.25100
H  49.18700 52.00700 42.90900
H  48.41800 51.37400 44.38100
H  47.39800 51.89800 43.03500
H  41.77500 49.69800 43.64600
H  43.39000 50.31700 43.18700
H  42.99400 49.99100 44.88100
H  40.79500 44.76400 42.21700
H  40.09700 42.63700 46.16100
H  40.81000 43.67500 47.35200
H  41.80800 42.61900 46.53000

