158

Mg -11.44600 38.21900 42.73100
C  -9.39400 35.53800 41.49200
C  -9.27700 40.41400 41.33400
C  -13.92400 40.42700 43.18600
C  -13.71600 35.62800 43.57600
N  -9.63100 37.97700 41.54200
C  -8.92800 36.83800 41.14300
C  -7.70100 37.08900 40.25600
C  -7.59400 38.62800 40.53300
C  -8.92200 39.06000 41.17300
C  -6.36600 38.99700 41.33400
C  -8.01700 36.69900 38.76400
C  -7.18500 35.62600 38.06400
H  -6.14500 35.90900 36.97800
N  -11.56800 40.17600 42.30200
C  -10.54400 40.95900 41.78200
C  -10.96600 42.36800 41.93300
C  -12.25300 42.35000 42.56500
C  -12.64400 40.96100 42.68400
C  -10.07400 43.55400 41.59700
C  -12.97400 43.64600 42.89200
O  -12.62900 44.78800 42.58300
C  -14.18700 43.49900 43.62100
N  -13.52600 38.04500 43.30700
C  -14.30600 39.14200 43.47500
C  -15.78900 38.81000 43.73400
C  -15.69900 37.24400 43.98600
C  -14.24900 36.94500 43.52100
C  -16.35800 39.43800 45.04700
C  -16.74800 36.35900 43.39800
C  -18.03000 36.42600 44.25000
N  -11.48900 36.01500 42.83000
C  -12.50100 35.16800 43.16600
C  -11.96500 33.77800 43.14900
C  -10.75700 33.84600 42.40000
C  -10.50000 35.29100 42.27300
C  -12.52500 32.53800 43.72500
C  -9.57800 33.13500 41.84300
O  -9.30500 31.98500 41.86500
C  -8.61000 34.21600 41.26200
C  -7.14800 34.09700 41.58700
O  -6.60700 34.39700 42.64700
O  -6.40900 33.42000 40.65600
C  -5.03600 33.02800 40.98200
H  -8.45300 41.12600 41.24700
H  -14.86100 40.97900 43.28000
H  -14.33800 34.82100 43.96800
H  -6.83300 36.58400 40.67900
H  -7.51500 39.16700 39.58800
H  -6.62700 39.56600 42.22700
H  -5.64400 39.48400 40.67800
H  -5.84300 38.10800 41.68600
H  -8.18500 37.55800 38.11400
H  -8.99600 36.24200 38.90800
H  -7.88500 34.86500 37.71900
H  -6.57500 35.13400 38.82200
H  -10.56700 44.15900 40.83500
H  -9.07400 43.25800 41.27900
H  -9.89600 44.07300 42.53800
H  -14.90400 42.91400 43.04400
H  -14.59200 44.50200 43.75800
H  -14.13000 43.04200 44.60900
H  -16.40700 39.05500 42.87000
H  -15.57900 37.03200 45.04900
H  -16.72000 38.70200 45.76500
H  -17.25800 40.00100 44.80200
H  -15.65700 40.09200 45.56600
H  -16.55200 35.28800 43.35000
H  -16.85000 36.78100 42.39800
H  -17.88300 36.89700 45.22200
H  -18.56100 35.47600 44.31800
H  -18.80500 37.02900 43.77600
H  -11.72700 31.99200 44.22800
H  -13.17400 31.99100 43.04100
H  -13.27300 32.74600 44.49100
H  -8.66500 33.84100 40.24000
H  -4.85400 32.97100 42.05500
H  -4.47000 33.87900 40.60500
H  -4.61800 32.18900 40.42500
Mg -12.26300 15.90400 42.01500
C  -8.98600 15.09000 40.96600
C  -11.97900 18.71100 40.15200
C  -15.31400 16.83200 43.12200
C  -12.73300 12.67200 43.29200
N  -10.69200 16.66000 40.47600
C  -9.35500 16.32100 40.49100
C  -8.44100 17.38300 39.92600
C  -9.46900 18.55900 39.62800
C  -10.83300 17.96700 40.14200
C  -9.08400 19.90400 40.23000
C  -7.65900 16.91300 38.68400
C  -6.09400 17.08300 38.72100
H  -5.33500 17.63900 37.54400
N  -13.51900 17.51400 41.63300
C  -13.20000 18.55500 40.80100
C  -14.28500 19.50400 40.84000
C  -15.27800 18.99000 41.74700
C  -14.74200 17.71000 42.20500
C  -14.33500 20.79100 40.05200
C  -16.57000 19.69800 42.09800
O  -16.81100 20.80700 41.60000
C  -17.72700 18.99000 42.80100
N  -13.79100 14.94900 43.06500
C  -14.96800 15.50900 43.43600
C  -15.89000 14.41400 44.08300
C  -15.16200 13.00600 43.82500
C  -13.80700 13.55600 43.39600
C  -16.14900 14.60400 45.65200
C  -15.85400 12.07400 42.82300
C  -15.51000 10.53400 42.81300
N  -11.16400 14.14200 42.16300
C  -11.48900 12.92600 42.69800
C  -10.25300 12.13500 42.61500
C  -9.23700 12.94900 41.99600
C  -9.86800 14.16100 41.72400
C  -10.21000 10.80900 43.22000
C  -7.80100 12.97700 41.56500
O  -6.89500 12.10100 41.67600
C  -7.60200 14.45000 40.87300
C  -6.58200 15.15700 41.76500
O  -6.89700 15.78100 42.77100
O  -5.30200 14.90000 41.34100
C  -4.18000 15.15800 42.19300
H  -11.87800 19.72600 39.76200
H  -16.34000 17.02800 43.44100
H  -12.85700 11.65500 43.66900
H  -7.70100 17.68000 40.67000
H  -9.67300 18.54900 38.55700
H  -8.16500 19.81000 40.80800
H  -9.88300 20.23900 40.89100
H  -9.01000 20.66300 39.45100
H  -7.95800 17.44800 37.78200
H  -7.88800 15.87100 38.46400
H  -5.63400 16.09600 38.68200
H  -5.86800 17.61700 39.64400
H  -15.31600 21.01600 39.63300
H  -13.69100 20.83900 39.17400
H  -14.18600 21.69400 40.64300
H  -18.62100 19.59100 42.63900
H  -17.67200 19.01100 43.88900
H  -17.87800 17.98100 42.41600
H  -16.83500 14.48100 43.54200
H  -15.14400 12.65900 44.85900
H  -15.86000 13.80600 46.33700
H  -17.21900 14.77700 45.76300
H  -15.69100 15.50500 46.06200
H  -15.84500 12.46100 41.80400
H  -16.91300 12.05400 43.08400
H  -14.57500 10.33900 43.33800
H  -15.37000 10.13500 41.80800
H  -16.37400 10.04000 43.25800
H  -11.13900 10.27600 43.01700
H  -9.92300 10.78500 44.27200
H  -9.34700 10.35300 42.73600
H  -7.09000 14.33000 39.91800
H  -4.37700 15.45500 43.22200
H  -3.62800 15.99000 41.75600
H  -3.50200 14.30600 42.25100

