158

Mg 16.87100 -1.36600 27.81500
C  15.80900 0.46700 30.64000
C  18.67100 -3.32200 29.76300
C  18.19000 -2.70700 24.99200
C  14.94800 0.85100 25.79400
N  17.20300 -1.38300 29.94900
C  16.66100 -0.62000 30.95500
C  17.11200 -1.07600 32.31800
C  18.21100 -2.26600 31.95400
C  18.04400 -2.34800 30.45000
C  19.63600 -1.91300 32.41400
C  15.82400 -1.50200 33.15600
C  15.66600 -0.96300 34.60000
H  16.92600 -0.37400 35.30500
N  18.25500 -2.84200 27.46600
C  18.90700 -3.54400 28.42200
C  19.77000 -4.51600 27.80700
C  19.70900 -4.31500 26.36000
C  18.68000 -3.23900 26.19000
C  20.58600 -5.51600 28.52300
C  20.48200 -4.97400 25.24900
O  20.52900 -4.56000 24.07900
C  21.33900 -6.23500 25.40500
N  16.46100 -1.14900 25.73300
C  17.18600 -1.79400 24.74400
C  16.81300 -1.34800 23.30500
C  15.67800 -0.34600 23.61800
C  15.67600 -0.18200 25.17300
C  17.98700 -0.88600 22.48200
C  14.31000 -0.67000 23.09600
C  13.98900 -0.15900 21.69600
N  15.53000 0.28900 28.13100
C  14.86700 1.06000 27.21000
C  14.11300 2.15400 27.92900
C  14.46200 1.94900 29.26800
C  15.32900 0.82800 29.34700
C  13.09200 3.11600 27.22400
C  14.24200 2.42300 30.60100
O  13.57600 3.35300 31.01600
C  15.11300 1.56200 31.58800
C  16.01500 2.50700 32.25600
O  16.99000 3.09200 31.72800
O  15.55000 2.87900 33.49200
C  16.27600 3.92400 34.26100
H  19.24900 -4.03700 30.35200
H  18.75900 -2.98500 24.10200
H  14.52400 1.72200 25.29000
H  17.50900 -0.24600 32.90200
H  17.95300 -3.21700 32.42100
H  20.03700 -1.25400 31.64300
H  20.21500 -2.82200 32.57800
H  19.61600 -1.35000 33.34700
H  15.77600 -2.58900 33.21400
H  14.93400 -1.16600 32.62300
H  15.18700 -1.67200 35.27500
H  14.92800 -0.16700 34.49300
H  21.64400 -5.26400 28.45800
H  20.52700 -6.47700 28.01200
H  20.22200 -5.68000 29.53700
H  21.92600 -6.22900 24.48700
H  20.74900 -7.12300 25.63600
H  22.09600 -6.00400 26.15500
H  16.44200 -2.11200 22.62100
H  16.05300 0.61100 23.25500
H  17.91200 0.18700 22.30500
H  18.09900 -1.47300 21.57100
H  18.89300 -0.95600 23.08400
H  13.47200 -0.36200 23.72200
H  14.23800 -1.75500 23.16500
H  13.86000 -1.08900 21.14200
H  14.81100 0.44200 21.30900
H  13.06800 0.40000 21.53300
H  12.17700 3.15900 27.81500
H  12.88400 2.73000 26.22600
H  13.43500 4.14900 27.28300
H  14.54800 1.13800 32.41900
H  17.36200 3.88500 34.18600
H  16.03700 3.74100 35.30900
H  15.93900 4.91800 33.96800
Mg 44.33700 4.74100 46.40500
C  42.31300 7.73300 46.02300
C  41.38700 3.00000 45.73200
C  46.27000 2.22100 45.99400
C  47.15200 6.90200 46.59500
N  42.07500 5.36400 45.95800
C  41.53200 6.57400 45.89600
C  40.01200 6.45700 45.69900
C  39.70700 4.90400 45.78500
C  41.13000 4.39100 45.81400
C  38.86600 4.39400 47.04200
C  39.54500 7.25300 44.48400
C  40.48400 7.07900 43.23800
H  39.79700 7.14400 41.78600
N  43.87300 2.87100 45.97000
C  42.62000 2.36800 45.72400
C  42.82700 0.94700 45.38400
C  44.18900 0.58700 45.47000
C  44.88600 1.87600 45.87600
C  41.75000 -0.00500 44.91400
C  44.83600 -0.79000 45.07400
O  44.15800 -1.73200 44.78600
C  46.24500 -1.01600 44.85600
N  46.41300 4.56500 46.40800
C  47.01300 3.38000 46.09200
C  48.56000 3.44400 46.19100
C  48.79400 4.98300 46.38400
C  47.37900 5.56000 46.45500
C  49.19700 2.60000 47.33100
C  49.73400 5.59800 45.32400
C  51.21500 5.46200 45.72400
N  44.72200 6.83400 46.36100
C  45.90000 7.54900 46.53900
C  45.66100 8.96600 46.59400
C  44.23800 9.05600 46.52600
C  43.71000 7.70300 46.30700
C  46.70200 10.16700 46.60000
C  43.17900 9.97700 46.49300
O  43.15900 11.19800 46.54100
C  41.90400 9.20700 46.08300
C  40.83000 9.49000 47.03900
O  40.65700 8.85800 48.09200
O  39.88700 10.32200 46.54000
C  38.58200 10.49200 47.18300
H  40.50600 2.38500 45.53700
H  46.98000 1.39300 45.92900
H  47.94400 7.63500 46.76200
H  39.55800 6.91500 46.57700
H  39.43900 4.52000 44.80100
H  39.58200 3.84700 47.65400
H  38.06800 3.76500 46.64700
H  38.39800 5.21100 47.59100
H  39.34300 8.25800 44.85500
H  38.55700 6.83700 44.28800
H  40.91700 6.08200 43.31700
H  41.21900 7.88400 43.25100
H  40.76400 0.38000 45.17500
H  41.88000 -0.87000 45.56400
H  41.84500 -0.24200 43.85400
H  46.68000 -0.99800 45.85500
H  46.66200 -0.19800 44.26900
H  46.43300 -1.94100 44.31100
H  48.88100 3.23400 45.17100
H  49.26300 5.04500 47.36600
H  48.51100 1.98100 47.90800
H  49.68800 3.12400 48.15100
H  49.88900 1.89200 46.87500
H  49.47100 6.65500 45.31100
H  49.57000 5.25800 44.30100
H  51.37800 4.96000 46.67800
H  51.57400 6.49100 45.71200
H  51.74000 4.83800 45.00100
H  46.41800 10.87900 47.37500
H  46.62100 10.50000 45.56500
H  47.68800 9.83300 46.92100
H  41.60300 9.57500 45.10200
H  37.96000 9.61300 47.35500
H  38.01100 11.15300 46.53100
H  38.69900 10.99300 48.14300

