158

Mg 17.99900 -2.48100 27.14600
C  17.03400 -0.69100 29.91800
C  20.09500 -4.31100 29.23900
C  19.23500 -3.94800 24.35700
C  16.06600 -0.29300 25.16700
N  18.50100 -2.49700 29.32100
C  17.98100 -1.65000 30.20100
C  18.40600 -2.09000 31.60200
C  19.63400 -3.07900 31.39400
C  19.46900 -3.29800 29.89400
C  21.06500 -2.54700 31.77600
C  17.21300 -2.72300 32.38300
C  16.89000 -2.15500 33.74900
H  18.15900 -1.77400 34.51500
N  19.52400 -3.95400 26.89400
C  20.25000 -4.53900 27.86800
C  21.04400 -5.60000 27.22800
C  20.86500 -5.51200 25.79300
C  19.87400 -4.40800 25.61600
C  21.76000 -6.70800 28.02700
C  21.41000 -6.38500 24.58000
O  21.31400 -6.10300 23.39400
C  22.15000 -7.57600 24.95900
N  17.67600 -2.22700 25.08200
C  18.24900 -3.02700 24.13600
C  17.96200 -2.54900 22.67500
C  16.80100 -1.46500 22.99200
C  16.86100 -1.27700 24.48900
C  19.24900 -1.98000 21.97600
C  15.39300 -1.98800 22.44200
C  14.92500 -1.36900 21.08400
N  16.83800 -0.87400 27.45700
C  16.15200 -0.11200 26.55800
C  15.22500 0.75700 27.27700
C  15.59300 0.60000 28.60000
C  16.52500 -0.41200 28.65600
C  14.12300 1.74100 26.68400
C  15.25100 0.97300 29.96400
O  14.38900 1.71500 30.41500
C  16.23500 0.14200 30.88900
C  16.98800 1.15800 31.58500
O  18.02700 1.62300 31.22200
O  16.31100 1.49800 32.77700
C  17.10300 2.42700 33.59500
H  20.71600 -4.92100 29.89900
H  19.59300 -4.47700 23.47100
H  15.36500 0.30800 24.58600
H  18.80500 -1.19900 32.08800
H  19.44900 -4.00500 31.93800
H  21.05100 -1.45900 31.84100
H  21.68400 -2.81000 30.91900
H  21.51900 -2.84100 32.72200
H  17.34100 -3.80400 32.43700
H  16.41800 -2.76600 31.63800
H  16.24500 -2.86800 34.26200
H  16.36800 -1.21900 33.54800
H  21.84800 -7.66100 27.50600
H  21.25000 -6.84900 28.98000
H  22.74000 -6.26800 28.21200
H  22.24500 -8.11200 24.01500
H  21.41600 -8.15100 25.52300
H  23.05900 -7.24900 25.46500
H  17.48900 -3.35400 22.11200
H  16.97000 -0.45900 22.60800
H  19.18900 -0.89400 22.03900
H  19.20400 -2.14500 20.89900
H  20.25500 -2.25800 22.29100
H  14.65700 -1.78300 23.21900
H  15.49800 -3.04600 22.20300
H  15.74300 -0.80100 20.64000
H  14.06700 -0.70300 21.17600
H  14.54900 -2.17100 20.44900
H  13.77500 1.50900 25.67700
H  14.59600 2.72300 26.68800
H  13.32200 1.81700 27.41900
H  15.55500 -0.37200 31.56800
H  16.75500 3.41900 33.30700
H  18.18400 2.28800 33.59700
H  16.87200 2.21600 34.64000
Mg 30.20400 60.20900 41.03100
C  27.18300 58.66900 39.92300
C  31.82700 57.38800 40.30600
C  33.07300 62.02700 41.22700
C  28.38600 63.27200 41.24700
N  29.60700 58.35300 39.91700
C  28.31000 57.88200 39.66500
C  28.32200 56.46700 39.23600
C  29.80000 55.97600 39.56100
C  30.48200 57.29000 39.99700
C  30.01200 54.79600 40.55900
C  27.90200 56.44700 37.75500
C  26.94600 55.32500 37.31200
H  27.02500 54.70200 35.90800
N  32.20200 59.70300 40.76000
C  32.71000 58.51300 40.51100
C  34.14300 58.51900 40.63900
C  34.52100 59.91500 40.92400
C  33.24400 60.62500 40.98300
C  34.98500 57.37600 40.59300
C  36.01300 60.37900 41.03900
O  36.96200 59.63000 40.86900
C  36.32600 61.79000 41.47900
N  30.68100 62.33000 41.14300
C  31.91800 62.77900 41.37600
C  31.93600 64.30600 41.67800
C  30.45300 64.70300 41.69700
C  29.77700 63.35200 41.26700
C  32.71700 64.57700 43.05400
C  30.06300 65.95300 40.84600
C  29.58600 67.18200 41.61700
N  28.22900 60.81100 40.87800
C  27.66500 62.05600 41.00100
C  26.21700 62.00400 40.77600
C  26.00500 60.61500 40.48800
C  27.24200 59.98500 40.45000
C  25.13600 63.11100 40.78100
C  24.96700 59.64500 40.12900
O  23.68300 59.66800 40.05300
C  25.72300 58.32300 39.69600
C  25.21100 57.26100 40.65300
O  25.37100 57.25900 41.87500
O  24.33700 56.44800 39.94900
C  23.41200 55.68600 40.79300
H  32.33100 56.42000 40.25700
H  33.97600 62.63100 41.34100
H  27.86000 64.19300 41.50300
H  27.60000 55.86000 39.78400
H  30.27800 55.65500 38.63500
H  29.26100 54.01900 40.69800
H  30.23800 55.27000 41.51500
H  30.85300 54.15100 40.30400
H  28.76000 56.36600 37.08700
H  27.33600 57.33700 37.47900
H  25.89700 55.57500 37.46800
H  27.17200 54.53500 38.02800
H  35.45500 57.44300 39.61200
H  34.42600 56.44000 40.60600
H  35.64400 57.46700 41.45600
H  36.20600 62.38900 40.57700
H  37.32400 61.84000 41.91300
H  35.69600 62.09600 42.31500
H  32.47400 64.71700 40.82400
H  30.09300 64.86800 42.71200
H  33.42700 65.37000 42.81900
H  33.21600 63.72300 43.51100
H  32.10900 65.03200 43.83600
H  29.32000 65.79900 40.06400
H  30.92700 66.27400 40.26500
H  28.56900 67.43300 41.31600
H  30.11000 68.13800 41.58000
H  29.84800 66.96000 42.65200
H  24.98300 63.50100 41.78700
H  24.27300 62.58300 40.37300
H  25.43500 63.91000 40.10300
H  25.55400 57.96700 38.67900
H  22.61200 56.32200 41.17200
H  23.90000 55.16000 41.61300
H  22.89200 54.89200 40.25700

