158

Mg 46.67800 24.39400 28.95100
C  47.24100 26.92100 31.40600
C  45.69800 22.36500 31.49100
C  46.65100 22.00500 26.67800
C  48.18300 26.56500 26.54100
N  46.51400 24.63100 31.23700
C  46.64600 25.77100 31.96600
C  46.12200 25.56400 33.42000
C  45.86000 24.01900 33.41600
C  45.97600 23.59900 31.95700
C  46.88000 23.15400 34.21800
C  44.97500 26.57800 33.85900
C  45.27700 27.20800 35.22400
H  44.31200 27.13300 36.36900
N  45.98300 22.49300 29.05900
C  45.60600 21.85100 30.17600
C  45.08900 20.60000 29.69900
C  45.41300 20.38000 28.37900
C  46.02700 21.64700 27.94600
C  44.44000 19.64400 30.55600
C  45.22800 19.25500 27.44400
O  45.55000 19.31600 26.20800
C  44.76400 17.97000 28.03400
N  47.48300 24.28600 26.96200
C  47.20100 23.21900 26.15800
C  47.59700 23.38100 24.67200
C  47.75900 24.93800 24.65600
C  47.78500 25.32000 26.12700
C  48.93400 22.63500 24.43400
C  46.60300 25.64900 23.97800
C  46.72100 26.17300 22.51200
N  47.57700 26.25600 28.91800
C  48.19900 27.00600 27.86700
C  48.63800 28.23500 28.44300
C  48.37100 28.21700 29.77700
C  47.67100 27.04300 30.05000
C  49.16100 29.35400 27.66100
C  48.50700 28.96200 31.03600
O  49.12400 29.94300 31.35000
C  47.85600 28.09700 32.16000
C  48.94300 27.62900 33.17100
O  49.88900 26.92500 32.88500
O  48.58900 28.16500 34.36600
C  49.35300 27.77400 35.54300
H  45.39700 21.67200 32.28000
H  46.58100 21.30700 25.84100
H  48.30500 27.27300 25.71900
H  47.04900 25.75000 33.96300
H  44.85600 23.86400 33.81100
H  47.55200 22.53000 33.62900
H  46.27700 22.51200 34.86000
H  47.37300 23.82500 34.92200
H  44.02000 26.05600 33.92300
H  45.05900 27.39300 33.13900
H  45.84700 28.13400 35.14500
H  46.00100 26.55600 35.71100
H  45.01000 18.71900 30.47000
H  43.40800 19.46300 30.25500
H  44.48300 19.88500 31.61800
H  45.46000 17.62100 28.79700
H  44.84100 17.23700 27.23000
H  43.75000 18.03900 28.42800
H  46.73900 23.02900 24.09900
H  48.70400 25.23300 24.20000
H  49.13300 21.80000 25.10500
H  49.83700 23.24200 24.49600
H  48.87900 22.34400 23.38500
H  46.28600 26.45300 24.64200
H  45.78000 24.93400 23.99800
H  47.71600 25.87300 22.18400
H  46.71000 27.25100 22.35100
H  45.93100 25.73000 21.90500
H  48.40500 30.02700 27.25600
H  49.67200 28.98500 26.77200
H  49.83300 29.83300 28.37300
H  47.08400 28.77500 32.52400
H  49.89700 28.61400 35.97500
H  50.01600 26.95300 35.27100
H  48.69700 27.60100 36.39700
Mg -5.27000 25.00500 26.80600
C  -3.75700 26.51100 29.56800
C  -6.97300 22.88000 28.81000
C  -6.45500 23.61700 23.99200
C  -3.17000 27.13300 24.78000
N  -5.30600 24.74200 28.93500
C  -4.67800 25.48000 29.88600
C  -5.17700 25.03800 31.23300
C  -5.84900 23.67400 30.96200
C  -6.10400 23.71400 29.48200
C  -5.04400 22.46800 31.46800
C  -6.13800 26.11100 31.78600
C  -6.01100 26.37100 33.22800
H  -5.41100 25.29700 34.14400
N  -6.57300 23.49600 26.46900
C  -7.29100 22.77200 27.40000
C  -8.19300 21.90400 26.74300
C  -8.04600 22.14700 25.36900
C  -6.94900 23.11100 25.19200
C  -9.28600 21.13100 27.52300
C  -8.88900 21.48500 24.21000
O  -8.67100 21.74200 23.06300
C  -9.98800 20.48000 24.41900
N  -4.87600 25.34200 24.73000
C  -5.51900 24.57900 23.76200
C  -5.25100 25.14400 22.40400
C  -4.27100 26.39700 22.68800
C  -4.05200 26.27300 24.15000
C  -4.75700 24.09700 21.22700
C  -4.85800 27.81800 22.18500
C  -3.86900 28.55500 21.26200
N  -3.71200 26.44900 27.01100
C  -2.97900 27.15300 26.10800
C  -1.95500 27.93500 26.93600
C  -2.33700 27.82000 28.24800
C  -3.37000 26.90700 28.23100
C  -0.90100 28.88000 26.44800
C  -1.96100 28.23200 29.57500
O  -1.18600 29.05100 30.00400
C  -2.96500 27.40700 30.53500
C  -2.02800 26.67700 31.37100
O  -1.54300 25.62500 31.09000
O  -1.85000 27.35000 32.60000
C  -0.99300 26.75600 33.63300
H  -7.49200 22.23900 29.52600
H  -6.63800 23.10100 23.04700
H  -2.51800 27.78300 24.19200
H  -4.27100 24.83700 31.80400
H  -6.83500 23.74300 31.42100
H  -4.03200 22.67100 31.82000
H  -4.99100 21.79000 30.61600
H  -5.63600 21.97600 32.23800
H  -7.16900 25.78400 31.65500
H  -6.07100 27.06800 31.26800
H  -7.03000 26.45100 33.60800
H  -5.49900 27.28300 33.53200
H  -10.29200 21.35800 27.17000
H  -9.16100 21.17200 28.60500
H  -9.08100 20.09500 27.25400
H  -9.96700 19.89500 23.49900
H  -10.97500 20.90500 24.60300
H  -9.70900 19.78700 25.21300
H  -6.19700 25.55600 22.04900
H  -3.36000 26.12300 22.15600
H  -5.44900 24.07600 20.38500
H  -5.03500 23.15000 21.68900
H  -3.72300 24.17200 20.89000
H  -5.11700 28.44900 23.03400
H  -5.71200 27.74100 21.51200
H  -3.66000 29.53000 21.70400
H  -4.38500 28.84000 20.34500
H  -2.99800 27.93200 21.05900
H  -0.62100 28.59200 25.43400
H  0.02600 28.72200 26.99900
H  -1.26600 29.90500 26.37900
H  -3.37600 28.19100 31.17200
H  0.00600 26.67100 33.20600
H  -1.50900 25.81500 33.82300
H  -0.93700 27.26700 34.59500

