158

Mg 47.42100 35.12500 27.57200
C  45.58900 33.66900 30.02300
C  47.76600 37.95000 29.44000
C  49.10100 36.67800 25.00600
C  46.51700 32.45800 25.47600
N  46.80300 35.66600 29.38000
C  46.25200 34.84700 30.30100
C  46.45700 35.42400 31.69300
C  46.59400 36.93600 31.39900
C  47.09600 36.86200 29.96300
C  45.44000 37.93900 31.72200
C  47.63600 34.75200 32.41600
C  47.41700 34.55500 33.97500
H  46.53800 35.52200 34.79900
N  48.34700 37.05600 27.25300
C  48.31900 38.09300 28.17000
C  49.21900 39.18000 27.82500
C  49.63200 38.77400 26.52300
C  49.01300 37.41100 26.19800
C  49.65700 40.35400 28.74800
C  50.70700 39.34400 25.61700
O  51.02200 38.75000 24.59400
C  51.36800 40.73500 25.91700
N  47.72900 34.65200 25.56200
C  48.52200 35.42400 24.71000
C  48.49800 34.80200 23.24400
C  47.74400 33.51600 23.48300
C  47.23100 33.55000 24.88300
C  47.86400 35.67700 22.14600
C  48.66700 32.18400 23.13500
C  49.92700 31.95900 24.07100
N  46.27000 33.34000 27.67900
C  46.05300 32.32100 26.80400
C  45.26300 31.26000 27.47400
C  45.06300 31.76900 28.70400
C  45.67800 32.96700 28.79500
C  44.70500 29.96200 26.84700
C  44.40200 31.47500 29.92700
O  43.81200 30.47200 30.29900
C  44.61400 32.75500 30.79200
C  45.18900 32.37100 32.15500
O  46.24900 31.78200 32.33700
O  44.22300 32.51600 33.14100
C  44.35900 31.79000 34.32400
H  47.97100 38.81100 30.08000
H  49.60600 37.09000 24.13000
H  46.27300 31.58900 24.86100
H  45.59100 35.30200 32.34300
H  47.36900 37.33100 32.05600
H  44.54500 37.34900 31.92000
H  45.25900 38.60600 30.87900
H  45.69200 38.51200 32.61400
H  48.50100 35.38100 32.20500
H  47.64500 33.75300 31.98100
H  48.42200 34.60400 34.39600
H  47.05800 33.56200 34.24700
H  50.63300 40.11800 29.17200
H  48.91600 40.65400 29.48900
H  49.79700 41.24500 28.13500
H  51.96800 40.67500 26.82600
H  50.60000 41.48000 26.12200
H  51.80000 41.05200 24.96800
H  49.54100 34.61600 22.98700
H  46.85300 33.37900 22.87000
H  48.45600 35.61600 21.23300
H  47.80600 36.73000 22.42400
H  46.84700 35.36100 21.91400
H  48.92800 32.25200 22.07900
H  48.07800 31.27300 23.24400
H  49.90200 32.68800 24.88100
H  50.89600 31.90000 23.57400
H  49.82200 30.90100 24.31200
H  44.79000 30.18600 25.78300
H  43.65600 29.94400 27.14200
H  45.33800 29.13000 27.15600
H  43.66400 33.26400 30.95300
H  43.81600 30.86200 34.14600
H  43.79200 32.29400 35.10600
H  45.37000 31.63100 34.69800
Mg 9.71000 48.04900 26.62600
C  7.66300 48.19100 29.51800
C  12.19000 49.58400 28.53600
C  11.54800 48.02400 23.91100
C  6.83100 47.49800 24.71700
N  9.88100 48.88500 28.81000
C  8.97800 48.55300 29.77100
C  9.61200 48.91300 31.15300
C  10.76200 49.88700 30.74500
C  11.00100 49.43400 29.32000
C  10.43800 51.40400 30.90500
C  10.14800 47.72400 32.00500
C  9.92000 47.98700 33.48200
H  9.69900 46.81100 34.40700
N  11.62200 48.55800 26.31100
C  12.53500 49.09700 27.25100
C  13.86900 49.03600 26.59000
C  13.71000 48.65400 25.26100
C  12.22700 48.38800 25.06900
C  15.06600 49.38500 27.36900
C  14.79200 48.56100 24.15100
O  14.49000 48.29600 22.95900
C  16.21000 48.76200 24.48900
N  9.23000 47.99300 24.61100
C  10.16500 47.98300 23.65200
C  9.56500 47.76200 22.25300
C  8.09000 47.49100 22.46300
C  8.06400 47.57700 24.07100
C  9.78200 48.95300 21.26700
C  7.46600 46.18200 21.91300
C  7.41400 46.06700 20.39600
N  7.67500 47.82500 26.99700
C  6.59500 47.64200 26.08400
C  5.31800 47.56300 26.81900
C  5.74400 47.86100 28.13300
C  7.12700 47.96600 28.24900
C  3.99200 47.13300 26.28500
C  5.28900 47.93300 29.54800
O  4.18000 47.96300 30.10200
C  6.53900 48.02200 30.45300
C  6.58200 46.76700 31.31200
O  7.48000 45.92700 31.25100
O  5.54000 46.65800 32.15400
C  5.61000 45.73400 33.27900
H  12.99700 50.06700 29.09100
H  12.16300 47.82300 23.03100
H  5.91700 47.42700 24.12300
H  8.94600 49.50700 31.77900
H  11.66300 49.64600 31.30900
H  10.02000 51.67500 31.87500
H  9.74600 51.60600 30.08800
H  11.30500 51.99200 30.60200
H  11.22100 47.67600 31.81700
H  9.72000 46.75400 31.74800
H  9.00700 48.58200 33.51000
H  10.70900 48.58800 33.93300
H  15.78800 48.57200 27.29300
H  15.01500 49.56900 28.44200
H  15.44900 50.35900 27.06300
H  16.23400 49.72000 25.00900
H  16.83700 48.96400 23.62000
H  16.62200 47.95400 25.09500
H  10.01200 46.84800 21.85900
H  7.44900 48.30600 22.12700
H  8.86900 49.26400 20.75800
H  10.49800 48.61800 20.51700
H  10.33000 49.83000 21.61100
H  6.46100 45.99200 22.29100
H  8.03900 45.39600 22.40400
H  6.44800 45.61900 20.16200
H  8.09300 45.25200 20.14600
H  7.59900 46.96800 19.81200
H  3.60900 48.00900 25.76200
H  3.27600 46.98500 27.09400
H  4.12500 46.18900 25.75800
H  6.43200 48.92300 31.05600
H  6.44800 45.03700 33.27900
H  4.65300 45.23700 33.43700
H  5.83600 46.48400 34.03700

