158

Mg 0.45500 8.18700 25.16400
C  1.56400 9.83100 28.00600
C  1.06300 5.20700 26.77800
C  -0.27700 6.54100 22.21800
C  0.54000 11.07600 23.33700
N  1.53500 7.64100 27.17900
C  1.46000 8.43300 28.23600
C  1.68100 7.63500 29.58500
C  1.42300 6.15200 29.12400
C  1.44100 6.37600 27.58800
C  2.51700 5.16000 29.50600
C  0.62200 8.03900 30.65600
C  0.93400 7.96400 32.12800
H  2.10000 7.07400 32.67100
N  0.38600 6.10700 24.59400
C  0.63000 5.08400 25.41000
C  0.38700 3.80400 24.71500
C  0.13800 4.19800 23.38900
C  0.04200 5.67000 23.37000
C  0.49000 2.44800 25.44200
C  -0.08400 3.29900 22.16200
O  -0.13800 3.67400 21.03000
C  -0.12400 1.84300 22.50000
N  0.09000 8.77300 23.00600
C  -0.26700 7.94600 22.05200
C  -0.55800 8.65200 20.68500
C  -0.60700 10.14600 21.17900
C  0.00500 10.00500 22.57200
C  0.54100 8.27900 19.66000
C  -2.03600 10.81600 21.24400
C  -2.08700 12.20000 20.55000
N  0.89600 10.13100 25.51000
C  1.00400 11.25000 24.66900
C  1.53200 12.41900 25.40600
C  1.77600 11.87300 26.69700
C  1.39000 10.47700 26.73000
C  1.63300 13.80700 24.77300
C  2.24500 12.26300 28.00400
O  2.76000 13.27200 28.50900
C  2.01800 10.98700 28.89000
C  3.20400 10.74500 29.70100
O  4.36000 10.54900 29.33700
O  2.70700 10.63400 31.02500
C  3.67300 10.42600 32.09700
H  1.25600 4.29000 27.33900
H  -0.52500 6.01600 21.29300
H  0.56400 12.01200 22.77400
H  2.71100 7.80400 29.90000
H  0.46000 5.72700 29.40800
H  2.96100 5.58100 30.40800
H  3.37500 5.09900 28.83700
H  2.08900 4.19200 29.76800
H  -0.24200 7.38900 30.51800
H  0.35100 9.08700 30.53100
H  -0.02200 7.71900 32.59200
H  1.14600 8.96100 32.51400
H  -0.27200 1.70300 25.21800
H  0.45900 2.49900 26.53100
H  1.43900 1.93200 25.29900
H  -0.41700 1.24900 21.63400
H  -0.90800 1.76400 23.25300
H  0.84800 1.51400 22.86800
H  -1.54600 8.46000 20.26600
H  0.08700 10.77700 20.62400
H  1.06900 9.12000 19.21100
H  -0.08400 7.76900 18.92700
H  1.19400 7.52100 20.09300
H  -2.37000 10.77400 22.28100
H  -2.79600 10.23600 20.72000
H  -1.11600 12.48000 20.14300
H  -2.14300 12.94500 21.34400
H  -2.85000 12.24000 19.77300
H  1.35500 14.60200 25.46400
H  1.05200 13.79500 23.85100
H  2.65700 13.98500 24.44300
H  1.13700 11.21900 29.48900
H  4.27700 11.32200 32.24400
H  4.35400 9.67600 31.69400
H  3.15100 10.20600 33.02800
Mg -1.93500 34.78200 26.87900
C  -3.39500 32.77400 29.43500
C  -0.56400 36.61300 29.24300
C  -0.86000 36.88700 24.50400
C  -3.74000 33.02300 24.58500
N  -1.99700 34.67800 29.16200
C  -2.58500 33.81400 30.02100
C  -2.26300 34.04500 31.47600
C  -1.35900 35.33400 31.37900
C  -1.23800 35.54500 29.83900
C  -1.95300 36.67200 32.07700
C  -1.54000 32.87900 32.23200
C  -2.05700 32.55700 33.61700
H  -0.98900 32.43500 34.72000
N  -0.79400 36.58300 26.83900
C  -0.38100 37.19900 27.96000
C  0.48000 38.31400 27.57500
C  0.45200 38.35400 26.14100
C  -0.45900 37.22200 25.76900
C  1.15100 39.26900 28.61800
C  1.11500 39.20500 25.15100
O  1.05100 39.06400 23.92100
C  2.11100 40.21300 25.74400
N  -2.38100 34.96900 24.90900
C  -1.81200 35.92800 24.10600
C  -2.10800 35.78300 22.62700
C  -2.64200 34.30900 22.66700
C  -2.93200 34.06400 24.12700
C  -3.11700 36.85300 22.06000
C  -1.63400 33.26400 22.18900
C  -1.33400 33.18300 20.69900
N  -3.32700 33.22300 26.97300
C  -3.95400 32.63800 25.89700
C  -4.81200 31.52800 26.39800
C  -4.61700 31.54600 27.75300
C  -3.71700 32.60800 28.06200
C  -5.74600 30.61400 25.55000
C  -4.86000 30.82600 28.96700
O  -5.60500 29.87300 29.23100
C  -4.20300 31.65000 30.10000
C  -5.28800 32.10600 30.98400
O  -6.37500 32.55300 30.58500
O  -5.00300 31.88500 32.33500
C  -6.20300 31.73500 33.10700
H  -0.09400 37.22400 30.01700
H  -0.66400 37.58800 23.69000
H  -4.13000 32.53500 23.68900
H  -3.19100 34.30900 31.98300
H  -0.36000 35.03200 31.69400
H  -1.08800 37.14300 32.54500
H  -2.59400 36.24100 32.84600
H  -2.44300 37.43100 31.46700
H  -0.46000 32.99200 32.13600
H  -1.79700 31.98100 31.67000
H  -2.67600 31.66000 33.58800
H  -2.78800 33.29000 33.95900
H  2.19600 38.96600 28.68600
H  0.69000 38.99300 29.56700
H  0.99400 40.31800 28.36700
H  2.62400 40.60000 24.86400
H  2.86200 39.72700 26.36700
H  1.63800 41.11200 26.14000
H  -1.28500 36.00300 21.94600
H  -3.65200 34.10400 22.31100
H  -2.97300 37.83800 22.50400
H  -4.15600 36.52300 22.04800
H  -2.87200 36.95300 21.00300
H  -2.08600 32.31400 22.47500
H  -0.71200 33.40500 22.75300
H  -1.45500 32.15600 20.35300
H  -0.26200 33.30900 20.55500
H  -1.91400 33.82300 20.03500
H  -6.66100 31.19500 25.43700
H  -5.91800 29.61600 25.95300
H  -5.37500 30.46200 24.53700
H  -3.54000 30.97000 30.63500
H  -5.95200 32.20200 34.05900
H  -6.34100 30.67300 33.31100
H  -7.07500 32.30700 32.78900

