158

Mg 24.18300 -4.85700 45.02600
C  26.17200 -2.16400 43.79600
C  21.65800 -3.64700 43.13900
C  22.41900 -7.65300 45.90300
C  26.97800 -6.08200 46.67300
N  23.99500 -3.09700 43.48500
C  24.86500 -2.09300 43.30200
C  24.32200 -1.15800 42.20200
C  22.77400 -1.45100 42.27100
C  22.75000 -2.79400 43.03800
C  22.14000 -0.34200 43.09400
C  24.97900 -1.55400 40.85000
C  25.69900 -0.47700 40.02100
H  25.41000 -0.36200 38.60900
N  22.27500 -5.61200 44.53000
C  21.38900 -4.90300 43.79900
C  20.13200 -5.72400 43.74700
C  20.30600 -6.81900 44.69200
C  21.69300 -6.70300 45.14300
C  19.01300 -5.30900 42.82900
C  19.26700 -7.83700 45.02100
O  18.21900 -7.70500 44.41700
C  19.47700 -8.96000 46.07000
N  24.68000 -6.62600 45.96700
C  23.76600 -7.66400 46.20200
C  24.45800 -8.88900 46.89300
C  25.81200 -8.31700 47.25300
C  25.86200 -6.94200 46.58300
C  23.70400 -9.46800 48.11500
C  26.99800 -9.23400 46.82000
C  27.71600 -10.06500 47.92300
N  26.18900 -4.34000 45.20100
C  27.19700 -4.89400 45.95000
C  28.42200 -4.18400 45.74700
C  28.08900 -3.19300 44.90100
C  26.71100 -3.24500 44.66800
C  29.69600 -4.53100 46.40100
C  28.59400 -1.99700 44.25500
O  29.78200 -1.59500 44.31000
C  27.37300 -1.32300 43.45500
C  27.16700 0.14100 43.95100
O  26.41300 0.48100 44.85100
O  27.91600 1.04400 43.25300
C  28.03900 2.37400 43.88400
H  20.75000 -3.26900 42.66500
H  21.86600 -8.51200 46.28900
H  27.81500 -6.37500 47.31000
H  24.58700 -0.12200 42.41100
H  22.33900 -1.48500 41.27200
H  21.51800 -0.80600 43.86000
H  21.60000 0.26800 42.37000
H  22.91100 0.27800 43.55300
H  24.21500 -1.92200 40.16500
H  25.78300 -2.26000 41.05400
H  26.77000 -0.60000 40.17600
H  25.46700 0.51600 40.40800
H  19.06600 -4.32700 42.35800
H  18.08200 -5.45600 43.37500
H  18.91500 -5.96100 41.96000
H  19.71100 -8.52200 47.04000
H  20.25700 -9.65300 45.75700
H  18.55600 -9.52000 46.23900
H  24.37900 -9.60700 46.07700
H  25.85500 -8.20800 48.33700
H  23.12000 -10.28500 47.69100
H  22.89400 -8.80600 48.42100
H  24.33900 -9.81200 48.93200
H  27.73100 -8.57400 46.35700
H  26.67200 -9.77600 45.93200
H  28.76400 -10.25000 47.68700
H  27.22100 -11.03500 47.96700
H  27.67200 -9.51200 48.86200
H  29.90900 -5.42700 45.81800
H  29.51200 -4.81100 47.43900
H  30.46000 -3.77300 46.23000
H  27.44800 -1.29300 42.36800
H  27.11600 2.93400 44.03700
H  28.70700 3.03500 43.33100
H  28.38800 2.14500 44.89100
Mg 35.76200 3.37200 29.99200
C  33.21000 4.34700 32.37400
C  38.03600 3.20700 32.74200
C  38.03700 2.27200 27.94300
C  33.28300 3.69900 27.58800
N  35.63800 3.85300 32.29400
C  34.47300 4.13800 33.00000
C  34.87000 4.27300 34.55300
C  36.41200 4.21000 34.47700
C  36.76400 3.64700 33.06500
C  37.15800 5.53300 34.82300
C  34.18800 3.10600 35.31200
C  34.32300 3.00700 36.83700
H  35.17700 3.90200 37.71300
N  37.84800 2.95700 30.24500
C  38.53600 2.82100 31.44100
C  39.76300 2.09400 31.21000
C  39.79500 1.84200 29.78300
C  38.52600 2.32600 29.27300
C  40.79300 1.68700 32.23200
C  40.87300 1.15400 28.92500
O  40.70100 0.82500 27.74900
C  42.28200 0.77200 29.49000
N  35.75300 3.21400 28.05100
C  36.82500 2.66500 27.38300
C  36.48500 2.50800 25.87600
C  34.88000 2.83400 25.84500
C  34.58200 3.26800 27.28900
C  37.30900 3.45900 24.98200
C  34.03900 1.64700 25.29800
C  33.40500 1.74200 23.83500
N  33.70800 4.02900 29.93700
C  32.83200 4.05800 28.80300
C  31.48200 4.30900 29.29100
C  31.58000 4.49700 30.67600
C  32.94900 4.35600 30.99000
C  30.23400 4.34600 28.55700
C  30.91600 4.90400 31.84000
O  29.75400 5.27200 32.00200
C  31.92600 4.80900 32.99700
C  31.95000 6.11800 33.72400
O  32.43800 7.17800 33.38300
O  31.39700 5.84500 34.94100
C  31.55100 6.96000 35.95000
H  38.67100 3.05500 33.61600
H  38.76200 1.99600 27.17400
H  32.54100 3.66900 26.78800
H  34.58300 5.22500 35.00000
H  36.72500 3.42200 35.16300
H  37.80000 5.40900 35.69500
H  36.39500 6.24000 35.14900
H  37.70000 5.86800 33.93900
H  34.53900 2.20700 34.80500
H  33.12200 3.16400 35.09100
H  34.44100 1.93800 37.01800
H  33.29900 3.32300 37.03500
H  41.80000 1.96500 31.92000
H  40.83100 0.60400 32.10900
H  40.55900 2.03500 33.23800
H  42.94700 0.34200 28.74100
H  42.06900 0.01100 30.24100
H  42.83900 1.59400 29.94000
H  36.67300 1.50200 25.50100
H  34.78100 3.78500 25.32100
H  36.69200 3.72900 24.12500
H  38.21100 2.98700 24.59100
H  37.62900 4.35800 25.50900
H  33.17700 1.65900 25.96500
H  34.54200 0.71100 25.54000
H  33.71700 2.61000 23.25500
H  32.33700 1.90600 23.98000
H  33.45000 0.87200 23.18100
H  30.17400 3.55900 27.80400
H  29.97900 5.34300 28.19700
H  29.52400 4.04100 29.32600
H  31.48100 4.08400 33.67900
H  30.69700 7.63800 35.97200
H  32.48600 7.52000 35.92400
H  31.56300 6.39600 36.88200

