158

Mg 47.64900 24.59500 28.14400
C  48.77500 26.63300 30.83900
C  46.97400 22.21100 30.67300
C  46.60100 22.67100 25.75800
C  48.76500 26.93500 25.95200
N  47.89000 24.41000 30.54100
C  48.20000 25.42000 31.37700
C  48.04700 25.02700 32.83200
C  47.70900 23.54200 32.69400
C  47.46800 23.37600 31.22300
C  48.88200 22.56800 33.14300
C  46.94700 25.95600 33.56100
C  47.25600 26.90700 34.70700
H  46.37000 26.83400 35.89400
N  46.68500 22.74700 28.20800
C  46.61200 21.89800 29.29200
C  45.92900 20.67400 28.82500
C  45.73000 20.80700 27.40100
C  46.35100 22.12300 27.05000
C  45.56200 19.59300 29.90600
C  45.06900 19.87900 26.37200
O  44.90900 20.23800 25.21800
C  44.38800 18.68000 26.90300
N  47.63200 24.78300 26.09600
C  47.16600 23.84700 25.31200
C  47.33200 24.22800 23.80600
C  47.96500 25.63600 23.90800
C  48.13100 25.85000 25.42600
C  48.14200 23.19500 22.99100
C  47.30800 26.87400 23.20100
C  48.17900 27.88700 22.57000
N  48.64200 26.31200 28.32200
C  49.00200 27.24300 27.35300
C  49.52600 28.43300 27.84100
C  49.46800 28.17500 29.26400
C  48.87700 26.89800 29.47000
C  50.08500 29.62500 27.13600
C  49.83800 28.81400 30.44500
O  50.53300 29.78100 30.65900
C  49.28300 27.86100 31.58500
C  50.35500 27.66200 32.64900
O  51.04900 26.64800 32.68900
O  50.44200 28.76000 33.47700
C  51.22000 28.58900 34.71400
H  46.68600 21.60100 31.53200
H  46.19900 22.05400 24.95200
H  49.34800 27.57100 25.28200
H  49.01900 25.19900 33.29500
H  46.79600 23.22400 33.19600
H  48.48700 21.61400 33.49400
H  49.46300 23.10300 33.89300
H  49.66800 22.37600 32.41200
H  46.22900 25.24300 33.96600
H  46.52000 26.52600 32.73600
H  47.08700 27.94100 34.40900
H  48.26400 26.81800 35.11300
H  45.15600 18.66000 29.51700
H  44.84100 19.95600 30.63900
H  46.48400 19.41200 30.45800
H  45.18900 18.07300 27.32500
H  43.92400 18.22000 26.03000
H  43.63600 18.91600 27.65600
H  46.35000 24.32600 23.34400
H  49.01600 25.61200 23.61900
H  48.31100 22.32000 23.61900
H  49.12900 23.40400 22.58000
H  47.58500 22.95800 22.08400
H  46.63300 27.37500 23.89500
H  46.65300 26.34600 22.50800
H  47.68900 28.06700 21.61300
H  49.13200 27.45300 22.26800
H  48.39600 28.79900 23.12600
H  50.37600 30.33100 27.91400
H  49.24400 29.94900 26.52200
H  50.89100 29.32900 26.46400
H  48.43500 28.41300 31.99300
H  51.22300 29.54000 35.24700
H  52.23500 28.19200 34.69200
H  50.52900 28.01600 35.33300
Mg 27.06900 51.33200 26.24200
C  25.19100 52.13100 29.00800
C  29.60500 50.34400 28.43600
C  29.06800 50.65800 23.63700
C  24.80600 52.86800 24.22700
N  27.40600 51.44700 28.46000
C  26.44500 51.62400 29.40300
C  26.87900 51.26500 30.85200
C  28.39100 51.00400 30.62500
C  28.50200 50.94900 29.10100
C  29.46300 51.82200 31.37800
C  26.12600 50.07900 31.58900
C  25.13700 50.44400 32.75200
H  25.19000 49.75100 34.11300
N  29.00500 50.51300 26.03900
C  29.84100 50.15200 27.08200
C  31.09800 49.67500 26.55500
C  30.98500 49.64400 25.12000
C  29.65300 50.34500 24.84400
C  32.24300 49.20200 27.41200
C  31.89400 49.06800 24.06400
O  31.76400 49.31600 22.88100
C  33.00900 48.15300 24.50100
N  27.03300 51.80000 24.25400
C  27.83900 51.30600 23.33500
C  27.33700 51.46700 21.88900
C  25.90200 52.03400 22.11400
C  25.91100 52.29400 23.63500
C  28.18000 52.36800 20.94500
C  24.72800 51.08300 21.66500
C  23.63300 51.75600 20.88000
N  25.29800 52.19200 26.43300
C  24.44300 52.85000 25.53300
C  23.26600 53.30100 26.19100
C  23.50600 52.95000 27.53100
C  24.76200 52.34500 27.63200
C  22.13800 54.17000 25.63900
C  22.95300 53.01800 28.90200
O  21.89400 53.41900 29.33300
C  24.01700 52.56600 29.89100
C  24.29100 53.69100 30.81600
O  25.28400 54.38900 30.83100
O  23.33000 53.71500 31.81600
C  23.53300 54.71500 32.89300
H  30.31200 49.90700 29.14400
H  29.62700 50.41400 22.73200
H  24.04500 53.14800 23.49700
H  26.88200 52.17900 31.44500
H  28.59300 49.99200 30.97400
H  29.97200 51.15600 32.07500
H  28.91000 52.55600 31.96400
H  30.08800 52.39100 30.69000
H  26.76300 49.27300 31.95200
H  25.50200 49.63800 30.81100
H  24.17600 50.07400 32.39500
H  25.10300 51.53000 32.84100
H  32.07300 48.12800 27.34800
H  32.18600 49.52400 28.45200
H  33.19000 49.42100 26.91800
H  33.71100 48.73200 25.10100
H  33.38200 47.55300 23.67100
H  32.54400 47.39000 25.12500
H  27.21100 50.49900 21.40300
H  25.74900 53.02800 21.69200
H  27.61100 53.26000 20.68300
H  28.57500 51.81900 20.08900
H  29.06400 52.60400 21.53700
H  24.15700 50.76300 22.53600
H  25.08400 50.16500 21.19800
H  22.67800 51.53400 21.35700
H  23.58300 51.52600 19.81500
H  23.79700 52.82700 20.99800
H  21.21400 54.24100 26.21300
H  21.83600 53.83400 24.64800
H  22.45900 55.20000 25.48500
H  23.53400 51.70200 30.34700
H  24.20400 54.24500 33.61200
H  22.67200 54.94100 33.52300
H  23.93700 55.68300 32.59900

