158

Mg 41.17800 7.18700 29.29000
C  42.53800 8.82000 32.10100
C  38.75300 5.87300 31.27600
C  40.03800 5.66400 26.61500
C  44.19500 7.99700 27.58800
N  40.71400 7.27200 31.48000
C  41.31000 8.10800 32.32900
C  40.62600 7.93100 33.68600
C  39.58800 6.83300 33.50600
C  39.66400 6.65400 32.04800
C  39.83200 5.57200 34.32800
C  39.98800 9.19100 34.38700
C  40.19100 9.17200 35.98400
H  40.67700 10.49000 36.62300
N  39.60900 6.01700 28.96500
C  38.73300 5.59500 29.87200
C  37.62800 4.97000 29.17000
C  37.81800 5.03500 27.80400
C  39.22600 5.57700 27.68300
C  36.49900 4.29600 29.91300
C  36.89800 4.75700 26.63600
O  37.30600 4.69200 25.46400
C  35.48900 4.49600 26.98300
N  42.05300 6.75100 27.42500
C  41.34300 6.09900 26.50500
C  42.04800 6.20300 25.10600
C  43.23800 7.10100 25.38400
C  43.22000 7.26900 26.88300
C  42.44300 4.76000 24.52600
C  43.07500 8.48200 24.57300
C  42.16700 9.56000 25.19500
N  43.00200 8.17900 29.67600
C  44.09600 8.41700 28.90300
C  45.00600 9.23700 29.60600
C  44.43300 9.49000 30.86400
C  43.19000 8.72900 30.85100
C  46.31500 9.65300 29.19100
C  44.63300 10.11600 32.13000
O  45.52000 10.86600 32.48800
C  43.45400 9.66200 33.05100
C  44.07700 8.96900 34.25000
O  44.65500 7.85400 34.17300
O  43.67600 9.62500 35.43000
C  44.11700 8.87700 36.59500
H  38.03300 5.41000 31.95300
H  39.53400 5.36300 25.69300
H  45.04700 8.32600 26.99000
H  41.46500 7.64800 34.32000
H  38.57100 7.18500 33.67900
H  39.78300 4.63700 33.77000
H  39.07100 5.44400 35.09700
H  40.72800 5.57700 34.94900
H  38.90300 9.08500 34.38900
H  40.27700 10.16400 33.99000
H  40.79900 8.33100 36.31700
H  39.32000 8.76000 36.49500
H  36.64400 4.10300 30.97600
H  36.38800 3.30300 29.47800
H  35.52300 4.75000 29.74500
H  35.15400 5.28100 27.66100
H  35.27100 3.49100 27.34300
H  34.93800 4.63400 26.05200
H  41.34600 6.70200 24.43800
H  44.21600 6.67300 25.16800
H  42.30300 3.92700 25.21600
H  43.48100 4.69400 24.20000
H  41.83800 4.59400 23.63500
H  42.56600 8.18100 23.65700
H  44.07200 8.87700 24.37900
H  41.88100 9.29200 26.21200
H  41.33500 9.74700 24.51600
H  42.71800 10.49400 25.08500
H  46.64700 8.92700 28.44800
H  47.10300 9.62600 29.94300
H  46.20400 10.62900 28.71900
H  43.03300 10.61100 33.38200
H  43.92700 7.80400 36.55700
H  43.59200 9.19800 37.49500
H  45.16000 9.11700 36.80000
Mg -1.90700 34.36700 27.22400
C  -3.34000 32.71600 29.80000
C  -0.24500 36.28700 29.52200
C  -0.81200 36.32700 24.68700
C  -3.75300 32.55500 24.92900
N  -1.91200 34.55100 29.44800
C  -2.48800 33.65500 30.28100
C  -2.13700 33.88900 31.74800
C  -1.09200 35.09700 31.64200
C  -1.07100 35.32100 30.12200
C  -1.33400 36.40000 32.39500
C  -1.51700 32.60300 32.50100
C  -2.16400 32.00800 33.75000
H  -1.36100 31.64300 35.01100
N  -0.64800 36.03700 27.10100
C  -0.02700 36.65400 28.17900
C  0.91900 37.60000 27.64200
C  0.67500 37.73900 26.23500
C  -0.32700 36.72000 25.96300
C  1.70900 38.49100 28.65700
C  1.17400 38.77700 25.13600
O  0.77800 38.90900 24.03300
C  2.37000 39.54900 25.56500
N  -2.30100 34.47800 25.15700
C  -1.65600 35.32800 24.33700
C  -2.15100 35.16100 22.93300
C  -2.85200 33.77000 22.93900
C  -3.02100 33.58400 24.40100
C  -3.10000 36.25200 22.46100
C  -2.08000 32.65000 22.22400
C  -0.56900 32.39200 22.69500
N  -3.32800 33.00200 27.30400
C  -3.89700 32.17300 26.30000
C  -4.70000 31.12000 26.88700
C  -4.58000 31.33900 28.26400
C  -3.65100 32.42900 28.43400
C  -5.56500 30.06900 26.25400
C  -4.91400 30.81400 29.52800
O  -5.48900 29.77700 29.77700
C  -4.14700 31.77600 30.61300
C  -5.25500 32.43400 31.29200
O  -6.14500 33.05000 30.80800
O  -5.14500 32.01600 32.61600
C  -6.22000 32.53000 33.48700
H  0.35700 36.64100 30.36200
H  -0.47100 36.93000 23.84200
H  -4.17000 31.89700 24.16400
H  -3.01700 34.22600 32.29500
H  -0.09400 34.87900 32.02100
H  -0.43200 36.75100 32.89600
H  -2.09900 36.37000 33.17000
H  -1.69600 37.18300 31.72900
H  -0.47100 32.85900 32.67300
H  -1.52000 31.78800 31.77800
H  -2.71000 31.10600 33.47500
H  -2.77700 32.81000 34.16200
H  2.74200 38.61500 28.33200
H  1.73400 38.10500 29.67600
H  1.30600 39.49500 28.79100
H  2.87800 39.98700 24.70500
H  3.07600 38.88300 26.05900
H  1.95300 40.34100 26.18700
H  -1.29600 35.13900 22.25800
H  -3.87000 33.71100 22.55400
H  -3.33200 36.78800 23.38100
H  -4.02600 35.85600 22.04500
H  -2.54800 36.83200 21.72100
H  -2.09600 32.79000 21.14300
H  -2.63800 31.72600 22.37400
H  0.14800 32.55600 21.89000
H  -0.42600 31.36900 23.04100
H  -0.31100 33.12600 23.45900
H  -5.22800 29.87200 25.23600
H  -6.59600 30.40200 26.37700
H  -5.39500 29.06500 26.64300
H  -3.59000 31.10200 31.26400
H  -7.16700 32.08900 33.17600
H  -6.31000 33.61600 33.45400
H  -5.91700 32.29600 34.50800

