158

Mg 45.20200 5.80800 48.52800
C  42.75100 8.28300 48.08400
C  42.58600 3.43500 47.75000
C  47.45600 3.22100 48.13900
C  47.71100 8.09800 48.12200
N  43.02900 5.84300 47.75200
C  42.26500 6.95600 47.88100
C  40.71500 6.62100 47.77200
C  40.71700 5.10200 47.48900
C  42.17500 4.77100 47.77900
C  39.64200 4.47700 48.46800
C  39.88400 7.49100 46.72900
C  40.52800 7.73600 45.32700
H  39.79800 7.05000 44.18000
N  45.01200 3.58800 48.18100
C  43.88100 2.86300 47.93400
C  44.23300 1.47000 47.69500
C  45.63200 1.38000 47.84500
C  46.11300 2.80200 48.06100
C  43.19900 0.39900 47.64300
C  46.44000 0.04900 47.78000
O  45.92100 -0.96400 47.37000
C  47.81600 -0.06600 48.27400
N  47.25100 5.68900 48.17000
C  47.92400 4.46600 48.09400
C  49.53400 4.78200 48.01800
C  49.48900 6.32300 48.19100
C  48.12900 6.72600 48.12000
C  50.43700 4.06100 49.03100
C  50.35400 7.11300 47.21500
C  51.14000 8.33200 47.81500
N  45.26300 7.74800 48.32800
C  46.33300 8.65200 48.18500
C  45.78400 9.98300 48.22100
C  44.38600 9.91400 48.19400
C  44.13000 8.49900 48.15300
C  46.70200 11.18700 48.32400
C  43.18600 10.71700 48.30000
O  43.00800 11.91900 48.39700
C  42.05900 9.65500 48.07600
C  41.11300 9.71000 49.22400
O  41.04500 9.01400 50.23900
O  40.25400 10.71400 48.96400
C  39.20400 11.07700 49.96400
H  41.88400 2.62000 47.56400
H  48.24100 2.54100 47.80000
H  48.59400 8.73500 48.03300
H  40.38300 6.92200 48.76500
H  40.41300 4.82700 46.47900
H  40.03500 4.35900 49.47800
H  39.18500 3.53600 48.16300
H  38.76300 5.11100 48.58100
H  39.57000 8.42800 47.18900
H  38.88900 7.05800 46.62600
H  41.46100 7.18200 45.42300
H  40.66200 8.81400 45.23900
H  42.16000 0.70400 47.76800
H  43.37900 -0.24200 48.50600
H  43.40300 -0.24200 46.78600
H  48.18400 -1.09200 48.29200
H  47.86300 0.45500 49.23000
H  48.37600 0.42400 47.47800
H  49.72800 4.53300 46.97500
H  49.89400 6.55000 49.17700
H  50.79600 3.10000 48.66200
H  49.92100 3.92800 49.98100
H  51.35800 4.62900 49.16000
H  49.80400 7.47700 46.34800
H  51.17100 6.43600 46.96300
H  52.21800 8.17700 47.78600
H  50.89100 8.61700 48.83700
H  50.83200 9.07900 47.08300
H  46.03500 11.99200 48.01600
H  47.59200 11.17200 47.69500
H  46.95400 11.24100 49.38300
H  41.45300 9.81600 47.18400
H  39.18400 10.41700 50.83200
H  38.23100 11.07600 49.47300
H  39.43200 12.07500 50.33700
Mg 6.89900 53.97800 41.13500
C  6.12100 50.60500 41.08100
C  10.09200 53.21100 39.96900
C  7.42100 57.31400 40.13600
C  3.65800 54.66400 42.00700
N  7.85200 52.14300 40.30200
C  7.36800 50.88300 40.47300
C  8.36100 49.86600 39.90500
C  9.68100 50.59200 40.03800
C  9.20500 52.08500 40.10800
C  10.60800 50.31500 41.30600
C  8.01500 49.27500 38.49000
C  8.21200 50.29200 37.33700
H  6.94000 50.59400 36.57000
N  8.55700 55.10000 40.22400
C  9.76700 54.60500 39.89600
C  10.60400 55.69300 39.48000
C  9.85100 56.85200 39.39600
C  8.50200 56.43900 39.97000
C  12.02200 55.40700 39.17400
C  10.26300 58.25900 38.88300
O  11.43400 58.37700 38.43600
C  9.37000 59.47700 39.03200
N  5.74100 55.75000 41.16700
C  6.17400 57.00200 40.87400
C  4.98500 58.02300 41.03900
C  3.89200 57.15500 41.68100
C  4.41700 55.75100 41.63900
C  5.26700 59.43200 41.64000
C  2.55200 57.30400 40.90400
C  1.38900 57.93700 41.66600
N  5.24700 52.86700 41.63100
C  3.94300 53.26300 41.98900
C  3.13400 52.14400 42.25200
C  4.01200 51.06800 41.97400
C  5.25500 51.56500 41.57800
C  1.68300 52.14800 42.51900
C  4.07500 49.59300 41.93600
O  3.23500 48.79100 42.32100
C  5.51900 49.24700 41.37300
C  5.17100 48.42700 40.15800
O  4.63700 48.87600 39.15900
O  5.53900 47.12100 40.33400
C  5.36000 46.11900 39.24300
H  11.08700 52.92800 39.62000
H  7.38700 58.35200 39.79900
H  2.58800 54.79600 42.18100
H  8.24400 48.95900 40.49700
H  10.32600 50.51900 39.16200
H  11.62700 50.29100 40.91900
H  10.29600 49.38000 41.77100
H  10.45500 51.14900 41.99200
H  7.05700 48.75600 38.52300
H  8.64700 48.43200 38.21200
H  9.05700 49.91300 36.76300
H  8.52500 51.25000 37.75300
H  12.16400 54.81400 38.27100
H  12.38200 54.93200 40.08700
H  12.70400 56.24200 39.01600
H  9.95900 60.28900 38.60500
H  9.13700 59.54100 40.09500
H  8.46600 59.32000 38.44400
H  4.68600 58.21000 40.00700
H  3.74500 57.43100 42.72500
H  4.62600 59.63700 42.49700
H  5.17900 60.13200 40.80900
H  6.28300 59.59900 41.99800
H  2.22100 56.34400 40.50600
H  2.73200 57.92000 40.02300
H  0.76400 57.13100 42.05100
H  0.80000 58.52100 40.95900
H  1.76200 58.50200 42.52000
H  1.24600 52.98600 41.97600
H  1.36500 52.18100 43.56100
H  1.13300 51.26600 42.18900
H  6.02200 48.80000 42.23000
H  6.32900 45.81500 38.84800
H  4.83100 46.52100 38.37900
H  4.86500 45.17300 39.46500

