158

Mg 0.14600 7.70800 26.93400
C  0.59900 9.74500 29.73700
C  0.22000 4.92200 28.97000
C  0.10800 5.85900 24.15200
C  0.76600 10.52800 24.96300
N  0.20800 7.37200 29.03800
C  0.37400 8.35800 30.01500
C  0.34800 7.77300 31.40800
C  0.40900 6.20800 31.17900
C  0.29600 6.16600 29.60400
C  1.66300 5.51800 31.67000
C  -0.86600 8.17100 32.18100
C  -0.67400 8.49700 33.63100
H  0.56800 7.93700 34.31100
N  0.02600 5.62000 26.60100
C  0.03200 4.65900 27.58800
C  -0.10900 3.33900 26.92800
C  -0.04700 3.56500 25.49100
C  -0.04300 5.08500 25.33100
C  -0.24200 2.05300 27.77600
C  -0.02600 2.59700 24.34600
O  0.08700 2.94200 23.20500
C  -0.04700 1.09800 24.65900
N  0.18600 8.16800 24.89200
C  0.10300 7.22200 23.97300
C  0.42500 7.79400 22.60000
C  0.27000 9.33100 22.82300
C  0.40600 9.40100 24.31500
C  1.74000 7.49100 22.03500
C  -1.17700 9.84800 22.28700
C  -1.16200 10.06700 20.80700
N  0.56800 9.82300 27.23500
C  0.85500 10.80000 26.35200
C  1.16700 12.04700 26.98200
C  1.11900 11.67900 28.39100
C  0.69100 10.31200 28.44300
C  1.53600 13.38100 26.31800
C  1.42700 12.12700 29.80500
O  1.93100 13.16700 30.24300
C  0.89900 10.90400 30.72300
C  2.11800 10.54800 31.60800
O  3.15700 9.96900 31.22600
O  1.91300 11.03100 32.81000
C  3.00300 11.06600 33.72500
H  0.25900 4.05900 29.63900
H  0.03700 5.22100 23.26900
H  0.80800 11.40600 24.31500
H  1.22200 8.14500 31.94300
H  -0.44300 5.66700 31.59000
H  1.42900 4.65200 32.28900
H  2.19100 6.22600 32.30800
H  2.29700 5.20100 30.84200
H  -1.61900 7.38900 32.09200
H  -1.27000 9.09800 31.77200
H  -1.51100 8.09700 34.20300
H  -0.56200 9.56200 33.83500
H  -0.96000 2.14700 28.59000
H  0.76500 1.73100 28.04100
H  -0.72900 1.26400 27.20300
H  0.82800 1.04500 25.30600
H  0.15500 0.57800 23.72200
H  -1.01900 0.80400 25.05300
H  -0.30800 7.58000 21.82200
H  1.02700 9.97800 22.37900
H  2.43600 8.27700 22.32700
H  1.57500 7.43500 20.95900
H  2.16900 6.54900 22.37500
H  -1.41600 10.77600 22.80500
H  -1.94700 9.09800 22.47000
H  -0.23300 9.70200 20.36800
H  -1.23200 11.13100 20.58500
H  -1.96600 9.41600 20.46300
H  2.31100 13.39200 25.55200
H  1.84200 14.21800 26.94500
H  0.62600 13.67900 25.79700
H  0.03100 11.21000 31.30600
H  3.11600 12.13300 33.92000
H  3.96500 10.62700 33.46200
H  2.60000 10.72300 34.67800
Mg 23.96400 -5.31200 46.10200
C  25.90000 -2.94200 44.27200
C  21.43500 -4.53600 43.78600
C  22.46000 -8.05400 47.10400
C  26.98200 -6.20400 47.83600
N  23.64100 -3.86600 44.29300
C  24.60200 -3.04800 43.76300
C  24.05300 -2.26100 42.60200
C  22.51300 -2.53000 42.64400
C  22.49300 -3.71400 43.66600
C  21.61100 -1.41900 43.12000
C  24.68300 -2.42800 41.20600
C  24.96000 -1.09900 40.42000
H  24.84300 -1.14800 38.84500
N  22.13100 -6.13800 45.65200
C  21.20300 -5.60600 44.76400
C  20.04000 -6.36600 44.83100
C  20.24100 -7.46400 45.77100
C  21.62300 -7.21900 46.24700
C  18.81100 -5.91500 43.96500
C  19.24400 -8.59900 46.07500
O  18.09500 -8.63900 45.56600
C  19.52500 -9.74800 47.02800
N  24.66800 -7.01500 47.26900
C  23.77800 -7.99300 47.63900
C  24.51300 -9.02300 48.54200
C  25.79400 -8.32300 48.97300
C  25.88900 -7.11600 47.93900
C  23.68600 -9.57300 49.72900
C  26.95900 -9.28000 48.93800
C  27.53500 -9.57400 50.33400
N  25.93400 -4.64600 46.23600
C  27.01600 -5.10800 47.00200
C  28.07100 -4.20700 46.79600
C  27.75700 -3.40600 45.76800
C  26.41200 -3.72700 45.41200
C  29.32700 -4.12700 47.54500
C  28.23000 -2.28500 45.03800
O  29.32900 -1.71100 45.13000
C  27.13700 -2.02500 43.91400
C  26.84000 -0.51700 44.03200
O  25.97100 -0.05200 44.75100
O  27.73000 0.15600 43.19600
C  27.74700 1.60400 43.26800
H  20.56700 -4.31800 43.16100
H  21.91100 -8.94400 47.41800
H  27.85200 -6.35700 48.47700
H  24.25600 -1.24200 42.93000
H  22.19800 -2.94900 41.68800
H  21.30400 -1.63800 44.14300
H  20.72500 -1.40600 42.48500
H  21.98100 -0.39400 43.07600
H  24.20600 -3.19200 40.59300
H  25.68300 -2.78800 41.44800
H  25.97800 -0.76200 40.61400
H  24.28300 -0.31900 40.77000
H  18.90000 -6.32600 42.95900
H  18.71600 -4.83100 43.90400
H  17.94500 -6.35100 44.46100
H  18.71800 -10.47700 46.96900
H  19.57400 -9.42400 48.06700
H  20.43100 -10.33200 46.86900
H  24.64000 -9.92500 47.94300
H  25.75200 -7.81300 49.93600
H  24.15400 -9.22600 50.65000
H  23.75700 -10.66100 49.69900
H  22.68900 -9.15800 49.57700
H  27.71700 -8.91700 48.24400
H  26.75400 -10.25600 48.49800
H  28.44700 -8.98900 50.45100
H  27.72000 -10.64800 50.35000
H  26.90100 -9.40800 51.20500
H  29.96300 -4.89500 47.10500
H  29.10800 -4.28200 48.60100
H  29.87400 -3.18900 47.44100
H  27.47000 -2.27500 42.90700
H  27.60300 2.02800 44.26200
H  26.97500 2.06500 42.65200
H  28.70900 1.95700 42.89600

