158

Mg 41.31000 9.46800 29.67300
C  42.97900 10.69000 32.41500
C  38.82000 8.18000 31.61800
C  39.86900 8.27800 26.82900
C  43.78500 10.87900 27.71100
N  41.01300 9.30700 31.74800
C  41.81300 9.91900 32.72600
C  41.19400 9.56700 34.10700
C  40.03900 8.60900 33.79600
C  39.96800 8.64300 32.27300
C  40.07700 7.15700 34.36600
C  40.85200 10.82500 34.99000
C  41.18300 10.63700 36.48900
H  40.96400 11.85400 37.42600
N  39.62500 8.35000 29.23300
C  38.74300 7.95000 30.24100
C  37.62900 7.28700 29.62600
C  37.84100 7.31900 28.18800
C  39.15100 7.97200 28.03200
C  36.51200 6.60800 30.43900
C  36.89200 7.01100 26.99700
O  37.20600 7.33000 25.86900
C  35.56600 6.31800 27.21200
N  41.77800 9.57600 27.59000
C  41.07300 8.95500 26.62600
C  41.69200 9.26700 25.24400
C  42.64700 10.51600 25.46000
C  42.70400 10.37900 26.98100
C  42.35700 7.95300 24.65100
C  42.21600 11.90700 24.95200
C  40.87200 12.43400 25.48300
N  43.11900 10.42700 29.95000
C  44.08100 10.83800 29.05500
C  45.11400 11.48100 29.71400
C  44.78800 11.43200 31.09300
C  43.49700 10.78200 31.17000
C  46.13200 12.15300 28.95200
C  45.17700 11.76300 32.49100
O  46.20000 12.30800 32.88700
C  44.01800 11.22400 33.41800
C  44.58400 10.14300 34.30300
O  44.43500 8.93100 34.21900
O  45.42000 10.67800 35.26400
C  46.20700 9.84100 36.23500
H  38.05300 7.73300 32.25400
H  39.44400 7.95700 25.87600
H  44.52000 11.33000 27.04000
H  41.87900 9.02800 34.76100
H  39.16000 9.14700 34.15100
H  39.15600 6.97300 34.91900
H  40.86300 7.12700 35.12100
H  40.17300 6.36600 33.62200
H  39.77000 10.94900 35.03000
H  41.30800 11.75000 34.63700
H  42.15700 10.23200 36.76400
H  40.50700 9.88800 36.90100
H  35.58600 6.63700 29.86400
H  36.40500 7.08400 31.41300
H  36.85100 5.59100 30.63700
H  35.14800 6.17500 26.21600
H  34.96200 7.00900 27.79900
H  35.67900 5.38800 27.77000
H  40.91300 9.50400 24.51900
H  43.62400 10.43900 24.98300
H  43.41600 8.13900 24.47400
H  41.92000 7.49600 23.76400
H  42.22100 7.09800 25.31400
H  42.11300 11.90300 23.86700
H  42.93000 12.66200 25.28000
H  40.28200 12.97600 24.74300
H  41.26700 13.04100 26.29700
H  40.15600 11.71300 25.87800
H  45.74400 13.00800 28.39900
H  46.59900 11.45900 28.25300
H  46.93500 12.55900 29.56800
H  43.67200 12.05000 34.04000
H  45.56700 9.02300 36.56600
H  46.77400 10.47400 36.91700
H  46.89800 9.41100 35.51000
Mg -12.30300 37.44800 41.82900
C  -10.26100 34.85900 40.73400
C  -10.17200 39.76600 40.33200
C  -14.74200 39.92800 42.06200
C  -14.62600 35.09100 42.82500
N  -10.42200 37.26900 40.75200
C  -9.74700 36.15800 40.42300
C  -8.42500 36.54500 39.74700
C  -8.26000 38.10000 39.96200
C  -9.77800 38.41900 40.37200
C  -7.34700 38.47500 41.20400
C  -8.48400 35.96000 38.28500
C  -7.37300 34.99000 37.89800
H  -6.29300 35.45600 36.92000
N  -12.41500 39.56300 41.31800
C  -11.40600 40.29900 40.74500
C  -11.81500 41.68300 40.61600
C  -13.03700 41.77600 41.31500
C  -13.47300 40.39200 41.61100
C  -10.95400 42.80000 40.05900
C  -13.70400 43.08900 41.52400
O  -13.03500 44.06200 41.27300
C  -15.12600 43.17000 41.98100
N  -14.47700 37.46300 42.26300
C  -15.16400 38.59700 42.45400
C  -16.45100 38.33800 43.26200
C  -16.46900 36.82100 43.48300
C  -15.08100 36.44100 42.81400
C  -16.56700 39.12700 44.60500
C  -17.63300 36.07400 42.86600
C  -17.71200 36.10800 41.28700
N  -12.43800 35.40600 41.90400
C  -13.43300 34.56700 42.38100
C  -12.91200 33.21700 42.29100
C  -11.68800 33.28100 41.65300
C  -11.45800 34.63500 41.47000
C  -13.65800 31.98500 42.78100
C  -10.60200 32.44700 41.15700
O  -10.38200 31.25000 41.12100
C  -9.62200 33.46500 40.46400
C  -8.33100 33.32700 41.08200
O  -7.39200 32.62600 40.60700
O  -8.23800 34.05200 42.25400
C  -6.96100 33.90700 42.99400
H  -9.40200 40.43800 39.94700
H  -15.57100 40.61200 42.25800
H  -15.18700 34.28600 43.30500
H  -7.58000 36.10000 40.27300
H  -7.83300 38.57100 39.07700
H  -7.94600 38.84600 42.03500
H  -6.64000 39.28200 41.00900
H  -6.75200 37.60000 41.46700
H  -8.35400 36.77800 37.57600
H  -9.41600 35.40000 38.21600
H  -7.73800 34.02100 37.55900
H  -6.97100 34.59700 38.83200
H  -10.21000 42.43500 39.35000
H  -10.51400 43.34400 40.89400
H  -11.55700 43.52000 39.50500
H  -15.80700 42.63900 41.31600
H  -15.42400 44.20000 42.18000
H  -15.26000 42.62600 42.91600
H  -17.27800 38.64200 42.61900
H  -16.39700 36.56700 44.54100
H  -17.02300 40.06600 44.29100
H  -15.59100 39.52700 44.87900
H  -17.13600 38.56100 45.34300
H  -18.59100 36.37900 43.28700
H  -17.57300 35.05900 43.25700
H  -17.91000 35.13400 40.84000
H  -16.84100 36.57800 40.83100
H  -18.51400 36.76900 40.95800
H  -13.84000 32.09300 43.85000
H  -13.19000 31.02500 42.56100
H  -14.55900 32.09100 42.17800
H  -9.56100 33.24600 39.39800
H  -6.20500 34.57100 42.57400
H  -6.60900 32.87500 42.99100
H  -7.07400 34.10900 44.05900

