158

Mg 36.08000 1.13800 30.68000
C  33.53600 2.46500 32.78600
C  38.29100 1.44500 33.10800
C  38.42100 0.37200 28.45100
C  33.63600 1.21900 28.09100
N  35.87700 1.84700 32.73100
C  34.73300 2.14900 33.43600
C  34.98600 2.31200 34.98800
C  36.58400 2.28900 35.03100
C  36.98300 1.89100 33.52500
C  37.18800 3.66800 35.38300
C  34.36900 1.11300 35.81500
C  33.79900 1.45000 37.16900
H  34.29500 2.69800 37.99200
N  38.08400 0.94900 30.76700
C  38.88200 1.03000 31.88600
C  40.18600 0.43300 31.66900
C  40.23200 0.25800 30.23400
C  38.89700 0.56000 29.75000
C  41.28200 0.20300 32.79200
C  41.36400 -0.20600 29.38200
O  41.25200 -0.46700 28.19100
C  42.74800 -0.35100 29.99600
N  36.10000 1.06400 28.49600
C  37.15100 0.56600 27.85900
C  36.81200 0.50700 26.38800
C  35.33000 0.40100 26.34000
C  34.96600 0.87700 27.73700
C  37.46600 1.55200 25.56200
C  34.67000 -1.04700 26.06600
C  33.43800 -0.93000 25.16000
N  33.98500 1.73800 30.38100
C  33.20700 1.73000 29.32200
C  31.91800 2.23800 29.64400
C  31.93300 2.45100 30.98500
C  33.27700 2.25000 31.40600
C  30.75500 2.44800 28.68600
C  31.20700 2.89300 32.14500
O  30.12700 3.39600 32.26300
C  32.17700 2.81900 33.38600
C  32.20800 4.07700 34.10400
O  32.95400 5.01000 33.82900
O  31.28900 4.06300 35.15500
C  31.17300 5.27900 35.97700
H  39.00900 1.47900 33.93000
H  39.06900 -0.04000 27.67500
H  32.91700 1.11300 27.27600
H  34.47800 3.18800 35.39100
H  37.08100 1.53800 35.64500
H  37.99600 3.64700 36.11500
H  36.38200 4.24700 35.83400
H  37.58300 4.19800 34.51700
H  35.15200 0.35500 35.80700
H  33.57100 0.65800 35.22700
H  33.91200 0.63700 37.88600
H  32.75300 1.60700 36.90600
H  42.12200 0.89600 32.76100
H  41.68100 -0.80600 32.68900
H  40.82400 0.12300 33.77800
H  43.45300 -0.58100 29.19700
H  42.83100 -1.06200 30.81800
H  43.04200 0.57000 30.50000
H  37.16200 -0.48200 26.09200
H  34.86000 1.19900 25.76600
H  38.20800 2.09200 26.15100
H  36.78500 2.32700 25.21100
H  37.97600 1.17700 24.67400
H  34.24900 -1.35300 27.02400
H  35.42200 -1.75600 25.72100
H  33.17300 0.09800 24.91600
H  32.61400 -1.35300 25.73600
H  33.57700 -1.43300 24.20300
H  31.03100 2.60500 27.64400
H  30.33400 3.42600 28.91700
H  29.92100 1.75000 28.76700
H  31.88400 1.95000 33.97600
H  32.11700 5.60000 36.41800
H  30.44300 5.10400 36.76700
H  30.82000 6.11800 35.37700
Mg -1.45700 34.55800 26.51000
C  -3.16300 33.03200 28.93700
C  -0.24400 36.81400 28.75900
C  -0.35400 36.58600 23.83800
C  -3.06400 32.57100 24.10900
N  -1.75700 34.91300 28.55500
C  -2.37100 34.07400 29.45300
C  -1.99300 34.33200 30.91300
C  -1.11800 35.62500 30.83800
C  -0.99500 35.79000 29.26900
C  -1.62600 37.02500 31.56500
C  -1.38600 33.07100 31.57800
C  -2.00700 32.70000 32.98300
H  -1.07300 32.53500 34.16200
N  -0.44500 36.44100 26.33300
C  -0.05700 37.17000 27.39100
C  0.69700 38.32500 26.92000
C  0.85000 38.23700 25.54300
C  -0.03600 37.04300 25.16500
C  1.24500 39.37900 27.93300
C  1.60800 39.18300 24.68500
O  1.54900 39.18800 23.45100
C  2.55600 40.26700 25.29900
N  -1.75500 34.68600 24.25800
C  -1.11600 35.47300 23.40900
C  -1.33600 35.13700 21.92900
C  -2.05800 33.74400 22.06900
C  -2.36000 33.61800 23.59600
C  -2.14000 36.24000 21.17800
C  -1.31000 32.58000 21.55200
C  0.10300 32.38300 22.15600
N  -2.79900 33.07800 26.46400
C  -3.34300 32.34400 25.47300
C  -4.27700 31.34800 25.98900
C  -4.18200 31.53100 27.39400
C  -3.35400 32.63600 27.58400
C  -4.99200 30.47800 25.12500
C  -4.62600 31.04100 28.65000
O  -5.52300 30.19700 28.88000
C  -3.87200 31.86900 29.74500
C  -4.77400 32.30600 30.82100
O  -5.51500 33.29200 30.79200
O  -4.79100 31.31000 31.73700
C  -5.78900 31.56400 32.83700
H  0.26700 37.56200 29.36800
H  0.18800 37.11200 23.04900
H  -3.37000 31.83800 23.35900
H  -2.80100 34.72700 31.52900
H  -0.09400 35.39100 31.12800
H  -2.41800 36.91500 32.30500
H  -1.92200 37.82300 30.88500
H  -0.77100 37.45200 32.08900
H  -0.34500 33.25900 31.84300
H  -1.52000 32.22800 30.90000
H  -2.41100 31.69500 32.86500
H  -2.90400 33.28300 33.19300
H  0.79500 39.33600 28.92500
H  0.99900 40.39600 27.62700
H  2.33300 39.31500 27.94800
H  3.25200 39.74100 25.95200
H  1.90900 40.99700 25.78500
H  3.06700 40.82500 24.51300
H  -0.34400 34.95700 21.51400
H  -3.00900 33.71700 21.53700
H  -2.85600 35.87100 20.44300
H  -1.57000 36.78000 20.42100
H  -2.60700 36.99000 21.81600
H  -1.33100 32.88500 20.50600
H  -1.90300 31.66500 21.57000
H  0.18800 31.30100 22.25300
H  0.17800 32.83600 23.14500
H  0.81500 32.78500 21.43500
H  -4.21500 30.06200 24.48400
H  -5.70700 31.01500 24.50200
H  -5.43800 29.64500 25.66800
H  -3.17800 31.12500 30.13500
H  -6.63600 32.02600 32.33000
H  -5.34300 32.29200 33.51600
H  -6.13300 30.65600 33.33000

