158

Mg 8.74900 48.78300 26.04600
C  7.08500 48.80700 29.09900
C  11.57700 49.87100 27.75900
C  10.51200 48.52200 23.17000
C  5.83900 48.09200 24.38000
N  9.20300 49.28900 28.17100
C  8.41900 49.14200 29.21900
C  9.12000 49.50600 30.43600
C  10.38200 50.29500 29.99700
C  10.41000 49.84400 28.53900
C  10.44700 51.85200 30.26100
C  9.41300 48.35200 31.42900
C  8.69600 48.41400 32.78100
H  8.77300 47.29300 33.74800
N  10.79200 49.30900 25.48100
C  11.78700 49.61800 26.37900
C  13.11100 49.61700 25.66900
C  12.85200 49.10600 24.35000
C  11.33900 48.89300 24.29600
C  14.39600 49.80900 26.47800
C  13.79900 48.69800 23.29500
O  13.48900 48.19900 22.23400
C  15.26800 48.79100 23.46100
N  8.22700 48.47700 24.04900
C  9.13600 48.36900 23.09000
C  8.46500 48.04600 21.75800
C  7.14200 47.48100 22.29200
C  7.02300 48.11000 23.66000
C  8.41900 49.10700 20.58500
C  7.00100 45.95800 22.17800
C  6.64100 45.15600 23.46500
N  6.81400 48.53000 26.58900
C  5.70200 48.24000 25.79500
C  4.50700 48.19400 26.64900
C  4.94900 48.38900 27.98000
C  6.37000 48.66100 27.91700
C  3.17900 47.83000 26.30000
C  4.61800 48.39700 29.38700
O  3.47800 48.24600 29.96200
C  5.99100 48.57100 30.18700
C  6.07600 47.25000 31.01300
O  6.89700 46.37500 30.88600
O  5.09400 47.32000 32.02900
C  5.00100 46.28100 33.01300
H  12.48600 50.08900 28.32300
H  10.96400 48.52600 22.17600
H  5.02500 47.62300 23.82300
H  8.53200 50.28200 30.92600
H  11.27200 49.81500 30.40200
H  10.07300 52.38800 29.38900
H  11.45600 52.20500 30.47800
H  9.75900 51.91800 31.10300
H  10.46700 48.26300 31.69300
H  9.19100 47.45900 30.84400
H  7.67800 48.77800 32.63900
H  9.27800 49.14000 33.34900
H  14.26300 50.66400 27.14100
H  15.23600 50.18900 25.89500
H  14.76200 48.91100 26.97600
H  15.60900 48.18000 24.29600
H  15.69700 49.78700 23.56600
H  15.76300 48.38100 22.58000
H  9.08400 47.22300 21.39900
H  6.29200 47.97000 21.81700
H  7.44000 49.53000 20.36100
H  8.89000 48.66600 19.70700
H  8.90100 50.05200 20.83600
H  7.85400 45.43100 21.75100
H  6.13000 45.80100 21.54300
H  6.90700 45.48900 24.46800
H  6.96600 44.11600 23.43500
H  5.56600 44.98200 23.43800
H  2.82100 46.93000 26.80100
H  3.30400 47.62600 25.23700
H  2.51800 48.67700 26.48200
H  6.04100 49.42500 30.86300
H  5.51400 46.70100 33.87800
H  5.53000 45.38700 32.68200
H  3.94200 46.08000 33.17800
Mg -0.35800 43.62400 26.95000
C  1.49400 43.48800 30.00800
C  -3.20600 42.92200 28.69600
C  -1.68000 42.67500 24.13600
C  2.73700 44.25300 25.36200
N  -0.83900 43.31800 29.03700
C  0.06800 43.39800 30.12700
C  -0.69500 43.42400 31.45300
C  -2.17500 43.10300 31.01700
C  -2.10800 43.13000 29.50700
C  -2.71000 41.71400 31.64800
C  -0.56200 44.85500 32.15100
C  -0.59700 44.95200 33.69400
H  -0.72400 43.65700 34.54600
N  -2.19900 42.95100 26.37500
C  -3.23600 42.81900 27.25200
C  -4.44100 42.46500 26.43300
C  -4.04300 42.39500 25.09900
C  -2.57400 42.63900 25.12800
C  -5.82200 42.24000 27.03400
C  -4.89200 42.12500 23.91500
O  -4.28900 41.83000 22.88100
C  -6.44600 42.04500 23.90800
N  0.37600 43.56900 25.06900
C  -0.40500 43.14100 24.03700
C  0.41600 43.25000 22.71800
C  1.70800 44.05500 23.16400
C  1.58700 44.00400 24.62900
C  0.72000 41.88400 21.96700
C  1.83200 45.49400 22.52700
C  2.11100 45.47300 21.00400
N  1.76900 43.83700 27.55700
C  2.83700 44.13600 26.77300
C  4.00300 44.22100 27.60400
C  3.56700 43.93100 28.91200
C  2.14000 43.68800 28.79200
C  5.51400 44.36500 27.25400
C  3.94600 43.65400 30.23800
O  5.13400 43.55400 30.59200
C  2.60700 43.51500 31.07900
C  2.63100 42.18600 31.71400
O  2.43700 41.10600 31.09200
O  3.00900 42.26800 33.03400
C  2.65300 41.10500 33.89700
H  -4.16600 42.80300 29.20300
H  -2.02700 42.43900 23.12800
H  3.64900 44.51600 24.82300
H  -0.37300 42.58400 32.06900
H  -2.83600 43.91000 31.33200
H  -1.83800 41.20500 32.05900
H  -3.09800 41.08100 30.85000
H  -3.32200 41.89900 32.53000
H  -1.39100 45.44500 31.76200
H  0.32800 45.31600 31.72300
H  -1.41500 45.63300 33.92700
H  0.34100 45.40900 34.01100
H  -6.38200 43.06200 26.58700
H  -5.80400 42.32400 28.12100
H  -6.34200 41.32800 26.74000
H  -6.86900 42.30000 22.93600
H  -6.92200 42.83500 24.49000
H  -6.70800 41.03700 24.23000
H  -0.06100 43.88400 21.97000
H  2.63600 43.53200 22.93500
H  0.34900 41.09600 22.62200
H  1.79600 41.80900 21.81200
H  0.19200 41.95000 21.01500
H  2.58100 46.15600 22.96000
H  0.87600 46.00500 22.63800
H  2.95200 46.15500 20.88000
H  1.27500 45.89200 20.44500
H  2.25300 44.46300 20.62100
H  6.06300 43.53900 26.80100
H  6.01600 44.47500 28.21500
H  5.71100 45.27100 26.68100
H  2.65000 44.32300 31.80900
H  1.61100 40.81500 33.76900
H  2.72800 41.32400 34.96200
H  3.43000 40.34500 33.81400

