158

Mg 8.67400 3.53400 27.86800
C  10.10000 1.56600 30.54400
C  6.83300 5.32500 30.08300
C  7.38000 5.15400 25.29200
C  10.13200 1.08500 25.74600
N  8.37900 3.30400 30.02500
C  9.19800 2.60700 30.93400
C  8.95700 3.19900 32.33700
C  7.62600 4.03100 32.19100
C  7.55700 4.30900 30.65400
C  6.34100 3.30100 32.63200
C  10.17000 3.91600 33.07100
C  9.88000 4.73600 34.29600
H  10.75000 4.57200 35.49900
N  7.26900 4.99000 27.73500
C  6.68900 5.67300 28.76300
C  5.75200 6.68300 28.26300
C  5.92000 6.66100 26.81800
C  6.94300 5.60300 26.52000
C  4.93300 7.64100 29.11400
C  5.14000 7.36100 25.77200
O  5.18400 7.11200 24.53200
C  4.16400 8.41600 26.08100
N  8.66700 3.06200 25.85600
C  8.10200 3.95700 24.99100
C  8.52700 3.60800 23.52300
C  9.09200 2.16900 23.62800
C  9.40100 2.11900 25.16600
C  7.34600 3.76700 22.52300
C  10.28700 1.95900 22.66900
C  10.12300 0.72300 21.76500
N  10.04000 1.78000 28.04800
C  10.49500 0.93400 27.10400
C  11.28400 -0.18700 27.68000
C  11.20800 0.07300 29.06700
C  10.40300 1.25000 29.20500
C  11.95300 -1.37500 27.12300
C  11.64400 -0.37100 30.34200
O  12.34200 -1.36500 30.66500
C  11.06700 0.66500 31.34300
C  10.35900 -0.11600 32.38600
O  9.48700 -0.94400 32.16500
O  10.91000 0.27300 33.57900
C  10.39900 -0.29900 34.76100
H  6.29300 5.99300 30.75600
H  7.00300 5.73400 24.44700
H  10.49000 0.36300 25.00900
H  8.74500 2.36700 33.00800
H  7.70300 4.92500 32.81100
H  6.50300 2.92100 33.64000
H  6.14700 2.49600 31.92200
H  5.59600 4.09500 32.62900
H  10.70000 4.53500 32.34700
H  10.83100 3.10600 33.37900
H  8.84800 4.72700 34.64900
H  10.09800 5.78300 34.08600
H  3.88300 7.54900 28.83600
H  5.21500 8.66000 28.84900
H  5.10800 7.58500 30.18800
H  3.32600 8.11500 26.70900
H  3.67500 8.67700 25.14200
H  4.76600 9.25300 26.43600
H  9.27500 4.34200 23.22400
H  8.31300 1.42200 23.47900
H  6.41000 4.08900 22.98000
H  7.21900 2.79300 22.04900
H  7.54600 4.48400 21.72800
H  11.25800 1.96200 23.16500
H  10.34300 2.87000 22.07300
H  10.99100 0.06400 21.80100
H  10.02900 1.01400 20.71900
H  9.28500 0.10400 22.08400
H  12.99400 -1.29100 26.81000
H  11.30600 -1.71900 26.31700
H  11.99900 -2.13900 27.89900
H  11.86400 1.31200 31.70900
H  10.05500 0.51500 35.39900
H  11.21500 -0.80500 35.27600
H  9.53000 -0.93700 34.60200
Mg -1.42600 34.92600 27.38500
C  -2.80600 32.99200 29.97600
C  -0.17200 37.01000 29.58000
C  -0.90900 37.08700 24.73000
C  -2.94100 32.74800 25.16700
N  -1.66800 35.04100 29.57300
C  -2.13500 34.13000 30.46200
C  -1.66300 34.41500 31.87900
C  -0.71100 35.72400 31.70900
C  -0.86400 35.93300 30.16500
C  -1.27700 36.94400 32.54100
C  -0.78800 33.22700 32.45900
C  -1.18900 32.35800 33.62200
H  -0.54200 32.61200 34.96800
N  -0.66600 36.85400 27.18600
C  -0.11000 37.49200 28.21200
C  0.54900 38.68300 27.79200
C  0.30200 38.76300 26.38600
C  -0.48100 37.55400 26.05100
C  1.23600 39.51100 28.76700
C  0.80100 39.78000 25.40300
O  0.49700 39.67500 24.19200
C  1.84200 40.76500 25.70700
N  -1.65300 34.82900 25.21600
C  -1.51700 35.86500 24.36600
C  -1.90200 35.48300 22.92000
C  -2.18800 33.96800 23.05000
C  -2.29200 33.82700 24.60800
C  -3.01700 36.21000 22.21300
C  -1.18700 32.90500 22.45300
C  0.29500 33.20400 22.50800
N  -2.59500 33.20600 27.48900
C  -3.13400 32.45200 26.50700
C  -3.82600 31.27800 27.02700
C  -3.75100 31.45500 28.41400
C  -3.01400 32.64800 28.60000
C  -4.57200 30.26300 26.24400
C  -4.11100 30.93800 29.67800
O  -4.75300 29.95400 30.04500
C  -3.47300 31.84500 30.75900
C  -4.60100 32.42100 31.62100
O  -5.52000 33.10800 31.21300
O  -4.44200 32.04200 32.99000
C  -5.51000 32.42200 33.89100
H  0.47000 37.58400 30.25200
H  -0.66100 37.70500 23.86500
H  -3.40300 32.10100 24.41800
H  -2.37400 34.70800 32.65100
H  0.30200 35.53100 32.06300
H  -1.34400 37.82600 31.90500
H  -0.52600 37.10300 33.31500
H  -2.18800 36.69000 33.08300
H  0.17800 33.68200 32.67600
H  -0.60200 32.62500 31.56900
H  -1.29700 31.29100 33.42400
H  -2.20500 32.67200 33.86000
H  1.77500 40.34500 28.31800
H  1.99800 39.09400 29.42500
H  0.43700 39.98300 29.33900
H  2.18700 41.33400 24.84300
H  2.69700 40.12000 25.90600
H  1.55200 41.47700 26.48000
H  -0.97500 35.70200 22.39000
H  -3.13600 33.64500 22.62100
H  -3.49100 36.96500 22.84100
H  -3.78600 35.52600 21.85500
H  -2.68700 36.72400 21.31100
H  -1.42600 32.64200 21.42300
H  -1.43800 31.95200 22.91800
H  0.79500 32.37700 23.01300
H  0.47500 34.10500 23.09500
H  0.69600 33.16300 21.49500
H  -4.81600 29.39200 26.85300
H  -4.02200 30.00200 25.34000
H  -5.49100 30.81200 26.04000
H  -2.82000 31.16000 31.30100
H  -5.14900 33.10700 34.65800
H  -6.02400 31.60000 34.39100
H  -6.29800 32.81100 33.24700

