158

Mg 23.82200 -5.61900 44.96100
C  26.11900 -3.26200 43.28400
C  21.44700 -4.78400 42.55400
C  21.96600 -8.15200 45.96600
C  26.60700 -6.81200 46.67200
N  23.79700 -4.13900 43.13600
C  24.82700 -3.18800 42.76100
C  24.29400 -2.26800 41.66300
C  22.73500 -2.64400 41.67900
C  22.64400 -4.01800 42.36700
C  21.88900 -1.52300 42.27400
C  25.05200 -2.42200 40.34400
C  25.72500 -1.15600 39.76400
H  25.33000 -0.77400 38.35700
N  21.96800 -6.28400 44.47600
C  21.13800 -5.73500 43.51900
C  19.83500 -6.33300 43.64400
C  19.90400 -7.29900 44.68600
C  21.30800 -7.29200 45.07800
C  18.67100 -5.79600 42.83200
C  18.72600 -8.06100 45.24100
O  17.70700 -7.90100 44.60300
C  18.73900 -9.00300 46.36300
N  24.24300 -7.14700 46.27600
C  23.21700 -8.09700 46.49400
C  23.87100 -9.27200 47.25800
C  25.19200 -8.64100 47.82700
C  25.39900 -7.51700 46.84000
C  22.94900 -9.88000 48.34300
C  26.33100 -9.69000 47.82500
C  26.89900 -9.86100 49.26800
N  25.86200 -5.08900 45.10600
C  26.90100 -5.67700 45.85000
C  28.11800 -5.01000 45.62800
C  27.83100 -4.00100 44.65200
C  26.49400 -4.18700 44.24500
C  29.38300 -5.30700 46.38900
C  28.46200 -2.92500 43.98200
O  29.56600 -2.37300 44.06000
C  27.33600 -2.35600 43.08100
C  27.07800 -0.97000 43.50400
O  26.65700 -0.65500 44.57700
O  27.22900 -0.07500 42.42100
C  26.84200 1.27800 42.78100
H  20.62100 -4.47500 41.91000
H  21.35100 -9.03500 46.15300
H  27.51900 -7.11600 47.18900
H  24.50700 -1.26800 42.04000
H  22.27700 -2.92200 40.73000
H  22.32200 -0.52900 42.16600
H  21.62300 -1.69000 43.31800
H  20.99000 -1.61100 41.66500
H  24.35300 -2.71200 39.56000
H  25.71900 -3.28400 40.33300
H  26.80800 -1.15500 39.88500
H  25.38600 -0.24700 40.26100
H  18.99800 -5.85100 41.79400
H  18.39600 -4.75400 42.99400
H  17.75500 -6.38600 42.84400
H  19.28600 -8.53300 47.18000
H  19.22700 -9.93700 46.08300
H  17.71700 -9.18300 46.69600
H  24.09300 -10.10800 46.59500
H  24.94700 -8.10000 48.74200
H  22.88100 -10.84900 47.84800
H  21.93500 -9.49000 48.43800
H  23.47800 -9.94100 49.29400
H  27.26500 -9.56300 47.27800
H  25.89500 -10.64900 47.54400
H  27.98700 -9.83500 49.32000
H  26.56900 -10.83900 49.61900
H  26.41300 -9.08000 49.85300
H  29.98600 -5.98900 45.79000
H  29.07300 -5.76800 47.32700
H  29.96100 -4.39500 46.53600
H  27.77100 -2.29200 42.08400
H  25.80800 1.24500 43.12500
H  26.92300 1.90500 41.89300
H  27.40400 1.75400 43.58400
Mg 36.48300 49.04400 26.07700
C  36.22800 46.95300 28.90600
C  35.63700 51.65300 27.98400
C  36.40200 50.96800 23.11400
C  36.56400 46.10800 24.09000
N  36.05700 49.28100 28.30600
C  36.01100 48.36800 29.26700
C  35.80500 49.03200 30.65700
C  35.44500 50.47300 30.25600
C  35.76500 50.50600 28.76500
C  34.06900 51.05000 30.76300
C  37.00800 48.81400 31.68300
C  36.45400 48.44100 33.09300
H  35.04400 48.68600 33.63700
N  36.14600 51.01500 25.65800
C  35.84700 51.95600 26.62300
C  35.85000 53.25600 26.05400
C  36.01800 53.12800 24.65700
C  36.20900 51.61700 24.39000
C  35.55500 54.41300 26.94900
C  36.18000 54.15600 23.52100
O  36.25300 53.82300 22.35100
C  36.04300 55.60200 23.94400
N  36.29900 48.53700 23.88700
C  36.49400 49.52100 22.95800
C  36.77400 48.93200 21.48800
C  37.12600 47.44300 21.97000
C  36.60500 47.36200 23.41800
C  35.50500 48.92200 20.57300
C  38.64600 47.15900 22.00500
C  39.24500 45.81200 21.40800
N  36.44300 46.94400 26.35800
C  36.45000 45.90300 25.44600
C  36.54900 44.73800 26.21300
C  36.50100 45.10900 27.58500
C  36.45900 46.46700 27.64100
C  36.92800 43.37900 25.58500
C  36.60700 44.63200 28.85900
O  36.86900 43.52500 29.32600
C  36.34200 45.75300 29.81300
C  35.05000 45.47300 30.55500
O  33.87100 45.62900 30.14300
O  35.40800 44.97600 31.77800
C  34.42100 44.60500 32.80000
H  35.36400 52.52200 28.58700
H  36.29200 51.43600 22.13400
H  36.79800 45.22800 23.48700
H  34.95500 48.49800 31.08200
H  36.16800 51.17300 30.67500
H  33.61300 50.22900 31.31600
H  33.54900 51.26500 29.83000
H  34.07100 51.99000 31.31500
H  37.55600 49.74900 31.79300
H  37.66200 48.06400 31.23600
H  37.14500 48.84200 33.83500
H  36.54100 47.37200 33.28800
H  36.22200 55.24200 26.71200
H  35.84400 54.27800 27.99100
H  34.54900 54.79000 26.76800
H  36.05400 56.25600 23.07200
H  36.95000 55.96100 24.43000
H  35.16400 55.82400 24.55000
H  37.60500 49.32700 20.90300
H  36.64000 46.75100 21.28200
H  35.06100 47.95000 20.35800
H  35.92700 49.31900 19.65000
H  34.74500 49.59000 20.97800
H  38.93700 47.30600 23.04600
H  39.11800 47.93700 21.40500
H  39.84900 45.18600 22.06400
H  39.86400 45.93500 20.51900
H  38.33100 45.31900 21.07800
H  36.26600 43.08400 24.77100
H  36.92500 42.62400 26.37200
H  37.91200 43.41900 25.11800
H  37.20900 45.87100 30.46200
H  33.43000 44.57400 32.34700
H  34.51900 45.34800 33.59100
H  34.72500 43.63900 33.20300

