158

Mg 40.77200 8.88500 29.84700
C  42.60300 10.46300 32.40100
C  38.68900 7.51500 32.29400
C  38.89800 7.78500 27.39400
C  43.32900 9.69100 27.64700
N  40.66300 9.10300 32.11700
C  41.44900 9.81400 32.91700
C  41.08800 9.65800 34.34700
C  39.85500 8.62600 34.37900
C  39.70600 8.31800 32.86700
C  40.14800 7.29900 35.05000
C  40.50900 11.02400 34.82200
C  39.95000 11.00500 36.30700
H  40.51600 12.00600 37.28700
N  39.03000 7.73500 29.82400
C  38.36200 7.24200 30.92200
C  37.22200 6.49100 30.43100
C  37.17400 6.73500 28.99400
C  38.32400 7.42900 28.65900
C  36.21900 5.72700 31.26500
C  36.05200 6.33900 27.92700
O  36.19100 6.44000 26.72800
C  34.74700 5.72600 28.39700
N  41.08200 8.70800 27.81900
C  40.09400 8.28600 26.97900
C  40.63600 8.31100 25.53300
C  42.08400 8.80400 25.64700
C  42.14700 9.08300 27.13700
C  40.56100 6.85400 24.84200
C  42.33200 9.99500 24.74300
C  41.64300 11.35800 25.00300
N  42.49200 9.95400 29.94500
C  43.38800 10.29200 28.93500
C  44.49600 11.06900 29.52500
C  44.18000 11.23000 30.87500
C  42.99200 10.51600 31.08200
C  45.81600 11.45200 28.96000
C  44.63600 11.78700 32.14300
O  45.69500 12.34400 32.39400
C  43.61100 11.40400 33.19300
C  44.34200 10.75300 34.26100
O  45.10600 9.79700 34.17900
O  43.91900 11.37100 35.44000
C  44.08500 10.62000 36.62000
H  38.05600 6.97100 32.99700
H  38.28800 7.39000 26.57800
H  44.18600 9.80600 26.98000
H  41.96800 9.45000 34.95500
H  38.87000 8.93600 34.72900
H  40.04700 6.53200 34.28200
H  39.33100 7.37500 35.76700
H  41.12800 7.36000 35.52200
H  39.72500 11.27100 34.10600
H  41.35300 11.69200 34.65000
H  40.22300 10.02900 36.70700
H  38.87600 11.18500 36.25900
H  36.10500 4.78200 30.73500
H  35.30500 6.29000 31.45800
H  36.49200 5.56100 32.30700
H  34.23800 5.27000 27.54800
H  34.22600 6.38300 29.09300
H  35.07900 4.84700 28.94900
H  40.10500 8.97100 24.84600
H  42.71600 7.96600 25.35500
H  40.65100 6.12300 25.64600
H  41.37200 6.59900 24.15900
H  39.62600 6.88300 24.28300
H  42.23100 9.60100 23.73200
H  43.38200 10.28000 24.68500
H  40.76300 11.05000 25.56800
H  41.20400 11.76000 24.09000
H  42.34800 12.12100 25.33300
H  45.47600 12.13900 28.18500
H  46.40200 10.61300 28.58700
H  46.38700 11.94600 29.74600
H  43.20100 12.37800 33.45800
H  43.81100 11.25600 37.46200
H  45.14800 10.38700 36.55700
H  43.35900 9.82700 36.43900
Mg 6.34900 53.82700 41.06900
C  5.94900 50.25100 40.80800
C  9.47200 53.35900 39.70200
C  6.42800 57.10500 40.41900
C  3.05600 53.91300 41.82900
N  7.45400 51.96800 40.17100
C  7.16100 50.66900 40.19200
C  8.36600 49.70500 39.83800
C  9.53400 50.70600 39.84700
C  8.77800 52.10600 39.86900
C  10.50200 50.55900 41.08800
C  8.21300 48.94300 38.46800
C  7.90900 49.73200 37.27900
H  6.87600 49.29900 36.26500
N  7.84100 55.16800 40.35600
C  9.09400 54.75700 39.86900
C  9.90100 55.94900 39.82000
C  9.02200 57.06800 39.93300
C  7.69700 56.54300 40.27300
C  11.42800 55.95300 39.52300
C  9.38000 58.51100 39.90500
O  10.52900 58.82600 39.62600
C  8.35100 59.68200 40.06500
N  4.87100 55.26800 40.81100
C  5.11400 56.62200 40.59600
C  3.86100 57.50700 40.91600
C  2.87900 56.37300 41.17300
C  3.69200 55.11300 41.44000
C  4.02400 58.52900 42.05700
C  1.83400 56.09400 40.07600
C  0.45600 56.74000 40.19400
N  4.81800 52.39900 41.45300
C  3.54500 52.60900 41.76500
C  2.84100 51.40400 42.13000
C  3.83300 50.38000 41.80200
C  4.93500 51.08900 41.29600
C  1.47700 51.19900 42.75600
C  4.11000 49.00200 41.79700
O  3.45900 48.02200 42.19500
C  5.49100 48.83600 41.04800
C  5.16600 48.02000 39.91600
O  4.78900 48.38000 38.78200
O  5.39600 46.71900 40.27300
C  4.89800 45.77900 39.31200
H  10.46000 53.23300 39.25500
H  6.31200 58.19100 40.44000
H  2.05800 54.17700 42.18600
H  8.48200 49.02100 40.67900
H  10.19200 50.57900 38.98700
H  10.40100 51.44400 41.71500
H  11.52300 50.51800 40.70700
H  10.20700 49.74200 41.74600
H  7.52000 48.10300 38.51400
H  9.21600 48.52200 38.38300
H  8.82500 49.90100 36.71200
H  7.61100 50.71100 37.65600
H  11.76500 55.00500 39.10400
H  11.97300 56.23000 40.42500
H  11.68100 56.67800 38.74900
H  8.95800 60.56800 39.87700
H  7.87200 59.74600 41.04200
H  7.73100 59.59200 39.17200
H  3.54800 57.94900 39.97000
H  2.35900 56.63700 42.09400
H  3.34600 58.47100 42.90800
H  3.78800 59.46500 41.55100
H  5.05700 58.55600 42.40200
H  1.70700 55.04400 39.81500
H  2.19800 56.51400 39.13900
H  0.44200 57.82400 40.08400
H  0.09400 56.44600 41.18000
H  -0.16500 56.21500 39.46900
H  0.68400 51.80700 42.31900
H  1.47000 51.25100 43.84500
H  1.23300 50.19400 42.41300
H  6.03500 48.23100 41.77400
H  3.88700 46.07100 39.02500
H  4.84600 44.75000 39.66700
H  5.55000 45.75600 38.44000

