158

Mg 8.87700 47.55000 27.56700
C  6.68500 47.16300 30.22800
C  11.27100 48.42600 29.75300
C  10.73500 48.46300 25.02000
C  5.94700 47.52800 25.40300
N  8.88200 47.74400 29.73100
C  7.97300 47.48200 30.65200
C  8.51100 47.60500 32.06200
C  9.95200 48.09300 31.94400
C  10.02800 48.16600 30.38200
C  10.35000 49.46600 32.67200
C  8.42700 46.32300 32.95400
C  9.16700 46.22800 34.34200
H  8.50000 45.64100 35.55900
N  10.80900 48.14700 27.36000
C  11.68300 48.38400 28.39100
C  12.96100 48.81100 27.88200
C  12.86300 48.72600 26.46400
C  11.46900 48.37000 26.17700
C  14.16200 48.99000 28.73200
C  13.91200 48.94000 25.32400
O  13.80700 48.67500 24.13100
C  15.21000 49.53200 25.61300
N  8.39300 47.88700 25.57600
C  9.36700 48.34100 24.74200
C  8.81200 48.73700 23.33700
C  7.28200 48.31200 23.41500
C  7.18100 47.89800 24.83100
C  8.99000 50.24100 23.05300
C  6.97900 47.02400 22.52500
C  6.57300 47.37200 21.09300
N  6.73000 47.24700 27.71200
C  5.71000 47.28400 26.77900
C  4.44100 46.91000 27.37300
C  4.78900 46.79900 28.71700
C  6.17700 47.11200 28.86300
C  3.24100 46.72800 26.58000
C  4.25400 46.48700 30.01200
O  3.13200 46.11200 30.36900
C  5.42200 46.65900 30.98600
C  5.70300 45.22300 31.44300
O  6.47800 44.42300 30.92700
O  4.97200 45.01300 32.61100
C  5.15500 43.70600 33.33100
H  11.98700 48.68500 30.53600
H  11.41000 48.87400 24.26600
H  5.05000 47.58400 24.78200
H  8.02900 48.41800 32.60400
H  10.68800 47.37500 32.30700
H  10.12000 50.28100 31.98500
H  11.41700 49.31700 32.83300
H  9.74600 49.68400 33.55400
H  8.75800 45.45600 32.38200
H  7.37900 46.21100 33.23000
H  9.40700 47.24300 34.66000
H  10.10200 45.77400 34.01300
H  14.94600 48.31300 28.39300
H  14.00100 48.79400 29.79200
H  14.53600 50.00400 28.59200
H  15.12100 50.37900 26.29500
H  15.55200 49.90400 24.64700
H  15.90800 48.92400 26.18900
H  9.30400 48.07300 22.62700
H  6.67800 49.21700 23.34500
H  9.70400 50.61800 23.78600
H  8.06600 50.80400 23.18300
H  9.46200 50.53200 22.11500
H  6.22700 46.38900 22.99200
H  7.83100 46.34400 22.53200
H  7.29300 46.87100 20.44700
H  6.40300 48.41400 20.82300
H  5.68100 46.82800 20.78200
H  3.42600 46.10100 25.70800
H  2.92200 47.72800 26.28700
H  2.52200 46.27200 27.26000
H  5.16200 47.24100 31.87000
H  6.12500 43.78500 33.82200
H  5.31700 42.86900 32.65100
H  4.26900 43.57200 33.95200
Mg -10.01000 17.73000 42.25000
C  -6.54700 17.26100 42.29400
C  -9.47200 21.01800 41.72400
C  -13.21100 17.94300 41.47500
C  -10.21000 14.18900 42.28500
N  -8.12900 18.99100 42.08600
C  -6.86500 18.61400 42.10900
C  -5.90800 19.77300 41.99200
C  -6.89400 21.04200 41.94100
C  -8.23400 20.33700 41.94800
C  -6.78900 22.10800 43.14800
C  -4.92200 19.62300 40.79900
C  -5.37100 18.85500 39.53200
H  -4.73000 19.26800 38.16500
N  -11.21700 19.34200 41.80400
C  -10.76800 20.57200 41.70600
C  -11.91200 21.45200 41.38400
C  -13.03400 20.58600 41.33300
C  -12.51400 19.21700 41.47400
C  -11.87400 22.88500 40.89600
C  -14.61000 21.05300 41.10700
O  -14.83600 22.19300 40.86400
C  -15.75400 20.15200 41.30400
N  -11.53300 16.25700 41.66600
C  -12.77400 16.63000 41.67100
C  -13.76000 15.46400 41.68900
C  -12.78200 14.28400 41.94300
C  -11.40000 14.90400 42.02000
C  -15.00000 15.58900 42.64500
C  -12.82000 13.12600 40.80700
C  -13.68900 11.96100 41.13900
N  -8.73200 16.02300 42.38900
C  -8.96400 14.73700 42.56900
C  -7.79700 13.97300 42.87600
C  -6.81900 14.95200 42.77300
C  -7.40000 16.17000 42.46300
C  -7.57700 12.51900 43.10800
C  -5.37400 15.12600 42.73900
O  -4.46700 14.34000 42.91700
C  -5.18000 16.63400 42.56900
C  -4.44800 17.03300 43.76200
O  -3.23700 17.05100 43.80300
O  -5.19200 17.40300 44.82300
C  -4.45900 18.04900 45.88500
H  -9.32200 22.07300 41.48600
H  -14.29000 18.11500 41.46800
H  -10.46500 13.15600 42.52800
H  -5.37800 19.89700 42.93700
H  -6.84000 21.60600 41.01000
H  -5.76700 22.44500 43.32100
H  -7.31000 21.72600 44.02600
H  -7.35700 22.95000 42.75100
H  -4.01100 19.13100 41.14100
H  -4.58200 20.61100 40.48800
H  -6.39100 18.47900 39.45600
H  -4.78800 17.94600 39.67600
H  -12.81000 23.36600 41.18000
H  -11.86900 23.03700 39.81600
H  -10.99200 23.33300 41.35200
H  -15.86000 19.54000 40.40800
H  -16.55400 20.88400 41.41000
H  -15.51800 19.62600 42.22900
H  -14.19200 15.24300 40.71300
H  -12.95300 13.67000 42.82700
H  -15.12500 16.58800 43.06400
H  -15.06800 14.73700 43.32100
H  -15.84900 15.60900 41.96200
H  -11.84000 12.66500 40.68800
H  -13.18000 13.41300 39.81900
H  -14.54300 11.92700 40.46300
H  -14.14500 12.12600 42.11600
H  -13.10800 11.04700 41.26000
H  -8.30000 11.98000 42.49600
H  -7.78600 12.22200 44.13600
H  -6.57500 12.25000 42.77200
H  -4.46200 16.73800 41.75500
H  -5.21900 18.32900 46.61300
H  -3.97800 18.93300 45.46600
H  -3.81300 17.28800 46.32300

