158

Mg 35.45100 2.17500 29.17800
C  33.56500 3.40000 31.96400
C  38.10100 1.83100 31.28400
C  37.26700 1.20700 26.61900
C  32.85400 3.22000 27.09000
N  35.76800 2.56600 31.39200
C  34.87300 3.06500 32.30100
C  35.51100 3.03100 33.69200
C  37.05300 2.99800 33.27300
C  36.99900 2.46700 31.88200
C  37.62000 4.40400 33.34900
C  35.10600 1.79600 34.61800
C  34.66000 2.09500 36.07400
H  35.22400 3.34500 36.69900
N  37.37100 1.38300 28.96800
C  38.25900 1.34000 30.01300
C  39.52100 0.73100 29.48200
C  39.35100 0.58300 28.07900
C  37.96000 1.04500 27.78500
C  40.74700 0.42000 30.36600
C  40.28400 -0.07200 27.13000
O  39.92900 -0.31800 25.96800
C  41.62600 -0.63900 27.47000
N  35.08400 2.22800 27.14000
C  35.97600 1.66500 26.26000
C  35.54700 1.76000 24.81100
C  34.02200 2.21500 24.99000
C  33.93300 2.48800 26.51000
C  36.44300 2.51600 23.77200
C  32.90700 1.36500 24.43300
C  32.69300 -0.12700 24.88500
N  33.64500 3.05900 29.42900
C  32.69300 3.43900 28.44700
C  31.51500 3.94200 29.09400
C  31.74100 3.95000 30.45600
C  33.09000 3.44300 30.60700
C  30.20700 4.36700 28.58400
C  31.26200 4.17600 31.79600
O  30.18100 4.57800 32.19000
C  32.45800 3.92800 32.85600
C  32.78900 5.23700 33.56200
O  33.64000 5.98600 33.17900
O  31.86900 5.44000 34.59800
C  31.98200 6.74100 35.21200
H  38.91000 1.85100 32.01800
H  37.86800 0.87800 25.76900
H  32.00800 3.44200 26.43700
H  35.14200 3.88800 34.25500
H  37.57600 2.42200 34.03700
H  38.15000 4.65000 32.42900
H  38.34800 4.44400 34.15900
H  36.86000 5.14700 33.59000
H  35.86800 1.02200 34.70900
H  34.19000 1.38400 34.19700
H  35.14700 1.27200 36.59600
H  33.57300 2.10100 36.15500
H  40.81100 0.84200 31.36900
H  41.64300 0.75100 29.84100
H  40.92100 -0.65200 30.45300
H  41.61700 -1.45000 28.19800
H  42.11600 0.26800 27.82500
H  42.13000 -1.01300 26.57900
H  35.44300 0.75700 24.39500
H  33.90500 3.25100 24.67100
H  37.40300 2.82200 24.18800
H  35.95400 3.43700 23.45700
H  36.63200 1.91000 22.88600
H  32.87000 1.44300 23.34600
H  31.94500 1.76900 24.74600
H  32.46900 -0.70300 23.98700
H  31.82400 -0.18800 25.54000
H  33.64500 -0.46200 25.29600
H  29.97800 5.43000 28.51100
H  29.40100 3.83400 29.08800
H  30.13600 4.03500 27.54800
H  32.08500 3.12600 33.49400
H  31.76800 7.39200 34.36400
H  32.97200 6.85200 35.65200
H  31.17900 6.88700 35.93500
Mg 49.25800 46.33100 43.09300
C  46.10000 46.87500 42.12800
C  49.18000 43.24600 41.39000
C  52.75500 46.03500 43.23000
C  49.55500 49.72100 44.06400
N  47.80900 45.30400 41.79300
C  46.56500 45.61700 41.60500
C  45.88400 44.64700 40.63100
C  46.77500 43.33400 40.76600
C  47.99700 43.96000 41.37700
C  46.11900 42.27700 41.68500
C  46.01700 45.22000 39.18000
C  44.80200 45.04900 38.20900
H  45.00100 44.03500 37.15500
N  50.74700 44.78800 42.59500
C  50.47300 43.63400 41.81000
C  51.78000 42.90900 41.58500
C  52.73200 43.62000 42.30700
C  52.12900 44.86700 42.80000
C  51.94600 41.60500 40.86900
C  54.14900 43.21900 42.45400
O  54.41000 42.16600 41.96300
C  55.11900 44.02200 43.24100
N  50.90100 47.66500 43.51000
C  52.21100 47.30000 43.57200
C  53.08400 48.51400 44.03700
C  52.06800 49.59300 44.37400
C  50.74000 48.91600 44.03900
C  54.13000 48.24900 45.10800
C  52.16200 51.07900 43.76000
C  52.18600 52.23500 44.85300
N  48.09000 47.99500 43.22600
C  48.29300 49.25300 43.69000
C  46.94700 49.87100 43.80500
C  46.07700 48.94300 43.18800
C  46.86000 47.85100 42.78600
C  46.56000 51.19100 44.36900
C  44.67700 48.79200 42.80100
O  43.72300 49.52700 42.88700
C  44.67400 47.42500 42.12800
C  43.85700 46.47300 42.99900
O  44.36200 45.72500 43.81700
O  42.49000 46.66100 42.81000
C  41.52400 45.96700 43.69300
H  49.04400 42.28000 40.89900
H  53.81700 46.09000 43.48000
H  49.74600 50.75500 44.36000
H  44.82700 44.58500 40.88900
H  46.89500 42.89900 39.77400
H  46.32900 42.39400 42.74800
H  46.40000 41.27900 41.34800
H  45.02900 42.31000 41.67700
H  46.94200 44.89400 38.70400
H  46.26800 46.27900 39.24900
H  44.51500 46.01900 37.80200
H  43.95600 44.66600 38.77900
H  50.97300 41.36500 40.44100
H  52.22100 40.78100 41.52800
H  52.72100 41.65300 40.10400
H  56.02800 43.42600 43.33000
H  54.65900 44.15700 44.22000
H  55.44700 44.99000 42.86300
H  53.69000 48.78800 43.17400
H  51.86200 49.78000 45.42800
H  54.38100 47.23000 45.40200
H  53.77100 48.70100 46.03200
H  55.06700 48.74300 44.85400
H  51.42800 51.26300 42.97500
H  53.16500 51.25800 43.37300
H  51.66500 52.14100 45.80600
H  51.70600 53.09700 44.39100
H  53.23600 52.46400 45.03700
H  45.68400 51.09300 45.00900
H  46.24100 51.74000 43.48300
H  47.28900 51.78300 44.92300
H  44.39900 47.56600 41.08300
H  41.00900 45.15400 43.18100
H  40.76800 46.67500 44.03400
H  41.90900 45.36200 44.51400

