158

Mg 30.57400 58.09500 40.44200
C  27.69800 56.30100 39.56700
C  32.55600 55.70500 39.17300
C  33.24200 60.23800 40.53700
C  28.43300 60.84100 41.24600
N  30.11700 56.29400 39.37400
C  28.89300 55.66200 39.21800
C  29.02400 54.19400 38.71300
C  30.57800 54.08600 38.75300
C  31.17300 55.46300 39.16400
C  31.02800 52.98700 39.71000
C  28.27400 53.80300 37.39800
C  29.05900 53.90500 36.06700
H  28.21800 54.11600 34.84900
N  32.66200 58.00000 40.07200
C  33.23900 56.88100 39.50500
C  34.68800 57.04800 39.51800
C  34.92500 58.35200 40.01100
C  33.54900 58.94700 40.21200
C  35.69600 55.97800 39.13900
C  36.30500 59.02600 40.33900
O  37.39100 58.38600 40.21300
C  36.49800 60.49400 40.70600
N  30.82100 60.18900 40.87400
C  32.04000 60.80900 40.94400
C  31.86800 62.29600 41.11500
C  30.35300 62.44800 41.51200
C  29.81600 61.07600 41.18700
C  32.81800 63.09300 42.08700
C  29.49600 63.73600 40.92600
C  28.75700 64.58000 42.01700
N  28.47400 58.52100 40.52000
C  27.70600 59.68100 40.85000
C  26.26800 59.34400 40.56600
C  26.27700 57.99100 40.29600
C  27.57400 57.59600 40.13300
C  25.08600 60.20900 40.72600
C  25.35600 56.86400 40.09500
O  24.14700 56.85100 40.21600
C  26.30400 55.76800 39.48400
C  26.11200 54.60800 40.36100
O  26.64000 54.42300 41.43500
O  25.23800 53.64500 39.79800
C  24.89700 52.41200 40.69200
H  33.27500 54.93300 38.89300
H  33.89700 61.10100 40.40100
H  27.82600 61.68000 41.59400
H  28.61200 53.50300 39.44900
H  30.99300 53.84700 37.77400
H  31.47700 53.33600 40.64000
H  31.76800 52.40500 39.16100
H  30.23500 52.25700 39.86700
H  27.36600 54.40000 37.32000
H  27.99100 52.77500 37.62100
H  29.65100 52.99800 35.94400
H  29.88600 54.59900 36.21700
H  36.48600 56.44200 38.54900
H  35.20600 55.34800 38.39700
H  36.02000 55.36000 39.97700
H  35.87200 60.69500 41.57500
H  36.21100 61.08100 39.83400
H  37.55800 60.69100 40.86600
H  31.94600 62.83400 40.17100
H  30.36000 62.32100 42.59400
H  32.30600 63.54400 42.93600
H  33.28000 63.79100 41.38800
H  33.59800 62.50200 42.56600
H  28.82900 63.38900 40.13600
H  30.21000 64.43000 40.48200
H  29.40100 65.45500 42.09900
H  28.68600 64.04700 42.96600
H  27.74700 64.85600 41.71300
H  25.13700 60.95400 41.52000
H  24.10900 59.73900 40.83500
H  25.11600 60.76500 39.78900
H  26.03500 55.70900 38.43000
H  25.54300 51.56800 40.45000
H  23.85000 52.11400 40.64900
H  24.98200 52.53700 41.77200
Mg 9.92600 47.28700 26.69400
C  8.00600 47.27700 29.55700
C  12.62500 48.38900 28.41600
C  11.64700 47.30300 23.75600
C  7.04900 46.42100 24.88800
N  10.23500 47.67600 28.80100
C  9.33200 47.57100 29.83600
C  9.99400 47.87400 31.16400
C  11.33900 48.68100 30.68700
C  11.39900 48.26000 29.21900
C  11.23700 50.23000 30.75100
C  10.24600 46.57500 32.08800
C  9.68800 46.78100 33.50700
H  9.67700 45.50000 34.37900
N  11.92500 47.56900 26.17900
C  12.90700 48.07800 27.03000
C  14.14800 48.18500 26.35000
C  13.87800 47.64400 25.01900
C  12.43800 47.55600 24.90500
C  15.40500 48.77300 26.97000
C  14.87100 47.36900 23.88100
O  14.53200 47.03400 22.76400
C  16.30800 47.50500 24.04400
N  9.46500 46.84800 24.62700
C  10.31800 46.96000 23.52700
C  9.72700 46.41000 22.23700
C  8.33700 45.98800 22.70600
C  8.22800 46.47100 24.12700
C  9.73100 47.49400 21.10200
C  8.15000 44.42600 22.64200
C  9.34700 43.56500 23.10400
N  7.86200 47.01500 27.10500
C  6.87300 46.67500 26.29000
C  5.63900 46.55300 27.05200
C  6.03800 46.83500 28.38500
C  7.39200 47.08100 28.32600
C  4.27100 46.18500 26.51100
C  5.64000 47.03200 29.72500
O  4.53000 47.02200 30.20600
C  6.92700 47.15500 30.59400
C  6.93000 45.88100 31.40300
O  7.49400 44.82400 31.12000
O  6.16000 46.15100 32.48500
C  5.85500 44.91500 33.25400
H  13.47200 48.78000 28.98400
H  12.12500 47.37600 22.77700
H  6.14700 45.94900 24.49400
H  9.42400 48.58700 31.76000
H  12.22700 48.39700 31.25000
H  11.52700 50.70400 29.81400
H  12.01300 50.47800 31.47500
H  10.27500 50.66800 31.01500
H  11.33400 46.50400 32.10500
H  9.69200 45.71600 31.71100
H  8.70400 47.22100 33.34800
H  10.33200 47.50900 34.00000
H  15.94100 49.21100 26.12800
H  15.96500 47.95300 27.41900
H  15.27400 49.50000 27.77100
H  16.69400 47.04800 24.95500
H  16.50000 48.54800 23.79200
H  16.76500 46.91300 23.25100
H  10.36600 45.56900 21.96800
H  7.55600 46.50000 22.14300
H  10.26800 47.12500 20.22900
H  10.21000 48.36600 21.54800
H  8.73800 47.82100 20.79100
H  7.81800 44.10800 21.65400
H  7.24200 44.15000 23.17900
H  10.01500 43.22300 22.31400
H  8.99900 42.69700 23.66500
H  9.88900 44.16900 23.83300
H  3.79700 47.03900 26.02900
H  3.65100 46.22400 27.40700
H  4.28500 45.26100 25.93200
H  6.89700 48.04900 31.21700
H  5.95900 44.00700 32.66000
H  4.83200 44.93400 33.63000
H  6.49800 44.69700 34.10700

