158

Mg 43.24500 3.46400 46.98600
C  41.18300 6.23800 46.95800
C  40.33400 1.43200 47.26700
C  45.13800 0.73200 46.24500
C  46.03800 5.53300 46.40600
N  40.98400 3.80300 47.08100
C  40.45800 5.05900 47.09600
C  38.91700 4.98300 47.25000
C  38.70400 3.44000 47.77300
C  40.03000 2.79900 47.23600
C  38.58800 3.32100 49.29000
C  37.97900 5.24400 45.96600
C  38.61300 4.92700 44.60500
H  39.00800 5.99200 43.56300
N  42.82100 1.41700 46.75200
C  41.55100 0.73300 47.00600
C  41.72200 -0.69700 46.70300
C  43.10000 -0.88000 46.20600
C  43.75500 0.43500 46.34100
C  40.58700 -1.72300 46.82300
C  43.66100 -2.11800 45.63900
O  43.14300 -3.24700 45.69800
C  44.97900 -2.13600 44.83600
N  45.28500 3.11900 46.41600
C  45.80200 1.92600 46.27400
C  47.36500 1.92600 46.12800
C  47.74700 3.50500 46.20400
C  46.26000 4.14200 46.23700
C  48.15200 1.03700 47.15600
C  48.74200 4.06000 45.13000
C  49.99600 3.28000 44.74200
N  43.62200 5.48700 46.80400
C  44.78100 6.19000 46.46200
C  44.47800 7.58800 46.56000
C  43.11000 7.58800 46.77800
C  42.58000 6.36300 46.85700
C  45.37200 8.65000 46.41100
C  41.95600 8.51100 46.92300
O  41.96400 9.75900 46.96900
C  40.69500 7.70100 47.00300
C  39.97100 8.11200 48.21200
O  40.08400 7.64800 49.33600
O  39.16700 9.18800 47.91100
C  38.53900 9.71800 49.13200
H  39.39300 0.90000 47.41800
H  45.76100 -0.16200 46.16500
H  46.92900 6.14700 46.26100
H  38.69500 5.77900 47.96100
H  37.78600 3.01400 47.36900
H  38.61600 4.27900 49.81000
H  39.53600 2.85500 49.56000
H  37.74900 2.73400 49.66400
H  37.75000 6.31000 45.97900
H  37.03600 4.75000 46.20100
H  37.80300 4.28600 44.26000
H  39.50900 4.33400 44.78700
H  40.79500 -2.38500 47.66400
H  40.66200 -2.35500 45.93800
H  39.56900 -1.38500 47.01200
H  45.78900 -2.41300 45.51100
H  45.22500 -1.17700 44.38100
H  45.05500 -2.89200 44.05500
H  47.57800 1.61200 45.10600
H  48.07800 3.68900 47.22600
H  47.51900 0.63000 47.94400
H  49.04500 1.45700 47.61800
H  48.44200 0.08100 46.71900
H  49.12200 5.04700 45.39400
H  48.10600 4.26100 44.26700
H  50.07700 2.45600 45.45100
H  50.83200 3.96400 44.88600
H  50.19200 2.97600 43.71400
H  44.97500 9.53500 46.90700
H  45.47100 8.72500 45.32800
H  46.39400 8.44600 46.73200
H  40.16000 8.00900 46.10500
H  38.01100 10.56400 48.69300
H  39.14500 9.87800 50.02400
H  37.82200 8.91700 49.31400
Mg 36.18500 1.13500 29.23900
C  33.96000 2.31300 31.84100
C  38.72300 1.51100 31.56400
C  38.12400 0.54300 26.80900
C  33.33200 1.54000 27.02900
N  36.35400 1.86600 31.48400
C  35.27100 2.10600 32.31100
C  35.68500 2.13700 33.82600
C  37.23700 2.16200 33.57300
C  37.48600 1.75800 32.16000
C  37.92300 3.42800 34.21700
C  35.26500 0.87700 34.61100
C  34.71400 1.08200 36.04800
H  35.03600 2.29700 36.92700
N  38.17500 0.83200 29.16300
C  39.05100 1.00500 30.21800
C  40.40300 0.61200 29.79500
C  40.30000 0.37300 28.34000
C  38.83500 0.55500 28.04000
C  41.57500 0.38700 30.70700
C  41.35400 0.08800 27.25200
O  41.14000 0.09600 26.05400
C  42.73300 -0.13100 27.65800
N  35.74600 1.19300 27.13000
C  36.79300 0.87700 26.41200
C  36.39000 0.56400 24.97600
C  34.84100 0.64500 25.01600
C  34.55000 1.17200 26.42700
C  37.02000 1.51200 23.88000
C  33.96800 -0.69200 24.71800
C  32.85500 -0.52400 23.62800
N  34.12200 1.87300 29.32100
C  33.08900 1.89100 28.40900
C  31.84400 2.47000 28.97600
C  32.08400 2.58200 30.34900
C  33.47200 2.19200 30.54300
C  30.63100 2.79800 28.17100
C  31.58200 3.00400 31.55900
O  30.54500 3.52800 31.78400
C  32.68800 2.66200 32.64500
C  32.77200 3.90500 33.48400
O  33.59100 4.73100 33.27000
O  31.89300 3.84800 34.52400
C  32.25600 4.83200 35.55000
H  39.56700 1.46500 32.25600
H  38.67800 0.11900 25.96900
H  32.51500 1.52800 26.30400
H  35.27000 3.04700 34.25800
H  37.68500 1.39500 34.20500
H  38.51500 3.19700 35.10300
H  37.10900 4.04900 34.59200
H  38.52000 3.97000 33.48400
H  35.99500 0.06800 34.65100
H  34.36600 0.58100 34.07100
H  35.10700 0.21400 36.57800
H  33.62800 1.01700 35.98400
H  42.17500 1.29200 30.80500
H  42.18600 -0.47500 30.43900
H  41.21300 0.14900 31.70700
H  43.52300 -0.21500 26.91200
H  42.81100 -1.10700 28.13800
H  43.08200 0.70700 28.26200
H  36.68000 -0.45700 24.73000
H  34.43900 1.42200 24.36600
H  38.09100 1.66900 24.01400
H  36.55000 2.49400 23.94800
H  37.01400 1.03000 22.90200
H  33.51800 -1.05200 25.64400
H  34.60500 -1.49700 24.35200
H  31.90500 -0.93300 23.97300
H  33.11800 -1.06600 22.71900
H  32.72600 0.54400 23.45000
H  30.23800 3.77800 28.44200
H  29.90200 2.00200 28.32700
H  30.95900 2.98000 27.14800
H  32.37900 1.70200 33.05800
H  31.74200 5.78800 35.45500
H  33.31000 5.05000 35.72500
H  31.97900 4.18100 36.37900

