158

Mg 48.51500 16.53700 28.87600
C  46.28300 16.27800 31.74800
C  50.81200 18.12300 30.89100
C  50.24900 17.01400 26.10300
C  45.71500 15.53400 26.95800
N  48.42200 17.23700 31.01600
C  47.52900 16.89500 32.04600
C  48.08800 17.36400 33.44800
C  49.34300 18.25700 32.96300
C  49.58700 17.77100 31.54500
C  49.22400 19.73600 33.22700
C  48.31500 16.19200 34.47400
C  47.48700 16.45800 35.84200
H  47.41400 17.92500 36.34200
N  50.31400 17.33500 28.54500
C  51.13600 17.84800 29.48600
C  52.38300 18.24000 28.77500
C  52.24800 17.91800 27.40200
C  50.86600 17.40000 27.30400
C  53.54800 19.00800 29.47000
C  53.27900 18.04200 26.23800
O  53.19300 17.59500 25.10400
C  54.60600 18.63900 26.63900
N  48.02800 16.33500 26.87600
C  49.02200 16.41300 25.94400
C  48.42400 16.10700 24.53100
C  47.00100 15.53900 24.87200
C  46.92300 15.75500 26.34100
C  48.37900 17.44000 23.74200
C  46.81000 14.11600 24.42600
C  46.20500 13.80600 23.05800
N  46.47200 15.84000 29.24000
C  45.45300 15.53300 28.29900
C  44.25600 15.16400 29.03300
C  44.52800 15.42700 30.39700
C  45.85600 15.97400 30.42500
C  43.01100 14.70200 28.54300
C  43.98500 15.38900 31.70100
O  42.89500 14.89600 32.09800
C  45.13800 15.89700 32.63300
C  44.59300 17.07900 33.40800
O  44.32900 18.22000 32.98700
O  44.14400 16.52100 34.59500
C  43.42100 17.38300 35.50000
H  51.54600 18.58800 31.55300
H  50.94700 17.10200 25.26800
H  44.93500 15.31500 26.22600
H  47.36500 18.11700 33.76500
H  50.15700 17.98200 33.63300
H  50.18000 20.13600 33.56700
H  48.49900 19.97900 34.00300
H  48.85800 20.34200 32.39800
H  49.38900 16.06000 34.60300
H  47.94000 15.30800 33.95900
H  48.02700 15.83900 36.55800
H  46.49000 16.10800 35.57300
H  53.74100 19.96700 28.98900
H  54.39800 18.32500 29.47000
H  53.23900 19.14900 30.50600
H  54.79100 19.70700 26.75500
H  55.30900 18.42900 25.83200
H  55.09900 18.17900 27.49500
H  49.10600 15.41900 24.03300
H  46.28500 16.14200 24.31400
H  48.55800 17.10600 22.72000
H  49.10900 18.22900 23.91800
H  47.43400 17.98300 23.76000
H  46.08700 13.67100 25.11000
H  47.79400 13.65000 24.46600
H  46.96800 13.55600 22.32100
H  45.70200 14.73000 22.77600
H  45.51100 12.97300 23.17000
H  42.44200 15.42800 27.96100
H  42.38700 14.52700 29.41900
H  43.13600 13.76400 28.00200
H  45.34500 15.11400 33.36200
H  42.44800 17.68900 35.11500
H  44.01300 18.28600 35.65000
H  43.28500 16.85300 36.44200
Mg 48.16200 25.08400 28.27800
C  49.33100 27.51100 30.69400
C  47.46200 23.14900 30.96900
C  47.71300 22.72900 26.04300
C  49.95200 27.02100 25.79300
N  48.33700 25.36200 30.62300
C  48.72000 26.49000 31.32700
C  48.55400 26.23500 32.79100
C  48.13500 24.72200 32.87200
C  48.01000 24.37100 31.38900
C  49.11300 23.81500 33.66000
C  47.55800 27.19700 33.42700
C  47.67100 27.36000 34.95000
H  46.40900 27.64500 35.74600
N  47.39800 23.26300 28.42200
C  47.16900 22.54900 29.64500
C  46.59800 21.23500 29.35200
C  46.62600 21.20200 27.91000
C  47.27600 22.41200 27.37800
C  46.16100 20.23900 30.45200
C  46.13700 20.12100 26.98400
O  46.37200 20.12300 25.77500
C  45.54200 18.97500 27.65500
N  48.83000 24.90300 26.28200
C  48.31400 23.86900 25.52700
C  48.78000 23.95800 24.05200
C  49.20700 25.47900 23.96500
C  49.38200 25.80300 25.42100
C  49.93700 22.98700 23.70100
C  48.20400 26.52200 23.31500
C  48.75200 27.90600 22.91100
N  49.35600 26.89000 28.14400
C  49.92100 27.53700 27.06600
C  50.55000 28.74700 27.49900
C  50.22300 28.86000 28.87600
C  49.55900 27.65200 29.24100
C  51.45400 29.61100 26.63100
C  50.38800 29.66000 30.04900
O  50.88100 30.78100 30.07800
C  49.77200 28.88100 31.30400
C  50.89300 28.76400 32.28000
O  51.83600 27.96300 32.20000
O  50.61800 29.45200 33.48700
C  51.37200 29.07000 34.71100
H  47.09900 22.49100 31.76200
H  47.38800 21.97300 25.32500
H  50.40900 27.63900 25.01800
H  49.51700 26.40400 33.27200
H  47.14100 24.58100 33.29700
H  49.77600 24.34900 34.34000
H  49.73800 23.26100 32.96000
H  48.44400 23.17000 34.23000
H  46.56700 26.76300 33.29200
H  47.62900 28.15400 32.90800
H  48.42600 28.13100 35.10500
H  48.21600 26.44900 35.19600
H  46.17600 20.65000 31.46200
H  46.69000 19.28600 30.45400
H  45.11800 19.95300 30.31900
H  44.63700 19.15100 28.23600
H  46.23100 18.28700 28.14200
H  45.02000 18.46200 26.84700
H  47.95500 23.68500 23.39500
H  50.17000 25.50600 23.45500
H  50.13500 22.32700 24.54500
H  50.79600 23.61600 23.46500
H  49.60500 22.30300 22.92000
H  47.39800 26.65900 24.03600
H  47.69600 26.02200 22.49000
H  48.37100 28.67000 23.58800
H  48.46700 28.24500 21.91500
H  49.83500 27.84800 22.80200
H  51.97700 28.97900 25.91300
H  52.07900 30.15000 27.34300
H  50.80700 30.30200 26.09000
H  49.02500 29.58700 31.66800
H  51.25200 27.98900 34.78300
H  50.97700 29.46900 35.64500
H  52.36900 29.50300 34.62600

