158

Mg 46.61000 16.81400 27.62600
C  44.71000 16.54000 30.53600
C  48.94100 18.64600 29.57200
C  48.55600 17.40800 24.96500
C  44.13700 15.49700 25.76100
N  46.79000 17.64200 29.86500
C  45.86900 17.24300 30.88500
C  46.29200 17.70600 32.28000
C  47.55500 18.58100 31.95400
C  47.78100 18.36500 30.35100
C  47.55000 20.20700 32.15300
C  46.64300 16.47000 33.30600
C  46.42900 16.72700 34.78200
H  46.39000 18.19300 35.33800
N  48.60100 17.67900 27.38700
C  49.34700 18.36400 28.28800
C  50.60400 18.75900 27.62100
C  50.48600 18.32100 26.28100
C  49.21100 17.78200 26.14600
C  51.79700 19.25900 28.39600
C  51.49600 18.58800 25.18800
O  51.27900 18.58100 23.98100
C  52.95700 18.99700 25.58800
N  46.41100 16.53200 25.72600
C  47.30000 16.82600 24.70400
C  46.90800 16.26300 23.32000
C  45.66400 15.49400 23.69700
C  45.37700 15.86400 25.13200
C  46.58000 17.33500 22.33100
C  45.80100 13.98300 23.52100
C  45.18400 13.43100 22.20100
N  44.73500 16.14900 27.98300
C  43.88200 15.51800 27.12600
C  42.73900 15.02100 27.90800
C  43.00800 15.45700 29.24600
C  44.28100 16.10200 29.20000
C  41.50000 14.21200 27.36000
C  42.45100 15.54800 30.60400
O  41.37600 15.20300 31.00800
C  43.53400 16.32600 31.45900
C  42.89800 17.53900 32.02200
O  42.93300 18.65100 31.51700
O  42.36300 17.13900 33.24900
C  41.62600 18.16000 33.93700
H  49.68900 19.31600 30.00300
H  49.18000 17.71600 24.12300
H  43.43500 14.93500 25.14100
H  45.55800 18.35700 32.75400
H  48.40700 18.19400 32.51200
H  48.25900 20.36200 32.96600
H  46.66900 20.79700 32.40300
H  47.91700 20.73100 31.27000
H  47.69400 16.20600 33.18200
H  46.07200 15.57400 33.06600
H  47.24100 16.14000 35.21200
H  45.50800 16.18300 34.98800
H  52.69900 18.73300 28.08300
H  51.71900 19.18800 29.48100
H  51.92200 20.30600 28.12000
H  53.55200 18.28200 26.15800
H  52.89200 19.91200 26.17700
H  53.52500 19.12700 24.66700
H  47.66300 15.58300 22.92400
H  44.75100 15.83500 23.20900
H  45.50800 17.45400 22.17700
H  47.00900 17.03200 21.37600
H  46.95500 18.30900 22.64800
H  45.41100 13.43300 24.37800
H  46.80600 13.56000 23.49500
H  44.53200 14.24500 21.88600
H  44.48600 12.59900 22.29300
H  45.89400 13.27200 21.38900
H  41.79300 13.87300 26.36600
H  40.59300 14.81700 27.34000
H  41.33700 13.36300 28.02400
H  43.78900 15.64400 32.27000
H  42.29700 18.97700 34.20200
H  41.19400 17.78200 34.86400
H  40.89500 18.64700 33.29100
Mg 17.69700 53.19400 26.00900
C  19.61100 51.84500 28.59400
C  15.59400 54.26600 28.46100
C  15.51300 53.98200 23.60700
C  19.87700 51.87500 23.69200
N  17.70800 53.16400 28.33200
C  18.50100 52.45200 29.17900
C  18.10200 52.63600 30.68400
C  16.66100 53.21900 30.58400
C  16.60300 53.56800 29.05400
C  15.52400 52.19000 30.95400
C  19.01300 53.63600 31.41200
C  19.45900 53.45500 32.85900
H  18.48700 52.87100 33.89400
N  15.81500 54.07000 25.99500
C  15.19000 54.58900 27.09500
C  13.93000 55.19200 26.65700
C  13.77500 54.91500 25.28300
C  15.04100 54.29500 24.87700
C  13.02300 55.74300 27.65200
C  12.58900 55.08400 24.41900
O  12.51500 54.60800 23.33900
C  11.34700 55.87100 24.85100
N  17.68300 53.03500 23.95500
C  16.69100 53.47900 23.18500
C  17.08700 53.38300 21.64200
C  18.56700 52.73100 21.72000
C  18.79600 52.59000 23.22500
C  16.07800 52.64500 20.76700
C  19.66800 53.62300 21.03900
C  20.34100 52.97500 19.83900
N  19.36500 52.12600 26.04400
C  20.17600 51.62000 25.05900
C  21.30200 50.89600 25.62500
C  21.14600 51.13800 27.02300
C  19.95000 51.79400 27.21500
C  22.51300 50.34500 24.87400
C  21.70600 50.86300 28.39200
O  22.75200 50.39300 28.75600
C  20.64000 51.19100 29.38900
C  20.28800 49.94700 30.08100
O  19.61600 49.09500 29.62400
O  20.66400 49.94700 31.41900
C  20.14100 48.88900 32.25000
H  14.99000 54.75600 29.22700
H  14.82900 54.37400 22.85100
H  20.44200 51.33200 22.93100
H  18.12800 51.64500 31.13600
H  16.52700 54.14100 31.15100
H  15.70200 51.66700 31.89400
H  15.43300 51.49500 30.11900
H  14.58400 52.73100 31.06900
H  18.56800 54.63100 31.38500
H  19.91000 53.61800 30.79300
H  19.86300 54.40800 33.20100
H  20.36700 52.85400 32.90700
H  12.47200 56.60000 27.26700
H  13.42300 56.11500 28.59500
H  12.37900 54.95900 28.05200
H  10.84900 55.33800 25.66100
H  10.60100 55.90900 24.05700
H  11.61100 56.88900 25.13700
H  17.08500 54.37500 21.18900
H  18.44200 51.68200 21.45200
H  15.08900 52.69900 21.22200
H  16.24800 51.59000 20.55100
H  15.99500 53.12000 19.78900
H  20.39900 53.74400 21.83800
H  19.05500 54.47300 20.73600
H  21.35100 52.70700 20.14700
H  20.32400 53.67000 19.00000
H  19.83600 52.15400 19.32800
H  22.79600 49.29800 24.98500
H  23.43000 50.88200 25.11600
H  22.36200 50.51800 23.80800
H  21.07200 51.90800 30.08600
H  20.99500 48.58000 32.85300
H  19.77400 48.04600 31.66400
H  19.31700 49.26300 32.85700

