158

Mg 7.94900 3.57900 27.27500
C  9.37500 2.04300 30.17100
C  5.67000 5.16000 29.29700
C  6.75600 4.82300 24.55500
C  9.94800 1.40500 25.37200
N  7.50800 3.56000 29.53700
C  8.25400 2.95400 30.49200
C  7.72100 3.21400 31.90800
C  6.51500 4.16700 31.56300
C  6.61500 4.40300 30.08500
C  5.10000 3.68400 32.01500
C  8.78300 3.88500 32.83700
C  8.25100 4.44500 34.17600
H  9.22200 4.36100 35.38300
N  6.47400 4.88200 27.04400
C  5.59600 5.37800 27.96000
C  4.66000 6.22500 27.25500
C  4.95900 6.09200 25.86200
C  6.12600 5.26100 25.74200
C  3.52200 6.98100 27.94900
C  4.43600 6.74700 24.74100
O  4.48500 6.39400 23.56100
C  3.73800 8.13700 24.90900
N  8.32300 3.22400 25.26900
C  7.66300 3.87900 24.30200
C  7.95600 3.37100 22.82600
C  9.14500 2.34000 23.16900
C  9.10200 2.25000 24.69800
C  6.75900 2.93600 21.96000
C  10.53000 2.62000 22.54400
C  11.56200 3.44200 23.44100
N  9.45500 2.12700 27.64000
C  10.15600 1.32700 26.73500
C  10.99500 0.34000 27.43800
C  10.68400 0.68800 28.77000
C  9.75900 1.73100 28.82500
C  11.72500 -0.79200 26.90400
C  11.05400 0.29600 30.09600
O  11.78800 -0.58300 30.46700
C  10.23000 1.22000 31.04100
C  9.44100 0.33400 31.93300
O  8.73500 -0.66800 31.59800
O  9.66400 0.68400 33.16600
C  8.58400 0.25800 34.07100
H  4.93000 5.72300 29.86900
H  6.38600 5.10500 23.56700
H  10.60900 0.76100 24.78800
H  7.55300 2.32200 32.51100
H  6.60400 5.17400 31.97000
H  4.55300 4.45700 32.55400
H  5.19200 2.76800 32.59900
H  4.45000 3.58200 31.14500
H  9.24800 4.65100 32.21600
H  9.52600 3.19700 33.24100
H  7.39200 3.79300 34.33400
H  7.93900 5.48000 34.03800
H  3.98500 7.81200 28.48000
H  3.17200 6.26500 28.69200
H  2.67800 7.29400 27.33400
H  2.75000 7.93200 25.32000
H  3.72900 8.61500 23.92900
H  4.38300 8.65200 25.62000
H  8.22700 4.28600 22.30000
H  8.80700 1.44200 22.65200
H  6.00500 2.34000 22.47400
H  7.12000 2.41900 21.07200
H  6.26100 3.83000 21.58300
H  10.40000 3.09300 21.57100
H  10.97300 1.68400 22.20400
H  11.13700 4.01600 24.26500
H  11.87000 4.33600 22.89900
H  12.41200 2.83300 23.74900
H  11.88000 -0.76900 25.82500
H  11.34300 -1.76300 27.22000
H  12.74500 -0.67700 27.27100
H  11.00000 1.77900 31.57300
H  8.77900 -0.68700 34.57700
H  7.56500 0.21000 33.68600
H  8.56000 0.89100 34.95800
Mg 24.16400 -5.36000 44.97000
C  26.34300 -2.96300 43.49300
C  21.63300 -4.11700 42.92600
C  22.56400 -8.22400 45.40300
C  27.08400 -6.94800 46.35100
N  24.03700 -3.69200 43.47200
C  25.01700 -2.92100 42.99000
C  24.52900 -2.00200 41.90500
C  22.90600 -2.04800 42.01400
C  22.82900 -3.37600 42.81300
C  22.23300 -0.99000 42.91600
C  25.08300 -2.59800 40.53900
C  25.57400 -1.64700 39.48300
H  25.05000 -1.79500 38.03800
N  22.36700 -6.02600 44.39400
C  21.43100 -5.36800 43.59200
C  20.25700 -6.22300 43.46000
C  20.50000 -7.45500 44.15800
C  21.89400 -7.28300 44.65300
C  19.00200 -5.81600 42.65100
C  19.46700 -8.51000 44.39600
O  18.35600 -8.38000 43.85800
C  19.64000 -9.60200 45.36300
N  24.72000 -7.25900 45.88200
C  23.83500 -8.28600 45.91300
C  24.46800 -9.46100 46.60000
C  25.75200 -8.92300 47.18600
C  25.91100 -7.64800 46.42200
C  23.46100 -10.17000 47.64400
C  27.02600 -9.84600 46.94900
C  27.84600 -10.22900 48.19500
N  26.25100 -4.98300 45.08300
C  27.29400 -5.74300 45.65300
C  28.52000 -4.99600 45.50600
C  28.17500 -3.86900 44.69400
C  26.78500 -3.96400 44.40200
C  29.85000 -5.35100 46.00900
C  28.67100 -2.67800 44.04700
O  29.78500 -2.17600 44.09400
C  27.53500 -2.08200 43.14700
C  27.18900 -0.67700 43.59500
O  26.64600 -0.24600 44.56500
O  27.61500 0.11000 42.59500
C  27.38500 1.57000 42.69500
H  20.78300 -3.68800 42.39200
H  22.01700 -9.13100 45.66500
H  27.97400 -7.42300 46.76900
H  24.92200 -0.99100 42.01200
H  22.41000 -2.04700 41.04400
H  21.45400 -0.43600 42.39200
H  23.01600 -0.30500 43.24100
H  21.73500 -1.43100 43.78000
H  24.34800 -3.27300 40.10000
H  25.97300 -3.09600 40.92300
H  26.65200 -1.78100 39.57700
H  25.38000 -0.62800 39.81900
H  18.78100 -6.53600 41.86300
H  19.10700 -4.85200 42.15400
H  18.04300 -5.76200 43.16700
H  20.11800 -9.25700 46.28100
H  20.20200 -10.36200 44.82000
H  18.65500 -10.00800 45.59200
H  24.77800 -10.24900 45.91400
H  25.79700 -8.67900 48.24700
H  22.51700 -9.64700 47.79600
H  23.80400 -10.40100 48.65200
H  23.21600 -11.13800 47.20500
H  27.70400 -9.48300 46.17700
H  26.69200 -10.77700 46.49100
H  28.81000 -9.72700 48.28600
H  27.95500 -11.31400 48.22000
H  27.23300 -9.96400 49.05600
H  29.83600 -5.33100 47.09900
H  30.63700 -4.70600 45.61600
H  30.08900 -6.31700 45.56500
H  27.70900 -2.05000 42.07200
H  27.90900 2.00100 41.84200
H  27.75400 1.87100 43.67600
H  26.30200 1.67200 42.63000

