158

Mg 41.17500 40.78500 26.19700
C  40.40700 43.02500 28.77500
C  42.46100 38.64800 28.48700
C  42.07800 38.67000 23.62000
C  40.32600 43.18300 23.91000
N  41.52300 40.89500 28.41000
C  41.00500 41.82200 29.28200
C  41.22900 41.33800 30.72000
C  41.87500 39.93000 30.56300
C  41.99600 39.79800 29.03500
C  43.24100 39.66200 31.19900
C  39.79500 41.27300 31.40600
C  39.91000 40.73200 32.91600
H  39.46100 41.63900 34.02400
N  42.06100 38.89900 26.06500
C  42.52900 38.19600 27.11200
C  43.07200 36.92400 26.69500
C  42.89600 36.88600 25.24000
C  42.31900 38.22900 24.88800
C  43.82500 35.96000 27.62500
C  43.17400 35.72900 24.27800
O  43.26300 35.89400 23.04000
C  43.54100 34.36500 24.74700
N  41.21700 40.84800 24.04600
C  41.47100 39.85200 23.20400
C  41.41500 40.30900 21.75900
C  40.65500 41.67100 21.89700
C  40.77100 41.94900 23.39000
C  42.80800 40.45100 21.05700
C  39.27000 41.59700 21.47800
C  38.38000 40.46600 22.13300
N  40.42500 42.62200 26.23600
C  40.28100 43.55800 25.27500
C  39.98900 44.85100 25.82900
C  39.98300 44.69900 27.21700
C  40.27700 43.33000 27.41100
C  39.72200 46.12200 25.02000
C  39.73700 45.30800 28.54100
O  39.47800 46.43900 28.81300
C  39.90200 44.22400 29.58900
C  40.86800 44.65900 30.69700
O  42.04300 44.42800 30.65600
O  40.19800 45.27600 31.80500
C  41.02900 45.67100 32.96500
H  42.74700 37.87300 29.20200
H  42.25200 38.04800 22.74000
H  40.04700 43.97300 23.20900
H  41.82000 42.06400 31.27900
H  41.17300 39.16600 30.89700
H  43.28500 40.24300 32.12000
H  44.10000 39.97100 30.60300
H  43.40400 38.62000 31.47100
H  38.99300 40.72700 30.90900
H  39.37500 42.27800 31.40100
H  40.97100 40.49200 32.97100
H  39.30500 39.82600 32.95900
H  44.76900 35.84900 27.09100
H  43.38400 34.97000 27.74500
H  43.98200 36.32200 28.64100
H  43.32900 33.78900 23.84700
H  43.00900 34.00400 25.62700
H  44.60200 34.29000 24.98600
H  40.72700 39.64100 21.24200
H  41.16200 42.54400 21.48700
H  43.54800 40.24200 21.83000
H  42.92300 41.43500 20.60200
H  42.91500 39.57900 20.41200
H  39.13500 41.50200 20.40100
H  38.81000 42.55700 21.71000
H  38.92700 39.69500 22.67500
H  37.75200 39.98800 21.38100
H  37.72300 40.92100 22.87400
H  38.64600 46.28400 25.08000
H  40.00700 46.06300 23.97000
H  40.26200 46.96000 25.46000
H  38.91800 44.08700 30.03600
H  42.06100 45.98700 32.81300
H  40.95700 44.83900 33.66600
H  40.60800 46.52500 33.49600
Mg 9.18100 48.89400 26.22900
C  7.09500 49.36500 28.94700
C  11.83800 49.95500 28.10000
C  11.10300 48.43300 23.51500
C  6.32800 48.17700 24.22700
N  9.38100 49.62300 28.31100
C  8.44800 49.68700 29.26800
C  9.05800 50.17000 30.57000
C  10.49300 50.64500 30.08400
C  10.63000 50.01300 28.73100
C  10.77100 52.19400 30.05100
C  9.22400 49.00000 31.60300
C  8.29500 49.05800 32.84500
H  8.42600 48.01500 33.95100
N  11.20700 49.00700 25.86600
C  12.09300 49.50800 26.79000
C  13.44600 49.33900 26.26200
C  13.34000 48.83700 24.97800
C  11.87000 48.77300 24.66400
C  14.73700 49.68800 26.90300
C  14.36000 48.43700 23.93800
O  14.08800 47.81300 22.89200
C  15.77800 48.67000 24.23700
N  8.75900 48.31400 24.14800
C  9.74400 48.31000 23.20000
C  9.19400 47.84500 21.87200
C  7.64100 47.88900 22.03600
C  7.54500 48.08400 23.58300
C  9.50100 48.68600 20.60300
C  6.95800 46.52800 21.55000
C  6.34300 46.64300 20.15200
N  7.16500 48.78500 26.42300
C  6.08500 48.59100 25.58400
C  4.81600 48.72400 26.21400
C  5.17100 48.96000 27.55000
C  6.59100 48.98500 27.64200
C  3.46600 48.72900 25.50400
C  4.69100 49.19200 28.88400
O  3.50800 49.21600 29.29200
C  5.89100 49.39000 29.81100
C  5.93300 48.21000 30.66700
O  6.65700 47.20100 30.72700
O  4.99400 48.52600 31.69900
C  4.70100 47.46800 32.59700
H  12.69400 50.34100 28.65700
H  11.78300 48.32800 22.66600
H  5.41900 48.06600 23.63300
H  8.40400 50.98500 30.87900
H  11.29400 50.13400 30.61700
H  9.92200 52.83600 30.29000
H  11.11200 52.52700 29.07100
H  11.46700 52.43200 30.85500
H  10.20700 48.89000 32.06200
H  9.21000 48.05300 31.06200
H  7.25600 49.04400 32.51500
H  8.49200 50.01800 33.32100
H  14.73800 49.98100 27.95200
H  15.25400 50.48600 26.37000
H  15.34700 48.78600 26.88300
H  16.01600 48.00800 25.07000
H  15.86000 49.72500 24.49700
H  16.29900 48.27900 23.36300
H  9.70500 46.89900 21.68900
H  7.20500 48.76100 21.54800
H  10.03300 49.58400 20.91900
H  8.70900 48.95200 19.90300
H  10.21900 48.10800 20.02100
H  6.08800 46.20700 22.12300
H  7.59100 45.64500 21.46400
H  5.36000 46.17400 20.11300
H  7.07200 46.14600 19.51200
H  6.30300 47.64100 19.71500
H  3.14000 47.91900 24.85200
H  3.34200 49.68100 24.98900
H  2.65300 48.74700 26.22900
H  5.87200 50.35400 30.32000
H  5.31200 47.39000 33.49600
H  4.47300 46.47200 32.21600
H  3.73300 47.73700 33.02100

