158

Mg 41.67400 9.09800 29.38500
C  43.49400 10.53700 31.94700
C  39.52600 7.67100 31.59200
C  40.13700 7.63100 26.69100
C  44.29500 9.99800 27.16800
N  41.59500 9.01100 31.57800
C  42.33400 9.85100 32.42100
C  41.77100 9.81200 33.89600
C  40.62300 8.76800 33.76500
C  40.63700 8.34900 32.19600
C  40.64400 7.57300 34.70400
C  41.52000 11.23100 34.51700
C  40.36000 11.29800 35.54600
H  40.51700 12.11500 36.86100
N  40.02100 7.87100 29.11400
C  39.24900 7.31500 30.17800
C  38.10500 6.69000 29.65500
C  38.12700 6.80100 28.21700
C  39.47400 7.42400 27.91700
C  37.06500 6.03100 30.66000
C  37.15000 6.39200 27.22000
O  37.29500 6.41300 26.01000
C  35.88900 5.95500 27.73800
N  42.23000 8.74800 27.23700
C  41.35200 8.24600 26.34700
C  41.94900 8.29500 24.92500
C  43.26800 9.10500 25.06700
C  43.27100 9.25000 26.57800
C  42.13500 6.84700 24.43200
C  43.22200 10.51600 24.31800
C  42.05400 11.47600 24.61000
N  43.40100 10.16500 29.47100
C  44.39600 10.37500 28.54500
C  45.43400 11.21000 29.08500
C  45.09300 11.37500 30.48700
C  43.85000 10.64700 30.61300
C  46.51600 11.76200 28.25300
C  45.48800 11.91700 31.75700
O  46.45200 12.58500 32.13700
C  44.41600 11.37700 32.75700
C  45.10100 10.65800 33.86900
O  45.96000 9.81200 33.75600
O  44.68900 11.13200 35.13300
C  45.39000 10.68900 36.43000
H  38.88800 7.20500 32.34600
H  39.51500 7.13400 25.94300
H  45.06500 10.49800 26.57600
H  42.53300 9.49300 34.60800
H  39.63400 9.20700 33.89700
H  40.38100 6.69800 34.10900
H  39.86500 7.76400 35.44300
H  41.54400 7.55700 35.31800
H  41.39600 11.86400 33.63800
H  42.30000 11.55100 35.20700
H  40.14700 10.26000 35.80400
H  39.54800 11.79100 35.01200
H  36.16200 6.64000 30.67900
H  37.42300 5.97000 31.68800
H  36.67000 5.09100 30.27500
H  35.24500 5.70300 26.89500
H  35.35000 6.61400 28.41900
H  36.04500 5.03400 28.29900
H  41.23000 8.74000 24.23800
H  44.13000 8.55600 24.68800
H  41.74900 6.18700 25.20900
H  43.19200 6.65500 24.24500
H  41.54500 6.73100 23.52300
H  43.16700 10.33100 23.24500
H  44.15500 11.04800 24.50000
H  42.40600 12.40300 25.06300
H  41.29400 11.09700 25.29300
H  41.52400 11.63700 23.67100
H  47.09200 12.49800 28.81400
H  46.17400 12.16500 27.30000
H  47.19600 10.95800 27.97000
H  43.89400 12.28100 33.07100
H  46.03800 9.85700 36.15300
H  44.71500 10.25800 37.16900
H  45.98600 11.54000 36.76000
Mg -12.84200 38.16200 43.13600
C  -10.80400 35.39400 42.47200
C  -10.42900 40.17200 41.55600
C  -14.97400 40.69100 43.11400
C  -15.35700 35.86400 44.05300
N  -10.97200 37.77000 41.84700
C  -10.32000 36.60300 41.90600
C  -9.00000 36.67500 41.17600
C  -8.69700 38.24000 41.20400
C  -10.06600 38.76900 41.58100
C  -7.72100 38.62300 42.30700
C  -8.94000 36.12300 39.72700
C  -7.57500 35.54400 39.39400
H  -6.84500 36.09300 38.17800
N  -12.70900 40.18400 42.49300
C  -11.61300 40.79200 41.89300
C  -11.90100 42.12200 41.61000
C  -13.29700 42.27500 41.99300
C  -13.77200 41.04500 42.53000
C  -10.95000 43.08800 41.01700
C  -14.10300 43.57200 41.78300
O  -13.58600 44.59800 41.32500
C  -15.57000 43.77200 42.17900
N  -14.88700 38.27000 43.56200
C  -15.46200 39.47900 43.68500
C  -16.82600 39.27500 44.36900
C  -17.01700 37.73300 44.51300
C  -15.72100 37.21300 43.97600
C  -17.00300 40.01000 45.72300
C  -18.23200 37.16400 43.75400
C  -19.20100 36.20300 44.46900
N  -13.10200 36.11300 43.36300
C  -14.14200 35.31300 43.72200
C  -13.81100 33.90800 43.80000
C  -12.41700 33.92600 43.44800
C  -12.07800 35.24900 43.02700
C  -14.63200 32.67100 44.16600
C  -11.19600 33.12500 43.33600
O  -10.96900 31.95600 43.54700
C  -10.06700 34.10300 42.70700
C  -8.93200 34.18100 43.64000
O  -8.99700 34.70500 44.74900
O  -7.83400 33.61400 43.14600
C  -6.67700 33.90500 43.91600
H  -9.51100 40.67000 41.23600
H  -15.70300 41.44200 43.42700
H  -16.04100 35.13700 44.49600
H  -8.28600 36.10200 41.76800
H  -8.42700 38.75300 40.28200
H  -6.91500 37.90900 42.47700
H  -8.38200 38.64700 43.17300
H  -7.30600 39.57600 41.97900
H  -9.24300 36.86400 38.98700
H  -9.63300 35.31400 39.49700
H  -7.70700 34.46300 39.43000
H  -6.88900 35.84600 40.18600
H  -10.87900 42.86100 39.95300
H  -9.94300 43.04100 41.43200
H  -11.43200 44.04300 41.22300
H  -16.11000 42.90300 41.80300
H  -15.94000 44.72200 41.79300
H  -15.52000 43.87500 43.26300
H  -17.59600 39.56400 43.65300
H  -17.09200 37.45600 45.56500
H  -16.04500 40.35200 46.11500
H  -17.64700 39.36300 46.31900
H  -17.48500 40.97600 45.57700
H  -17.85200 36.56800 42.92500
H  -18.84600 37.92800 43.27600
H  -20.21500 36.56900 44.31300
H  -18.98500 36.22000 45.53800
H  -19.08700 35.16600 44.15100
H  -15.35700 32.57600 43.35800
H  -15.16800 32.77400 45.10900
H  -14.03200 31.76500 44.08700
H  -9.69700 33.73900 41.74800
H  -6.94400 33.81900 44.96900
H  -6.20600 34.85900 43.68000
H  -5.97500 33.07100 43.89700

