158

Mg 25.34700 2.07900 30.08400
C  27.50600 1.91900 32.85500
C  22.65200 1.98500 32.27900
C  23.37500 1.63500 27.56700
C  28.10600 1.64900 28.03100
N  25.08400 1.86300 32.28000
C  26.12200 2.02600 33.22600
C  25.65100 2.24300 34.64900
C  24.08600 2.26000 34.39600
C  23.91300 2.07200 32.92300
C  23.26900 1.26000 35.20700
C  26.18600 3.68900 35.14700
C  26.45000 3.68700 36.70300
H  25.92600 4.79100 37.60900
N  23.29600 2.08300 29.95400
C  22.34100 1.94100 30.93000
C  21.07700 1.78300 30.27900
C  21.19600 1.72700 28.87500
C  22.71300 1.78100 28.75100
C  19.78900 1.77600 31.10100
C  20.12500 1.58900 27.76200
O  20.42400 1.51700 26.58400
C  18.61400 1.54600 28.18700
N  25.66400 1.72400 28.02900
C  24.69300 1.45500 27.19300
C  25.15300 1.51000 25.67300
C  26.68300 1.66700 25.91800
C  26.85500 1.65000 27.42900
C  24.69800 0.27700 24.86800
C  27.30500 2.99400 25.32600
C  26.59600 4.34600 25.65800
N  27.39600 1.71300 30.35000
C  28.36300 1.59400 29.37100
C  29.66300 1.33600 29.96900
C  29.42400 1.49000 31.36800
C  27.99800 1.69200 31.51200
C  30.90100 1.09600 29.28500
C  29.93700 1.52200 32.72200
O  31.10300 1.34900 33.07000
C  28.78700 1.93300 33.68000
C  28.73000 1.07500 34.90100
O  28.33800 -0.06700 34.96500
O  29.11800 1.86900 36.02100
C  29.10100 1.18500 37.30000
H  21.80100 2.13000 32.94800
H  22.73400 1.46000 26.70100
H  28.92300 1.39200 27.35400
H  26.00500 1.35200 35.16700
H  23.80400 3.28100 34.65400
H  22.34500 1.74000 35.52900
H  23.94000 1.02500 36.03300
H  23.05700 0.34700 34.65100
H  25.49300 4.48000 34.86300
H  27.05900 3.89100 34.52600
H  27.51200 3.90500 36.81100
H  26.24400 2.71100 37.14400
H  18.99000 2.41700 30.72800
H  19.97100 1.75300 32.17500
H  19.42900 0.74900 31.04000
H  17.94800 1.33500 27.35100
H  18.40500 2.46800 28.73000
H  18.46800 0.78900 28.95800
H  24.74500 2.41300 25.21900
H  27.31300 0.87500 25.51200
H  25.51700 -0.43500 24.96200
H  24.52100 0.54300 23.82600
H  23.74100 -0.09900 25.22900
H  27.47600 2.86000 24.25800
H  28.29900 3.05800 25.76800
H  26.04600 4.28300 26.59700
H  25.90200 4.68000 24.88700
H  27.40300 5.07500 25.72200
H  31.05700 1.82000 28.48600
H  30.96700 0.06600 28.93300
H  31.74700 1.28800 29.94600
H  29.03800 2.98400 33.82600
H  28.34600 1.56200 37.99000
H  30.03100 1.43800 37.80900
H  29.10600 0.10000 37.19500
Mg 36.30000 49.33300 25.20400
C  36.56500 47.60600 28.28200
C  34.92900 51.79700 26.72500
C  35.92000 50.66000 22.22000
C  37.43800 46.36600 23.60100
N  35.63000 49.56800 27.29300
C  35.87000 48.85800 28.37700
C  35.60300 49.63500 29.68600
C  34.79600 50.82600 29.05700
C  35.14500 50.78200 27.63900
C  33.24900 50.83100 29.23300
C  36.86600 50.04300 30.54000
C  36.83900 49.84700 32.09900
H  35.54800 49.97400 32.90000
N  35.55200 51.07700 24.53900
C  34.96900 51.98400 25.36800
C  34.48700 53.14000 24.60200
C  35.00900 52.89100 23.27000
C  35.53000 51.45900 23.26000
C  33.81000 54.40800 25.16100
C  34.97700 53.76100 22.07500
O  35.40300 53.35400 20.98800
C  34.52600 55.25300 22.20700
N  36.61000 48.59200 23.12300
C  36.31900 49.33600 22.09000
C  36.55000 48.60100 20.80400
C  37.21800 47.23500 21.21600
C  36.98300 47.36700 22.71600
C  35.36900 48.46400 19.79500
C  38.68500 47.07300 20.93500
C  39.05200 47.23900 19.43500
N  36.84000 47.38500 25.78500
C  37.33100 46.32800 25.02500
C  37.63700 45.15500 25.89300
C  37.35700 45.65000 27.18900
C  36.79400 46.96200 27.05700
C  38.25800 43.81300 25.49100
C  37.35300 45.30300 28.50800
O  37.58300 44.25100 29.06800
C  36.85400 46.52400 29.32300
C  35.67000 46.04900 30.01500
O  34.64100 45.90700 29.42100
O  35.71800 46.17700 31.34600
C  34.48400 46.11300 32.14800
H  34.52400 52.65000 27.27300
H  35.70700 51.14500 21.26500
H  37.81800 45.40800 23.24100
H  34.95000 48.97600 30.25800
H  35.12500 51.74300 29.54700
H  32.98200 50.06100 29.95600
H  32.63700 50.99700 28.34600
H  32.98700 51.73000 29.79200
H  37.22600 51.05800 30.37000
H  37.66400 49.39400 30.17800
H  37.60400 50.52700 32.47500
H  37.20500 48.82500 32.19200
H  33.59900 54.32500 26.22700
H  32.77600 54.57300 24.85600
H  34.47700 55.26400 25.06600
H  34.56200 55.88800 21.32200
H  35.25200 55.69600 22.88900
H  33.52800 55.29500 22.64200
H  37.33500 49.14700 20.28200
H  36.70400 46.37700 20.78300
H  34.58800 49.11200 20.19500
H  35.05400 47.43400 19.96000
H  35.47200 48.77000 18.75400
H  39.13500 46.15300 21.30700
H  39.01900 47.89500 21.56700
H  38.16200 46.95700 18.87200
H  39.88400 46.56900 19.22200
H  39.51300 48.18000 19.13500
H  38.65600 43.84500 24.47700
H  37.52200 43.02400 25.64900
H  39.08400 43.68800 26.19100
H  37.60200 46.78300 30.07200
H  34.20800 45.07200 32.31300
H  33.65800 46.74100 31.81500
H  34.79800 46.48500 33.12400

