158

Mg 48.45000 34.50500 26.43300
C  46.52200 32.99200 29.00300
C  48.85400 37.16000 28.31800
C  50.17900 35.51700 23.82500
C  47.73200 31.42300 24.53300
N  47.90600 34.96900 28.49200
C  47.20200 34.20800 29.36300
C  47.28100 34.77800 30.79100
C  47.64000 36.24900 30.42300
C  48.20700 36.15800 29.04200
C  46.49800 37.39000 30.39600
C  48.46300 33.95300 31.50600
C  48.64800 34.27900 33.04300
H  47.67500 35.39100 33.64100
N  49.32200 36.10700 26.05500
C  49.38400 37.14200 26.91900
C  50.10200 38.16400 26.37900
C  50.57800 37.74500 25.11900
C  50.03700 36.39200 24.93100
C  50.23600 39.47300 27.07600
C  51.52600 38.43400 24.19200
O  51.67400 37.99100 23.05100
C  52.22400 39.70300 24.69200
N  48.66100 33.71400 24.30000
C  49.50900 34.30500 23.53200
C  49.79000 33.50600 22.28300
C  49.16700 32.11800 22.56200
C  48.46000 32.41300 23.85400
C  49.33300 34.27300 21.07900
C  50.16200 30.95900 22.59000
C  50.32400 30.33000 21.16200
N  47.26000 32.67800 26.60600
C  47.03100 31.59100 25.73600
C  46.13500 30.64400 26.38400
C  45.86900 31.18400 27.66000
C  46.56400 32.40700 27.74800
C  45.65500 29.25000 25.86500
C  45.11900 31.00100 28.90800
O  44.26800 30.19200 29.22400
C  45.53200 32.21900 29.80500
C  45.82100 31.74000 31.21900
O  46.60800 30.80000 31.55300
O  45.00300 32.36100 32.11400
C  44.96700 31.79200 33.48300
H  48.90200 38.11200 28.85000
H  50.77000 35.89300 22.98700
H  47.55100 30.52300 23.94300
H  46.33200 34.76400 31.32800
H  48.33100 36.56000 31.20700
H  46.89200 38.27000 30.90600
H  45.51900 37.14600 30.80900
H  46.25200 37.61900 29.35900
H  49.35300 34.21800 30.93500
H  48.21100 32.89400 31.45500
H  49.70300 34.51200 33.19000
H  48.37800 33.35800 33.56000
H  51.27900 39.77400 27.17200
H  49.70000 39.67800 28.00300
H  49.70000 40.27500 26.56700
H  51.64100 40.62000 24.77600
H  52.95800 39.75200 23.88700
H  52.78300 39.50400 25.60600
H  50.84800 33.27700 22.15300
H  48.38500 31.91800 21.83000
H  49.26100 35.35400 21.19500
H  48.33200 33.98500 20.75600
H  50.01200 34.14500 20.23600
H  49.67200 30.24700 23.25400
H  51.07500 31.31100 23.07200
H  49.98300 30.82800 20.25400
H  49.74600 29.40500 21.14000
H  51.38300 30.22400 20.92800
H  45.73000 29.03900 24.79800
H  44.60000 29.10700 26.10100
H  46.18200 28.42200 26.33900
H  44.60100 32.77300 29.92400
H  45.79000 31.14200 33.77800
H  43.94500 31.45400 33.65500
H  44.99500 32.70600 34.07600
Mg -2.09200 34.43100 26.95800
C  -3.93900 32.91300 29.50500
C  -1.14300 36.91300 29.20800
C  -0.75700 36.12700 24.42500
C  -3.56800 32.31400 24.70600
N  -2.49700 34.87500 29.10300
C  -3.19900 33.99900 29.93300
C  -3.11200 34.44700 31.35200
C  -2.44700 35.91800 31.25200
C  -1.96200 35.95100 29.81700
C  -3.31000 37.09200 31.61800
C  -2.44900 33.43200 32.33100
C  -3.02300 33.43300 33.80000
H  -2.19400 34.08500 34.86000
N  -0.98300 36.14100 26.87100
C  -0.63200 37.00400 27.95000
C  0.28200 38.02200 27.36700
C  0.27400 37.88200 25.89800
C  -0.56300 36.73100 25.69500
C  0.87700 39.19700 28.14800
C  1.10600 38.62400 24.82300
O  0.83300 38.50800 23.67400
C  2.09100 39.69000 25.33800
N  -2.18900 34.29800 24.90900
C  -1.49600 35.07200 24.06900
C  -1.55600 34.53000 22.58300
C  -2.29900 33.22700 22.75400
C  -2.76900 33.31300 24.18400
C  -2.24100 35.61300 21.65800
C  -1.44400 31.96200 22.59500
C  -1.97800 30.73600 21.82000
N  -3.52900 32.89500 27.02500
C  -3.96100 32.08900 25.99700
C  -4.85800 31.07400 26.55100
C  -4.78800 31.31100 27.95700
C  -4.01200 32.45400 28.16300
C  -5.54600 29.96700 25.74900
C  -5.27600 30.80500 29.21100
O  -6.01000 29.84600 29.46100
C  -4.54400 31.76200 30.31400
C  -5.65300 32.19700 31.20200
O  -6.54300 32.96300 30.88600
O  -5.58500 31.54900 32.43900
C  -6.55500 31.87900 33.45000
H  -0.82900 37.75900 29.82200
H  -0.31200 36.58400 23.53900
H  -4.07100 31.63400 24.01700
H  -4.12400 34.53400 31.74700
H  -1.59500 36.01400 31.92400
H  -3.11700 37.36200 32.65600
H  -4.34300 36.80700 31.41700
H  -3.14100 37.98900 31.02300
H  -1.40900 33.75000 32.40900
H  -2.49000 32.45600 31.84800
H  -3.13000 32.38000 34.06100
H  -4.00400 33.90600 33.77600
H  1.96600 39.20200 28.19600
H  0.49800 39.26100 29.16800
H  0.64000 40.08800 27.56500
H  1.59700 40.56600 25.75900
H  2.77600 39.93500 24.52700
H  2.73800 39.12200 26.00600
H  -0.50900 34.43200 22.29600
H  -3.12100 33.16100 22.04100
H  -1.51700 35.93600 20.91000
H  -2.64900 36.44400 22.23400
H  -3.03400 35.10900 21.10500
H  -1.21900 31.67700 23.62300
H  -0.50900 32.21000 22.09300
H  -2.23900 29.93300 22.50900
H  -1.34800 30.53900 20.95200
H  -2.91000 31.09900 21.38600
H  -5.48000 30.10000 24.66900
H  -6.61300 29.85600 25.94400
H  -5.16400 28.98600 26.03100
H  -3.73900 31.24800 30.83900
H  -6.78200 31.08200 34.15800
H  -7.51600 32.20400 33.05100
H  -6.25800 32.70500 34.09800

