158

Mg 25.11500 1.69800 29.68700
C  27.21600 1.55200 32.49500
C  22.43600 1.68600 31.89800
C  23.15900 1.39400 27.04200
C  27.93400 0.95600 27.65000
N  24.83000 1.79200 31.88900
C  25.89400 1.82500 32.83200
C  25.39400 2.07100 34.20500
C  23.81700 1.91600 34.03400
C  23.63000 1.77200 32.50100
C  23.14500 0.81600 34.93800
C  25.83000 3.41700 34.80800
C  26.66000 3.35900 36.08600
H  26.23500 4.34100 37.29100
N  23.08900 1.66300 29.47800
C  22.20000 1.65700 30.47600
C  20.89800 1.69400 29.86800
C  21.01200 1.53100 28.50100
C  22.44700 1.55600 28.30300
C  19.68900 1.72100 30.76400
C  19.97500 1.19400 27.48800
O  20.25600 0.96400 26.32600
C  18.55400 1.05700 27.76000
N  25.53100 1.09600 27.71800
C  24.50700 1.16300 26.76500
C  25.06500 1.09600 25.32600
C  26.58500 0.87600 25.44900
C  26.71400 1.03600 27.00800
C  24.49700 0.09900 24.26100
C  27.45200 2.01400 24.78600
C  27.29300 3.44400 25.30600
N  27.10600 1.36700 29.94100
C  28.07700 1.12500 29.02100
C  29.35300 1.03500 29.67800
C  29.06100 1.27100 31.06300
C  27.65300 1.35100 31.16200
C  30.66000 0.73900 29.04400
C  29.65900 1.22900 32.41700
O  30.83700 1.00300 32.77700
C  28.45900 1.54100 33.43800
C  28.37700 0.52900 34.52700
O  28.10300 -0.63000 34.31600
O  28.81100 1.06200 35.68500
C  28.77100 0.12400 36.80700
H  21.69200 1.73400 32.69600
H  22.51900 1.43800 26.15900
H  28.77000 0.75000 26.97900
H  25.84300 1.31900 34.85500
H  23.32300 2.82900 34.36700
H  22.82700 0.11600 34.16500
H  22.23000 1.21000 35.38000
H  23.75500 0.33500 35.70300
H  24.94000 3.98100 35.08600
H  26.46600 3.97700 34.12300
H  27.65700 3.68600 35.78800
H  26.72700 2.37700 36.55300
H  19.10700 0.80700 30.64400
H  19.03500 2.55200 30.50200
H  19.89700 1.95500 31.80800
H  18.38600 0.22800 28.44900
H  18.08800 0.75800 26.82100
H  18.11700 1.94000 28.22600
H  24.90400 2.11800 24.98400
H  26.88900 -0.12900 25.15900
H  24.44900 0.65400 23.32400
H  23.49500 -0.27200 24.47700
H  25.11700 -0.79600 24.21000
H  27.01100 2.05800 23.79000
H  28.49100 1.69100 24.71700
H  28.29200 3.81200 25.54000
H  26.63100 3.37900 26.16900
H  26.80100 4.03400 24.53300
H  30.80500 -0.30900 28.78200
H  31.33700 1.07200 29.83100
H  30.91000 1.37300 28.19400
H  28.61200 2.54400 33.83600
H  29.72400 -0.39000 36.93400
H  28.04300 -0.68500 36.75800
H  28.60900 0.69300 37.72200
Mg 9.93200 46.68500 26.29200
C  7.64400 47.12100 28.97000
C  12.32400 48.17300 28.31500
C  11.85600 46.80000 23.58100
C  7.19600 46.02300 24.27600
N  10.07200 47.26100 28.41100
C  9.01200 47.29900 29.34400
C  9.47200 47.67600 30.81300
C  10.77800 48.39100 30.41800
C  11.13300 47.82300 29.01200
C  10.58400 49.96200 30.43200
C  9.62400 46.34300 31.65300
C  9.33500 46.42300 33.13700
H  10.06900 45.39100 34.02400
N  11.89600 47.22700 25.97400
C  12.69800 47.85000 26.96000
C  14.01400 47.92500 26.43800
C  13.94600 47.55100 25.06200
C  12.56900 47.21900 24.80000
C  15.20000 48.41500 27.24200
C  15.09800 47.45300 24.02100
O  14.77000 47.12200 22.89500
C  16.47300 47.66900 24.32400
N  9.56700 46.54100 24.17400
C  10.59300 46.49500 23.28400
C  10.05200 46.25000 21.80300
C  8.58500 45.85100 22.10200
C  8.45600 46.01600 23.62600
C  10.32000 47.47200 20.92400
C  7.97900 44.51100 21.51200
C  7.43700 44.60300 20.07100
N  7.84700 46.76000 26.50500
C  6.86600 46.41100 25.62300
C  5.55900 46.44900 26.23100
C  5.79700 46.68900 27.61000
C  7.19400 46.90700 27.68600
C  4.20400 46.22900 25.52600
C  5.17100 46.88200 28.87500
O  3.97900 46.81900 29.21200
C  6.29500 47.34400 29.77300
C  6.10400 46.52700 31.04500
O  6.47900 45.35900 31.15900
O  5.43700 47.21400 32.01900
C  5.17400 46.35400 33.16400
H  13.05300 48.71100 28.92400
H  12.42300 46.94700 22.65900
H  6.32700 45.66300 23.72100
H  8.74800 48.35200 31.26900
H  11.58700 48.15100 31.10800
H  10.40200 50.32100 29.41900
H  11.47700 50.42400 30.85200
H  9.79600 50.28000 31.11500
H  10.64400 45.96700 31.57200
H  8.91400 45.66100 31.18600
H  8.27700 46.19200 33.26100
H  9.48500 47.45200 33.46300
H  15.03400 48.42200 28.32000
H  15.72200 49.28300 26.84100
H  15.94900 47.62300 27.24600
H  16.89600 46.86700 24.92900
H  16.69000 48.47500 25.02400
H  16.95000 47.84800 23.36000
H  10.55300 45.43300 21.28500
H  7.86600 46.56700 21.70400
H  10.99900 48.17100 21.41300
H  9.38800 47.96100 20.64200
H  10.71900 47.12900 19.96900
H  7.11800 44.21900 22.11300
H  8.78200 43.78300 21.63400
H  8.15100 44.11000 19.41100
H  7.36400 45.57600 19.58500
H  6.42400 44.22300 19.93900
H  3.84000 45.25200 25.84200
H  4.25200 46.31000 24.44000
H  3.42600 46.91900 25.85200
H  6.22600 48.39100 30.06700
H  4.29400 46.82700 33.59900
H  6.07800 46.24700 33.76500
H  4.82100 45.33100 33.03300

