158

Mg 0.24800 8.73800 26.65700
C  0.85600 10.86300 29.63900
C  0.06900 6.15600 28.84300
C  0.28000 6.81600 23.95000
C  0.56000 11.64300 24.77200
N  0.62800 8.58400 29.03900
C  0.74900 9.50000 30.01700
C  0.42300 8.93100 31.37000
C  0.43000 7.41100 31.11000
C  0.35700 7.37100 29.57100
C  1.69700 6.61100 31.65200
C  -0.97300 9.43500 31.92400
C  -1.09700 9.88800 33.37300
H  -0.05900 9.66400 34.38300
N  0.24800 6.68600 26.43200
C  0.06900 5.77900 27.46300
C  -0.28800 4.51000 26.89100
C  -0.12400 4.60900 25.47500
C  0.16300 6.07200 25.21500
C  -0.79000 3.35000 27.76300
C  -0.20400 3.58800 24.43700
O  0.02500 3.82900 23.25300
C  -0.51400 2.14000 24.88500
N  0.37300 9.18000 24.72800
C  0.43100 8.21200 23.77100
C  0.38700 8.82900 22.35800
C  0.22800 10.37300 22.58000
C  0.42400 10.43500 24.09300
C  1.75600 8.58100 21.63300
C  -1.11100 11.04300 22.15800
C  -0.95300 12.10600 20.97900
N  0.55000 10.84100 27.06100
C  0.71400 11.88700 26.17100
C  1.01400 13.11100 26.82800
C  1.07600 12.74300 28.19800
C  0.80300 11.37100 28.33000
C  1.32200 14.41600 26.19300
C  1.22700 13.26100 29.47800
O  1.30200 14.48400 29.79500
C  1.06400 12.06000 30.51300
C  2.33400 11.84400 31.20400
O  3.18300 10.97700 31.04500
O  2.35700 12.70900 32.26600
C  3.41800 12.59500 33.21800
H  -0.04400 5.25400 29.44800
H  0.14200 6.18500 23.07000
H  0.63400 12.51200 24.11500
H  1.21700 9.26300 32.03900
H  -0.42800 6.94300 31.59200
H  2.30000 7.26500 32.28200
H  2.39700 6.36900 30.85200
H  1.33900 5.67900 32.09000
H  -1.72000 8.66400 31.73600
H  -1.21900 10.31800 31.33400
H  -1.94600 9.33500 33.77400
H  -1.50000 10.90100 33.39100
H  -1.77300 3.04300 27.40800
H  -1.19900 3.74900 28.69200
H  -0.07700 2.52600 27.78600
H  0.37400 1.82000 25.42900
H  -0.73300 1.54400 23.99900
H  -1.35300 1.97700 25.56200
H  -0.45200 8.37000 21.83500
H  1.01700 11.00000 22.16600
H  2.48100 8.30700 22.39900
H  1.98100 9.48100 21.06200
H  1.75500 7.59400 21.17000
H  -1.38200 11.73900 22.95200
H  -1.90100 10.30000 22.05100
H  -1.57100 11.77700 20.14300
H  0.08100 12.28700 20.68600
H  -1.40600 13.02900 21.34000
H  0.45700 14.79400 25.64800
H  2.10900 14.32400 25.44400
H  1.57700 15.18700 26.92000
H  0.30600 12.23700 31.27500
H  3.30400 13.20100 34.11700
H  4.37600 12.97100 32.85900
H  3.59400 11.58300 33.58300
Mg 50.63600 45.41400 42.49500
C  47.60900 47.15300 41.65700
C  49.34300 42.55400 41.37700
C  53.84600 44.29500 42.17900
C  51.99000 48.62800 43.36800
N  48.72600 44.96200 41.51500
C  47.62400 45.71100 41.37500
C  46.45900 44.88200 40.79800
C  46.92200 43.40500 41.12300
C  48.42900 43.61600 41.27500
C  46.14400 42.73800 42.34400
C  46.33500 45.13900 39.25600
C  44.80700 45.08300 38.72500
H  44.37200 43.77100 38.22400
N  51.47300 43.67100 41.94100
C  50.74100 42.57700 41.60900
C  51.66400 41.43200 41.53400
C  52.94900 41.91000 41.59200
C  52.79200 43.36200 41.87700
C  51.23700 39.98900 41.32900
C  54.23800 41.11100 41.35300
O  54.25500 39.91100 41.12400
C  55.61400 41.79400 41.23200
N  52.60300 46.37400 42.67400
C  53.76200 45.62900 42.55900
C  55.04100 46.44200 43.02000
C  54.38300 47.75800 43.52700
C  52.91400 47.57800 43.21600
C  55.93100 45.71600 44.01700
C  54.99500 49.05300 42.92800
C  55.18400 50.21500 43.92700
N  50.02100 47.46500 42.44400
C  50.63100 48.61800 42.97900
C  49.71400 49.73800 42.83000
C  48.58300 49.21100 42.21700
C  48.73200 47.81900 42.14800
C  50.08200 51.16800 43.05100
C  47.20100 49.51400 41.87700
O  46.66600 50.64100 41.88100
C  46.51300 48.18900 41.40200
C  45.25400 47.74700 42.03800
O  45.11300 46.93600 42.94000
O  44.24500 48.42600 41.37100
C  42.88300 47.98500 41.49100
H  48.96000 41.59700 41.01600
H  54.87800 43.96100 42.30700
H  52.37900 49.58500 43.72400
H  45.52700 45.24300 41.23400
H  46.61100 42.75400 40.30600
H  45.51100 42.05300 41.77900
H  45.51100 43.45900 42.86200
H  46.88900 42.27700 42.99200
H  46.89600 44.35300 38.75000
H  46.80000 46.06800 38.92600
H  44.89500 45.90400 38.01300
H  44.16400 45.52800 39.48400
H  51.83000 39.58600 40.50700
H  50.15600 39.92100 41.21200
H  51.50800 39.40900 42.21100
H  55.96000 42.10700 42.21700
H  55.46900 42.52800 40.43900
H  56.35600 41.07500 40.88600
H  55.53900 46.60300 42.06400
H  54.45500 47.76600 44.61500
H  56.09100 46.39600 44.85400
H  56.90200 45.37000 43.66400
H  55.39300 44.86800 44.44100
H  54.34400 49.32700 42.09700
H  55.96500 48.76600 42.52300
H  54.36900 50.92800 43.80300
H  56.15600 50.69700 43.82100
H  55.13700 49.70700 44.89000
H  50.68200 51.49700 42.20300
H  50.70000 51.35700 43.92900
H  49.21700 51.83200 43.08300
H  46.32700 48.27500 40.33200
H  42.38600 48.27800 40.56600
H  42.46800 48.33900 42.43500
H  42.85300 46.89800 41.56500

