158

Mg -2.11500 17.33400 27.40800
C  -2.41900 14.94600 30.05000
C  -2.53600 19.84900 29.49400
C  -2.14500 19.41500 24.69100
C  -1.70300 14.52800 25.19800
N  -2.44700 17.32600 29.52900
C  -2.39500 16.30600 30.51500
C  -2.69800 16.94500 31.88500
C  -2.82900 18.47200 31.61600
C  -2.47800 18.60500 30.10400
C  -4.08300 19.26600 32.20100
C  -1.62500 16.47000 32.99100
C  -1.37600 17.35300 34.26300
H  -1.37800 16.62200 35.61100
N  -2.25700 19.40600 27.13700
C  -2.45500 20.29500 28.11800
C  -2.58800 21.60700 27.58200
C  -2.42300 21.51500 26.18600
C  -2.33500 20.05500 25.91600
C  -2.83500 22.80800 28.46600
C  -2.42700 22.53100 25.11300
O  -2.43000 22.21800 23.88500
C  -2.49900 24.05500 25.43700
N  -1.98200 16.98400 25.29000
C  -1.99300 17.99800 24.37300
C  -1.64100 17.52300 22.92800
C  -1.32300 15.97500 23.20500
C  -1.63400 15.78600 24.70000
C  -2.83300 17.77000 21.97200
C  0.07300 15.59400 22.79500
C  1.21200 16.10300 23.70900
N  -2.10200 15.25200 27.54000
C  -1.93700 14.26400 26.58300
C  -2.07600 12.94600 27.12300
C  -2.28200 13.25300 28.47300
C  -2.23200 14.62000 28.67400
C  -2.04500 11.69000 26.38700
C  -2.47500 12.54100 29.70800
O  -2.35100 11.35700 29.88900
C  -2.60200 13.65900 30.82200
C  -1.48500 13.35200 31.72500
O  -0.32100 13.73000 31.60500
O  -2.02200 12.67900 32.77800
C  -1.07600 12.46500 33.82600
H  -2.66000 20.72300 30.13700
H  -2.09600 20.00800 23.77500
H  -1.61500 13.69500 24.49700
H  -3.63900 16.45500 32.13700
H  -1.94300 18.97900 32.00000
H  -3.78200 20.06500 32.87900
H  -4.72200 18.50400 32.64600
H  -4.60500 19.58200 31.29900
H  -0.68300 16.44500 32.44300
H  -1.95600 15.47300 33.28400
H  -2.26400 17.98500 34.25100
H  -0.47500 17.93400 34.06900
H  -2.00800 23.49300 28.27900
H  -2.98700 22.50800 29.50300
H  -3.77700 23.17800 28.06200
H  -3.49000 24.34400 25.78800
H  -2.20900 24.66800 24.58300
H  -1.76100 24.18700 26.22800
H  -0.72700 18.03700 22.63100
H  -1.88700 15.29600 22.56600
H  -3.63100 18.28500 22.50800
H  -3.26600 16.89100 21.49500
H  -2.40400 18.40300 21.19500
H  0.20300 15.88900 21.75300
H  0.10700 14.51300 22.92800
H  1.21600 15.40800 24.54800
H  0.87900 17.01500 24.20400
H  2.17000 16.23200 23.20500
H  -1.91300 10.80900 27.01600
H  -1.30100 11.73000 25.59200
H  -3.00800 11.47100 25.92500
H  -3.58100 13.77900 31.28500
H  -0.28800 11.76200 33.55300
H  -1.70800 11.91000 34.51900
H  -0.79600 13.41600 34.27900
Mg 42.07900 40.71300 26.39100
C  41.57600 43.26900 28.80900
C  42.98300 38.61600 28.80500
C  42.71400 38.51300 23.92900
C  41.48500 43.20900 23.81700
N  42.49100 41.03200 28.60800
C  41.99300 42.03600 29.35900
C  42.11000 41.69600 30.86200
C  42.90300 40.34900 30.79000
C  42.75700 39.91800 29.29700
C  44.41000 40.55600 31.27600
C  40.66400 41.43500 31.59500
C  40.60800 42.14000 32.92300
H  39.87200 41.38500 34.02900
N  42.79000 38.76000 26.42100
C  43.12100 37.99700 27.46500
C  43.36900 36.63400 27.04700
C  43.23600 36.63200 25.61900
C  42.91300 38.02100 25.24800
C  43.66100 35.46500 28.03200
C  43.40500 35.44500 24.73100
O  43.16700 35.48500 23.56000
C  43.78100 34.11400 25.23300
N  42.20500 40.82000 24.17100
C  42.39400 39.76100 23.37500
C  42.28200 40.03200 21.89000
C  41.97700 41.55400 21.89200
C  41.79900 41.88800 23.34700
C  43.46500 39.49300 20.99200
C  40.75100 41.89700 20.94500
C  40.78500 41.52400 19.38400
N  41.49300 42.73500 26.26300
C  41.32100 43.56200 25.17400
C  40.97800 44.91600 25.63300
C  40.95200 44.78400 27.08500
C  41.36800 43.47700 27.39800
C  40.52300 46.12600 24.81000
C  40.77400 45.49100 28.37000
O  40.42900 46.70300 28.63500
C  41.01900 44.44000 29.54300
C  41.98100 45.12300 30.45900
O  43.16300 45.23400 30.25400
O  41.35400 45.77700 31.50300
C  42.20100 46.31500 32.55700
H  43.13100 37.97400 29.67700
H  42.91100 37.89100 23.05400
H  41.23000 43.94300 23.05000
H  42.63900 42.49500 31.38100
H  42.55800 39.55600 31.45400
H  44.64900 41.61700 31.35200
H  45.07400 40.03100 30.58800
H  44.49900 40.15500 32.28500
H  40.64700 40.35700 31.75000
H  39.87100 41.81400 30.95100
H  40.16300 43.13400 32.88900
H  41.62900 42.23600 33.29300
H  43.01100 34.62800 27.77700
H  43.67500 35.71700 29.09200
H  44.66000 35.12300 27.75900
H  43.92300 33.46800 24.36700
H  43.01900 33.60200 25.82100
H  44.74600 34.23100 25.72500
H  41.38900 39.50000 21.56300
H  42.92600 41.97100 21.55400
H  44.17700 39.08800 21.71100
H  43.95600 40.31500 20.47200
H  43.11300 38.69900 20.33400
H  40.59700 42.97600 20.91000
H  39.82700 41.45500 21.31900
H  40.24400 40.59900 19.18600
H  41.80600 41.49900 19.00200
H  40.30100 42.32600 18.82600
H  40.74400 46.95500 25.48100
H  39.46500 46.00800 24.57400
H  41.10000 46.11500 23.88500
H  40.08300 44.29200 30.08200
H  42.87700 47.00700 32.05400
H  42.68400 45.48100 33.06500
H  41.66700 47.01000 33.20400

