158

Mg 45.36400 4.76800 48.28600
C  43.25300 7.57400 48.17400
C  42.68900 2.83100 47.33700
C  47.47500 2.23600 48.01600
C  48.04900 7.02000 48.39600
N  43.25900 5.17400 47.83100
C  42.57700 6.34400 47.96100
C  41.15000 6.28800 47.47300
C  40.89100 4.73300 47.50300
C  42.37300 4.22900 47.49500
C  39.96200 4.30600 48.60300
C  41.09100 7.11100 46.07400
C  39.71000 7.71600 45.78800
H  39.00100 7.27700 44.47400
N  45.08600 2.73900 47.87500
C  43.90600 2.11900 47.52000
C  44.10000 0.71900 47.45400
C  45.50400 0.48900 47.75600
C  46.11400 1.86700 47.86400
C  42.96700 -0.28800 47.16100
C  46.14000 -0.91500 47.91800
O  45.56300 -1.90800 47.46500
C  47.31100 -1.14900 48.67000
N  47.47800 4.64100 48.01600
C  48.10900 3.47400 48.06600
C  49.62000 3.69000 48.17100
C  49.75900 5.25400 48.17700
C  48.34800 5.68500 48.21100
C  50.32600 3.01000 49.28800
C  50.51400 5.81100 46.92000
C  51.68900 6.68400 47.37300
N  45.67000 6.79900 48.41300
C  46.79700 7.60600 48.43100
C  46.46500 8.96500 48.45100
C  45.09900 8.99700 48.47100
C  44.65600 7.70600 48.33300
C  47.34600 10.12100 48.32900
C  43.95600 9.86200 48.49200
O  43.98200 11.04400 48.51200
C  42.69600 9.03400 48.17500
C  41.61800 9.26600 49.23700
O  41.50500 8.55000 50.21100
O  40.79700 10.30800 48.89100
C  39.96500 10.76000 49.96300
H  41.75000 2.33200 47.09000
H  48.17700 1.41000 47.88300
H  48.92800 7.64700 48.56300
H  40.58200 6.78400 48.26000
H  40.43900 4.33000 46.59700
H  39.61700 5.18600 49.14500
H  40.41900 3.68600 49.37400
H  39.15500 3.69900 48.19200
H  41.17100 6.30700 45.34200
H  41.85100 7.85800 45.84300
H  39.86700 8.78700 45.66000
H  39.06900 7.48900 46.63900
H  42.52600 -0.53200 48.12700
H  43.30700 -1.13400 46.56300
H  42.22400 0.27200 46.59300
H  47.21600 -1.88000 49.47300
H  47.62800 -0.31300 49.29400
H  48.10900 -1.37000 47.96100
H  49.96700 3.17300 47.27600
H  50.26200 5.50600 49.11000
H  50.65000 2.05500 48.87500
H  49.73900 2.83400 50.18900
H  51.23600 3.53900 49.57300
H  49.75800 6.41000 46.41300
H  50.86800 4.96200 46.33600
H  51.99900 6.32200 48.35300
H  51.36800 7.72400 47.43600
H  52.47200 6.55000 46.62600
H  46.77200 10.89400 47.81800
H  48.23100 9.93200 47.72100
H  47.75500 10.37800 49.30600
H  42.25800 9.23300 47.19600
H  39.36100 11.61000 49.64600
H  40.67300 11.25300 50.63000
H  39.40100 9.94800 50.42200
Mg 48.95400 46.02300 42.65500
C  45.69900 46.65200 41.53600
C  48.65300 42.98200 41.11200
C  52.16800 45.58200 42.99800
C  49.23800 49.35400 43.69800
N  47.44500 45.03400 41.34500
C  46.23100 45.48200 41.03300
C  45.44600 44.53700 40.08700
C  46.26100 43.18600 40.43400
C  47.54200 43.72100 41.01200
C  45.55400 42.05500 41.25900
C  45.64900 45.00300 38.58300
C  44.38500 44.91500 37.65300
H  44.43400 44.07900 36.37500
N  50.25300 44.45800 42.06900
C  49.97800 43.33100 41.49600
C  51.10800 42.40800 41.43100
C  52.14800 43.09900 42.19300
C  51.56800 44.45200 42.45700
C  51.18100 40.95800 40.80000
C  53.51200 42.57800 42.63900
O  53.68300 41.39600 42.45400
C  54.63500 43.35100 43.27500
N  50.45000 47.33900 43.17100
C  51.71300 46.90800 43.26700
C  52.70600 48.09800 43.61400
C  51.76700 49.30100 43.74400
C  50.40100 48.62800 43.56700
C  53.56600 47.82200 44.87900
C  51.96300 50.47300 42.69600
C  52.82600 51.62700 43.29300
N  47.67400 47.64200 42.75600
C  47.90900 48.89500 43.39900
C  46.59400 49.56700 43.46900
C  45.72800 48.70800 42.74600
C  46.48900 47.59700 42.29500
C  46.37300 50.92800 44.00300
C  44.32500 48.58600 42.30400
O  43.31600 49.20900 42.49000
C  44.38300 47.26600 41.38400
C  43.14500 46.39200 41.70900
O  42.37800 45.96800 40.87800
O  42.90500 46.32200 43.08700
C  41.76600 45.47800 43.50000
H  48.44200 41.94900 40.82800
H  53.25400 45.47200 43.02900
H  49.34200 50.38900 44.02900
H  44.37300 44.47600 40.26700
H  46.57300 42.75500 39.48200
H  46.10100 41.85600 42.18000
H  45.60000 41.17000 40.62400
H  44.52000 42.37000 41.40100
H  46.38900 44.40300 38.05200
H  46.05600 46.01400 38.58900
H  44.16000 45.94800 37.38800
H  43.48900 44.77300 38.25700
H  50.25900 40.86900 40.22500
H  51.04700 40.23300 41.60300
H  51.95800 40.91600 40.03800
H  54.35200 43.92200 44.15900
H  55.12800 43.88000 42.46000
H  55.36500 42.62200 43.62700
H  53.35900 48.25300 42.75500
H  51.84600 49.74800 44.73500
H  53.25600 46.83200 45.21400
H  53.48500 48.47900 45.74600
H  54.59400 47.87800 44.52000
H  51.04200 50.90700 42.30600
H  52.50800 49.93500 41.92000
H  52.35100 52.55200 42.96500
H  53.86700 51.51000 42.99300
H  52.65500 51.71300 44.36600
H  46.57400 51.64900 43.21100
H  46.97700 51.07400 44.89900
H  45.31400 51.07800 44.21300
H  44.23600 47.51500 40.33300
H  41.74100 44.52500 42.97100
H  40.79100 45.95900 43.43400
H  41.87400 45.29500 44.56900

