158

Mg -1.59700 17.46200 27.63200
C  -1.93700 14.89600 29.95300
C  -2.43600 19.76000 30.17800
C  -1.42400 20.07400 25.41700
C  -1.80600 15.22200 25.07300
N  -2.03300 17.35600 29.83100
C  -2.04500 16.17200 30.63200
C  -2.08200 16.59700 32.13400
C  -2.41000 18.08800 32.06200
C  -2.35300 18.42900 30.58600
C  -3.64500 18.65300 32.91300
C  -0.78800 16.20500 32.80200
C  -0.16400 17.07700 33.94000
H  0.20700 16.33200 35.21200
N  -1.86800 19.59100 27.80400
C  -2.26600 20.31300 28.93400
C  -2.45600 21.69700 28.63900
C  -2.03700 21.80300 27.24900
C  -1.64900 20.48600 26.78100
C  -2.97900 22.62900 29.73800
C  -2.00500 23.09100 26.37900
O  -1.50600 23.20700 25.25600
C  -2.50600 24.36900 27.04300
N  -1.51600 17.55600 25.49000
C  -1.40500 18.73300 24.83000
C  -1.28300 18.45600 23.33300
C  -1.14600 16.88900 23.23400
C  -1.62800 16.50000 24.62800
C  -2.38400 19.04500 22.33700
C  0.23900 16.37200 22.89700
C  1.37700 16.75700 23.90100
N  -1.65800 15.39600 27.45500
C  -1.75500 14.66600 26.31800
C  -1.87700 13.32100 26.72900
C  -1.95000 13.32800 28.11500
C  -1.81000 14.66100 28.57700
C  -1.92100 12.07500 25.91800
C  -1.99000 12.50000 29.33200
O  -1.94500 11.27400 29.51200
C  -1.96100 13.51200 30.50500
C  -0.84100 13.09000 31.31200
O  0.28300 13.49500 31.11500
O  -1.28400 12.28900 32.35700
C  -0.24900 11.76400 33.16600
H  -2.46300 20.43700 31.03500
H  -1.18000 20.80400 24.64300
H  -1.69700 14.43700 24.32200
H  -2.96100 16.07500 32.51200
H  -1.67500 18.82100 32.39300
H  -4.45600 18.80100 32.20000
H  -3.53500 19.55600 33.51400
H  -3.95200 17.92200 33.66100
H  0.10300 16.19100 32.17400
H  -0.94400 15.18600 33.15600
H  -0.48200 18.07300 34.24900
H  0.83100 17.25000 33.53100
H  -2.86500 23.66300 29.41100
H  -2.48700 22.54300 30.70700
H  -4.01400 22.37600 29.96600
H  -3.44400 24.27200 27.59000
H  -2.64500 25.23800 26.40000
H  -1.84100 24.49600 27.89700
H  -0.29900 18.84700 23.07200
H  -1.78500 16.44400 22.47100
H  -3.30500 18.58800 22.69600
H  -2.02500 18.71900 21.36000
H  -2.51200 20.12700 22.37200
H  0.53600 16.65500 21.88700
H  -0.02300 15.32000 22.78500
H  1.00000 16.70600 24.92200
H  1.74500 17.75800 23.67900
H  2.26800 16.13200 23.84500
H  -1.50600 12.20100 24.91800
H  -2.96500 11.86800 25.68400
H  -1.40500 11.21700 26.34800
H  -2.88900 13.36100 31.05500
H  0.04600 10.83500 32.67700
H  -0.65100 11.68600 34.17600
H  0.61200 12.41800 33.30300
Mg -11.72700 39.32100 41.58100
C  -10.34600 36.54800 40.25400
C  -9.39300 41.34400 39.93200
C  -13.88600 42.00900 41.75100
C  -14.41100 37.32200 42.73000
N  -10.12800 38.96100 40.21600
C  -9.68400 37.71300 39.94700
C  -8.34000 37.74000 39.21100
C  -8.00000 39.25400 39.08600
C  -9.24200 39.94000 39.77700
C  -6.68400 39.60500 39.70900
C  -8.45500 37.01600 37.86700
C  -7.49100 35.78400 37.55500
H  -6.54700 36.05500 36.34300
N  -11.47500 41.47400 41.21900
C  -10.43200 42.08200 40.51600
C  -10.75000 43.51600 40.47000
C  -12.06600 43.70700 41.03400
C  -12.52600 42.37200 41.41900
C  -9.76900 44.41300 39.85800
C  -12.75600 45.15800 41.27600
O  -12.36200 46.11400 40.69900
C  -13.80400 45.30300 42.28900
N  -13.89100 39.68300 42.30400
C  -14.43200 40.91300 42.31800
C  -15.92000 40.80300 42.78400
C  -15.92600 39.33600 43.34600
C  -14.69700 38.66600 42.75600
C  -16.36200 41.91900 43.89000
C  -17.25800 38.60600 43.12400
C  -17.47500 37.92800 41.73000
N  -12.29200 37.31100 41.70900
C  -13.32100 36.60500 42.26300
C  -13.16800 35.21200 42.14400
C  -11.95100 35.11800 41.37200
C  -11.50900 36.45400 41.15300
C  -13.87000 34.05100 42.85200
C  -11.04000 34.20200 40.78900
O  -11.16400 32.97900 40.71400
C  -9.93600 35.06800 40.05100
C  -8.69100 34.66500 40.63800
O  -8.12800 33.64500 40.35000
O  -8.20200 35.56800 41.56800
C  -7.06700 35.12300 42.33700
H  -8.59300 41.83500 39.37500
H  -14.47400 42.91900 41.88400
H  -15.28300 36.75700 43.06700
H  -7.58900 37.25800 39.83800
H  -7.94300 39.49900 38.02500
H  -6.11900 38.73400 40.04000
H  -6.79600 40.34800 40.49900
H  -5.99300 39.85800 38.90500
H  -8.33200 37.72800 37.05100
H  -9.49300 36.70300 37.75400
H  -8.08200 34.88400 37.38800
H  -6.83800 35.60200 38.40900
H  -9.45300 45.04100 40.69100
H  -10.20000 45.12100 39.15000
H  -8.87000 43.95200 39.44700
H  -14.65900 45.34200 41.61400
H  -13.69600 46.25600 42.80700
H  -13.86100 44.51300 43.03800
H  -16.62100 40.86200 41.95100
H  -15.88700 39.36400 44.43500
H  -16.69300 42.87100 43.47300
H  -15.51400 42.20900 44.51100
H  -17.06800 41.38200 44.52400
H  -18.03200 39.37400 43.14600
H  -17.33800 37.91500 43.96300
H  -17.58800 36.85400 41.87900
H  -16.61500 38.05500 41.07200
H  -18.24200 38.35200 41.08300
H  -13.23000 33.52900 43.56300
H  -14.42400 33.42900 42.14800
H  -14.72900 34.44200 43.39800
H  -9.90600 34.71400 39.02100
H  -6.67600 35.91300 42.97900
H  -6.19700 34.80300 41.76300
H  -7.58300 34.48000 43.04900

