158

Mg 35.43200 47.79700 25.13000
C  35.48500 46.13400 28.20600
C  34.47000 50.63900 26.90900
C  35.03700 49.32000 22.22200
C  36.29700 44.90300 23.48200
N  34.92600 48.32800 27.28100
C  35.15400 47.48600 28.39100
C  34.84900 48.25300 29.73800
C  34.26600 49.57100 29.21500
C  34.67900 49.52600 27.71600
C  32.79500 49.74000 29.56900
C  36.17900 48.45800 30.53700
C  36.08600 48.29000 32.03900
H  34.72100 48.25600 32.79300
N  34.84400 49.71000 24.65900
C  34.46500 50.76900 25.54900
C  34.17100 51.95200 24.77200
C  34.38700 51.57800 23.36400
C  34.79200 50.13700 23.34700
C  33.62500 53.31000 25.34300
C  34.22100 52.38000 22.11500
O  34.33400 52.00100 20.93200
C  33.86800 53.82800 22.23800
N  35.78600 47.28200 23.16100
C  35.42700 48.03400 22.11900
C  35.77000 47.44800 20.73600
C  36.43900 46.08000 21.13500
C  36.15000 45.99800 22.66900
C  34.54100 47.28500 19.83400
C  37.93700 46.01100 20.73700
C  38.50100 44.57800 20.71700
N  35.89900 45.92600 25.69300
C  36.17500 44.78200 24.90300
C  36.49500 43.70000 25.74900
C  36.22100 44.16100 27.03600
C  35.87100 45.53500 26.93500
C  36.72700 42.32000 25.31800
C  36.08300 43.78300 28.38400
O  36.28900 42.71600 28.93200
C  35.59100 45.09000 29.21900
C  34.29800 44.70300 29.75600
O  33.28600 44.44100 29.09800
O  34.33700 44.81600 31.06500
C  33.09700 44.36200 31.80800
H  34.20400 51.54900 27.45100
H  34.91400 49.76600 21.23300
H  36.44000 43.92200 23.02400
H  34.14300 47.71700 30.37300
H  34.83900 50.40000 29.63000
H  32.16300 49.86800 28.69100
H  32.61100 50.69500 30.06100
H  32.37600 48.87200 30.07800
H  36.66700 49.42300 30.40600
H  36.82400 47.64900 30.19300
H  36.65100 49.10200 32.49600
H  36.65100 47.41900 32.37300
H  34.46400 53.94000 25.63700
H  32.94500 53.07300 26.16100
H  33.08800 53.93500 24.62800
H  32.84400 53.86800 22.60900
H  33.99700 54.31900 21.27300
H  34.57700 54.29500 22.92200
H  36.45800 48.23000 20.41700
H  35.89400 45.23500 20.71300
H  34.22100 48.29000 19.56000
H  33.73900 46.84500 20.42700
H  34.82800 46.87200 18.86700
H  38.54600 46.56500 21.45100
H  37.96400 46.39300 19.71700
H  39.32400 44.39400 21.40700
H  38.92200 44.56000 19.71200
H  37.70100 43.84400 20.81500
H  36.40800 41.70500 26.16000
H  37.79300 42.28600 25.09600
H  36.10200 42.14400 24.44200
H  36.24300 45.33400 30.05700
H  32.23900 44.95500 31.49000
H  33.11600 44.74500 32.82900
H  32.96400 43.29500 31.63600
Mg -11.49100 17.32700 41.06500
C  -7.93800 16.88600 41.01700
C  -10.95100 20.77100 40.51100
C  -14.66300 17.72900 40.06600
C  -11.76600 13.82400 40.70900
N  -9.66000 18.64200 40.94200
C  -8.32000 18.24300 40.79500
C  -7.31600 19.45000 40.54900
C  -8.33100 20.65200 40.80000
C  -9.78300 19.99500 40.83500
C  -8.12500 21.46100 42.11300
C  -6.73700 19.36300 39.06800
C  -5.16600 19.03600 38.91200
H  -4.85500 18.00900 37.78200
N  -12.68200 19.00900 40.38600
C  -12.29500 20.32000 40.32900
C  -13.41600 21.17000 39.90900
C  -14.63000 20.29300 39.93400
C  -14.01700 18.98200 40.17100
C  -13.39200 22.56700 39.47100
C  -16.02000 20.72100 39.71400
O  -16.26800 21.91900 39.64000
C  -17.26800 19.84400 39.70200
N  -12.97800 15.92100 40.54100
C  -14.20400 16.37000 40.17300
C  -15.24700 15.26000 39.91700
C  -14.25400 14.08700 39.83600
C  -12.91800 14.63000 40.41600
C  -16.36800 14.96400 40.95200
C  -14.04700 13.51600 38.43100
C  -14.98800 12.35200 37.92000
N  -10.20100 15.66200 41.16100
C  -10.47400 14.33300 41.01900
C  -9.21200 13.55800 41.18800
C  -8.19400 14.56900 41.16600
C  -8.84400 15.84300 41.09200
C  -9.16400 12.07900 41.08400
C  -6.72000 14.76100 41.03500
O  -5.91300 13.89400 40.99800
C  -6.54000 16.29800 40.95500
C  -5.68100 16.69100 42.15800
O  -4.61100 16.09800 42.54300
O  -6.24600 17.65900 42.96400
C  -5.67600 18.04000 44.20000
H  -10.72800 21.82400 40.32600
H  -15.71000 17.75300 39.75700
H  -11.83000 12.75200 40.51400
H  -6.45100 19.41900 41.21100
H  -8.34900 21.38600 39.99500
H  -9.02900 21.23800 42.68000
H  -7.97700 22.52500 41.92800
H  -7.30500 21.00700 42.67000
H  -6.90400 20.40400 38.78800
H  -7.21400 18.56300 38.50300
H  -4.78100 18.70900 39.87800
H  -4.65000 19.97200 38.70200
H  -14.14200 22.71000 38.69300
H  -12.39300 22.80500 39.10500
H  -13.50100 23.22100 40.33600
H  -17.06500 19.01600 39.02400
H  -18.12600 20.36500 39.27800
H  -17.35000 19.55600 40.75000
H  -15.61600 15.49700 38.91900
H  -14.58100 13.27900 40.49000
H  -15.99800 15.48700 41.83400
H  -16.38600 13.89600 41.16800
H  -17.34600 15.27800 40.58600
H  -13.05500 13.06600 38.37700
H  -14.10200 14.34700 37.72700
H  -14.43500 11.56600 37.40600
H  -15.66300 12.79100 37.18400
H  -15.63300 11.99000 38.72100
H  -8.28100 11.79200 41.65500
H  -9.07500 11.77600 40.04100
H  -9.98300 11.49200 41.50000
H  -6.06700 16.66700 40.04500
H  -4.58800 18.04600 44.13300
H  -5.86000 17.34800 45.02100
H  -6.12300 18.98900 44.49900

