158

Mg 44.09600 5.27200 47.05300
C  42.07500 8.17200 46.73900
C  41.33600 3.31400 46.45600
C  45.99400 2.57300 46.54000
C  46.83600 7.34400 46.95100
N  41.91600 5.73400 46.75600
C  41.34700 6.91400 46.51300
C  39.90900 6.74700 45.98500
C  39.62200 5.19300 46.34200
C  41.00900 4.67900 46.49900
C  38.60100 4.86900 47.56100
C  39.71200 7.04500 44.41200
C  39.08500 8.40300 44.00300
H  39.70500 9.19800 42.87300
N  43.69200 3.19300 46.60400
C  42.50000 2.57000 46.43700
C  42.63400 1.19800 46.16900
C  44.02200 0.91100 46.20000
C  44.67400 2.23100 46.45400
C  41.48300 0.29400 45.87000
C  44.65800 -0.53400 46.01300
O  43.93000 -1.53000 45.77400
C  46.10500 -0.71800 45.77400
N  46.09400 4.98200 46.95500
C  46.65800 3.79400 46.79000
C  48.17500 3.84200 46.71100
C  48.53100 5.34200 46.66000
C  47.09200 5.95400 46.92200
C  48.80400 2.96300 47.84200
C  49.03200 5.92100 45.28100
C  50.29400 5.31900 44.66100
N  44.45800 7.35000 46.99000
C  45.63800 8.01300 46.97500
C  45.36100 9.42400 46.95300
C  43.96200 9.54900 46.91000
C  43.45100 8.24400 46.92800
C  46.36400 10.57600 46.88800
C  42.84200 10.49000 46.84300
O  42.80700 11.71100 46.81000
C  41.58800 9.60900 46.66400
C  40.61500 9.94400 47.72800
O  40.65500 9.46600 48.86000
O  39.67000 10.86300 47.30700
C  38.58600 11.17500 48.13900
H  40.44400 2.69000 46.37500
H  46.68200 1.82200 46.14600
H  47.66400 8.05600 46.97600
H  39.24600 7.45200 46.48600
H  39.20100 4.74300 45.44300
H  38.16900 3.91800 47.25200
H  37.76800 5.51400 47.84200
H  39.21800 4.86700 48.46000
H  39.15500 6.18700 44.03600
H  40.67900 6.95500 43.91700
H  39.04900 8.99200 44.92000
H  38.01600 8.22400 43.89200
H  40.48300 0.70200 46.01900
H  41.63800 -0.56500 46.52200
H  41.73200 -0.13900 44.90100
H  46.38000 0.08100 45.08600
H  46.30000 -1.73500 45.43400
H  46.65600 -0.69700 46.71400
H  48.49600 3.36500 45.78600
H  49.11400 5.56200 47.55400
H  49.54300 3.53700 48.40200
H  49.23600 2.00100 47.56600
H  48.10200 2.78500 48.65600
H  49.37300 6.93700 45.48100
H  48.16700 5.86600 44.62000
H  50.28400 4.91700 43.64800
H  50.64600 4.57400 45.37500
H  51.16100 5.98000 44.66200
H  46.38800 11.05800 45.91000
H  47.33600 10.22800 47.23800
H  45.90700 11.24200 47.61900
H  41.20000 9.72000 45.65200
H  37.67100 10.91700 47.60600
H  38.46500 12.23400 48.36900
H  38.43100 10.47800 48.96200
Mg -1.02900 34.50100 26.78700
C  -2.87600 32.78300 29.24800
C  0.54100 36.32800 29.42400
C  0.22500 36.57100 24.60000
C  -2.78400 32.87900 24.28100
N  -1.30900 34.66400 29.10500
C  -2.06200 33.81400 29.87400
C  -1.84400 34.07800 31.38800
C  -0.86300 35.27700 31.32100
C  -0.48200 35.43500 29.88200
C  -1.36000 36.53400 31.98700
C  -1.25700 32.76900 32.09800
C  -1.94300 32.29800 33.34700
H  -1.10800 32.17400 34.58300
N  0.47300 36.01900 27.01500
C  0.96000 36.68800 28.14800
C  1.97800 37.65900 27.67100
C  1.89800 37.69500 26.27900
C  0.83700 36.69000 25.92000
C  2.82100 38.50700 28.60200
C  2.80100 38.51000 25.37700
O  2.57300 38.53900 24.19400
C  3.93700 39.37100 25.86700
N  -1.12800 34.60200 24.70300
C  -0.58400 35.57400 24.02500
C  -0.97400 35.58200 22.56400
C  -1.80900 34.26800 22.42500
C  -1.91400 33.89900 23.87500
C  -1.51800 36.94700 21.96200
C  -1.28000 33.05400 21.65300
C  -0.94100 33.11200 20.18000
N  -2.49800 33.14900 26.72000
C  -3.03600 32.49400 25.65200
C  -4.02700 31.47100 26.07300
C  -3.92000 31.55200 27.49200
C  -2.97000 32.52000 27.80300
C  -5.02300 30.68000 25.37000
C  -4.51500 31.04600 28.76700
O  -5.37900 30.28100 29.05000
C  -3.74500 31.83800 29.93500
C  -4.78800 32.47600 30.85800
O  -5.44800 33.45000 30.47900
O  -4.84800 31.84700 32.15200
C  -5.87700 32.48400 33.04200
H  1.18400 36.64100 30.25000
H  0.52500 37.30200 23.84600
H  -3.43200 32.43600 23.52200
H  -2.80900 34.37100 31.80300
H  0.10000 34.97600 31.73500
H  -1.97800 36.25400 32.84000
H  -1.92400 37.10800 31.25200
H  -0.57100 37.15700 32.40800
H  -0.25300 32.97400 32.46800
H  -1.18900 31.94500 31.38900
H  -2.30300 31.27300 33.25100
H  -2.86000 32.83800 33.58500
H  3.85000 38.25200 28.34800
H  2.46500 38.37000 29.62300
H  2.65600 39.56400 28.39100
H  4.66200 38.79200 26.43800
H  3.63300 40.17600 26.53600
H  4.47000 39.84000 25.04000
H  -0.10200 35.22400 22.01700
H  -2.70900 34.72500 22.01300
H  -1.48100 37.71600 22.73300
H  -2.58000 36.78600 21.77300
H  -1.10600 37.23600 20.99500
H  -1.85000 32.13900 21.81200
H  -0.34500 32.80500 22.15500
H  0.12800 33.25400 20.01600
H  -1.44400 33.88700 19.60200
H  -1.27000 32.17000 19.74100
H  -5.08700 30.95400 24.31700
H  -5.97100 30.76300 25.90000
H  -4.60800 29.67200 25.33500
H  -3.12400 31.20700 30.57100
H  -5.24800 32.90800 33.82400
H  -6.59400 31.80200 33.49900
H  -6.45300 33.24800 32.52000

