158

Mg 24.71500 -7.11700 47.30700
C  27.19600 -4.95100 46.04300
C  22.62100 -5.88500 44.99100
C  22.66500 -9.77600 47.82900
C  27.29000 -8.77600 49.01500
N  24.91300 -5.68300 45.71700
C  26.00000 -4.87100 45.41600
C  25.75300 -3.98000 44.25600
C  24.15700 -4.12300 44.01000
C  23.87500 -5.30700 44.94600
C  23.24100 -2.88400 44.35000
C  26.69100 -4.31500 42.99700
C  27.62500 -3.04700 42.66000
H  27.62600 -2.51500 41.26500
N  22.79000 -7.65100 46.61500
C  22.01800 -6.90600 45.77900
C  20.76400 -7.57400 45.62500
C  20.75200 -8.70800 46.44500
C  22.09500 -8.76700 47.02700
C  19.66200 -7.14900 44.68200
C  19.55700 -9.62400 46.52600
O  18.46100 -9.39700 45.94500
C  19.57400 -10.88600 47.35200
N  24.84500 -8.99600 48.38700
C  23.94000 -9.99800 48.36500
C  24.44700 -11.19100 49.22100
C  25.84100 -10.79300 49.63400
C  26.07600 -9.43200 48.97800
C  23.42400 -11.58300 50.41300
C  27.05100 -11.80700 49.30700
C  27.93000 -12.25800 50.45900
N  26.85800 -6.94500 47.45200
C  27.75400 -7.70400 48.23900
C  29.09000 -7.08200 48.21800
C  28.83400 -5.97900 47.35700
C  27.52800 -6.00500 46.93700
C  30.40800 -7.58800 48.84500
C  29.47600 -4.87400 46.71200
O  30.60100 -4.43800 46.80100
C  28.44900 -4.10500 45.97500
C  28.35500 -2.75900 46.55500
O  28.45600 -2.44700 47.73800
O  28.17800 -1.76500 45.63300
C  27.83500 -0.41400 46.05700
H  21.94000 -5.43400 44.26600
H  22.04100 -10.64800 48.03300
H  28.12700 -9.29500 49.48700
H  25.97300 -2.95600 44.55900
H  24.01200 -4.29500 42.94300
H  23.03100 -2.54400 43.33600
H  23.77600 -2.09800 44.88400
H  22.38100 -3.31000 44.86500
H  26.03200 -4.55000 42.16100
H  27.32800 -5.14500 43.30300
H  28.67500 -3.32100 42.76200
H  27.52500 -2.22300 43.36700
H  19.79900 -6.13900 44.29500
H  18.66700 -7.14000 45.12600
H  19.79300 -7.87300 43.87800
H  18.56400 -11.27400 47.48400
H  20.07300 -10.79300 48.31700
H  20.00800 -11.70200 46.77400
H  24.43500 -12.09400 48.61000
H  25.70000 -10.72400 50.71300
H  22.91800 -12.51700 50.16500
H  22.52900 -10.96200 50.44100
H  23.93200 -11.62800 51.37700
H  27.79600 -11.49200 48.57700
H  26.54000 -12.70700 48.96700
H  27.81900 -13.31400 50.70500
H  27.73700 -11.71700 51.38600
H  28.97700 -12.08500 50.21000
H  30.28600 -7.97500 49.85600
H  31.21200 -6.85400 48.77900
H  30.68800 -8.49400 48.30800
H  28.90300 -4.05400 44.98600
H  28.67400 0.11500 46.50800
H  27.01800 -0.27200 46.76500
H  27.68100 0.00600 45.06300
Mg 26.71400 50.36600 26.19500
C  24.81100 51.51800 28.88500
C  29.10100 49.38800 28.56700
C  28.62100 49.48200 23.76200
C  24.36300 51.76400 24.03800
N  27.01300 50.63600 28.54200
C  25.94400 50.95400 29.29200
C  26.40500 50.66800 30.76100
C  27.81300 50.09800 30.74000
C  28.05900 50.02200 29.21700
C  29.02600 50.95300 31.31700
C  25.36200 49.89400 31.61800
C  24.81000 50.69600 32.86900
H  24.62500 49.89500 34.14100
N  28.58700 49.54300 26.19700
C  29.35800 49.11200 27.20700
C  30.51100 48.35400 26.71100
C  30.44200 48.40700 25.31500
C  29.20300 49.24300 25.05100
C  31.55200 47.78200 27.49200
C  31.46900 47.92600 24.24900
O  31.35800 48.12200 23.09700
C  32.71900 47.13700 24.66500
N  26.64300 50.84800 24.17400
C  27.44000 50.15600 23.38100
C  27.07000 50.21600 21.87900
C  25.66600 50.93200 22.01500
C  25.49700 51.13000 23.51000
C  27.98200 50.82900 20.91700
C  24.42800 50.18900 21.39700
C  23.75600 51.01800 20.31800
N  24.92700 51.39800 26.40400
C  24.07100 51.92700 25.39700
C  23.05600 52.70100 26.04200
C  23.34300 52.46400 27.41000
C  24.42800 51.75300 27.56900
C  21.99300 53.54000 25.40700
C  22.79000 52.78300 28.75000
O  21.78000 53.44900 29.03600
C  23.73600 52.16300 29.75700
C  24.23400 53.29600 30.56100
O  25.15400 54.01700 30.18200
O  23.45000 53.57500 31.65900
C  24.11300 54.48700 32.63400
H  29.73500 48.81900 29.25100
H  29.21300 49.00200 22.98000
H  23.62000 52.03400 23.28400
H  26.61400 51.65700 31.16800
H  27.74300 49.13500 31.24500
H  28.65100 51.92900 31.62500
H  29.70600 51.36900 30.57400
H  29.60300 50.39600 32.05500
H  25.78400 48.95400 31.97300
H  24.45900 49.59200 31.08700
H  23.84500 51.11400 32.58400
H  25.57200 51.44400 33.08600
H  31.46000 47.93300 28.56700
H  32.52300 48.20700 27.23700
H  31.54200 46.71500 27.27000
H  33.62400 47.68300 24.93300
H  32.93600 46.55900 23.76600
H  32.63600 46.42300 25.48400
H  26.91100 49.16800 21.62700
H  25.81500 51.91200 21.56000
H  28.78600 51.36800 21.41800
H  27.49500 51.48500 20.19600
H  28.34000 49.98700 20.32500
H  23.75700 49.86000 22.19000
H  24.78100 49.30100 20.87200
H  23.69800 50.47800 19.37300
H  24.30200 51.89100 19.96100
H  22.73600 51.27300 20.60700
H  21.99400 53.59800 24.31900
H  21.97200 54.54800 25.82300
H  21.07700 53.00400 25.65900
H  23.21400 51.38100 30.30800
H  23.99800 55.55900 32.47400
H  25.17800 54.27100 32.71600
H  23.74500 54.35300 33.65200

