158

Mg 8.42300 2.17600 27.90500
C  9.62200 0.59700 30.80300
C  6.55100 4.34700 30.00300
C  6.77800 3.31100 25.22500
C  10.24000 -0.00900 25.97900
N  7.89100 2.16400 30.12300
C  8.68200 1.59300 31.10000
C  8.52900 2.31500 32.47400
C  7.44600 3.34800 32.17600
C  7.19900 3.23100 30.68000
C  6.14400 3.27600 32.98100
C  9.89900 2.91900 33.12300
C  9.77900 3.71600 34.40800
H  10.50100 3.27000 35.66200
N  6.85700 3.60700 27.66100
C  6.33300 4.46200 28.58300
C  5.36000 5.33100 27.99900
C  5.47600 5.12300 26.60500
C  6.39300 3.98300 26.42400
C  4.61200 6.40900 28.81500
C  4.68400 5.73600 25.41100
O  4.69500 5.31300 24.23100
C  3.67400 6.87600 25.72200
N  8.46800 1.68200 25.92200
C  7.71400 2.28300 24.94200
C  8.08200 1.85200 23.48900
C  9.25300 0.87600 23.77800
C  9.27900 0.73400 25.28000
C  6.84400 1.11900 22.78800
C  10.63200 1.33800 23.30100
C  11.47000 2.31200 24.19400
N  9.68000 0.59000 28.29400
C  10.35100 -0.14500 27.38800
C  11.30500 -1.01900 28.08900
C  10.97100 -0.80300 29.43300
C  9.92500 0.17000 29.49900
C  12.15200 -2.18000 27.55900
C  11.32100 -1.14100 30.80200
O  12.11300 -2.02400 31.18100
C  10.59000 -0.16100 31.77400
C  9.79000 -0.86600 32.93100
O  8.91600 -1.71600 32.75200
O  10.23400 -0.53000 34.19300
C  9.90000 -1.40000 35.29100
H  5.99200 4.99500 30.68200
H  6.25600 3.63400 24.32200
H  10.92400 -0.69900 25.48100
H  8.27400 1.58700 33.24400
H  7.78300 4.33100 32.50400
H  6.26400 2.63100 33.85100
H  5.40000 2.95700 32.25100
H  5.89100 4.22500 33.45300
H  10.42800 3.43900 32.32500
H  10.57600 2.10800 33.39400
H  8.71600 3.74800 34.65000
H  10.18100 4.67500 34.08300
H  3.55200 6.21400 28.65500
H  4.80200 7.35200 28.30300
H  4.69200 6.67900 29.86800
H  3.13900 7.27600 24.86100
H  4.18300 7.62200 26.33200
H  2.81800 6.49000 26.27600
H  8.29900 2.76700 22.93700
H  9.05500 -0.15100 23.47100
H  6.11800 0.91000 23.57300
H  7.08900 0.15000 22.35500
H  6.31800 1.76800 22.08700
H  10.48300 1.83100 22.34000
H  11.23500 0.44000 23.16900
H  10.94800 2.62900 25.09700
H  11.74000 3.17200 23.58100
H  12.46800 1.92400 24.40100
H  12.46900 -2.10600 26.51900
H  11.65500 -3.13300 27.74100
H  13.12200 -2.22600 28.05400
H  11.32000 0.53300 32.19100
H  9.62100 -0.87500 36.20400
H  10.84200 -1.85600 35.59600
H  9.05200 -2.05200 35.08200
Mg 51.40600 45.73500 41.88700
C  48.68500 47.02600 40.29200
C  50.48000 42.47800 41.06500
C  54.72000 44.67800 42.41000
C  52.64600 48.97700 42.47500
N  49.73600 44.84900 40.79700
C  48.68900 45.62600 40.35900
C  47.61300 44.67200 39.91600
C  48.10900 43.19900 40.28600
C  49.52900 43.46900 40.81800
C  47.28500 42.36300 41.27400
C  47.26100 44.91800 38.37600
C  45.78800 44.68000 38.11200
H  45.31700 43.40400 37.35200
N  52.47300 43.74800 41.85400
C  51.88700 42.61900 41.43700
C  52.85800 41.56600 41.40900
C  54.11900 42.14600 41.82700
C  53.83800 43.54300 42.08100
C  52.48700 40.05700 41.07400
C  55.34400 41.33900 42.02400
O  55.30200 40.13100 41.71400
C  56.52400 41.98600 42.62700
N  53.40100 46.71100 42.17600
C  54.46500 46.05300 42.59900
C  55.59400 46.97400 43.02200
C  54.93900 48.30000 43.23800
C  53.56700 48.00100 42.57800
C  56.47800 46.50100 44.17900
C  55.66000 49.57800 42.62600
C  56.10100 50.65600 43.70400
N  50.78300 47.60800 41.47500
C  51.39900 48.79400 41.84600
C  50.54000 49.87400 41.39000
C  49.42000 49.21900 40.84400
C  49.64900 47.85100 40.89400
C  50.85700 51.35700 41.38100
C  48.17700 49.40900 40.14100
O  47.60500 50.44100 39.74300
C  47.64900 47.95800 39.69600
C  46.22200 47.87500 40.16700
O  45.77700 47.69200 41.26700
O  45.45400 47.89500 39.08600
C  44.03700 47.76400 39.32600
H  50.18900 41.43900 40.89600
H  55.79200 44.47300 42.35600
H  52.92200 49.97400 42.82300
H  46.79600 44.99000 40.56300
H  48.13400 42.71500 39.31000
H  46.40000 42.93300 41.55800
H  47.86100 42.23700 42.19100
H  46.95000 41.43500 40.81100
H  47.78900 44.14600 37.81600
H  47.52300 45.88500 37.94700
H  45.45100 45.55200 37.55200
H  45.26600 44.76100 39.06500
H  52.84400 39.48000 41.92700
H  52.94400 39.63900 40.17800
H  51.42800 39.90000 40.86900
H  56.25400 42.66000 43.43900
H  56.94400 42.54800 41.79300
H  57.33400 41.29400 42.86000
H  56.28000 46.90000 42.17800
H  54.70700 48.47900 44.28800
H  56.46500 47.29500 44.92500
H  57.48900 46.32200 43.81300
H  56.05000 45.55000 44.49700
H  55.02200 50.11000 41.91900
H  56.55200 49.20900 42.12000
H  55.60900 51.58400 43.41100
H  57.18400 50.69400 43.82100
H  55.69800 50.31600 44.65800
H  50.25900 51.89200 40.64300
H  51.92100 51.47600 41.17400
H  50.66300 51.75800 42.37600
H  47.73900 47.91200 38.61000
H  43.47800 47.36000 38.48200
H  43.62500 48.76800 39.43100
H  43.66100 47.14500 40.14100

