158

Mg 47.14800 15.67300 28.06800
C  45.22500 15.27200 30.93100
C  49.41200 17.42100 29.90500
C  48.74800 16.52400 25.17200
C  44.41100 14.55600 26.12200
N  47.24300 16.38700 30.13000
C  46.42200 15.99000 31.14800
C  46.96100 16.51700 32.50900
C  48.17000 17.35700 32.16300
C  48.25000 17.08000 30.60500
C  48.17400 18.91700 32.57400
C  47.31500 15.33600 33.48400
C  46.92300 15.39100 35.03000
H  46.73500 16.85100 35.53900
N  48.91400 16.53400 27.65100
C  49.78300 17.12700 28.55100
C  51.00400 17.40800 27.91100
C  50.82700 17.24300 26.53700
C  49.47500 16.75200 26.39200
C  52.21100 17.76900 28.66000
C  51.82200 17.57400 25.34000
O  51.52400 17.44000 24.13800
C  53.18600 18.06400 25.61800
N  46.60300 15.66400 25.92900
C  47.44300 16.05300 24.94400
C  46.73700 16.00400 23.59200
C  45.45100 15.23100 23.89300
C  45.47400 15.13300 25.44400
C  46.53600 17.38700 23.04900
C  45.11600 13.89400 23.20900
C  45.72300 12.56500 23.79800
N  45.22600 15.10100 28.39400
C  44.27400 14.54000 27.56500
C  43.17400 13.99600 28.32100
C  43.54100 14.24400 29.65900
C  44.74500 14.92700 29.62800
C  41.84000 13.52000 27.73800
C  43.08500 14.14700 31.05600
O  42.04800 13.73500 31.57800
C  44.18800 14.88600 31.89900
C  43.59300 16.00400 32.58400
O  43.34000 17.10500 32.10500
O  43.21700 15.62100 33.83300
C  42.42600 16.51600 34.68100
H  50.15300 17.98500 30.47600
H  49.26100 16.76200 24.23800
H  43.66500 14.07200 25.48900
H  46.21500 17.16400 32.96900
H  49.14800 17.01000 32.49700
H  49.22700 19.15200 32.72600
H  47.51500 19.11100 33.42000
H  47.89800 19.55500 31.73500
H  48.38800 15.15200 33.43700
H  46.79200 14.44700 33.13100
H  47.62300 14.84800 35.66500
H  45.98700 14.84300 35.14300
H  52.61500 18.74300 28.38400
H  52.97700 17.02200 28.45300
H  52.17800 17.65500 29.74300
H  53.18200 18.99100 26.19100
H  53.67400 18.34300 24.68500
H  53.53800 17.20200 26.18500
H  47.41800 15.52400 22.88900
H  44.59800 15.87600 23.68100
H  47.12400 17.56700 22.14900
H  46.80200 18.17000 23.75900
H  45.51500 17.59700 22.72900
H  45.44600 13.96600 22.17200
H  44.02700 13.93900 23.23600
H  44.84400 12.05600 24.19400
H  46.44000 12.77400 24.59200
H  46.27700 11.99700 23.05200
H  41.86200 13.52600 26.64800
H  41.00900 14.18100 27.98300
H  41.60200 12.48800 27.99500
H  44.41700 14.06700 32.58000
H  41.90800 17.30600 34.13700
H  43.11100 17.02700 35.35700
H  41.68900 16.01400 35.30800
Mg 9.75400 48.22900 25.80200
C  7.74400 48.38300 28.73300
C  12.35200 49.43200 27.62700
C  11.51200 47.94800 23.08800
C  6.76600 47.75100 23.99300
N  9.96000 48.79600 27.97400
C  9.05700 48.77600 28.95400
C  9.67100 49.16400 30.31100
C  11.03200 49.80200 29.92300
C  11.17500 49.38200 28.34800
C  11.14200 51.36100 30.03100
C  9.85100 47.96500 31.23200
C  9.27800 48.10100 32.66400
H  8.97800 46.85000 33.43500
N  11.69900 48.43500 25.51700
C  12.62000 48.92400 26.40900
C  13.88900 48.81100 25.80100
C  13.67600 48.38700 24.42000
C  12.25800 48.19200 24.30300
C  15.14200 49.20400 26.57300
C  14.73700 48.23900 23.29500
O  14.42100 48.04000 22.09600
C  16.15700 48.32600 23.63700
N  9.11700 48.10100 23.74600
C  10.15300 47.79000 22.87100
C  9.58200 47.54800 21.46300
C  8.00400 47.44500 21.74600
C  7.89000 47.84700 23.21800
C  9.90900 48.57800 20.40200
C  7.43000 45.99600 21.51300
C  6.14800 45.91500 20.62000
N  7.62100 48.26100 26.19600
C  6.58500 47.91300 25.36500
C  5.41400 47.70700 26.18400
C  5.80800 48.04200 27.46600
C  7.16900 48.22500 27.47000
C  4.03400 47.37000 25.72100
C  5.26800 48.11900 28.77900
O  4.12900 48.01700 29.17000
C  6.51700 48.30400 29.72900
C  6.57500 47.11000 30.65600
O  7.02000 46.00700 30.31300
O  5.99800 47.39600 31.90300
C  5.69900 46.21800 32.69800
H  13.14300 49.81300 28.27600
H  12.13400 47.83500 22.19800
H  5.87000 47.60500 23.38500
H  8.94500 49.75900 30.86600
H  11.87100 49.40700 30.49500
H  10.10600 51.64700 30.21000
H  11.56700 51.92700 29.20200
H  11.72900 51.68400 30.89200
H  10.91100 47.77500 31.40200
H  9.37400 47.04200 30.90500
H  8.29500 48.55700 32.54200
H  9.98400 48.70300 33.23600
H  15.84900 48.38000 26.47500
H  15.05100 49.42200 27.63700
H  15.64400 50.06900 26.14100
H  16.49100 47.32700 23.91700
H  16.25900 49.03300 24.46000
H  16.61500 48.77500 22.75500
H  9.99000 46.57400 21.19400
H  7.43600 48.19100 21.18900
H  9.10300 49.30300 20.29400
H  9.94900 48.11200 19.41700
H  10.84900 49.10900 20.55100
H  7.28000 45.40700 22.41800
H  8.11900 45.52300 20.81300
H  5.50800 46.73400 20.94900
H  5.59100 44.98700 20.75300
H  6.36500 46.01200 19.55700
H  3.58900 46.63700 26.39400
H  4.19800 46.77500 24.82200
H  3.54200 48.31600 25.49600
H  6.48900 49.30400 30.16300
H  4.62400 46.07900 32.81100
H  6.19100 46.45900 33.64000
H  6.06100 45.24500 32.36700

