158

Mg 47.37900 14.97200 28.14700
C  45.43000 14.89500 31.06700
C  49.49300 17.25000 29.66400
C  49.07800 15.29900 25.19500
C  44.92400 13.14800 26.51000
N  47.39300 16.01200 30.09500
C  46.59400 15.71200 31.18800
C  47.14600 16.33000 32.51700
C  48.22300 17.36400 32.00200
C  48.42500 16.85200 30.50600
C  47.75400 18.84300 31.80800
C  47.70400 15.27100 33.52000
C  47.56200 15.73500 34.99900
H  48.76400 15.57600 35.86700
N  49.15400 16.04200 27.58200
C  49.87300 16.88500 28.36900
C  51.10200 17.35600 27.64200
C  50.99900 16.72300 26.35700
C  49.71200 15.96400 26.34400
C  52.08500 18.41900 28.08200
C  51.95200 16.66300 25.14500
O  51.78600 16.02100 24.11900
C  53.33300 17.35400 25.28700
N  47.02000 14.47600 26.14300
C  47.86000 14.66000 25.11900
C  47.28800 14.02400 23.77400
C  46.07700 13.22600 24.28400
C  46.01300 13.59300 25.72400
C  46.83900 14.95700 22.65600
C  45.99700 11.69000 23.99500
C  47.02700 10.75500 24.63100
N  45.60400 14.16700 28.63100
C  44.71600 13.36800 27.88800
C  43.52000 13.13100 28.65300
C  43.79000 13.63100 29.89200
C  45.02000 14.24200 29.84300
C  42.32600 12.42700 28.23800
C  43.27200 13.79000 31.28200
O  42.24700 13.32300 31.72900
C  44.37100 14.60400 32.10800
C  43.71800 15.81100 32.83200
O  42.92300 16.59100 32.35400
O  44.23900 15.95500 34.09200
C  43.94800 17.18100 34.87300
H  50.26200 17.88200 30.11400
H  49.69300 15.23100 24.29500
H  44.20400 12.55600 25.94100
H  46.30000 16.81400 33.00500
H  49.13700 17.45500 32.58900
H  48.57300 19.52500 32.03700
H  46.90900 19.10300 32.44600
H  47.42500 18.99000 30.78000
H  48.74100 15.05300 33.26500
H  47.16000 14.32800 33.46300
H  46.85700 14.98900 35.36800
H  47.04400 16.69400 35.00700
H  51.96800 19.26500 27.40400
H  53.13900 18.15300 28.00000
H  51.85200 18.81500 29.07000
H  53.20400 18.43500 25.33700
H  53.94400 17.18600 24.39900
H  53.89900 17.08600 26.17900
H  47.91100 13.17500 23.49200
H  45.14900 13.70300 23.97000
H  46.72700 14.36300 21.74900
H  47.51500 15.78200 22.43300
H  45.87400 15.42300 22.85400
H  46.14800 11.60000 22.91900
H  45.07700 11.20100 24.31500
H  46.57900 9.79300 24.88100
H  47.36800 11.11000 25.60300
H  47.82900 10.50300 23.93800
H  42.02100 11.75800 29.04300
H  42.54200 11.89200 27.31400
H  41.45500 13.06200 28.07900
H  44.77500 13.92500 32.85900
H  42.88500 17.18000 35.11400
H  44.36000 18.02500 34.32100
H  44.51800 17.34600 35.78700
Mg 30.07100 58.97800 38.64400
C  27.28200 56.92100 38.07200
C  32.03100 56.26200 37.76100
C  32.69200 61.01300 38.30000
C  27.93900 61.69600 38.81900
N  29.64900 56.74600 38.23600
C  28.45200 56.20800 37.87600
C  28.67500 54.88400 37.24700
C  30.18500 54.52800 37.60000
C  30.67300 55.91400 37.90500
C  30.42500 53.52500 38.83700
C  28.36800 54.82900 35.65100
C  27.16000 53.93600 35.19400
H  26.14400 54.55700 34.27600
N  32.13400 58.68900 38.28100
C  32.71600 57.46200 37.95700
C  34.11700 57.56400 37.96600
C  34.42600 58.97100 38.10600
C  33.11700 59.66000 38.26600
C  35.09400 56.43700 37.79800
C  35.84600 59.57500 38.20000
O  36.91500 58.95500 38.20100
C  35.89000 61.10400 38.28200
N  30.28600 61.04800 38.53600
C  31.50900 61.63800 38.55400
C  31.37700 63.23900 38.78500
C  29.80600 63.37400 38.79300
C  29.26100 61.96000 38.58500
C  32.17500 63.77700 40.01900
C  29.10700 64.42600 37.89000
C  28.38500 65.54800 38.61400
N  28.08000 59.30700 38.55300
C  27.34000 60.40100 38.79900
C  25.92800 60.06000 38.78600
C  25.87000 58.72000 38.51200
C  27.19800 58.27300 38.38900
C  24.76100 60.95300 38.87600
C  24.96800 57.62400 38.29900
O  23.74300 57.48600 38.37300
C  25.84100 56.43100 37.93800
C  25.63500 55.25000 38.78900
O  26.20100 55.01200 39.81300
O  24.63900 54.54300 38.25800
C  24.47400 53.27200 39.00000
H  32.71100 55.45300 37.48200
H  33.56700 61.65900 38.19900
H  27.27300 62.54900 38.96800
H  28.05800 54.21000 37.84200
H  30.69400 54.12300 36.72500
H  29.48600 53.06600 39.14600
H  30.84100 54.08600 39.67500
H  31.17100 52.78000 38.56000
H  29.24600 54.56800 35.06000
H  28.10500 55.84000 35.33900
H  26.64000 53.55800 36.07400
H  27.51600 53.06400 34.64500
H  34.75600 55.46100 38.14500
H  36.04800 56.67800 38.26800
H  35.34100 56.39400 36.73700
H  36.93300 61.42000 38.25700
H  35.40800 61.38500 39.21900
H  35.46100 61.54700 37.38300
H  31.65900 63.80700 37.89800
H  29.59400 63.68300 39.81600
H  32.58700 62.93000 40.56700
H  31.57300 64.44500 40.63400
H  33.05100 64.27700 39.60800
H  28.43400 63.85500 37.25100
H  29.90000 64.88300 37.29700
H  27.33000 65.65400 38.36200
H  28.85200 66.49800 38.35500
H  28.49400 65.41900 39.69100
H  25.01900 61.99000 38.65900
H  24.30900 60.91300 39.86700
H  24.04200 60.74000 38.08500
H  25.60200 56.04900 36.94600
H  24.26200 53.51400 40.04100
H  25.41300 52.71900 39.01700
H  23.64700 52.63100 38.69500

