158

Mg -0.17300 7.50900 26.07900
C  0.75300 9.69700 28.82600
C  0.38000 4.92500 28.05100
C  -0.51300 5.69100 23.36400
C  0.14800 10.48000 24.01500
N  0.35200 7.39600 28.27300
C  0.55500 8.33300 29.20200
C  0.56700 7.70300 30.58700
C  0.91600 6.21700 30.16200
C  0.42200 6.13300 28.77600
C  2.36200 5.69500 30.26100
C  -0.75800 8.00000 31.32600
C  -0.70500 8.28400 32.80600
H  0.65800 7.90800 33.50700
N  -0.31900 5.53400 25.75200
C  0.03900 4.63900 26.72100
C  -0.24400 3.37100 26.15300
C  -0.62200 3.51600 24.76300
C  -0.53000 4.94400 24.54400
C  -0.03800 2.07700 26.88400
C  -0.99400 2.49200 23.64500
O  -1.43700 2.76400 22.56300
C  -1.00200 1.03700 24.12500
N  -0.06400 8.06100 23.92100
C  -0.29700 7.02600 23.03100
C  -0.41200 7.58800 21.57200
C  -0.11100 9.12100 21.81100
C  -0.01800 9.27000 23.34200
C  0.57600 6.81900 20.66500
C  -1.20100 10.01900 21.22700
C  -2.54800 9.94600 21.92500
N  0.29300 9.65900 26.28600
C  0.44000 10.69700 25.38300
C  0.75400 11.98200 26.06400
C  0.89900 11.62100 27.42400
C  0.68500 10.16400 27.50200
C  0.74200 13.33400 25.45200
C  1.12600 12.13200 28.76500
O  1.36900 13.29500 29.11600
C  0.96700 10.90800 29.72800
C  2.14300 10.75100 30.55700
O  3.02700 9.88400 30.53600
O  2.09600 11.71300 31.52400
C  3.19300 11.64800 32.53400
H  0.39500 4.05200 28.70700
H  -0.71100 5.15900 22.43100
H  0.32100 11.35800 23.38900
H  1.42800 8.02900 31.17000
H  0.34600 5.75700 30.96900
H  2.62800 5.09900 31.13500
H  3.12400 6.47400 30.25200
H  2.59900 5.05100 29.41500
H  -1.40000 7.12900 31.19800
H  -1.15400 8.88200 30.82100
H  -1.33800 7.62800 33.40400
H  -0.87900 9.34700 32.97100
H  0.35500 2.22900 27.88900
H  0.72500 1.53200 26.32900
H  -1.00200 1.57800 26.99000
H  0.02300 0.87900 24.46000
H  -1.36300 0.42700 23.29700
H  -1.68700 0.87000 24.95600
H  -1.41000 7.51700 21.14000
H  0.86200 9.40700 21.41200
H  -0.01200 6.45900 19.82100
H  1.16300 6.10300 21.24000
H  1.31900 7.40800 20.12800
H  -1.11500 9.79900 20.16300
H  -0.87800 11.05400 21.34000
H  -3.30700 9.47200 21.30300
H  -2.84100 10.98000 22.10700
H  -2.58300 9.47200 22.90600
H  0.51400 14.07500 26.21700
H  -0.01900 13.37500 24.67300
H  1.74200 13.49800 25.05100
H  0.08200 10.93100 30.36300
H  2.89900 12.20100 33.42700
H  4.09600 12.07700 32.10000
H  3.27700 10.58100 32.73800
Mg -2.14000 33.66200 26.13000
C  -3.88600 32.27300 28.93100
C  -0.74400 35.82600 28.34100
C  -1.03000 35.47500 23.40800
C  -4.29600 31.96800 24.00500
N  -2.51800 34.08700 28.37500
C  -3.02200 33.26300 29.38000
C  -2.72500 33.73600 30.82400
C  -1.63400 34.83500 30.53500
C  -1.71800 35.01800 28.99200
C  -1.67900 36.17900 31.22800
C  -2.23400 32.68300 31.80600
C  -2.88800 32.62500 33.25200
H  -2.04500 32.43000 34.54400
N  -0.94600 35.24900 25.94600
C  -0.37300 35.98200 26.98400
C  0.51800 36.97400 26.43300
C  0.37700 36.94500 25.03100
C  -0.54900 35.81300 24.70500
C  1.37900 38.02700 27.22200
C  0.89400 37.84500 23.98200
O  0.60200 37.74600 22.79000
C  1.97800 38.84800 24.24800
N  -2.77900 33.79800 24.01100
C  -2.11600 34.57000 23.04600
C  -2.38700 34.08600 21.61500
C  -3.44700 33.06400 21.90800
C  -3.51100 32.91300 23.42500
C  -2.80300 35.17800 20.60700
C  -3.24100 31.68100 21.14100
C  -2.18800 30.77200 21.74500
N  -3.64200 32.28100 26.30700
C  -4.37500 31.64800 25.38400
C  -5.24900 30.65200 26.07400
C  -5.12000 30.87900 27.43700
C  -4.13800 31.89000 27.55200
C  -6.18600 29.74500 25.32400
C  -5.56700 30.48200 28.74300
O  -6.32500 29.57100 29.15900
C  -4.74700 31.38000 29.79100
C  -5.80800 32.07200 30.57300
O  -6.36200 33.07600 30.08200
O  -6.03500 31.54800 31.84600
C  -6.84900 32.38000 32.72500
H  -0.04500 36.31200 29.02500
H  -0.28700 35.62300 22.62100
H  -4.83900 31.20100 23.44900
H  -3.65000 34.20400 31.16000
H  -0.61300 34.53000 30.76800
H  -0.79400 36.55300 31.74300
H  -2.36500 36.09900 32.07100
H  -2.01800 37.00400 30.60200
H  -1.21800 32.98200 32.06400
H  -2.22200 31.69500 31.34600
H  -3.46600 31.70200 33.20200
H  -3.63800 33.38300 33.47600
H  2.40300 37.99100 26.85000
H  1.38600 37.64100 28.24200
H  0.89200 38.99300 27.09200
H  1.64100 39.44600 25.09400
H  2.07000 39.50100 23.38100
H  2.94200 38.37800 24.44500
H  -1.54800 33.47900 21.27600
H  -4.41700 33.46800 21.62000
H  -3.24300 36.05600 21.07900
H  -3.59600 34.84400 19.93700
H  -1.97800 35.54700 19.99800
H  -2.99400 31.97400 20.12100
H  -4.15500 31.08800 21.14300
H  -1.77100 31.14900 22.67900
H  -1.48600 30.59200 20.93100
H  -2.75700 29.86300 21.93900
H  -7.09200 30.24900 24.99000
H  -6.58800 28.96500 25.97000
H  -5.82500 29.32000 24.38700
H  -4.16100 30.74000 30.45000
H  -7.73000 32.56500 32.11000
H  -6.34600 33.23300 33.18000
H  -7.26000 31.74000 33.50600

