158

Mg 35.95400 48.67100 26.09900
C  36.36100 46.75800 29.06900
C  34.74800 51.29500 27.93900
C  35.31900 50.13600 23.33600
C  36.45300 45.45600 24.39500
N  35.64100 48.95300 28.28200
C  35.99400 48.06100 29.28000
C  35.59400 48.70800 30.64600
C  34.68600 49.92400 30.25600
C  34.99800 50.12500 28.75600
C  33.20100 49.73300 30.55000
C  36.89700 49.04200 31.37300
C  37.12600 48.49800 32.77700
H  36.90600 49.49600 33.93500
N  35.32300 50.60000 25.69700
C  34.94100 51.54400 26.60400
C  34.63400 52.74900 25.86000
C  34.89200 52.43200 24.50400
C  35.11600 51.00900 24.46600
C  34.24600 54.05200 26.48700
C  35.01100 53.34700 23.29200
O  35.28600 52.96800 22.16000
C  34.86400 54.88800 23.41600
N  36.09900 47.92300 24.13100
C  35.68800 48.79100 23.17400
C  35.74100 48.12500 21.81600
C  36.11700 46.63100 22.11000
C  36.28600 46.65600 23.63300
C  34.46600 48.14000 20.96800
C  37.53500 46.25300 21.49700
C  37.75000 46.53900 19.99100
N  36.41500 46.53700 26.53600
C  36.61300 45.45500 25.76200
C  36.77500 44.23800 26.62200
C  36.78100 44.73700 27.88800
C  36.49000 46.09800 27.85200
C  36.76400 42.75800 26.16300
C  36.98400 44.32400 29.31200
O  37.31900 43.29100 29.89400
C  36.65300 45.62300 30.05100
C  35.47300 45.14900 30.88900
O  34.30700 45.10500 30.51000
O  35.89200 44.96100 32.20900
C  34.79800 44.85500 33.20000
H  34.22100 52.01400 28.56900
H  35.06500 50.64400 22.40300
H  36.60900 44.46900 23.95600
H  35.04000 47.95600 31.20800
H  35.21900 50.70700 30.79600
H  32.57000 50.31200 29.87600
H  33.02900 50.02000 31.58800
H  33.05600 48.65700 30.45100
H  37.06000 50.11900 31.41700
H  37.74400 48.67700 30.79300
H  38.16300 48.17300 32.86200
H  36.51800 47.59800 32.87000
H  34.34100 53.93300 27.56600
H  33.23400 54.29600 26.16400
H  34.93900 54.80300 26.10600
H  35.66300 55.29600 24.03500
H  33.83800 55.13400 23.69100
H  34.91900 55.19700 22.37200
H  36.51500 48.65000 21.25700
H  35.32400 45.94900 21.80300
H  34.83100 48.33000 19.95800
H  33.73300 48.88100 21.28600
H  33.97000 47.18800 20.77800
H  37.82200 45.24200 21.78600
H  38.19800 47.00800 21.92000
H  36.81300 46.70800 19.46200
H  38.20800 45.63600 19.58700
H  38.48900 47.32100 19.81300
H  37.82200 42.54800 26.00700
H  36.23200 42.78300 25.21200
H  36.18400 42.08400 26.79400
H  37.53000 45.78300 30.67900
H  35.27900 44.83200 34.17700
H  34.16300 43.99600 32.98000
H  34.16000 45.71100 32.97900
Mg -10.43100 16.52400 41.22800
C  -6.89100 16.21900 41.77700
C  -9.88300 19.83100 40.65800
C  -13.62700 16.77600 40.31500
C  -10.59400 13.07300 41.14900
N  -8.58100 17.78800 41.12100
C  -7.27500 17.49300 41.47600
C  -6.39800 18.74800 41.35100
C  -7.45700 19.84000 41.59900
C  -8.71900 19.16400 41.02100
C  -7.60800 20.50600 43.06500
C  -5.79100 18.78300 39.96100
C  -4.33500 18.37900 39.77000
H  -3.97200 17.16300 38.86500
N  -11.67300 18.18600 40.67400
C  -11.24700 19.46500 40.51100
C  -12.38600 20.23200 40.02800
C  -13.50400 19.32900 39.89200
C  -12.98300 18.06000 40.24600
C  -12.39200 21.72700 39.88200
C  -14.96500 19.72100 39.29600
O  -15.14700 20.84800 38.88000
C  -15.99700 18.71900 38.88900
N  -11.92500 15.19300 40.71300
C  -13.19000 15.50700 40.56600
C  -14.08300 14.25800 40.46300
C  -13.12000 13.10900 40.80200
C  -11.78500 13.82900 40.85900
C  -15.33400 14.30200 41.39300
C  -13.28100 11.83000 39.86500
C  -13.70200 10.45600 40.40800
N  -9.05400 14.89100 41.50100
C  -9.24300 13.55200 41.41500
C  -7.99800 12.82700 41.67000
C  -7.08400 13.90100 41.93400
C  -7.76900 15.10200 41.70800
C  -7.84900 11.30600 41.80600
C  -5.68200 14.18400 42.23500
O  -4.77800 13.39000 42.52400
C  -5.50300 15.72600 42.25900
C  -5.04100 16.12800 43.56200
O  -3.90200 16.43300 43.77100
O  -6.01100 16.01800 44.46800
C  -5.74900 16.53900 45.83400
H  -9.69400 20.90000 40.53900
H  -14.68600 16.87100 40.06400
H  -10.79500 12.01600 41.33600
H  -5.55100 18.85000 42.03000
H  -7.13500 20.67400 40.97500
H  -8.37800 19.96600 43.61700
H  -7.79200 21.57600 42.96700
H  -6.76900 20.35300 43.74300
H  -5.82100 19.81500 39.61300
H  -6.32600 18.06600 39.33800
H  -4.00800 18.20700 40.79600
H  -3.86400 19.28600 39.38900
H  -13.26200 22.12500 40.40500
H  -12.54000 21.87500 38.81200
H  -11.45600 22.24200 40.09500
H  -15.60500 17.78700 38.48300
H  -16.74100 19.26900 38.31300
H  -16.42900 18.50500 39.86700
H  -14.39400 14.11300 39.42900
H  -13.22900 12.78000 41.83500
H  -15.20600 15.14200 42.07600
H  -15.57900 13.35900 41.88100
H  -16.20000 14.46500 40.75200
H  -12.31700 11.68700 39.37700
H  -14.10900 11.96200 39.16900
H  -14.70100 10.13400 40.11200
H  -13.77100 10.52400 41.49300
H  -13.01300 9.69500 40.04000
H  -6.90000 11.01500 42.25600
H  -7.82300 10.90200 40.79400
H  -8.69500 10.84900 42.32100
H  -4.64800 15.91300 41.60900
H  -4.71100 16.73900 46.10000
H  -6.23900 15.76700 46.42700
H  -6.26800 17.48200 46.00700

