158

Mg -2.41500 16.50200 26.87900
C  -2.87100 14.72200 29.84400
C  -2.37600 19.43900 28.80600
C  -2.37700 18.20900 24.02400
C  -2.80400 13.47600 25.15100
N  -2.60000 16.96300 29.09500
C  -2.82700 16.11900 30.11400
C  -2.86900 16.80600 31.47500
C  -2.77000 18.29600 31.11200
C  -2.52000 18.26800 29.58600
C  -3.91700 19.21200 31.49400
C  -1.77800 16.39000 32.54900
C  -1.61800 17.34900 33.76500
H  -0.84300 16.91300 35.05100
N  -2.36000 18.52900 26.47800
C  -2.32900 19.53400 27.40200
C  -2.26400 20.79300 26.66500
C  -2.21500 20.58500 25.25900
C  -2.27800 19.05900 25.14800
C  -2.30700 22.19200 27.45500
C  -2.08700 21.53900 24.09200
O  -1.94500 21.11900 22.93800
C  -1.99500 23.01700 24.33600
N  -2.76400 15.92900 24.85900
C  -2.44600 16.79900 23.87800
C  -2.46400 16.09000 22.52400
C  -2.28800 14.58100 22.90800
C  -2.62300 14.61200 24.40800
C  -3.72900 16.43400 21.66100
C  -0.79100 14.13400 22.68400
C  -0.48500 13.75700 21.18600
N  -2.79400 14.59500 27.28700
C  -2.86800 13.41700 26.52100
C  -2.98900 12.27300 27.33600
C  -2.96200 12.76400 28.60400
C  -2.85600 14.18000 28.60000
C  -3.08700 10.89500 26.78300
C  -3.00700 12.39900 29.94600
O  -3.25100 11.27400 30.39000
C  -2.92700 13.65500 30.80200
C  -1.72200 13.39400 31.56900
O  -0.58200 13.73600 31.25900
O  -2.13700 12.67700 32.64600
C  -1.05900 12.43400 33.55100
H  -2.29500 20.32800 29.43600
H  -2.31900 18.69600 23.04900
H  -2.67300 12.54100 24.60200
H  -3.89900 16.62700 31.78400
H  -1.93200 18.81300 31.58000
H  -3.56300 20.22300 31.69400
H  -4.42600 18.81600 32.37200
H  -4.67100 19.36000 30.72100
H  -0.79400 16.24700 32.10100
H  -1.94300 15.41500 33.00500
H  -2.55300 17.79800 34.09900
H  -0.99700 18.12500 33.31800
H  -1.24600 22.34300 27.65500
H  -2.91900 22.17800 28.35700
H  -2.59200 23.06300 26.86600
H  -2.09400 23.49600 23.36200
H  -1.00800 23.30100 24.70000
H  -2.87800 23.35400 24.88000
H  -1.65800 16.42400 21.87100
H  -2.97000 13.99000 22.29600
H  -4.13300 15.52400 21.21900
H  -3.45700 17.02200 20.78500
H  -4.47900 16.99700 22.21800
H  -0.53700 13.30000 23.34000
H  -0.08800 14.95400 22.83200
H  0.16500 12.88200 21.17700
H  0.10500 14.59800 20.82200
H  -1.39900 13.76300 20.59200
H  -2.30600 10.74700 26.03800
H  -4.01500 10.81600 26.21700
H  -2.94400 10.22100 27.62800
H  -3.83600 13.73200 31.39800
H  -0.02700 12.44300 33.20100
H  -1.28500 11.47100 34.00800
H  -1.24200 13.22400 34.28000
Mg 49.53100 45.49300 42.90200
C  46.13600 45.24100 42.27700
C  49.88400 42.09800 42.01800
C  52.94500 45.82500 42.96400
C  49.27000 48.96200 43.02300
N  48.12100 43.84900 42.25600
C  46.75100 43.96500 42.14600
C  46.14700 42.59100 41.79100
C  47.37900 41.58400 41.69400
C  48.56600 42.58300 41.99000
C  47.33500 40.28700 42.53700
C  45.21800 42.51500 40.56100
C  45.62800 43.42100 39.40700
H  45.74500 42.68600 38.01900
N  51.14200 44.18200 42.51700
C  51.08400 42.77800 42.24600
C  52.42500 42.23300 42.22200
C  53.29900 43.33900 42.31300
C  52.46300 44.53500 42.56500
C  52.88100 40.77600 41.99400
C  54.78600 43.27200 42.28400
O  55.36600 42.17600 42.22500
C  55.67100 44.51300 42.20600
N  50.92600 47.16800 42.90900
C  52.22700 47.03100 43.19000
C  52.89800 48.35300 43.50700
C  51.72400 49.31500 43.47800
C  50.50400 48.51500 43.02700
C  53.74500 48.49300 44.78400
C  51.92600 50.59500 42.60600
C  52.82300 51.70700 43.33600
N  48.06900 46.87800 42.79000
C  48.06600 48.25000 42.83400
C  46.76200 48.76200 42.65100
C  45.89600 47.63000 42.50100
C  46.76200 46.50400 42.57200
C  46.38100 50.14100 42.43200
C  44.54800 47.22200 42.28400
O  43.47700 47.82800 42.06400
C  44.67900 45.61700 42.16000
C  43.77000 45.10800 43.29000
O  42.94100 44.23400 43.09700
O  44.14400 45.52300 44.54000
C  43.32800 45.15200 45.69000
H  49.92700 41.04100 41.74800
H  53.95700 45.78100 43.37200
H  49.10900 50.03400 43.15200
H  45.61400 42.26800 42.68500
H  47.61900 41.42500 40.64200
H  47.37900 39.46200 41.82600
H  46.46300 40.14500 43.17500
H  48.17800 40.27700 43.22900
H  44.29000 42.92300 40.96300
H  45.15600 41.45400 40.31800
H  46.54600 43.95500 39.65000
H  44.82300 44.15200 39.34000
H  52.09500 40.02100 42.03700
H  53.59200 40.57100 42.79400
H  53.53500 40.59600 41.14100
H  56.02800 44.92700 43.14900
H  55.09800 45.32400 41.75600
H  56.48300 44.45900 41.48100
H  53.54000 48.48400 42.63600
H  51.52800 49.60500 44.51000
H  53.73700 47.51500 45.26500
H  53.46300 49.13400 45.61900
H  54.77700 48.74500 44.53800
H  50.98100 51.09600 42.39600
H  52.35100 50.51000 41.60600
H  53.30900 51.26700 44.20600
H  52.23200 52.57000 43.64400
H  53.64600 52.01500 42.69000
H  45.63200 50.41700 43.17400
H  46.01400 50.26400 41.41300
H  47.28100 50.75400 42.49400
H  44.29000 45.42900 41.16000
H  43.32100 46.00500 46.36800
H  43.90700 44.35900 46.16400
H  42.36500 44.70900 45.43800

