158

Mg -2.06000 18.10900 27.35100
C  -2.63000 15.77200 29.63300
C  -2.81600 20.60100 29.55200
C  -1.62700 20.19400 24.81500
C  -1.60100 15.50200 24.94900
N  -2.79800 18.14600 29.27600
C  -2.79500 17.07800 30.17700
C  -2.88400 17.48500 31.70600
C  -3.12400 19.03000 31.57900
C  -2.89300 19.32500 30.05300
C  -4.54900 19.64600 32.09400
C  -1.79200 17.01300 32.65500
C  -1.39000 17.80600 33.92800
H  -0.77600 16.98500 35.00500
N  -2.25200 20.10600 27.20700
C  -2.56100 20.98000 28.21600
C  -2.38900 22.37000 27.72200
C  -1.82700 22.25300 26.40700
C  -1.78800 20.84100 26.08700
C  -2.69100 23.59200 28.68100
C  -1.26500 23.39700 25.60800
O  -0.72900 23.25000 24.51400
C  -1.26200 24.77100 26.14800
N  -1.82500 17.84800 25.17100
C  -1.55100 18.90300 24.43600
C  -1.35500 18.48900 22.92600
C  -1.06000 17.00500 22.99300
C  -1.49900 16.71200 24.43800
C  -2.60100 18.73600 22.05600
C  0.40900 16.64100 22.72600
C  1.52600 17.18100 23.73200
N  -1.92100 16.11000 27.27600
C  -1.86100 15.14000 26.27100
C  -1.97700 13.81300 26.84000
C  -2.33300 13.98200 28.13300
C  -2.32300 15.38100 28.30900
C  -1.80800 12.52700 26.20100
C  -2.63400 13.29900 29.31900
O  -2.66600 12.11100 29.48200
C  -2.83400 14.40100 30.39600
C  -1.79700 14.01700 31.39300
O  -0.57600 14.23300 31.32800
O  -2.35600 13.29500 32.47000
C  -1.49600 13.04200 33.61700
H  -2.66100 21.35100 30.33000
H  -1.39800 20.80300 23.93800
H  -1.27400 14.69600 24.28800
H  -3.84500 17.08000 32.02300
H  -2.33600 19.53900 32.13400
H  -4.27200 20.34600 32.88200
H  -5.15900 18.98800 32.71300
H  -5.12300 20.09800 31.28500
H  -0.84500 17.09800 32.12300
H  -1.95600 15.96100 32.88900
H  -2.25900 18.36400 34.27700
H  -0.57200 18.49600 33.71900
H  -1.75000 24.05300 28.98000
H  -3.22100 23.20800 29.55300
H  -3.35800 24.34300 28.25900
H  -2.24300 25.18800 26.37400
H  -0.80100 25.46700 25.44700
H  -0.64200 24.79400 27.04400
H  -0.51500 19.03600 22.49900
H  -1.62700 16.37400 22.30900
H  -3.32800 19.19700 22.72500
H  -3.05700 17.85300 21.60800
H  -2.31800 19.48300 21.31400
H  0.69100 16.87100 21.69800
H  0.46600 15.55800 22.61900
H  2.09500 16.38800 24.21800
H  1.05800 17.77100 24.52000
H  2.26900 17.85200 23.30000
H  -1.06200 12.57500 25.40700
H  -2.68200 11.99800 25.82200
H  -1.44100 11.85300 26.97500
H  -3.84600 14.24200 30.76800
H  -2.10500 13.43400 34.43100
H  -0.57600 13.62500 33.58300
H  -1.33200 11.96500 33.62100
Mg 1.27200 8.55000 27.09500
C  1.87000 10.76200 29.91500
C  1.45700 5.95400 29.32300
C  1.46200 6.49800 24.42900
C  1.51100 11.29100 25.09400
N  1.71000 8.38900 29.39100
C  1.85600 9.35600 30.27900
C  1.69600 8.83600 31.68900
C  1.98700 7.31700 31.57900
C  1.67900 7.21100 30.04300
C  3.33700 6.71400 31.85600
C  0.31800 9.18800 32.30400
C  0.25200 9.26500 33.85000
H  1.29400 8.53400 34.69600
N  1.31400 6.51900 26.90500
C  1.27000 5.62500 27.93300
C  1.20900 4.26800 27.37700
C  1.29600 4.42800 25.95200
C  1.33200 5.85900 25.71800
C  1.11400 3.08200 28.22400
C  1.22000 3.40300 24.82500
O  1.35500 3.68400 23.58900
C  0.76200 2.01300 25.19200
N  1.67800 8.90400 24.98000
C  1.57100 7.85300 24.10000
C  1.55800 8.37900 22.63700
C  1.32300 9.88200 22.88900
C  1.45100 10.07500 24.39600
C  2.82800 7.98700 21.81100
C  0.03100 10.47400 22.25900
C  -1.20500 10.74200 23.09700
N  1.58300 10.59600 27.42800
C  1.63100 11.59000 26.45900
C  1.61600 12.91300 27.12500
C  1.74700 12.59600 28.51400
C  1.66800 11.23000 28.64300
C  1.70300 14.24800 26.61700
C  1.98800 13.15900 29.81800
O  2.17200 14.32400 30.20800
C  1.97900 11.99600 30.81800
C  3.08000 12.04400 31.74400
O  4.23700 11.69300 31.51500
O  2.67300 12.49900 32.95300
C  3.66100 12.47700 34.09400
H  1.50800 5.09100 29.99100
H  1.48700 5.95700 23.48100
H  1.36500 12.23400 24.56200
H  2.47600 9.37000 32.23100
H  1.24800 6.77600 32.17200
H  3.77400 6.14400 31.03600
H  3.18700 5.90100 32.56600
H  4.01100 7.52300 32.13800
H  -0.51900 8.56300 31.99200
H  0.07400 10.14800 31.84800
H  -0.82100 9.18900 34.02900
H  0.42300 10.29100 34.17500
H  0.17000 2.57800 28.01500
H  1.04700 3.33500 29.28200
H  2.01200 2.51200 27.98600
H  0.63500 1.46600 24.25800
H  -0.20500 2.08200 25.69200
H  1.38600 1.43700 25.87600
H  0.70800 7.91000 22.14100
H  2.10300 10.50900 22.45700
H  3.51000 7.55100 22.54000
H  3.32400 8.86400 21.39500
H  2.51300 7.25100 21.07100
H  -0.34700 9.71800 21.57100
H  0.24400 11.36300 21.66500
H  -2.00400 10.22000 22.57100
H  -1.38500 11.81700 23.11600
H  -1.25200 10.45600 24.14800
H  2.69600 14.55600 26.29100
H  1.44200 14.92300 27.43300
H  0.96500 14.58900 25.89100
H  1.03800 12.12800 31.35300
H  4.45200 11.74200 33.94600
H  3.09600 12.29600 35.00900
H  4.12700 13.45400 34.22600

