158

Mg 35.19900 2.01800 29.17900
C  32.63900 2.80000 31.43600
C  37.38600 1.95200 31.76000
C  37.53300 1.00200 26.97800
C  32.78700 2.27500 26.60400
N  35.03100 2.44300 31.38200
C  33.90500 2.66200 32.09100
C  34.19700 2.69900 33.61200
C  35.76200 2.72200 33.70000
C  36.14400 2.37100 32.18800
C  36.43400 4.00900 34.17000
C  33.58700 1.53000 34.53300
C  33.32900 1.73900 36.02900
H  34.01900 2.92900 36.69800
N  37.18300 1.49900 29.32000
C  37.94600 1.53500 30.51700
C  39.24900 1.06200 30.22500
C  39.37300 0.75500 28.87200
C  37.97900 1.01700 28.30600
C  40.24700 1.10600 31.37600
C  40.53000 0.19100 28.08500
O  40.34100 -0.16300 26.92800
C  41.75700 -0.12700 28.76000
N  35.20600 1.79800 27.10400
C  36.26200 1.29200 26.44400
C  35.92900 1.20800 24.89700
C  34.48600 1.65200 24.79500
C  34.12100 1.88500 26.24600
C  36.92600 1.97500 24.02100
C  33.49500 0.77700 23.96500
C  32.90600 -0.43600 24.76400
N  33.21200 2.50700 29.04500
C  32.35900 2.50700 27.94000
C  31.13200 3.06700 28.32400
C  31.17400 3.13500 29.68700
C  32.43800 2.76700 30.06800
C  30.01700 3.43000 27.38500
C  30.41000 3.36300 30.82800
O  29.17800 3.58400 30.92700
C  31.29400 3.16800 32.00300
C  31.40200 4.44000 32.82700
O  32.07200 5.45600 32.51700
O  30.58500 4.20500 33.94500
C  30.56600 5.22300 34.98600
H  38.08500 2.00800 32.59600
H  38.35400 0.66100 26.34300
H  32.07600 2.42400 25.78900
H  33.85800 3.65800 34.00300
H  36.21900 1.92100 34.28200
H  37.06500 3.81500 35.03700
H  35.69000 4.77400 34.39400
H  37.06000 4.43500 33.38600
H  34.24400 0.69300 34.29800
H  32.56300 1.32000 34.22500
H  33.73000 0.78300 36.36400
H  32.28000 1.64700 36.31300
H  39.86800 0.49700 32.19600
H  40.20900 2.14900 31.68900
H  41.29100 0.89500 31.14300
H  41.53000 -0.62100 29.70500
H  42.23500 0.82500 28.99100
H  42.47300 -0.65800 28.13200
H  36.07300 0.12800 24.88200
H  34.48400 2.62100 24.29600
H  36.48800 2.43700 23.13600
H  37.72600 1.26000 23.82900
H  37.45800 2.73300 24.59500
H  34.09000 0.36700 23.15000
H  32.78500 1.53600 23.63600
H  31.83600 -0.23600 24.81900
H  33.44000 -0.59800 25.70100
H  33.01600 -1.42200 24.31300
H  30.40700 3.94600 26.50700
H  29.24100 4.02200 27.87000
H  29.60600 2.50000 26.99300
H  30.72600 2.44100 32.58300
H  29.60000 5.70200 35.14500
H  31.37000 5.95300 34.89300
H  30.69600 4.58200 35.85700
Mg 5.44500 54.39100 39.99500
C  5.99500 50.85200 40.01800
C  8.83100 54.70600 39.29000
C  4.92400 57.58700 39.27800
C  2.17800 53.87100 40.61900
N  7.17000 52.91100 39.68400
C  7.13600 51.55500 39.68600
C  8.49200 50.96600 39.48300
C  9.42000 52.23600 39.73200
C  8.44800 53.36500 39.51700
C  10.25700 52.22800 41.06900
C  8.74100 50.27400 38.06200
C  8.70800 51.17000 36.80300
H  7.63900 50.98100 35.73200
N  6.67000 55.89500 39.28200
C  8.03800 55.86800 39.15300
C  8.55000 57.16100 38.79600
C  7.41600 58.02100 38.73400
C  6.28200 57.18100 39.05100
C  9.97700 57.59100 38.60100
C  7.43500 59.50300 38.33000
O  8.51300 59.97600 37.97400
C  6.24100 60.38200 38.17000
N  3.70700 55.49800 39.57900
C  3.78100 56.83400 39.52100
C  2.42000 57.52100 39.86500
C  1.52700 56.22300 40.15600
C  2.55200 55.12200 40.14600
C  2.43000 58.54500 41.04300
C  0.47900 55.96600 39.05200
C  -0.95700 56.36900 39.29100
N  4.26800 52.75900 40.25000
C  2.93000 52.67100 40.57900
C  2.54800 51.29400 40.95000
C  3.69800 50.55500 40.71500
C  4.71900 51.45300 40.24800
C  1.24300 50.80400 41.60400
C  4.27500 49.19000 40.83800
O  3.80800 48.12600 41.21300
C  5.74000 49.33500 40.23500
C  5.72100 48.51100 38.98900
O  5.15100 48.79500 37.92700
O  6.37100 47.27900 39.22300
C  6.66400 46.46900 38.01100
H  9.90500 54.78000 39.10500
H  4.63600 58.64000 39.26600
H  1.16800 53.72000 41.00700
H  8.74200 50.14200 40.15000
H  10.20000 52.41400 38.99100
H  11.32400 52.43100 40.97600
H  10.21800 51.23900 41.52700
H  9.71000 52.94300 41.68300
H  7.98000 49.52600 37.83800
H  9.70600 49.77100 38.12100
H  9.72200 51.07000 36.41500
H  8.61600 52.21100 37.11000
H  10.72300 56.81100 38.75400
H  10.20700 58.30300 39.39300
H  10.04100 58.09000 37.63400
H  6.49400 61.26000 37.57400
H  5.97600 60.64300 39.19400
H  5.45100 59.86900 37.62200
H  1.98200 58.05200 39.02000
H  0.95900 56.21400 41.08600
H  2.93500 59.48500 40.82000
H  2.84300 58.02700 41.90800
H  1.39900 58.79300 41.29400
H  0.54200 54.93100 38.71700
H  0.79000 56.43700 38.11900
H  -1.51800 55.64700 38.69700
H  -1.11800 57.34800 38.84000
H  -1.20400 56.30600 40.35100
H  0.83900 51.67900 42.11300
H  1.37000 50.04000 42.37100
H  0.49100 50.49300 40.87900
H  6.42300 48.85400 40.93600
H  5.87700 46.33100 37.27000
H  7.10900 45.50300 38.25200
H  7.44800 47.02400 37.49500

