158

Mg 2.74600 -2.41900 45.53200
C  5.81100 -1.02600 44.64900
C  1.26200 -0.04200 43.27800
C  -0.10000 -3.91700 45.60300
C  4.45200 -5.18600 46.79900
N  3.44000 -0.82600 44.05900
C  4.75200 -0.37700 43.97200
C  4.90700 0.80200 43.01300
C  3.42000 1.13100 42.67200
C  2.63600 0.06300 43.36300
C  2.94300 2.50700 43.13000
C  5.76600 0.49000 41.73700
C  7.07300 1.36000 41.59000
H  7.57800 1.59300 40.14000
N  0.76700 -1.90000 44.77100
C  0.40600 -0.93600 43.88600
C  -0.98500 -1.01600 43.60600
C  -1.46000 -2.18800 44.28100
C  -0.29800 -2.68100 44.95600
C  -1.74100 -0.15100 42.57800
C  -2.90000 -2.76900 44.20500
O  -3.76300 -2.26100 43.50300
C  -3.32100 -4.00500 45.04900
N  2.23400 -4.21700 46.23600
C  0.96900 -4.57800 46.19300
C  0.80000 -5.94200 46.86300
C  2.26800 -6.37800 47.22100
C  3.05500 -5.13900 46.78700
C  -0.12500 -6.04700 48.12900
C  2.73500 -7.75900 46.53000
C  2.40100 -8.99000 47.37500
N  4.68800 -2.96000 45.73600
C  5.22600 -4.11100 46.36000
C  6.64900 -3.88900 46.56700
C  6.84700 -2.63000 45.92300
C  5.68800 -2.18100 45.37700
C  7.68800 -4.69500 47.35700
C  7.86600 -1.68300 45.67300
O  9.04700 -1.66600 45.93200
C  7.28800 -0.61900 44.76200
C  7.42700 0.81800 45.33000
O  6.73400 1.34500 46.25400
O  8.47200 1.39700 44.75600
C  8.55400 2.84700 45.03200
H  0.77600 0.69200 42.63200
H  -1.01600 -4.50900 45.65900
H  4.94600 -5.98600 47.35400
H  5.44000 1.60000 43.52900
H  3.28400 1.12800 41.59100
H  2.12800 2.45400 43.85100
H  2.60400 3.07500 42.26400
H  3.83100 2.98600 43.54300
H  5.18800 0.61700 40.82100
H  6.11800 -0.54100 41.71900
H  7.79000 0.93500 42.29200
H  6.97600 2.34100 42.05600
H  -1.18800 0.76600 42.37700
H  -2.68300 0.27300 42.92500
H  -1.98200 -0.73400 41.68900
H  -2.86800 -4.92200 44.67200
H  -4.38500 -4.19800 44.91500
H  -3.03000 -3.85900 46.08900
H  0.32600 -6.59400 46.13000
H  2.37500 -6.56400 48.29000
H  -0.48600 -5.05800 48.41200
H  0.40300 -6.34100 49.03600
H  -0.90500 -6.79700 47.99500
H  3.75000 -7.83100 46.13900
H  1.98300 -7.77900 45.74100
H  1.32400 -9.15600 47.38400
H  2.65100 -8.79700 48.41900
H  2.91700 -9.88300 47.02400
H  7.74800 -5.67900 46.89300
H  7.43800 -4.85100 48.40700
H  8.68200 -4.26300 47.24600
H  7.71800 -0.64600 43.76100
H  7.56100 3.22500 44.78900
H  9.21400 3.30200 44.29300
H  8.90900 3.03100 46.04600
Mg 49.53100 45.49300 42.90200
C  46.13600 45.24100 42.27700
C  49.88400 42.09800 42.01800
C  52.94500 45.82500 42.96400
C  49.27000 48.96200 43.02300
N  48.12100 43.84900 42.25600
C  46.75100 43.96500 42.14600
C  46.14700 42.59100 41.79100
C  47.37900 41.58400 41.69400
C  48.56600 42.58300 41.99000
C  47.33500 40.28700 42.53700
C  45.21800 42.51500 40.56100
C  45.62800 43.42100 39.40700
H  45.74500 42.68600 38.01900
N  51.14200 44.18200 42.51700
C  51.08400 42.77800 42.24600
C  52.42500 42.23300 42.22200
C  53.29900 43.33900 42.31300
C  52.46300 44.53500 42.56500
C  52.88100 40.77600 41.99400
C  54.78600 43.27200 42.28400
O  55.36600 42.17600 42.22500
C  55.67100 44.51300 42.20600
N  50.92600 47.16800 42.90900
C  52.22700 47.03100 43.19000
C  52.89800 48.35300 43.50700
C  51.72400 49.31500 43.47800
C  50.50400 48.51500 43.02700
C  53.74500 48.49300 44.78400
C  51.92600 50.59500 42.60600
C  52.82300 51.70700 43.33600
N  48.06900 46.87800 42.79000
C  48.06600 48.25000 42.83400
C  46.76200 48.76200 42.65100
C  45.89600 47.63000 42.50100
C  46.76200 46.50400 42.57200
C  46.38100 50.14100 42.43200
C  44.54800 47.22200 42.28400
O  43.47700 47.82800 42.06400
C  44.67900 45.61700 42.16000
C  43.77000 45.10800 43.29000
O  42.94100 44.23400 43.09700
O  44.14400 45.52300 44.54000
C  43.32800 45.15200 45.69000
H  49.92700 41.04100 41.74800
H  53.95700 45.78100 43.37200
H  49.10900 50.03400 43.15200
H  45.61400 42.26800 42.68500
H  47.61900 41.42500 40.64200
H  47.37900 39.46200 41.82600
H  46.46300 40.14500 43.17500
H  48.17800 40.27700 43.22900
H  44.29000 42.92300 40.96300
H  45.15600 41.45400 40.31800
H  46.54600 43.95500 39.65000
H  44.82300 44.15200 39.34000
H  52.09500 40.02100 42.03700
H  53.59200 40.57100 42.79400
H  53.53500 40.59600 41.14100
H  56.02800 44.92700 43.14900
H  55.09800 45.32400 41.75600
H  56.48300 44.45900 41.48100
H  53.54000 48.48400 42.63600
H  51.52800 49.60500 44.51000
H  53.73700 47.51500 45.26500
H  53.46300 49.13400 45.61900
H  54.77700 48.74500 44.53800
H  50.98100 51.09600 42.39600
H  52.35100 50.51000 41.60600
H  53.30900 51.26700 44.20600
H  52.23200 52.57000 43.64400
H  53.64600 52.01500 42.69000
H  45.63200 50.41700 43.17400
H  46.01400 50.26400 41.41300
H  47.28100 50.75400 42.49400
H  44.29000 45.42900 41.16000
H  43.32100 46.00500 46.36800
H  43.90700 44.35900 46.16400
H  42.36500 44.70900 45.43800

