158

Mg 35.86300 0.67800 30.42500
C  33.55900 1.24200 33.08300
C  38.34800 0.83900 32.73500
C  37.98800 0.36500 27.83900
C  33.21800 1.11200 28.12500
N  35.88000 1.09500 32.66600
C  34.84600 1.10600 33.59600
C  35.25200 1.27900 34.97500
C  36.73100 1.73500 34.75800
C  37.05400 1.09900 33.30300
C  36.99800 3.29000 34.89900
C  35.11500 0.03700 35.86100
C  34.67600 0.51900 37.30700
H  35.01200 1.93000 37.80400
N  37.85200 0.57000 30.32300
C  38.70300 0.57700 31.37800
C  40.04700 0.24800 30.94000
C  40.01300 0.13600 29.52400
C  38.56300 0.41200 29.17900
C  41.21400 0.17200 31.91000
C  41.10200 -0.09500 28.59800
O  40.89200 -0.17700 27.41900
C  42.53900 -0.42300 29.02700
N  35.65800 0.74200 28.30700
C  36.65800 0.51100 27.43000
C  36.29800 0.61300 25.97400
C  34.76900 0.79800 26.06100
C  34.48500 0.87800 27.60000
C  36.99400 1.66500 25.03700
C  33.99500 -0.20600 25.14100
C  33.48900 -1.46400 25.87800
N  33.80000 0.96700 30.54400
C  32.91000 1.17600 29.50400
C  31.62200 1.52400 30.06600
C  31.77400 1.51800 31.48500
C  33.16100 1.19200 31.70200
C  30.31400 1.63400 29.27200
C  31.13700 1.75900 32.75900
O  29.93600 1.96700 32.95800
C  32.29600 1.63900 33.80900
C  32.35200 2.96400 34.44900
O  32.50300 4.05500 33.88800
O  32.04100 2.82900 35.83000
C  31.60700 4.13100 36.40700
H  39.20900 0.97400 33.39100
H  38.61800 0.14900 26.97400
H  32.49400 1.37100 27.35000
H  34.66600 2.08100 35.42200
H  37.44500 1.28700 35.44900
H  37.61400 3.61600 35.73700
H  36.08500 3.84200 35.12000
H  37.44500 3.73900 34.01200
H  35.93100 -0.66400 36.03400
H  34.33600 -0.55200 35.37500
H  35.04300 -0.22100 38.01900
H  33.58800 0.56100 37.27800
H  41.08500 0.73500 32.83400
H  42.14700 0.59300 31.53500
H  41.39500 -0.82100 32.32100
H  42.94700 0.39400 29.62300
H  43.06700 -0.51500 28.07700
H  42.73300 -1.37100 29.52700
H  36.35400 -0.37500 25.51700
H  34.48600 1.78400 25.69100
H  37.86500 2.14800 25.48000
H  36.31400 2.44300 24.69000
H  37.29700 1.17600 24.11200
H  34.56100 -0.51800 24.26300
H  33.10800 0.30400 24.76500
H  33.96000 -1.48000 26.86100
H  33.92200 -2.41400 25.56700
H  32.42400 -1.45700 26.11300
H  29.77200 0.79000 29.70000
H  30.57700 1.56900 28.21600
H  29.76900 2.56900 29.40500
H  32.00800 0.94200 34.59600
H  31.35500 4.89700 35.67400
H  32.39900 4.49500 37.06100
H  30.77900 3.90700 37.08000
Mg 25.24100 52.47300 26.00300
C  23.35800 53.40800 28.84100
C  27.92000 52.08600 28.11300
C  26.99700 52.42600 23.23000
C  22.35700 53.39100 23.96100
N  25.55800 52.92400 28.29100
C  24.63700 53.07800 29.22100
C  25.23400 52.80800 30.65200
C  26.74300 52.56100 30.38400
C  26.75800 52.60300 28.79300
C  27.61700 53.61600 31.13400
C  24.51300 51.57000 31.36900
C  23.81500 51.82900 32.73200
H  24.71400 52.11600 33.83600
N  27.14800 52.11000 25.70200
C  28.11400 51.95000 26.67600
C  29.36500 51.58100 26.06400
C  29.18600 51.77200 24.64800
C  27.71700 52.10300 24.44200
C  30.67900 51.31900 26.81300
C  30.17900 51.70800 23.54500
O  29.91200 51.87400 22.38100
C  31.56600 51.15000 23.86900
N  24.75800 52.99700 23.91400
C  25.73900 52.74900 22.92700
C  25.20500 52.97100 21.51800
C  23.71000 53.21900 21.77400
C  23.59500 53.25700 23.28700
C  25.99900 54.06400 20.72000
C  22.74400 52.19800 21.11000
C  22.43100 52.65500 19.63300
N  23.28500 53.25900 26.31600
C  22.25000 53.48200 25.41700
C  21.11800 53.85500 26.08800
C  21.39400 53.73600 27.45400
C  22.80200 53.42200 27.51600
C  19.90000 54.35300 25.32000
C  20.84000 53.84400 28.75300
O  19.69400 54.03000 29.16400
C  22.13900 53.61200 29.77800
C  22.32600 54.82600 30.61700
O  22.82400 55.91200 30.28500
O  21.78000 54.64900 31.83800
C  21.97200 55.63800 32.90600
H  28.84600 52.04800 28.69000
H  27.67200 52.32300 22.37800
H  21.47300 53.64200 23.37100
H  25.06700 53.73700 31.19600
H  27.20600 51.60800 30.64100
H  28.33800 53.11300 31.77900
H  26.98600 54.11800 31.86800
H  28.09600 54.29900 30.43200
H  25.20600 50.74700 31.54400
H  23.77600 51.20700 30.65300
H  23.20700 50.94300 32.91700
H  23.19100 52.71500 32.62200
H  31.41600 52.02000 26.42100
H  31.07400 50.30300 26.80700
H  30.56900 51.73900 27.81300
H  32.16500 50.86400 23.00400
H  31.53100 50.24600 24.47700
H  32.08400 51.96600 24.37400
H  25.43200 52.07800 20.93500
H  23.54200 54.26500 21.52000
H  26.95800 54.35100 21.15100
H  25.38700 54.94900 20.54800
H  26.25300 53.64200 19.74800
H  21.77400 51.91200 21.51600
H  23.27300 51.25200 20.99300
H  22.35600 51.74800 19.03400
H  23.14800 53.41100 19.31300
H  21.50400 53.22700 19.60600
H  20.18200 55.23300 24.74300
H  19.10300 54.75400 25.94700
H  19.61900 53.65500 24.53200
H  21.88500 52.74800 30.39100
H  22.24300 56.62200 32.52200
H  22.77600 55.31700 33.56900
H  21.08400 55.85900 33.49800

