158

Mg 25.83500 1.21400 29.66600
C  27.85800 1.06300 32.47200
C  23.04700 1.46000 31.67600
C  23.95000 1.72100 26.97200
C  28.70000 0.50600 27.62900
N  25.49700 1.08300 31.78200
C  26.49600 1.23600 32.73100
C  25.94300 1.32500 34.16500
C  24.34900 1.24800 34.00700
C  24.27300 1.25400 32.39400
C  23.63300 -0.02800 34.47400
C  26.38600 2.67200 34.80300
C  26.96000 2.53300 36.24400
H  26.62600 3.60800 37.28100
N  23.77800 1.47000 29.34400
C  22.82200 1.63700 30.30000
C  21.54700 1.90100 29.72400
C  21.72800 1.90200 28.32500
C  23.22900 1.74200 28.18800
C  20.29500 2.00900 30.45200
C  20.77800 2.01200 27.13400
O  21.15900 2.01600 25.96200
C  19.30100 2.01900 27.34200
N  26.26500 0.91300 27.57200
C  25.35000 1.36800 26.70800
C  25.91900 1.44800 25.20900
C  27.49600 1.19700 25.46900
C  27.50700 0.82700 26.95900
C  25.27100 0.59400 24.10600
C  28.45800 2.35300 25.11000
C  29.44800 2.06800 23.95400
N  27.79500 0.75900 29.93300
C  28.80300 0.54500 29.05600
C  30.05200 0.32300 29.81700
C  29.72200 0.57600 31.13400
C  28.37100 0.85900 31.18000
C  31.43400 0.12500 29.18300
C  30.29400 0.69700 32.48400
O  31.44200 0.50700 32.83200
C  29.11400 1.11500 33.41900
C  28.98800 0.09700 34.54800
O  28.41600 -0.94200 34.56600
O  29.57300 0.67900 35.69000
C  29.50200 -0.23100 36.80600
H  22.23500 1.46900 32.40700
H  23.47000 1.90800 26.00900
H  29.59400 0.34500 27.02300
H  26.20100 0.51500 34.84700
H  23.89800 2.17400 34.36300
H  22.81400 0.27000 35.12900
H  24.36000 -0.75800 34.82700
H  23.25500 -0.58000 33.61400
H  25.64000 3.45800 34.68200
H  27.29000 3.04600 34.32300
H  28.04100 2.41400 36.16600
H  26.67800 1.64400 36.80700
H  19.77300 2.77100 29.87400
H  20.50100 2.37800 31.45700
H  19.75400 1.06300 30.47100
H  19.08700 1.01400 27.70400
H  18.87300 1.96400 26.34100
H  18.80200 2.69700 28.03400
H  25.72900 2.50400 25.01300
H  27.83800 0.32100 24.91800
H  24.88900 1.21400 23.29500
H  24.41300 0.02800 24.47000
H  25.91800 -0.21600 23.76900
H  29.08100 2.62700 25.96200
H  27.81800 3.21400 24.92000
H  29.67800 2.82200 23.20200
H  29.08800 1.16700 23.45800
H  30.38400 1.80800 24.45000
H  32.29100 -0.04600 29.83400
H  31.82700 0.92900 28.56000
H  31.42600 -0.77600 28.57000
H  29.18700 2.06900 33.94200
H  30.16900 0.06500 37.61600
H  29.63900 -1.28000 36.54500
H  28.53300 0.00700 37.24300
Mg 36.06600 48.27400 25.52300
C  36.46700 46.39100 28.47500
C  35.14700 51.02000 27.43300
C  35.04600 49.72700 22.72900
C  37.04900 45.46500 23.77400
N  35.63900 48.62800 27.71700
C  35.94700 47.67900 28.72500
C  35.75300 48.33000 30.07800
C  35.06600 49.70900 29.70300
C  35.32600 49.82500 28.22400
C  33.52300 49.76500 30.05300
C  36.98500 48.53100 30.87500
C  37.01600 48.35300 32.40900
H  35.70200 48.48400 33.24700
N  35.16900 50.16100 25.09900
C  34.97300 51.20500 25.99000
C  34.48900 52.37300 25.29400
C  34.21700 51.98300 23.92700
C  34.84100 50.60600 23.84900
C  34.25100 53.69000 25.98600
C  33.49500 52.75800 22.82600
O  33.48100 52.29100 21.69600
C  32.89600 54.13000 23.10100
N  36.05300 47.70400 23.57300
C  35.57900 48.45300 22.54400
C  35.78200 47.82200 21.13800
C  36.69200 46.57100 21.57300
C  36.56100 46.52000 23.09000
C  34.55000 47.40900 20.47700
C  38.13400 46.55700 21.04000
C  39.30300 47.10200 21.84100
N  36.67500 46.35400 25.95500
C  37.09300 45.32700 25.16000
C  37.62200 44.26200 25.91700
C  37.28400 44.59300 27.22700
C  36.77100 45.87800 27.23900
C  38.22500 42.93600 25.35800
C  37.36800 44.11200 28.63100
O  37.81300 43.08700 29.11000
C  36.83200 45.33300 29.49200
C  35.74100 44.94100 30.35100
O  34.60800 44.97500 30.02500
O  36.16900 44.71600 31.61900
C  35.09100 44.49600 32.64200
H  35.02100 51.83800 28.14600
H  34.68000 50.26900 21.85500
H  37.39300 44.65700 23.12500
H  35.00000 47.70900 30.56400
H  35.59200 50.49500 30.24500
H  33.29100 50.66300 30.62400
H  33.21200 49.01500 30.78100
H  32.82300 49.69500 29.22000
H  37.35400 49.52100 30.60500
H  37.69500 47.86500 30.38400
H  37.71100 49.17600 32.57900
H  37.46300 47.37400 32.57900
H  34.72200 54.51200 25.44700
H  34.75300 53.72000 26.95300
H  33.18600 53.80400 26.18300
H  32.24800 53.90000 23.94700
H  32.24200 54.45300 22.29200
H  33.71300 54.82500 23.29400
H  36.36300 48.51700 20.53100
H  36.19100 45.65100 21.27400
H  33.72100 47.60100 21.15800
H  34.52700 46.38600 20.10100
H  34.43600 48.12300 19.66200
H  38.08600 47.05900 20.07400
H  38.31100 45.52400 20.74200
H  39.72400 48.02300 21.43800
H  40.06400 46.32100 21.83500
H  39.03700 47.27200 22.88400
H  38.43600 43.00700 24.29100
H  37.62100 42.05000 25.55100
H  39.13600 42.67300 25.89500
H  37.69800 45.45400 30.14200
H  35.47100 44.61700 33.65600
H  34.78400 43.46800 32.45100
H  34.27900 45.21300 32.52800

