158

Mg 42.63100 41.17100 26.09100
C  41.63900 43.41300 28.72100
C  43.56600 39.00900 28.53900
C  43.65000 39.15800 23.66600
C  41.93500 43.65600 23.83600
N  42.65500 41.26500 28.50700
C  42.07200 42.17200 29.28000
C  42.10500 41.61800 30.77800
C  42.92000 40.27000 30.68600
C  43.07500 40.18700 29.18100
C  44.22700 40.18000 31.58200
C  40.71800 41.66100 31.53800
C  40.77400 41.24300 33.02000
H  40.64200 42.32700 34.00900
N  43.50300 39.32500 26.08100
C  43.81800 38.59000 27.20000
C  44.46800 37.38000 26.76500
C  44.42100 37.31900 25.33300
C  43.80300 38.60300 24.97000
C  45.13800 36.50600 27.77200
C  44.92100 36.20500 24.37300
O  44.88600 36.27000 23.19000
C  45.60300 34.94600 24.93100
N  42.97300 41.45000 23.99700
C  43.24300 40.41000 23.23500
C  43.15200 40.84800 21.73300
C  42.43900 42.27100 21.83400
C  42.45600 42.50000 23.31700
C  44.55500 40.65700 21.12600
C  41.11400 42.37800 21.15000
C  40.00900 41.50100 21.61200
N  41.96000 43.11500 26.22700
C  41.84100 43.98900 25.21200
C  41.40400 45.29800 25.76100
C  41.25100 45.08700 27.11000
C  41.64900 43.72300 27.33200
C  41.19800 46.57700 24.95000
C  40.75700 45.67800 28.43000
O  40.22700 46.75700 28.66300
C  40.93800 44.54800 29.46900
C  41.85600 44.97800 30.53600
O  43.11900 44.86800 30.52700
O  41.10700 45.69900 31.50100
C  41.92600 46.26300 32.56800
H  43.60800 38.23300 29.30700
H  43.97700 38.66300 22.74900
H  41.65200 44.40900 23.09700
H  42.74600 42.31900 31.31100
H  42.17100 39.52200 30.94500
H  44.42900 41.11800 32.10000
H  45.06100 40.05500 30.89200
H  44.14800 39.39100 32.32900
H  40.10200 40.88200 31.08900
H  40.17600 42.58600 31.34200
H  41.67800 40.66600 33.21600
H  39.94800 40.54900 33.17600
H  44.57500 35.58700 27.93300
H  45.21900 37.02700 28.72700
H  46.14900 36.18400 27.52600
H  45.65700 34.11700 24.22500
H  44.91500 34.57800 25.69100
H  46.50800 35.24800 25.45900
H  42.43400 40.18900 21.24500
H  43.17400 42.99100 21.47200
H  44.68000 39.84100 20.41400
H  45.17300 40.38100 21.98000
H  44.89200 41.60600 20.71000
H  41.24700 42.14100 20.09500
H  40.73400 43.39500 21.25100
H  39.30500 42.12500 22.16200
H  40.46300 40.72900 22.23400
H  39.40200 41.12200 20.78900
H  41.40700 46.47300 23.88500
H  41.95400 47.20600 25.42000
H  40.21500 46.91500 25.27600
H  39.98500 44.22300 29.88800
H  42.37300 45.44400 33.13100
H  41.39300 47.04100 33.11500
H  42.80200 46.77500 32.17000
Mg 31.08500 58.37700 40.31800
C  28.15700 56.51600 39.14800
C  32.99800 55.65200 39.20700
C  33.67100 60.43300 40.56200
C  28.90700 61.11000 40.80800
N  30.62800 56.32700 39.19200
C  29.39800 55.79100 38.88500
C  29.60800 54.40900 38.18100
C  31.06300 54.02800 38.68800
C  31.62000 55.43300 39.05300
C  31.10200 53.10600 39.99700
C  29.40000 54.65700 36.67500
C  28.59600 53.50700 36.00900
H  28.29000 53.69400 34.50500
N  33.10600 58.08400 39.90800
C  33.70200 56.88700 39.48600
C  35.09300 57.22400 39.24500
C  35.35400 58.53400 39.66700
C  34.00000 59.09200 40.05700
C  36.03100 56.19700 38.77100
C  36.70400 59.21900 39.69100
O  37.71100 58.59900 39.39200
C  36.84200 60.67700 40.10700
N  31.23600 60.48700 40.66000
C  32.46500 61.02900 40.80700
C  32.35000 62.60000 41.18500
C  30.75900 62.76800 41.19700
C  30.23700 61.37800 40.92100
C  33.17100 63.14400 42.39000
C  30.22500 63.84800 40.11500
C  29.28500 64.90600 40.52000
N  28.97700 58.68300 40.24600
C  28.26300 59.88200 40.34400
C  26.86000 59.72200 40.15500
C  26.80300 58.38600 39.61200
C  28.08000 57.81000 39.70300
C  25.75300 60.67400 40.30700
C  25.88000 57.36200 39.09100
O  24.66400 57.38800 39.00100
C  26.68900 56.08300 38.89000
C  26.22200 55.01900 39.82900
O  26.96000 54.58800 40.69800
O  24.94600 54.71500 39.56800
C  24.31000 53.64600 40.36200
H  33.59700 54.80200 38.87100
H  34.45400 61.17200 40.74300
H  28.16700 61.91300 40.81100
H  29.01900 53.58900 38.59200
H  31.67000 53.57000 37.90700
H  30.16400 52.55900 40.09600
H  31.06500 53.74600 40.87900
H  32.04700 52.56600 39.93100
H  30.40500 54.81800 36.28700
H  28.85100 55.58600 36.52000
H  27.60400 53.42300 36.45300
H  29.08900 52.55100 36.18700
H  37.01400 56.37900 39.20600
H  36.14700 56.33000 37.69500
H  35.60200 55.21700 38.97800
H  36.16900 61.24000 39.46100
H  37.88000 61.01000 40.06900
H  36.57900 60.70600 41.16500
H  32.64100 63.22600 40.34100
H  30.45500 63.18500 42.15800
H  32.60200 63.55300 43.22400
H  34.10000 63.58200 42.02600
H  33.55700 62.21900 42.82100
H  29.83300 63.38400 39.21000
H  31.06100 64.48600 39.82900
H  29.67100 65.90800 40.33700
H  29.39100 64.92500 41.60500
H  28.25900 64.68400 40.22600
H  25.70800 61.17100 39.33800
H  25.89000 61.28800 41.19700
H  24.81600 60.13300 40.44100
H  26.49800 55.81700 37.85000
H  23.95800 52.84400 39.71300
H  23.46200 54.04900 40.91600
H  24.90300 53.18000 41.14900

