158

Mg 16.08600 -2.48500 27.45500
C  15.06600 -0.44800 30.11700
C  17.64400 -4.50600 29.73500
C  17.38900 -4.20900 24.84600
C  14.90000 -0.09100 25.22300
N  16.50000 -2.38200 29.68200
C  15.92500 -1.47600 30.59400
C  16.28700 -1.78700 32.06800
C  17.36000 -3.02900 31.80200
C  17.16300 -3.37300 30.34000
C  18.88300 -2.82900 32.12700
C  14.98300 -2.18300 32.84300
C  14.88700 -1.55600 34.29600
H  16.09300 -0.80600 34.94400
N  17.32700 -4.08200 27.30200
C  17.83300 -4.85800 28.41900
C  18.66100 -5.91900 27.91200
C  18.57200 -5.84300 26.54000
C  17.75400 -4.64800 26.14200
C  19.23500 -7.06200 28.82400
C  19.16400 -6.77500 25.55600
O  18.97100 -6.76900 24.33200
C  20.13900 -7.91400 26.01200
N  16.21300 -2.23300 25.38000
C  16.66000 -3.10000 24.47900
C  16.47900 -2.56500 22.99500
C  15.54400 -1.36600 23.18400
C  15.60100 -1.18800 24.68800
C  17.85600 -2.21800 22.27800
C  14.05000 -1.45300 22.72400
C  12.91400 -1.89800 23.65600
N  15.21900 -0.63600 27.57800
C  14.59900 0.14800 26.57500
C  13.76200 1.15000 27.16600
C  13.98900 1.02600 28.57000
C  14.82600 -0.09500 28.74400
C  12.98600 2.29100 26.43700
C  13.64500 1.58200 29.88800
O  12.98500 2.58000 30.20100
C  14.34200 0.65900 30.96800
C  15.29300 1.45200 31.83000
O  16.53700 1.40100 31.77300
O  14.54200 2.32100 32.63800
C  15.27200 3.22500 33.50900
H  18.18800 -5.16000 30.42000
H  17.59400 -4.86600 23.99800
H  14.37000 0.65600 24.62800
H  16.90600 -1.03500 32.55700
H  16.99500 -3.93700 32.28000
H  19.14200 -3.68500 32.74900
H  18.96200 -1.88500 32.66700
H  19.48200 -2.92000 31.22100
H  14.93200 -3.27100 32.88000
H  14.07200 -1.87400 32.33000
H  14.67300 -2.31200 35.05200
H  14.11900 -0.78300 34.33200
H  18.83200 -7.98800 28.41500
H  18.89500 -7.02800 29.85800
H  20.32400 -7.06100 28.86500
H  19.58800 -8.59300 26.66300
H  20.99800 -7.42300 26.46900
H  20.45300 -8.43600 25.10800
H  16.01800 -3.33200 22.37300
H  16.04200 -0.52400 22.70300
H  18.15100 -1.16900 22.30800
H  17.87800 -2.61600 21.26300
H  18.61400 -2.73200 22.86900
H  13.98200 -2.13200 21.87400
H  13.80100 -0.44200 22.40000
H  13.28000 -2.46800 24.51000
H  12.24100 -2.56700 23.12000
H  12.39300 -1.03100 24.06100
H  12.69100 1.91900 25.45600
H  13.68900 3.12100 26.36400
H  12.06600 2.59500 26.93600
H  13.63200 0.27300 31.69900
H  15.05600 4.26000 33.24600
H  16.31700 2.93700 33.61700
H  14.79500 2.97500 34.45600
Mg 17.11900 51.51900 25.72200
C  19.11500 50.24100 28.39100
C  14.72700 52.34100 28.09000
C  15.06400 52.05100 23.20800
C  19.67800 50.28000 23.55400
N  17.02700 51.33600 28.03000
C  17.99500 50.87100 28.98000
C  17.53500 51.04600 30.40200
C  16.02000 51.52300 30.15400
C  15.95000 51.83700 28.64700
C  14.89100 50.44100 30.56600
C  18.44800 51.85700 31.35600
C  18.41500 51.48500 32.84700
H  17.59600 52.36700 33.89000
N  15.14000 52.08600 25.66300
C  14.33800 52.45800 26.74200
C  13.07200 52.97500 26.24700
C  13.16600 52.84000 24.83600
C  14.50900 52.36100 24.48700
C  11.95500 53.56500 27.11400
C  12.13100 53.23900 23.78000
O  12.21200 52.98700 22.59600
C  10.83700 53.94400 24.23400
N  17.33100 51.10700 23.67800
C  16.34800 51.59200 22.83100
C  16.92900 51.64000 21.41000
C  18.40600 51.17200 21.54000
C  18.49900 50.79500 23.00500
C  16.01800 50.70300 20.46600
C  19.45100 52.31600 21.25000
C  20.72800 51.94400 20.46400
N  19.02600 50.50200 25.86400
C  19.91500 50.06800 24.92700
C  21.01700 49.34200 25.56000
C  20.80900 49.45400 26.92000
C  19.56600 50.12200 27.04200
C  22.20900 48.63600 24.89300
C  21.30100 48.96900 28.15300
O  22.27300 48.25100 28.36300
C  20.37500 49.62600 29.23900
C  19.88800 48.69700 30.31100
O  19.06500 47.82000 30.11700
O  20.38400 49.02300 31.53300
C  19.96700 48.18300 32.67600
H  13.91100 52.50200 28.79700
H  14.50200 52.34000 22.31800
H  20.51400 49.97300 22.92200
H  17.50300 50.02400 30.77900
H  15.75800 52.43500 30.69000
H  13.95700 50.97200 30.75100
H  15.15800 50.04700 31.54600
H  14.72400 49.76200 29.73000
H  17.89900 52.79200 31.23800
H  19.46500 51.92100 30.96900
H  19.47600 51.47900 33.09800
H  18.12000 50.44300 32.97200
H  11.64000 54.52300 26.69900
H  12.26000 53.77000 28.14100
H  11.22300 52.76100 27.18300
H  10.17000 54.16600 23.40100
H  11.15200 54.92200 24.59700
H  10.28600 53.29300 24.91200
H  16.87700 52.67800 21.08300
H  18.66600 50.33000 20.90000
H  15.05200 50.62500 20.96500
H  16.43400 49.70500 20.33200
H  15.77400 51.18200 19.51800
H  19.77900 52.63100 22.24000
H  18.89800 53.14900 20.81700
H  20.89600 52.63000 19.63400
H  20.73300 50.98200 19.95000
H  21.55800 51.97600 21.16900
H  23.07400 48.39700 25.51100
H  22.50700 49.29000 24.07300
H  21.69700 47.75900 24.49700
H  20.97200 50.43700 29.65700
H  19.92600 48.81600 33.56200
H  20.72200 47.42900 32.89600
H  18.98500 47.72200 32.57300

