158

Mg -0.57400 7.39500 26.05700
C  -0.07500 9.55300 28.95000
C  -0.63400 4.82900 28.25300
C  -0.64300 5.49000 23.43300
C  -0.18500 10.21200 24.15400
N  -0.50200 7.23300 28.37200
C  -0.34000 8.24800 29.32600
C  -0.44100 7.62500 30.77100
C  -0.35600 6.09400 30.46100
C  -0.52200 6.03100 28.90100
C  0.97900 5.32700 30.90100
C  -1.66300 8.19500 31.43700
C  -1.29900 8.76900 32.78600
H  -1.82300 8.04900 34.04900
N  -0.69400 5.45300 25.89300
C  -0.79800 4.50700 26.90500
C  -0.87000 3.12300 26.32900
C  -0.89100 3.30500 24.92900
C  -0.79200 4.81100 24.71200
C  -0.93100 1.95000 27.27300
C  -0.75500 2.28200 23.85400
O  -0.68200 2.56200 22.66900
C  -0.75200 0.91400 24.22600
N  -0.23300 7.83500 24.05300
C  -0.42700 6.83200 23.11200
C  -0.63900 7.37200 21.69500
C  -0.61100 8.93100 21.92000
C  -0.32800 9.04600 23.41700
C  0.42900 6.86300 20.63000
C  -1.82500 9.76800 21.30400
C  -2.73100 10.48000 22.37200
N  -0.26900 9.43100 26.40500
C  -0.09600 10.47600 25.51800
C  0.14700 11.73400 26.20000
C  0.20100 11.36900 27.49500
C  -0.06400 9.99100 27.61600
C  0.44700 13.06500 25.53300
C  0.58700 11.88900 28.74600
O  1.09200 12.94600 29.08700
C  0.32400 10.73700 29.75900
C  1.55900 10.39100 30.51000
O  2.52800 9.70800 30.15300
O  1.42600 11.03100 31.68500
C  2.51300 11.07400 32.57600
H  -0.64700 4.02800 28.99500
H  -0.92800 4.85200 22.59400
H  -0.02300 11.04700 23.46900
H  0.52700 7.81900 31.23400
H  -1.25100 5.58000 30.81000
H  0.85600 4.46600 31.55800
H  1.59200 6.13000 31.30900
H  1.44600 4.77100 30.08700
H  -2.32600 7.35900 31.66100
H  -2.09100 9.04000 30.89700
H  -1.56800 9.82400 32.84600
H  -0.21800 8.74200 32.92200
H  0.06600 1.58400 27.52000
H  -1.50400 1.16100 26.78600
H  -1.44000 2.25500 28.18700
H  -0.15500 0.76800 25.12600
H  -0.31300 0.31300 23.43000
H  -1.77300 0.64900 24.50000
H  -1.65700 7.14600 21.37600
H  0.33700 9.32700 21.55500
H  -0.03400 6.43300 19.74200
H  1.12500 6.13300 21.04300
H  1.04200 7.65500 20.20100
H  -2.47000 9.17100 20.65800
H  -1.37600 10.56200 20.70700
H  -2.96600 9.73600 23.13300
H  -3.63600 10.84300 21.88400
H  -2.25300 11.28800 22.92600
H  1.02700 13.02200 24.61000
H  1.10400 13.53600 26.26500
H  -0.38900 13.73100 25.32200
H  -0.37600 11.13300 30.49500
H  2.56500 12.10800 32.91800
H  3.51500 10.71700 32.33800
H  2.26300 10.50800 33.47300
Mg 17.45900 51.72200 26.38000
C  19.41100 50.23400 28.98300
C  15.00500 52.31500 28.65600
C  15.44300 52.50600 23.86200
C  19.93000 50.72600 24.11200
N  17.33300 51.34300 28.63100
C  18.15000 50.71100 29.49000
C  17.68300 50.99800 30.91000
C  16.16300 51.29100 30.75200
C  16.18000 51.76700 29.28300
C  15.17600 50.20200 31.14200
C  18.56400 52.11600 31.48800
C  18.94200 52.00700 33.04600
H  17.94300 51.26800 33.92900
N  15.57900 52.32700 26.29500
C  14.72000 52.55400 27.31400
C  13.44600 53.02100 26.86200
C  13.55800 53.17000 25.49300
C  14.95900 52.67300 25.15300
C  12.14800 53.22900 27.76200
C  12.47900 53.68000 24.50100
O  12.87700 54.00200 23.39200
C  11.07500 53.93400 24.84300
N  17.63600 51.60600 24.32100
C  16.68400 52.03000 23.43700
C  17.19200 51.95300 22.00200
C  18.68100 51.57500 22.12500
C  18.78300 51.33700 23.64000
C  16.35500 51.06200 21.04000
C  19.55600 52.79700 21.68700
C  20.88300 52.47500 21.10500
N  19.20100 50.59400 26.47500
C  20.09100 50.26300 25.44400
C  21.27500 49.62300 25.98200
C  21.04200 49.59600 27.32600
C  19.78900 50.25800 27.57400
C  22.46800 49.15700 25.17700
C  21.53700 49.10500 28.60700
O  22.62300 48.61600 28.86700
C  20.57900 49.65500 29.70600
C  20.07100 48.57600 30.57500
O  19.23500 47.74100 30.29900
O  20.57800 48.71100 31.86100
C  20.03400 47.83500 32.97400
H  14.23700 52.40400 29.42700
H  14.77900 52.81700 23.05300
H  20.80000 50.70700 23.45200
H  17.87000 50.12100 31.53000
H  15.79500 52.14300 31.32300
H  14.43400 49.96200 30.38100
H  14.83500 50.47800 32.14000
H  15.76300 49.30800 31.35100
H  17.98700 52.99100 31.18900
H  19.50100 52.02500 30.93900
H  19.01300 53.02400 33.43100
H  19.87400 51.44400 33.09400
H  11.42200 52.47400 27.46200
H  11.80500 54.26400 27.76000
H  12.38500 53.11900 28.82000
H  10.58800 53.01300 25.16600
H  10.72100 54.23900 23.85900
H  10.84100 54.59500 25.67700
H  17.14100 52.93700 21.53600
H  19.11900 50.70200 21.64100
H  15.45400 50.71300 21.54500
H  16.95600 50.23900 20.65300
H  15.88600 51.61800 20.22800
H  19.80700 53.28900 22.62700
H  19.00300 53.56500 21.14700
H  21.59600 52.80000 21.86400
H  20.97800 53.15100 20.25600
H  21.06300 51.48700 20.68100
H  22.18300 48.76900 24.19900
H  22.87000 48.37600 25.82200
H  23.17400 49.91200 24.83100
H  21.14600 50.30800 30.36900
H  20.00000 48.41300 33.89700
H  20.76700 47.04800 33.15100
H  19.10200 47.36300 32.66200

