158

Mg 25.49900 1.10200 28.68200
C  27.36200 0.77400 31.61300
C  22.81100 1.85400 30.61400
C  23.64300 1.03800 25.80200
C  28.20300 -0.11600 26.91200
N  25.16900 1.32900 30.86000
C  26.09300 1.28600 31.85100
C  25.41900 1.63800 33.21400
C  23.97400 1.85400 32.88400
C  23.96700 1.69000 31.33100
C  22.89400 0.91400 33.60800
C  26.12800 2.79900 33.99500
C  26.67400 2.43700 35.34900
H  26.64000 3.40700 36.55600
N  23.50200 1.51600 28.23900
C  22.56100 1.83900 29.18500
C  21.28900 1.95400 28.58200
C  21.43200 1.73100 27.13900
C  22.91300 1.46600 26.97000
C  20.01000 2.08900 29.38700
C  20.35800 1.75500 26.04900
O  20.66300 1.63600 24.86300
C  18.97200 2.00700 26.31700
N  25.91800 0.50600 26.67500
C  24.96700 0.68900 25.66700
C  25.64100 0.72300 24.27800
C  27.07700 0.16500 24.58500
C  27.11200 0.26100 26.11400
C  24.85200 -0.14800 23.28600
C  28.19300 0.88800 23.80200
C  28.64800 2.29800 24.32600
N  27.40800 0.31500 29.15000
C  28.38700 -0.06400 28.26800
C  29.46800 -0.53200 29.08000
C  29.15500 -0.11400 30.38300
C  27.84800 0.37700 30.36700
C  30.78400 -1.17500 28.74300
C  29.72200 0.03900 31.71100
O  30.84700 -0.33300 32.07600
C  28.57500 0.63400 32.57200
C  28.26700 -0.25100 33.63700
O  27.54600 -1.28200 33.69100
O  28.87800 0.17100 34.88200
C  28.52700 -0.69200 36.07900
H  22.05800 2.30000 31.26700
H  23.01900 0.91900 24.91400
H  29.14900 -0.45400 26.48400
H  25.57800 0.71000 33.76300
H  23.70500 2.90000 33.03100
H  23.35100 0.49300 34.50300
H  22.45700 0.11000 33.01600
H  22.15200 1.64300 33.93300
H  25.48300 3.66000 34.17100
H  26.88500 3.18300 33.31200
H  27.74000 2.30800 35.15900
H  26.28800 1.44700 35.59000
H  19.16600 1.46000 29.10300
H  19.60300 3.08300 29.20000
H  20.24100 1.74500 30.39500
H  18.38600 2.24200 25.42900
H  18.79200 2.82700 27.01100
H  18.50800 1.15500 26.81300
H  25.75100 1.74300 23.91200
H  27.20900 -0.89200 24.35200
H  24.12300 -0.76100 23.81600
H  25.62600 -0.74800 22.80800
H  24.40600 0.48600 22.52000
H  27.92400 1.07100 22.76200
H  29.06400 0.23400 23.77700
H  28.03400 2.66600 25.14800
H  28.58900 3.02100 23.51200
H  29.62700 2.13000 24.77300
H  30.76000 -1.62000 27.74900
H  31.05200 -1.88800 29.52300
H  31.59600 -0.45500 28.63600
H  28.95800 1.54700 33.02700
H  27.56100 -0.38600 36.48100
H  29.30300 -0.42700 36.79700
H  28.60800 -1.77300 35.96400
Mg 47.57100 24.67400 28.89000
C  48.52400 27.25400 31.21200
C  46.87400 22.85300 31.71300
C  46.94700 22.18100 26.85500
C  49.28200 26.41000 26.44000
N  47.68100 25.16400 31.25700
C  47.88400 26.24000 31.91600
C  47.50000 26.11200 33.41100
C  47.26700 24.61800 33.58000
C  47.20600 24.17600 32.06400
C  48.35100 23.87300 34.44300
C  46.25900 27.02500 33.71900
C  46.15100 27.75500 35.06200
H  46.94100 27.09100 36.23400
N  46.92800 22.78800 29.22100
C  46.70600 22.15700 30.44600
C  46.18600 20.81500 30.20700
C  46.11000 20.60500 28.80100
C  46.60700 21.91800 28.18800
C  45.81700 19.89000 31.39700
C  45.76000 19.35000 28.07300
O  45.86300 19.27100 26.87900
C  45.31900 18.12700 28.91800
N  48.05900 24.30000 26.95400
C  47.56900 23.28500 26.24200
C  47.89200 23.32500 24.79000
C  48.54200 24.74400 24.54700
C  48.75800 25.15200 26.06700
C  48.74300 22.14000 24.25800
C  47.68300 25.70500 23.64400
C  46.47300 26.31900 24.37700
N  48.49800 26.43300 28.81800
C  49.10500 27.03800 27.73100
C  49.57400 28.36900 28.06000
C  49.29000 28.52100 29.45700
C  48.79700 27.27200 29.86100
C  50.30900 29.26900 27.05900
C  49.36200 29.44300 30.59000
O  49.65000 30.63100 30.66900
C  48.99400 28.54500 31.79300
C  50.24600 28.42200 32.55600
O  51.28800 28.05100 32.01600
O  49.99900 28.75700 33.84300
C  51.09700 28.45500 34.83200
H  46.50200 22.25500 32.54800
H  46.60300 21.34700 26.24000
H  49.61300 27.13800 25.69700
H  48.36000 26.38800 34.02100
H  46.29000 24.37500 33.99800
H  49.01000 24.50300 35.04000
H  48.94800 23.20700 33.82000
H  47.78200 23.25900 35.14200
H  45.35000 26.42800 33.63600
H  46.23700 27.73300 32.89100
H  45.11700 27.81600 35.40200
H  46.39300 28.80700 34.91100
H  44.77300 19.57800 31.35300
H  45.94300 20.32800 32.38700
H  46.40700 18.99300 31.58100
H  44.36200 18.32200 29.40100
H  46.06400 17.87500 29.67300
H  45.16300 17.29100 28.23600
H  46.91300 23.37900 24.31500
H  49.57200 24.72000 24.19100
H  49.54800 22.47800 23.60500
H  48.07400 21.45500 23.73800
H  49.14800 21.51300 25.05300
H  47.36100 25.13000 22.77600
H  48.42500 26.43200 23.31300
H  46.42400 27.39400 24.20000
H  46.47500 26.10200 25.44500
H  45.53700 25.96700 23.94200
H  50.58700 30.24500 27.45600
H  49.75700 29.48100 26.14300
H  51.25800 28.76600 26.87600
H  48.11100 28.89100 32.33000
H  51.54800 27.47600 34.67300
H  50.65300 28.50200 35.82600
H  51.81900 29.25400 34.66000

