158

Mg 53.16500 24.63800 44.57700
C  50.62100 26.83000 43.80300
C  51.30200 22.11100 42.97100
C  55.79700 22.68200 44.67500
C  55.04900 27.24800 45.76900
N  51.29500 24.62100 43.41600
C  50.47900 25.60600 43.20500
C  49.27900 25.16500 42.33400
C  49.32300 23.64600 42.61900
C  50.76700 23.40200 42.96700
C  48.41000 23.22200 43.78600
C  49.30400 25.57800 40.84000
C  50.71700 25.74500 40.29100
H  50.82400 26.46500 38.92500
N  53.57000 22.70800 43.82300
C  52.62000 21.76500 43.33500
C  53.20100 20.45500 43.27000
C  54.55800 20.56500 43.67900
C  54.74100 22.04700 43.99900
C  52.50200 19.32200 42.55200
C  55.62200 19.46700 43.66700
O  55.21600 18.33900 43.45200
C  57.12200 19.76400 43.90900
N  55.28100 24.97900 44.93400
C  56.17400 23.96100 45.00500
C  57.46800 24.41300 45.59900
C  57.22000 25.91200 45.85800
C  55.71200 26.04300 45.57000
C  57.93900 23.57500 46.88000
C  58.24000 26.88900 45.10000
C  58.07500 26.95900 43.57900
N  52.91000 26.62400 44.97100
C  53.73400 27.61100 45.50000
C  52.98100 28.85000 45.57400
C  51.71300 28.61200 44.93600
C  51.74300 27.25800 44.54900
C  53.52700 30.09700 46.29100
C  50.43700 29.17900 44.65700
O  49.91400 30.24800 44.87600
C  49.73100 28.05700 43.81100
C  49.35700 28.62400 42.49100
O  50.13000 28.97600 41.56300
O  47.95700 28.84700 42.39900
C  47.45500 29.43000 41.16200
H  50.51600 21.40400 42.69900
H  56.56800 22.01300 45.06500
H  55.79100 27.95500 46.14600
H  48.33900 25.53900 42.74100
H  48.92500 23.16300 41.72700
H  47.76400 22.40500 43.46200
H  47.85300 24.06200 44.19900
H  49.07000 22.83200 44.56100
H  48.83300 26.54500 40.66600
H  48.66300 24.95000 40.22000
H  51.22900 24.78400 40.33400
H  51.36600 26.29200 40.97500
H  51.51800 19.67900 42.24800
H  52.49500 18.50800 43.27700
H  53.04500 19.09600 41.63400
H  57.72900 18.89600 43.65100
H  57.36100 20.05800 44.93100
H  57.44900 20.66300 43.38500
H  58.25900 24.21400 44.87600
H  57.41400 26.14300 46.90500
H  57.27600 22.72900 47.06300
H  57.96900 24.11100 47.82900
H  58.95500 23.24900 46.65800
H  59.24100 26.52100 45.32400
H  58.32700 27.87600 45.55300
H  57.03300 26.89500 43.26400
H  58.68400 26.22500 43.05300
H  58.36600 27.93100 43.18000
H  54.24000 30.65200 45.68100
H  53.88300 29.66700 47.22700
H  52.79300 30.79200 46.70000
H  48.78700 27.85900 44.31700
H  47.67000 28.80600 40.29500
H  47.81700 30.45600 41.10600
H  46.37000 29.53600 41.17400
Mg 17.13400 51.17200 26.18400
C  19.07000 50.22700 28.82700
C  14.70100 52.20600 28.45200
C  15.24200 52.12800 23.53300
C  19.73100 50.52900 23.91800
N  16.86000 51.10300 28.43400
C  17.88000 50.79400 29.27000
C  17.55100 51.27400 30.75300
C  16.00300 51.49700 30.63500
C  15.82500 51.57500 29.08500
C  15.18100 50.40000 31.33100
C  18.43700 52.37500 31.48500
C  18.72900 52.12800 32.98600
H  17.74100 51.38300 33.84100
N  15.20400 51.92500 26.04500
C  14.40700 52.47000 27.09500
C  13.28800 53.18400 26.54500
C  13.38100 53.14800 25.13300
C  14.70000 52.46000 24.89900
C  12.27700 53.85700 27.48100
C  12.48700 53.78800 24.05200
O  12.62600 53.54600 22.88000
C  11.37400 54.64500 24.42000
N  17.39700 51.19700 23.97600
C  16.46700 51.59400 23.09500
C  16.93000 51.55200 21.65300
C  18.50600 51.35600 21.91500
C  18.60600 51.01900 23.38000
C  16.22700 50.52100 20.73300
C  19.46600 52.40700 21.43100
C  19.57800 53.67900 22.38600
N  18.97200 50.34700 26.24400
C  19.93700 50.18000 25.30900
C  21.07800 49.70400 25.95200
C  20.76400 49.65300 27.32900
C  19.44200 50.10400 27.45800
C  22.40600 49.40200 25.34100
C  21.31800 49.40700 28.63700
O  22.42600 49.06800 28.96500
C  20.21600 49.67300 29.64300
C  19.81000 48.43300 30.39100
O  19.02200 47.56900 30.04900
O  20.39000 48.62000 31.66400
C  20.07000 47.59100 32.71800
H  14.08700 52.61500 29.25800
H  14.68400 52.54200 22.69100
H  20.58800 50.32800 23.27100
H  17.75900 50.41400 31.39000
H  15.70900 52.48800 30.98200
H  15.78700 49.69200 31.89600
H  14.71100 49.78800 30.56100
H  14.47800 50.83100 32.04300
H  17.99300 53.36700 31.55800
H  19.41600 52.40100 31.00600
H  18.73000 53.15600 33.35000
H  19.75300 51.75700 32.94400
H  11.51500 54.46100 26.98800
H  12.89000 54.44000 28.16800
H  11.77200 53.27300 28.25000
H  10.52000 54.15300 24.88500
H  10.88900 55.19200 23.61200
H  11.62500 55.48200 25.07200
H  16.77700 52.54300 21.22700
H  18.83200 50.41200 21.47700
H  15.16600 50.76800 20.77100
H  16.47400 49.55200 21.16700
H  16.64400 50.58300 19.72800
H  19.07900 52.70100 20.45500
H  20.40600 51.86900 21.30500
H  18.72400 53.79900 23.05200
H  19.49300 54.58900 21.79300
H  20.48200 53.54800 22.98200
H  22.52300 48.46600 24.79400
H  23.16000 49.41000 26.12700
H  22.68700 50.12400 24.57400
H  20.61600 50.52700 30.18900
H  19.47500 46.75900 32.34100
H  19.47400 48.13600 33.45000
H  20.95000 47.21000 33.23600

