158

Mg 40.57700 8.95500 28.80600
C  42.13200 10.07700 31.83000
C  38.23700 7.36600 30.91000
C  39.26000 7.43700 26.11900
C  43.27900 9.91900 26.93500
N  40.21900 8.91500 31.05900
C  40.94400 9.41500 32.13600
C  40.37500 9.06500 33.47700
C  39.21600 8.04500 33.05300
C  39.25100 8.07200 31.58800
C  39.35600 6.64100 33.62900
C  39.90800 10.35600 34.22200
C  40.19700 10.24100 35.72500
H  41.11600 11.28800 36.45300
N  38.90300 7.71400 28.54000
C  38.15500 7.08400 29.51900
C  37.18400 6.25300 28.93300
C  37.40700 6.32300 27.56700
C  38.55500 7.24500 27.32300
C  36.14900 5.33700 29.73600
C  36.59500 5.64600 26.50900
O  36.91000 5.67000 25.32600
C  35.36500 4.94400 26.81300
N  41.27900 8.68600 26.86700
C  40.44900 8.10600 25.94600
C  41.02600 8.21200 24.48600
C  42.30600 9.08700 24.76900
C  42.27400 9.31300 26.26000
C  41.19000 6.90700 23.76400
C  42.58500 10.34900 23.87900
C  41.86700 11.64900 24.42200
N  42.29700 9.80200 29.23900
C  43.34000 10.20400 28.38100
C  44.40800 10.91800 29.13500
C  43.93500 10.86100 30.47800
C  42.69900 10.19700 30.46600
C  45.69400 11.39000 28.55100
C  44.34000 11.14400 31.79100
O  45.39400 11.60900 32.20400
C  43.09900 10.68500 32.74500
C  43.66900 9.61700 33.64200
O  44.09100 8.47600 33.24800
O  43.83900 10.19600 34.87000
C  44.52100 9.40200 35.93200
H  37.51800 6.95200 31.61900
H  38.90100 7.00200 25.18300
H  44.16700 10.29700 26.42500
H  41.11800 8.56700 34.10100
H  38.22000 8.48000 33.13400
H  40.15100 6.56600 34.37200
H  39.61900 5.96700 32.81400
H  38.38600 6.25000 33.93400
H  38.82800 10.50000 34.16800
H  40.43300 11.22600 33.82700
H  40.55600 9.26500 36.05100
H  39.23600 10.28100 36.23800
H  36.55700 5.13000 30.72500
H  36.09100 4.35300 29.27100
H  35.18400 5.84100 29.78900
H  35.54700 3.88800 27.01200
H  34.74600 4.92500 25.91600
H  34.73900 5.28900 27.63500
H  40.34500 8.79900 23.87000
H  43.12500 8.40000 24.55600
H  40.99100 5.98800 24.31600
H  42.23500 6.93800 23.45500
H  40.53300 7.00900 22.90100
H  42.29400 10.19000 22.84100
H  43.66000 10.42300 23.71800
H  42.55900 12.37400 24.85200
H  41.17500 11.38800 25.22300
H  41.41600 12.22800 23.61700
H  45.51400 12.01300 27.67500
H  46.36300 10.57300 28.27900
H  46.04000 12.06000 29.33900
H  42.82900 11.51600 33.39600
H  44.45500 9.95500 36.86900
H  45.56700 9.19100 35.71100
H  43.99200 8.46900 36.12400
Mg 36.32300 49.49600 25.76700
C  36.34200 47.70100 28.73300
C  34.67000 52.09700 27.45700
C  35.70200 51.07900 22.73400
C  37.23100 46.64200 24.07500
N  35.57900 49.81200 27.88900
C  35.85600 49.00200 28.97500
C  35.87300 49.82800 30.28200
C  35.06700 51.03400 29.85900
C  35.07900 51.03000 28.27500
C  33.65700 51.18400 30.38600
C  37.33900 50.02000 30.74500
C  37.64500 49.73700 32.20500
H  36.42200 49.80000 33.30100
N  35.48400 51.42800 25.23500
C  34.76900 52.22400 26.03400
C  34.18800 53.30700 25.28500
C  34.45800 53.08000 23.91500
C  35.27700 51.85000 23.89900
C  33.50900 54.49700 25.92300
C  33.98800 53.89300 22.64100
O  34.22900 53.55800 21.49200
C  33.07700 55.14300 22.82800
N  36.31000 48.97600 23.64200
C  36.25000 49.80700 22.59000
C  36.58400 49.18800 21.28600
C  37.21000 47.84700 21.78400
C  36.93000 47.83200 23.29500
C  35.40600 49.09000 20.29700
C  38.75200 47.76800 21.54000
C  39.31100 46.43300 20.91200
N  36.66700 47.57200 26.19900
C  37.16200 46.55300 25.47700
C  37.35600 45.35700 26.30000
C  37.05100 45.75200 27.60000
C  36.63800 47.08800 27.47700
C  37.98400 44.10500 25.72300
C  37.05900 45.35000 28.93400
O  37.19600 44.27200 29.47300
C  36.65700 46.65800 29.75100
C  35.63500 46.32700 30.78300
O  34.46300 46.37400 30.64600
O  36.30200 46.05200 31.95200
C  35.58000 45.40200 33.08400
H  34.20300 52.89600 28.03600
H  35.66500 51.63800 21.79600
H  37.50900 45.72400 23.55200
H  35.30300 49.29700 31.04600
H  35.56400 51.96800 30.12100
H  33.47400 52.22100 30.66800
H  33.50200 50.54100 31.25200
H  32.89200 50.94200 29.64700
H  37.72500 50.98800 30.42400
H  37.88900 49.23200 30.23300
H  38.27000 50.55700 32.55900
H  38.21300 48.80700 32.19900
H  33.78000 55.37200 25.33200
H  33.69800 54.61100 26.99000
H  32.44700 54.34500 25.72500
H  33.53600 56.10100 23.07600
H  32.41300 54.84300 23.63800
H  32.56600 55.26000 21.87200
H  37.35500 49.89900 20.99000
H  36.73100 46.98400 21.32200
H  34.54600 49.01000 20.96200
H  35.52200 48.18200 19.70600
H  35.25200 49.99300 19.70500
H  39.26400 47.87800 22.49600
H  39.01000 48.55500 20.83100
H  38.74700 45.53100 21.14900
H  40.36800 46.27000 21.12300
H  39.18500 46.78800 19.88900
H  37.60600 43.75600 24.76200
H  38.01900 43.27200 26.42500
H  39.06400 44.20800 25.61400
H  37.59100 46.88900 30.26500
H  34.56800 45.14400 32.77300
H  35.47600 46.16700 33.85300
H  36.25500 44.63100 33.45700

