158

Mg 8.75100 3.99600 27.85100
C  9.95400 2.92900 30.88600
C  6.98200 6.55500 29.53700
C  6.94500 4.62600 24.99600
C  10.06700 1.16500 26.31100
N  8.41200 4.49700 29.97100
C  9.08700 4.01000 31.05100
C  8.71300 4.62700 32.42300
C  7.70100 5.73900 31.94300
C  7.73300 5.63400 30.37700
C  6.28500 5.67200 32.47100
C  9.94700 5.11900 33.22800
C  10.13800 4.51500 34.69900
H  10.23400 5.44900 35.93900
N  7.21700 5.44900 27.32500
C  6.73000 6.42600 28.13000
C  6.00200 7.29700 27.36200
C  5.81100 6.70600 26.13800
C  6.61700 5.53600 26.11500
C  5.33100 8.46700 27.91100
C  5.06800 7.29600 24.76200
O  4.99300 6.69500 23.67000
C  4.24100 8.60600 24.94300
N  8.41400 2.94800 25.96400
C  7.67900 3.46800 24.91400
C  7.72000 2.55800 23.67400
C  8.83200 1.45700 24.07300
C  9.13400 1.84800 25.53300
C  6.35300 2.04500 23.22900
C  9.98800 1.16700 23.17500
C  10.16100 -0.17400 22.57000
N  9.91100 2.37700 28.41300
C  10.35000 1.34100 27.69100
C  11.08400 0.42300 28.57300
C  10.92600 1.02100 29.80100
C  10.19800 2.19600 29.66600
C  11.68100 -0.91500 28.10800
C  11.25000 0.87200 31.15600
O  11.83400 0.03000 31.81800
C  10.70900 2.06900 31.94100
C  9.81800 1.53100 33.03500
O  8.61800 1.39000 32.99300
O  10.58900 1.36900 34.20700
C  9.89300 1.00300 35.46400
H  6.75400 7.44200 30.13100
H  6.49200 4.64600 24.00300
H  10.57700 0.26300 25.96800
H  8.26500 3.84100 33.03100
H  8.08100 6.70600 32.27400
H  5.73200 5.02900 31.78600
H  5.95800 6.71100 32.51200
H  6.31300 5.22300 33.46400
H  9.81900 6.19100 33.38100
H  10.87000 5.05800 32.65300
H  11.08100 3.98600 34.56000
H  9.30900 3.80800 34.70400
H  5.90900 9.35100 27.64100
H  5.24500 8.47600 28.99800
H  4.35900 8.58600 27.43200
H  3.99800 8.97600 23.94700
H  4.90900 9.33100 25.40800
H  3.30800 8.54600 25.50300
H  8.07300 3.23800 22.89900
H  8.43500 0.46500 24.28800
H  6.27100 0.97000 23.38900
H  6.12400 2.36900 22.21300
H  5.62900 2.43700 23.94300
H  10.86500 1.41500 23.77300
H  10.02400 1.80300 22.29000
H  10.46900 -0.00100 21.53900
H  9.24800 -0.77000 22.59000
H  11.00900 -0.69900 23.01000
H  12.73300 -0.72400 27.89900
H  11.16800 -1.40000 27.27700
H  11.72100 -1.59900 28.95600
H  11.51500 2.66900 32.36400
H  8.98500 0.40900 35.35700
H  9.67200 1.84300 36.12200
H  10.55700 0.41200 36.09600
Mg 16.97600 -1.71700 28.20100
C  16.31900 0.50100 30.82100
C  18.72200 -3.72000 30.24600
C  17.95900 -3.45500 25.40700
C  15.20300 0.51000 26.02300
N  17.54900 -1.44000 30.30600
C  17.15000 -0.54100 31.21700
C  17.71400 -0.89600 32.59700
C  18.74200 -2.01400 32.37000
C  18.33100 -2.45300 30.93800
C  20.24600 -1.57900 32.37400
C  16.50100 -1.44800 33.47300
C  16.22800 -0.75300 34.88200
H  17.41800 0.05400 35.51000
N  18.06000 -3.43900 27.87200
C  18.73100 -4.10400 28.89800
C  19.35000 -5.29500 28.27000
C  19.07500 -5.24100 26.83600
C  18.25900 -4.07700 26.60400
C  20.13000 -6.33700 29.08500
C  19.62200 -6.20500 25.70900
O  19.51500 -5.97100 24.51500
C  20.47900 -7.39000 26.00300
N  16.74800 -1.40300 26.07600
C  17.26700 -2.29200 25.17000
C  17.16200 -1.82100 23.71100
C  16.09000 -0.63900 23.90500
C  15.92100 -0.53100 25.47000
C  18.60900 -1.35200 23.10900
C  14.71300 -0.89000 23.15900
C  14.34000 0.06400 22.09800
N  15.99600 0.12400 28.34700
C  15.20100 0.83500 27.43100
C  14.61800 2.01800 28.07600
C  14.95200 1.84900 29.38300
C  15.85500 0.76000 29.50000
C  13.73300 3.12700 27.48000
C  14.78400 2.44000 30.67100
O  14.15000 3.45700 31.08800
C  15.67500 1.62000 31.71600
C  16.69900 2.48300 32.30600
O  17.83200 2.63700 31.82800
O  16.17100 3.23400 33.34200
C  16.97900 4.30800 33.92500
H  19.40500 -4.32300 30.84800
H  18.22300 -4.00800 24.50300
H  14.69600 1.19700 25.34200
H  18.25100 -0.04200 33.01200
H  18.60100 -2.82200 33.08800
H  20.30600 -0.49100 32.39200
H  20.84400 -1.99200 31.56100
H  20.57400 -1.85600 33.37500
H  16.58000 -2.53500 33.51100
H  15.64300 -1.17200 32.86000
H  15.83600 -1.45200 35.62100
H  15.33300 -0.18000 34.64200
H  20.35400 -6.00500 30.09900
H  21.07000 -6.54500 28.57400
H  19.68900 -7.31700 29.26700
H  20.09600 -8.04000 26.79000
H  21.39300 -6.93500 26.38500
H  20.70000 -8.06700 25.17700
H  16.73000 -2.55600 23.03100
H  16.47200 0.34300 23.62600
H  18.78300 -1.89800 22.18100
H  19.41200 -1.58200 23.80900
H  18.77800 -0.29700 22.89200
H  13.92400 -0.94500 23.90900
H  14.62600 -1.86900 22.68700
H  15.23100 0.28200 21.51000
H  13.87000 0.99200 22.42300
H  13.64100 -0.44600 21.43500
H  14.14400 4.12800 27.61800
H  12.77300 3.07200 27.99200
H  13.49500 2.86100 26.45000
H  14.94000 1.26700 32.43900
H  17.81900 4.66700 33.33000
H  17.29100 3.83400 34.85600
H  16.31600 5.16000 34.06900

