158

Mg 8.47400 3.29600 27.24400
C  9.97400 1.93200 30.03400
C  6.58100 5.37300 29.21600
C  7.37600 4.85300 24.51800
C  10.03200 0.87700 25.18400
N  8.06400 3.34200 29.46100
C  8.97200 2.90300 30.38400
C  8.69900 3.47600 31.79500
C  7.46800 4.42600 31.48700
C  7.36500 4.42300 29.95900
C  6.12800 3.97800 32.16000
C  9.94000 4.20400 32.47000
C  9.74400 4.79800 33.79300
H  10.74300 4.24200 34.93800
N  7.11700 4.92900 26.92100
C  6.49500 5.68600 27.86400
C  5.68100 6.67700 27.22400
C  6.09500 6.68200 25.81500
C  6.95300 5.46800 25.69400
C  4.78000 7.59600 27.97300
C  5.65700 7.59000 24.59800
O  5.92600 7.33700 23.44100
C  4.70300 8.74700 24.96400
N  8.49400 2.78700 25.14500
C  7.94800 3.62500 24.21100
C  7.92900 2.97600 22.75000
C  8.75000 1.65900 22.97400
C  9.13000 1.76800 24.52400
C  6.44900 2.81000 22.26500
C  10.07400 1.65500 22.26300
C  10.36300 0.42900 21.31700
N  9.67800 1.72600 27.50400
C  10.27000 0.83400 26.59300
C  11.25100 0.00100 27.24200
C  11.23300 0.44800 28.61900
C  10.21100 1.45300 28.68900
C  12.10000 -1.03000 26.56000
C  11.82300 0.30800 29.97200
O  12.67800 -0.50400 30.41300
C  11.00100 1.25000 30.89700
C  10.36000 0.45700 32.03300
O  9.57300 -0.41300 31.86800
O  10.91600 0.77900 33.29500
C  10.49600 0.00200 34.46600
H  6.09100 6.03500 29.93300
H  7.14900 5.34700 23.57100
H  10.60600 0.20500 24.54100
H  8.53400 2.54500 32.33700
H  7.65700 5.45600 31.78800
H  6.42900 3.30500 32.96200
H  5.53100 3.50800 31.37800
H  5.56100 4.86400 32.44500
H  10.42600 4.95000 31.84100
H  10.69600 3.41900 32.50800
H  8.73400 4.66200 34.18200
H  10.02800 5.84400 33.67800
H  5.14300 8.62400 27.99200
H  4.41500 7.23900 28.93600
H  3.87000 7.75800 27.39600
H  3.72300 8.45300 25.34200
H  4.47600 9.30700 24.05700
H  5.23800 9.38300 25.66800
H  8.43400 3.59500 22.00900
H  8.18400 0.74200 22.81300
H  6.47200 1.96700 21.57400
H  5.98900 3.68100 21.79600
H  5.94000 2.50700 23.18000
H  10.89600 1.89400 22.93700
H  10.17600 2.53600 21.62900
H  10.34000 0.64300 20.24800
H  9.65600 -0.35000 21.60300
H  11.32500 -0.01300 21.57800
H  12.90700 -0.72000 25.89600
H  11.45900 -1.74300 26.04200
H  12.56500 -1.68500 27.29800
H  11.78200 1.82200 31.39800
H  9.62900 -0.64400 34.32300
H  10.24800 0.71700 35.25000
H  11.35700 -0.53600 34.86200
Mg 10.01200 47.64300 26.26000
C  7.96500 47.95500 29.08900
C  12.60600 49.10600 28.11200
C  11.91800 47.44800 23.57000
C  7.08100 47.05000 24.35400
N  10.19300 48.42100 28.40900
C  9.28700 48.30700 29.38600
C  9.75100 48.91500 30.72500
C  11.21800 49.39400 30.31800
C  11.39900 48.98000 28.82300
C  11.52200 50.96100 30.56200
C  9.61500 48.12500 32.07500
C  10.35000 48.63200 33.34100
H  10.85800 47.49200 34.29300
N  11.98300 48.13900 25.84800
C  12.91400 48.63400 26.78300
C  14.21000 48.62100 26.14500
C  14.02900 48.07600 24.82700
C  12.65800 47.84500 24.66600
C  15.41300 49.11900 26.89300
C  15.09700 47.83000 23.80100
O  14.84700 47.32300 22.69800
C  16.47600 48.07400 24.19800
N  9.49100 47.40000 24.24200
C  10.47900 47.32700 23.31500
C  9.91100 46.66400 22.05300
C  8.41200 46.33500 22.44300
C  8.31800 46.95000 23.74000
C  10.08600 47.59900 20.85200
C  8.06100 44.82400 22.41500
C  8.69600 43.97600 23.55100
N  7.97400 47.49300 26.54000
C  6.86900 47.30200 25.70600
C  5.60500 47.26600 26.50400
C  6.07100 47.44200 27.82200
C  7.43200 47.60200 27.80200
C  4.16200 47.04000 26.15900
C  5.59700 47.40500 29.20800
O  4.41400 47.20400 29.57800
C  6.80600 47.66500 30.10200
C  7.01000 46.43500 30.91100
O  7.70300 45.47600 30.68300
O  6.26800 46.59000 32.05300
C  6.42400 45.60800 33.06400
H  13.40100 49.69200 28.57900
H  12.43600 47.25600 22.62800
H  6.15300 46.67100 23.92100
H  9.13100 49.80800 30.81000
H  12.01200 48.90100 30.88000
H  11.91200 51.42900 29.65800
H  12.27000 50.96400 31.35500
H  10.63400 51.48200 30.91900
H  9.85700 47.07900 31.88500
H  8.56300 48.17800 32.35500
H  9.66300 49.24000 33.93000
H  11.22900 49.12200 32.92200
H  15.23600 49.17300 27.96700
H  15.74800 50.07700 26.49600
H  16.18800 48.35200 26.90600
H  17.17800 47.83800 23.39800
H  16.62600 47.37900 25.02400
H  16.58900 49.13400 24.42300
H  10.59600 45.83500 21.87200
H  7.65600 46.71300 21.75500
H  9.85500 47.14900 19.88600
H  11.16000 47.76800 20.92500
H  9.52500 48.52000 21.01200
H  8.51000 44.51600 21.47000
H  6.98600 44.64400 22.39500
H  7.90000 43.51700 24.13700
H  9.35500 44.55100 24.20100
H  9.29500 43.12300 23.23400
H  3.66200 46.28400 26.76400
H  4.07000 46.79900 25.10000
H  3.55700 47.93800 26.28700
H  6.55900 48.54600 30.69300
H  7.47400 45.64600 33.35300
H  6.14000 44.68600 32.55600
H  5.78500 45.70100 33.94200

