158

Mg 23.83400 -6.21200 45.49300
C  25.77200 -3.52500 44.02200
C  21.21600 -5.01800 43.44900
C  22.09600 -8.90500 46.12200
C  26.73800 -7.54600 46.76900
N  23.59600 -4.47300 43.88200
C  24.46900 -3.48200 43.60300
C  23.95200 -2.64700 42.42600
C  22.39200 -2.98700 42.43200
C  22.41100 -4.29900 43.25900
C  21.35900 -1.97700 42.99100
C  24.66000 -2.83900 41.08000
C  25.16000 -1.64700 40.20700
H  25.03600 -1.65900 38.73100
N  21.84900 -6.73100 45.15600
C  20.93300 -6.13500 44.29800
C  19.70200 -6.82400 44.28700
C  19.86100 -7.98900 45.06000
C  21.28400 -7.93600 45.51600
C  18.53500 -6.38600 43.39400
C  18.88700 -9.17100 45.22800
O  17.84400 -9.25100 44.58000
C  19.05800 -10.19900 46.38100
N  24.36400 -7.94800 46.46000
C  23.44100 -8.94900 46.51000
C  24.06000 -10.22000 47.03100
C  25.54800 -9.79100 47.37600
C  25.58600 -8.32700 46.93000
C  23.24900 -10.83600 48.21400
C  26.58400 -10.66800 46.60200
C  27.97700 -10.86400 47.34800
N  25.85200 -5.62400 45.56200
C  26.89500 -6.24400 46.21500
C  28.05400 -5.30300 46.17200
C  27.61900 -4.24600 45.33300
C  26.31200 -4.50800 44.90200
C  29.48100 -5.49900 46.68900
C  28.03500 -3.05300 44.63900
O  29.16100 -2.60600 44.58300
C  26.89200 -2.60600 43.65800
C  26.65400 -1.14400 43.81500
O  26.00500 -0.54100 44.69900
O  27.50300 -0.50000 42.89800
C  27.79700 0.88600 43.00300
H  20.39400 -4.63800 42.83900
H  21.56700 -9.85500 46.22100
H  27.66400 -7.92300 47.20800
H  24.10300 -1.62300 42.76500
H  22.09500 -3.25000 41.41600
H  21.70700 -0.94400 43.01800
H  20.85300 -2.21700 43.92600
H  20.54300 -2.03700 42.27100
H  23.97200 -3.39200 40.44100
H  25.50600 -3.48700 41.30900
H  26.20500 -1.49200 40.47400
H  24.65900 -0.77100 40.62000
H  18.69100 -6.49200 42.32100
H  18.31700 -5.36100 43.69600
H  17.67200 -6.99300 43.66800
H  19.66900 -9.79000 47.18700
H  19.39000 -11.13200 45.92700
H  18.10200 -10.29600 46.89600
H  23.96500 -10.96200 46.23800
H  25.72500 -9.88600 48.44700
H  23.80100 -10.94300 49.14800
H  22.85200 -11.80800 47.92200
H  22.39800 -10.21400 48.49100
H  26.77100 -10.20500 45.63300
H  26.12800 -11.62400 46.34600
H  28.76100 -10.60600 46.63600
H  28.13600 -11.83400 47.81900
H  27.87000 -10.15500 48.16900
H  30.12800 -4.79900 46.16100
H  29.73800 -6.55700 46.62600
H  29.58800 -5.22000 47.73800
H  27.15400 -2.74200 42.60900
H  27.31800 1.55200 42.28500
H  28.84700 1.08800 42.78900
H  27.56500 1.34900 43.96200
Mg 9.51300 48.05800 25.34600
C  7.68300 48.10800 28.18300
C  12.14400 49.62900 26.84800
C  11.19700 47.97100 22.31700
C  6.72300 46.73500 23.58300
N  9.74700 48.99700 27.17600
C  8.88800 48.81000 28.29900
C  9.42100 49.57200 29.56500
C  10.81600 50.02100 29.01500
C  10.94200 49.61700 27.52100
C  11.13200 51.58300 29.14000
C  9.42100 48.76100 30.86600
C  10.50400 49.09400 31.93800
H  10.08300 49.09600 33.38600
N  11.48800 48.51800 24.76400
C  12.42000 49.13200 25.55400
C  13.65700 49.21900 24.81200
C  13.40400 48.72300 23.51000
C  11.93000 48.41900 23.48700
C  14.89300 49.86400 25.33400
C  14.21900 48.55400 22.27900
O  13.94500 48.19700 21.14000
C  15.64000 48.87000 22.37800
N  9.10200 47.38900 23.29100
C  9.92700 47.48700 22.18900
C  9.30000 46.90600 20.84800
C  7.96200 46.32000 21.36400
C  7.91200 46.75200 22.84600
C  9.27000 47.90700 19.70700
C  7.87900 44.75600 21.24300
C  8.70000 43.86000 22.16400
N  7.55600 47.64300 25.73100
C  6.58700 47.16400 24.91800
C  5.38500 47.04900 25.76300
C  5.77100 47.32100 27.06900
C  7.11200 47.65200 26.98500
C  4.03700 46.43800 25.35600
C  5.44400 47.26200 28.53400
O  4.44300 46.90500 29.14300
C  6.68200 47.76500 29.29000
C  7.06800 46.69200 30.17600
O  7.80400 45.73400 29.92900
O  6.64600 46.92600 31.43700
C  7.00800 45.88600 32.38300
H  12.98300 50.10900 27.35600
H  11.80400 47.80500 21.42500
H  5.88000 46.33800 23.01300
H  8.73400 50.40700 29.70300
H  11.54600 49.42100 29.55800
H  11.36800 51.93800 28.13600
H  12.07700 51.76200 29.65300
H  10.37300 52.21400 29.60300
H  9.53000 47.73200 30.52500
H  8.41600 48.94300 31.24700
H  10.78400 50.12200 31.70600
H  11.43700 48.55500 31.77400
H  15.47500 50.46000 24.63200
H  15.56600 49.05900 25.62900
H  14.67900 50.36900 26.27600
H  16.13200 48.63700 21.43400
H  16.03000 48.17900 23.12600
H  15.85000 49.92800 22.53200
H  9.99800 46.13000 20.53200
H  7.18300 46.80400 20.77400
H  8.77300 48.85000 19.93300
H  8.61300 47.45100 18.96600
H  10.28400 48.02500 19.32400
H  8.27800 44.54000 20.25200
H  6.82000 44.51200 21.15600
H  9.12500 43.02600 21.60500
H  8.01300 43.41800 22.88500
H  9.44800 44.39500 22.74900
H  3.47600 47.05200 24.65200
H  3.47600 46.24600 26.27100
H  4.22300 45.48600 24.85800
H  6.55400 48.59200 29.98800
H  6.15200 45.21100 32.40300
H  7.13600 46.27700 33.39200
H  7.94900 45.42000 32.09100

