158

Mg 24.39600 -4.72900 45.64800
C  26.50700 -2.32700 44.41300
C  22.05500 -3.84600 43.06100
C  22.71800 -7.47300 46.33000
C  27.08700 -5.91000 47.77200
N  24.27500 -3.21100 43.90300
C  25.25700 -2.38300 43.67700
C  24.86900 -1.58500 42.38200
C  23.33800 -1.83200 42.25100
C  23.18200 -3.04400 43.08900
C  22.38900 -0.72000 42.78500
C  25.60300 -2.16200 41.03800
C  26.54700 -1.18200 40.42900
H  26.32700 -1.06300 38.94600
N  22.57900 -5.47600 44.89800
C  21.82800 -4.98800 43.87400
C  20.64500 -5.84200 43.81400
C  20.80200 -6.89900 44.70300
C  22.07100 -6.62700 45.39000
C  19.41800 -5.45200 42.92400
C  19.73900 -8.02200 44.91100
O  18.74900 -8.17900 44.20500
C  19.77900 -8.90400 46.16600
N  24.92900 -6.53000 46.79000
C  23.94000 -7.37000 46.94500
C  24.42800 -8.55000 47.79000
C  25.63700 -7.97800 48.54000
C  25.96200 -6.73800 47.66000
C  23.39500 -9.18100 48.84900
C  26.79700 -9.06800 48.74000
C  27.37400 -9.39000 50.11300
N  26.39200 -4.13000 46.18100
C  27.37300 -4.71500 46.99900
C  28.62600 -3.95500 46.90300
C  28.33900 -3.00000 45.85200
C  26.93900 -3.19500 45.44800
C  29.98300 -4.30700 47.66900
C  28.85100 -1.96000 45.08100
O  29.96100 -1.51300 45.07800
C  27.71000 -1.50100 44.08300
C  27.51000 -0.05000 44.31300
O  27.57300 0.51300 45.38700
O  27.50700 0.71600 43.10100
C  27.73200 2.14000 43.30000
H  21.31700 -3.68400 42.27300
H  22.17100 -8.35900 46.65800
H  27.87700 -6.07100 48.50800
H  25.21200 -0.57400 42.60000
H  23.00800 -2.01400 41.22800
H  22.96000 0.02000 43.34500
H  21.63700 -1.05700 43.49900
H  21.92600 -0.14700 41.98200
H  24.87300 -2.43900 40.27700
H  26.12500 -3.08100 41.30300
H  27.58400 -1.48800 40.56500
H  26.50000 -0.15700 40.79900
H  19.09400 -6.31300 42.33900
H  19.54100 -4.67400 42.17100
H  18.55100 -5.19100 43.53100
H  20.33700 -9.83500 46.06800
H  18.78600 -9.33200 46.30800
H  19.95400 -8.24900 47.01900
H  24.77600 -9.34300 47.12800
H  25.31000 -7.62800 49.51900
H  23.81400 -9.65400 49.73700
H  22.81000 -9.94900 48.34400
H  22.76600 -8.36800 49.21200
H  27.64300 -8.55900 48.27800
H  26.63700 -10.02400 48.24200
H  26.83000 -8.81300 50.86100
H  28.41300 -9.07100 50.20200
H  27.19700 -10.42800 50.39400
H  30.59200 -5.08200 47.20400
H  29.82100 -4.64300 48.69300
H  30.53300 -3.37600 47.81000
H  28.10400 -1.76600 43.10200
H  28.56200 2.29400 43.99000
H  26.93800 2.71500 43.77500
H  27.94000 2.57400 42.32200
Mg 30.76000 57.84500 39.43100
C  27.77100 55.94700 38.66500
C  32.60400 55.14700 38.60500
C  33.37100 59.79900 39.81400
C  28.59900 60.61100 40.00200
N  30.16600 55.83800 38.58700
C  28.91500 55.25200 38.47300
C  29.07300 53.72400 38.29700
C  30.62600 53.49200 38.32500
C  31.18600 54.91600 38.60200
C  31.21600 52.50300 39.35000
C  28.49800 53.10500 36.91500
C  29.06300 53.78700 35.63300
H  28.08500 54.21200 34.54200
N  32.75600 57.52700 39.27700
C  33.30400 56.32600 39.01400
C  34.69400 56.45400 39.18900
C  34.96700 57.80300 39.49300
C  33.67700 58.47600 39.52400
C  35.60700 55.33300 38.88800
C  36.37900 58.45500 39.68400
O  37.37300 57.78700 39.50300
C  36.57800 59.89000 39.95700
N  30.95400 59.94800 39.68600
C  32.17900 60.53500 39.80600
C  32.00100 62.08800 39.77400
C  30.50100 62.20800 40.21500
C  29.97100 60.79100 39.97500
C  33.04900 62.87700 40.70100
C  29.77500 63.31100 39.32600
C  28.81000 64.22900 40.13500
N  28.63000 58.31700 39.33600
C  27.96300 59.40200 39.77900
C  26.48600 59.10100 39.67200
C  26.38700 57.76000 39.34700
C  27.70200 57.33200 39.13000
C  25.42600 60.15600 39.83300
C  25.44000 56.67900 39.12200
O  24.24500 56.61100 39.18500
C  26.34400 55.40100 38.68300
C  26.24500 54.42300 39.87100
O  27.07000 54.29800 40.80800
O  25.14600 53.62800 39.69700
C  24.93200 52.51400 40.61000
H  33.26000 54.32200 38.31800
H  34.16200 60.54200 39.93400
H  28.02600 61.52600 40.16300
H  28.70400 53.15100 39.14800
H  31.05400 53.22100 37.36000
H  31.37000 53.04100 40.28600
H  32.18200 52.21000 38.94100
H  30.64700 51.59300 39.54200
H  27.42200 52.96600 37.01800
H  28.88900 52.08900 36.86600
H  29.68100 53.06600 35.09700
H  29.69300 54.62700 35.92500
H  35.67400 55.01900 37.84600
H  35.27200 54.54600 39.56400
H  36.65800 55.48800 39.13100
H  37.61400 60.03500 39.65100
H  36.52800 60.06700 41.03200
H  36.05900 60.54200 39.25500
H  31.98700 62.49800 38.76400
H  30.51400 62.52000 41.25900
H  33.44200 62.21800 41.47500
H  32.46300 63.59400 41.27600
H  33.88000 63.39100 40.21700
H  29.11800 62.82600 38.60400
H  30.37500 63.90900 38.64000
H  29.04700 65.28700 40.02400
H  28.87700 63.92000 41.17800
H  27.79400 64.19000 39.74200
H  24.39000 59.82100 39.89500
H  25.57100 60.86100 39.01500
H  25.78100 60.63000 40.74800
H  26.03800 54.86400 37.78500
H  24.52600 52.83700 41.56800
H  25.88500 52.02000 40.79800
H  24.31700 51.77000 40.10300

