158

Mg -2.26200 17.73400 27.38300
C  -3.04600 15.60600 30.09100
C  -2.94400 20.40200 29.49700
C  -2.43700 19.77900 24.70800
C  -2.18200 14.96100 25.32700
N  -2.77500 17.94600 29.54600
C  -2.97900 16.95100 30.44700
C  -3.17600 17.57800 31.86600
C  -3.60800 19.04000 31.56100
C  -3.05800 19.15300 30.13900
C  -5.13600 19.33200 31.56600
C  -1.99900 17.35600 32.89900
C  -1.94200 18.18300 34.23100
H  -1.45400 17.61000 35.54300
N  -2.55400 19.79200 27.14100
C  -2.71700 20.70000 28.12300
C  -2.66300 22.09700 27.60200
C  -2.60700 21.91700 26.21400
C  -2.56400 20.48700 25.95300
C  -2.94200 23.28500 28.41900
C  -2.70200 22.95500 25.13200
O  -2.82900 22.76900 23.93200
C  -2.55900 24.37900 25.57200
N  -2.32200 17.37900 25.24700
C  -2.25300 18.41600 24.40100
C  -2.08300 17.83100 22.99300
C  -1.65100 16.33600 23.20300
C  -2.06500 16.18600 24.68900
C  -3.34800 18.05500 22.16100
C  -0.13000 16.19500 22.94800
C  0.81200 17.06100 23.76900
N  -2.51300 15.64100 27.58000
C  -2.51200 14.64600 26.60200
C  -2.73700 13.41000 27.23500
C  -2.95900 13.78900 28.61200
C  -2.81300 15.13300 28.79400
C  -2.64900 12.02100 26.68800
C  -3.28400 13.23000 29.91900
O  -3.54300 12.09800 30.25900
C  -3.27200 14.41500 30.94200
C  -2.07200 14.14000 31.79000
O  -0.87100 14.03600 31.48400
O  -2.50900 13.89200 33.09100
C  -1.50700 13.32600 34.04500
H  -3.24200 21.27800 30.07700
H  -2.35500 20.43600 23.84000
H  -1.85000 14.19000 24.62800
H  -4.06100 17.07800 32.26000
H  -3.18700 19.84200 32.16700
H  -5.44300 20.05000 32.32600
H  -5.67700 18.38600 31.55100
H  -5.50700 19.94100 30.74200
H  -1.08300 17.63800 32.37900
H  -1.87700 16.29800 33.12700
H  -2.89300 18.69900 34.36100
H  -1.21200 18.98200 34.10200
H  -3.20900 23.12800 29.46400
H  -3.92300 23.57800 28.04400
H  -2.22900 24.10900 28.38900
H  -3.46600 24.69900 26.08600
H  -2.61300 24.98200 24.66600
H  -1.66000 24.70100 26.09600
H  -1.28600 18.40400 22.52000
H  -2.26000 15.78600 22.48600
H  -4.09100 18.63600 22.70700
H  -3.91400 17.12400 22.14400
H  -3.21100 18.43900 21.15000
H  0.08800 16.41500 21.90300
H  0.20300 15.17400 23.13600
H  1.13900 16.51300 24.65300
H  0.32800 17.95900 24.15300
H  1.77800 17.20400 23.28600
H  -3.16300 11.98600 25.72700
H  -3.17000 11.38200 27.40000
H  -1.59500 11.74700 26.63400
H  -4.18900 14.29800 31.51900
H  -0.66200 13.99300 34.21700
H  -1.19300 12.40200 33.56000
H  -2.03500 12.98700 34.93700
Mg -6.25800 25.66800 26.08000
C  -5.08400 27.15000 29.04000
C  -8.22800 23.61900 28.08900
C  -6.89000 23.90400 23.43400
C  -3.91900 27.55000 24.37600
N  -6.54000 25.46100 28.36200
C  -5.96300 26.11500 29.36800
C  -6.53800 25.66400 30.62500
C  -7.33000 24.40600 30.28100
C  -7.42900 24.53500 28.79700
C  -6.63200 23.06900 30.72900
C  -7.45000 26.77400 31.31000
C  -7.40300 26.82500 32.90700
H  -6.64300 25.69700 33.73100
N  -7.45900 24.03600 25.72900
C  -8.27600 23.44600 26.64200
C  -9.05200 22.39900 26.01800
C  -8.62300 22.31400 24.66800
C  -7.59700 23.36500 24.54100
C  -10.10000 21.54600 26.70300
C  -9.18700 21.47400 23.62600
O  -8.75800 21.57200 22.46500
C  -10.25600 20.42100 23.88700
N  -5.39000 25.64900 24.18000
C  -6.00500 24.92100 23.24100
C  -5.42600 25.22300 21.84900
C  -4.56300 26.52900 22.05200
C  -4.68400 26.64700 23.60000
C  -4.70800 23.99000 21.15900
C  -5.08600 27.69800 21.24100
C  -6.41700 28.33800 21.63700
N  -4.79400 27.12000 26.48400
C  -3.83300 27.72900 25.74100
C  -3.15700 28.73900 26.48500
C  -3.59000 28.54200 27.78200
C  -4.51400 27.47900 27.74800
C  -2.21300 29.66300 25.94200
C  -3.45300 29.00500 29.14900
O  -2.90200 30.01600 29.65200
C  -4.31700 28.03600 30.01300
C  -3.44800 27.40200 30.99900
O  -2.89700 26.30900 30.92600
O  -3.31900 28.28700 32.06100
C  -2.65600 27.69400 33.27200
H  -8.83500 22.98400 28.73800
H  -6.91700 23.24000 22.56700
H  -3.19600 28.15700 23.82800
H  -5.67700 25.43000 31.25200
H  -8.34700 24.48400 30.66600
H  -6.41200 22.51400 29.81700
H  -7.24100 22.42700 31.36600
H  -5.70800 23.23700 31.28300
H  -8.50700 26.67200 31.06500
H  -7.09800 27.74600 30.96300
H  -8.44800 26.82100 33.22000
H  -6.98600 27.78500 33.21300
H  -9.65100 20.55300 26.74000
H  -11.01600 21.45400 26.12000
H  -10.22600 21.69500 27.77500
H  -9.88900 19.82600 24.72400
H  -10.39400 19.83700 22.97700
H  -11.21100 20.85000 24.19200
H  -6.34200 25.27100 21.26000
H  -3.53100 26.22100 21.87900
H  -5.27100 23.55200 20.33500
H  -4.50100 23.18800 21.86800
H  -3.73600 24.29500 20.77300
H  -5.19900 27.29000 20.23700
H  -4.30000 28.44700 21.33500
H  -7.04800 27.52100 21.98600
H  -6.97800 28.76300 20.80500
H  -6.34800 29.17400 22.33300
H  -2.36000 30.58800 26.49800
H  -2.37800 29.74500 24.86700
H  -1.17400 29.43000 26.17700
H  -4.97400 28.68400 30.59300
H  -3.44900 27.63200 34.01700
H  -1.84600 28.29800 33.68200
H  -2.35500 26.64800 33.22100

