158

Mg 40.69900 8.15300 30.13300
C  42.42300 9.25800 32.82500
C  38.28900 6.70000 32.33200
C  39.02600 6.83300 27.47900
C  43.19900 9.03600 27.99800
N  40.63000 7.65900 32.35200
C  41.31700 8.52500 33.25100
C  40.79100 8.45800 34.66100
C  39.71000 7.27300 34.52500
C  39.45400 7.23900 32.97400
C  40.23100 5.90800 34.92000
C  40.15000 9.85700 34.98000
C  39.70000 9.92100 36.41700
H  40.09800 11.09700 37.24700
N  38.88300 7.03200 29.87100
C  38.06700 6.64900 30.91200
C  36.82600 6.10200 30.26000
C  37.06600 6.14000 28.86100
C  38.37700 6.63000 28.67200
C  35.76400 5.38500 30.99600
C  36.21700 5.62000 27.74700
O  36.60900 5.41200 26.61100
C  34.80800 5.45900 27.92900
N  41.07100 7.79400 28.06600
C  40.20800 7.35700 27.13800
C  40.64600 7.54200 25.66300
C  42.08100 8.16400 25.90900
C  42.13000 8.32700 27.43100
C  40.59600 6.27700 24.76000
C  42.28100 9.49200 25.10700
C  41.89500 10.89000 25.82900
N  42.47200 8.94900 30.36400
C  43.35000 9.39800 29.36000
C  44.37000 10.24300 30.06100
C  44.04500 10.10700 31.41300
C  42.90900 9.33000 31.55300
C  45.49600 10.99400 29.44600
C  44.51600 10.52200 32.70400
O  45.47500 11.25900 32.90800
C  43.42900 10.07300 33.70900
C  44.17100 9.22900 34.63700
O  44.74800 8.22200 34.31300
O  44.19900 9.82800 35.88700
C  45.10400 9.08800 36.78500
H  37.44600 6.49300 32.99400
H  38.39300 6.54300 26.63800
H  43.96300 9.57700 27.43600
H  41.65400 8.29000 35.30600
H  38.81800 7.40600 35.13800
H  39.63700 5.59200 35.77800
H  41.30000 5.97500 35.11900
H  40.11900 5.20800 34.09200
H  39.29700 9.97400 34.31200
H  40.81500 10.70600 34.82400
H  40.11200 9.03800 36.90500
H  38.62100 9.78100 36.48100
H  35.93900 5.27400 32.06600
H  35.42500 4.40700 30.65700
H  34.88300 6.01900 31.09600
H  34.35300 6.44400 28.02600
H  34.63500 4.82200 28.79700
H  34.33600 5.04400 27.03900
H  40.04600 8.30600 25.16800
H  42.83300 7.43800 25.59800
H  41.58100 6.29700 24.29200
H  39.78100 6.31400 24.03700
H  40.60900 5.37600 25.37200
H  41.59400 9.44800 24.26200
H  43.30300 9.57400 24.73600
H  42.85400 11.31800 26.12200
H  41.40600 10.81200 26.80000
H  41.43800 11.56900 25.10900
H  45.31900 11.10600 28.37700
H  46.41800 10.51000 29.76900
H  45.44300 11.96000 29.94800
H  43.02500 11.03000 34.04000
H  45.12200 7.99800 36.78500
H  44.73100 9.23500 37.79800
H  46.15300 9.33400 36.62200
Mg -4.71800 25.95600 26.34400
C  -3.55800 27.49100 29.18300
C  -6.49300 23.67400 28.25700
C  -5.25900 24.13900 23.65000
C  -2.52700 28.04200 24.39300
N  -4.98000 25.58500 28.47700
C  -4.46100 26.42400 29.46300
C  -5.01700 26.00000 30.82200
C  -5.72100 24.68200 30.53100
C  -5.73800 24.62700 28.99900
C  -5.05400 23.38600 31.18700
C  -6.10500 27.06900 31.28600
C  -6.43300 27.49500 32.72100
H  -5.82000 26.59800 33.84500
N  -5.96800 24.31300 25.92200
C  -6.64000 23.60100 26.87800
C  -7.38700 22.56700 26.13600
C  -6.98000 22.60900 24.79000
C  -6.03400 23.69600 24.74500
C  -8.42700 21.74100 26.87700
C  -7.41100 21.63800 23.70000
O  -6.87800 21.70700 22.61300
C  -8.31400 20.52700 23.92300
N  -3.98200 26.16100 24.27900
C  -4.37500 25.22200 23.39100
C  -3.84900 25.45800 21.96500
C  -3.04300 26.77400 22.23600
C  -3.18600 27.03200 23.69100
C  -2.96100 24.26800 21.45100
C  -3.51500 27.97100 21.32600
C  -2.79300 28.26400 20.03800
N  -3.26800 27.42300 26.67900
C  -2.47200 28.18500 25.81700
C  -1.70900 29.13600 26.60600
C  -2.15700 28.95000 27.96700
C  -3.09600 27.89600 27.90800
C  -0.70000 30.12600 26.09900
C  -2.11600 29.49400 29.28800
O  -1.50700 30.52900 29.66000
C  -3.07600 28.63200 30.20100
C  -2.42000 28.14100 31.44000
O  -1.48900 27.34100 31.39900
O  -2.87000 28.77900 32.62200
C  -2.07400 28.60400 33.76900
H  -7.01900 22.93500 28.86600
H  -5.50100 23.69300 22.68300
H  -1.85500 28.65100 23.78600
H  -4.22400 25.76500 31.53200
H  -6.79000 24.68600 30.74200
H  -5.63600 22.80600 31.90300
H  -4.06000 23.62400 31.56700
H  -4.98800 22.68600 30.35400
H  -7.07300 26.84600 30.83700
H  -5.91600 28.02600 30.79900
H  -7.50000 27.30400 32.83300
H  -6.13100 28.53700 32.82700
H  -7.92900 21.38400 27.77900
H  -9.06500 20.96700 26.45200
H  -9.14900 22.43100 27.31300
H  -8.28700 19.86200 23.05900
H  -9.32900 20.91300 24.01700
H  -7.90100 20.02200 24.79600
H  -4.66400 25.55900 21.24800
H  -1.97200 26.77100 22.03400
H  -2.86300 23.43700 22.14900
H  -1.94900 24.58700 21.20000
H  -3.36400 23.88600 20.51400
H  -3.68400 28.84200 21.95900
H  -4.56200 27.74400 21.12800
H  -3.40100 28.21000 19.13500
H  -1.98600 27.54200 19.91600
H  -2.44100 29.29500 19.98400
H  -1.08800 30.66400 25.23400
H  0.27800 29.68500 25.90700
H  -0.49000 30.89700 26.84000
H  -3.72300 29.40500 30.61400
H  -2.05400 29.52900 34.34500
H  -1.00600 28.47200 33.59500
H  -2.53700 27.82600 34.37600

