158

Mg 41.23000 8.64200 29.92300
C  43.07000 9.66100 32.64600
C  39.01300 7.16500 31.99800
C  39.69100 7.24300 27.25800
C  43.85000 9.54600 27.94500
N  41.13600 8.38200 32.09900
C  41.93400 8.90700 33.03300
C  41.34500 8.70100 34.51000
C  40.29200 7.58500 34.20900
C  40.10200 7.74000 32.65600
C  40.53300 6.05300 34.60100
C  40.75500 10.01000 35.21000
C  40.72000 10.04300 36.82000
H  41.27000 11.31300 37.48600
N  39.58800 7.41900 29.68900
C  38.75900 6.95100 30.65800
C  37.64000 6.26300 30.13600
C  37.73500 6.39000 28.72300
C  39.03700 7.07100 28.48300
C  36.68800 5.41600 30.94700
C  36.71600 6.14900 27.62200
O  36.87200 6.44800 26.43900
C  35.31700 5.75600 28.06500
N  41.77600 8.38200 28.00300
C  40.97200 7.80900 27.11600
C  41.44900 7.96100 25.65600
C  42.82500 8.67900 25.81600
C  42.81900 8.94900 27.31300
C  41.58700 6.58500 24.92100
C  43.02600 9.89500 24.95600
C  42.55400 11.28100 25.39100
N  43.01300 9.57100 30.18100
C  43.97600 9.94600 29.25800
C  44.99800 10.75000 29.87400
C  44.69500 10.67200 31.27400
C  43.47300 9.95300 31.35000
C  46.16900 11.46100 29.22800
C  45.15400 11.04900 32.56900
O  46.12300 11.71300 32.87400
C  44.04700 10.47300 33.53200
C  44.85400 9.58100 34.46000
O  45.52800 8.67000 34.07400
O  44.60800 10.00700 35.73000
C  44.92600 8.97900 36.68200
H  38.42500 6.53500 32.66900
H  39.26500 6.96000 26.29300
H  44.69800 9.86100 27.33300
H  42.10300 8.21100 35.12300
H  39.35000 7.97700 34.59400
H  40.40000 5.47700 33.68500
H  39.75400 5.84200 35.33400
H  41.51000 5.84800 35.03900
H  39.73300 10.15600 34.86000
H  41.38900 10.83400 34.88200
H  41.31600 9.21400 37.20100
H  39.66000 9.94600 37.05700
H  36.89500 5.42700 32.01700
H  36.46400 4.39200 30.65000
H  35.70600 5.87500 30.83400
H  35.12100 6.42200 28.90500
H  35.20700 4.80900 28.59400
H  34.49800 6.06500 27.41500
H  40.75700 8.66000 25.18600
H  43.60200 7.98600 25.49200
H  41.27000 5.80500 25.61300
H  42.58000 6.46700 24.48700
H  40.81800 6.68700 24.15600
H  42.56200 9.65500 23.99900
H  44.08800 10.09600 24.81700
H  42.32600 11.99200 24.59700
H  43.17600 11.79300 26.12500
H  41.62300 11.08400 25.92300
H  46.31900 12.43100 29.70300
H  46.01300 11.51900 28.15100
H  47.15900 11.02400 29.35200
H  43.67400 11.28000 34.16300
H  46.00600 8.84500 36.62300
H  44.41300 8.05500 36.41800
H  44.61900 9.32400 37.66900
Mg 5.78200 55.22500 41.05400
C  5.15700 51.71200 40.94300
C  8.80700 54.40500 39.50800
C  6.27700 58.44100 40.37600
C  2.53600 55.71500 42.01200
N  6.89600 53.19200 40.38600
C  6.38700 51.96800 40.46300
C  7.36400 50.98100 39.79600
C  8.67500 51.84000 39.88300
C  8.16600 53.23100 39.87600
C  9.62800 51.67700 41.08300
C  7.03600 50.48000 38.41200
C  6.30500 51.49400 37.44400
H  7.17000 52.09900 36.28500
N  7.37500 56.23200 40.11400
C  8.56200 55.73500 39.68600
C  9.43100 56.76000 39.26600
C  8.75000 58.01900 39.59500
C  7.42800 57.60700 40.02900
C  10.89900 56.54700 38.81300
C  9.34900 59.38800 39.36900
O  10.42900 59.55200 38.85300
C  8.57000 60.61300 39.74700
N  4.61700 56.79900 41.11900
C  5.04200 58.04400 40.80200
C  3.89200 59.08700 41.15100
C  2.65300 58.19600 41.48900
C  3.29200 56.80600 41.59300
C  4.21200 60.20000 42.17200
C  1.51400 58.22500 40.45200
C  0.13300 58.62300 41.01900
N  4.21300 54.03300 41.54100
C  2.92300 54.33300 42.03600
C  2.22900 53.08800 42.38800
C  3.13900 52.12400 42.05500
C  4.30400 52.67300 41.49100
C  0.84000 53.03000 42.90900
C  3.26100 50.67100 41.95500
O  2.49300 49.80000 42.29600
C  4.54400 50.37100 41.22400
C  4.20100 49.58300 40.00800
O  3.66900 49.96100 39.01000
O  4.67100 48.34100 40.16900
C  4.42000 47.35700 39.14200
H  9.64700 54.06500 38.89900
H  6.35000 59.50500 40.14300
H  1.53300 55.98400 42.35100
H  7.31700 50.08800 40.41900
H  9.23000 51.90200 38.94600
H  9.67600 52.60100 41.65800
H  10.56600 51.36500 40.62400
H  9.24300 50.95000 41.79900
H  6.58800 49.48700 38.42600
H  8.04100 50.32300 38.02000
H  5.95200 52.38400 37.96500
H  5.58700 50.80200 37.00600
H  11.25500 57.15500 37.98200
H  11.15400 55.50000 38.64800
H  11.61600 57.02700 39.47900
H  7.72800 60.76900 39.07200
H  9.20500 61.47400 39.95600
H  8.28200 60.35800 40.76600
H  3.77800 59.62600 40.21000
H  2.29800 58.41200 42.49600
H  5.20600 60.09600 42.60700
H  3.49100 60.23500 42.98800
H  4.15300 61.16100 41.66100
H  1.43100 57.26100 39.95100
H  1.80400 58.90600 39.65100
H  0.07700 58.50500 42.10100
H  -0.56800 57.91800 40.57200
H  -0.11700 59.62300 40.66400
H  0.25900 53.38600 42.05800
H  0.71600 53.61400 43.82100
H  0.61400 51.99000 43.14200
H  5.19500 49.76600 41.85600
H  4.45100 47.78400 38.14000
H  3.46200 46.89700 39.38400
H  5.16500 46.56200 39.11800

