158

Mg 30.22400 59.83200 40.01700
C  27.60100 57.94000 38.70700
C  32.44300 57.39400 38.87700
C  32.81700 61.93500 40.75800
C  27.91500 62.34100 40.72700
N  30.02400 57.93600 38.83700
C  28.87500 57.39100 38.46400
C  29.06600 56.06800 37.73700
C  30.54500 55.68100 38.16700
C  31.09300 57.07600 38.69600
C  30.63100 54.60300 39.25200
C  28.97300 56.27300 36.18800
C  28.47900 54.99400 35.30800
H  27.62800 55.32400 34.11400
N  32.36300 59.65400 39.95800
C  33.06400 58.55000 39.44300
C  34.47000 58.80500 39.61000
C  34.59200 60.07400 40.15700
C  33.20800 60.66400 40.28300
C  35.57500 57.88000 39.10100
C  35.90700 60.66400 40.58100
O  36.88300 59.93200 40.71300
C  36.10100 62.16200 40.80200
N  30.37600 61.83100 40.50100
C  31.50300 62.43300 40.90600
C  31.22500 63.87700 41.35900
C  29.64800 64.07600 41.35900
C  29.21000 62.63800 40.85800
C  31.91000 64.21500 42.65100
C  29.14700 65.19600 40.44100
C  28.05700 66.08400 41.09900
N  28.14900 60.11800 39.89500
C  27.34100 61.17200 40.20100
C  25.96000 60.80000 39.87000
C  26.03900 59.48900 39.38000
C  27.40000 59.18400 39.29800
C  24.78100 61.64400 40.27500
C  25.27200 58.34400 38.86000
O  24.03700 58.27200 38.71500
C  26.28200 57.35200 38.34600
C  25.94900 55.99900 38.97300
O  26.09400 55.67700 40.12100
O  25.56200 55.14200 37.98200
C  25.26700 53.78700 38.36100
H  33.02400 56.51100 38.60100
H  33.53900 62.71400 41.01000
H  27.22200 63.11100 41.07100
H  28.34600 55.27400 37.93400
H  31.11600 55.22400 37.35900
H  31.17000 53.74000 38.86100
H  29.61700 54.32000 39.53500
H  31.22500 54.85200 40.13100
H  29.99400 56.53200 35.90800
H  28.43800 57.19600 35.96700
H  27.93100 54.23700 35.86900
H  29.33600 54.44500 34.91800
H  36.09200 57.42900 39.94800
H  36.38800 58.35200 38.54900
H  35.18000 57.09700 38.45300
H  35.67000 62.79200 40.02400
H  37.18500 62.25600 40.85800
H  35.62700 62.40500 41.75300
H  31.74800 64.44300 40.58800
H  29.40200 64.17800 42.41600
H  32.93600 64.51900 42.44200
H  31.92700 63.36000 43.32600
H  31.42200 65.02200 43.19700
H  28.72300 64.80700 39.51500
H  30.06800 65.76800 40.32700
H  27.89000 66.00300 42.17300
H  27.18500 65.84800 40.48900
H  28.29700 67.13900 40.96800
H  23.93200 60.96800 40.37100
H  24.61400 62.38200 39.49200
H  25.03100 62.04800 41.25600
H  26.27900 57.33500 37.25600
H  24.20900 53.73500 38.62000
H  25.94000 53.44300 39.14600
H  25.34500 53.13000 37.49500
Mg 16.62800 53.20500 26.10800
C  19.02000 51.78300 28.23600
C  14.42400 53.39600 28.65900
C  14.28400 54.26600 23.97700
C  18.78400 52.50700 23.34100
N  16.74800 52.73300 28.16200
C  17.87900 52.29100 28.86000
C  17.69200 52.41300 30.35800
C  16.15800 52.63200 30.43700
C  15.70300 52.94800 29.01900
C  15.45200 51.23700 30.91100
C  18.60900 53.54400 30.93500
C  18.80800 53.60300 32.44300
H  18.03800 52.66900 33.36900
N  14.68400 53.92900 26.40200
C  13.91600 53.88400 27.47700
C  12.58600 54.36800 27.25000
C  12.49800 54.60400 25.86400
C  13.81100 54.18400 25.33700
C  11.56300 54.52100 28.29400
C  11.38600 55.08700 25.00300
O  11.50000 55.12300 23.78700
C  10.01400 55.50900 25.60100
N  16.59400 53.47400 24.08700
C  15.48300 53.89600 23.40100
C  15.75700 53.99800 21.87800
C  17.20900 53.53500 21.67300
C  17.62200 53.24600 23.13000
C  14.76300 53.23700 20.97000
C  18.18200 54.63900 21.19000
C  19.00500 54.31100 19.99800
N  18.40800 52.14000 25.79600
C  19.18600 52.00300 24.60300
C  20.45000 51.31300 24.89800
C  20.40800 51.21100 26.36800
C  19.19400 51.75800 26.82700
C  21.48800 50.95800 23.88900
C  21.19800 50.76200 27.54900
O  22.28600 50.24100 27.72600
C  20.36100 51.20600 28.80600
C  19.99300 50.00600 29.58400
O  19.87000 48.84500 29.17100
O  20.07400 50.25200 30.89600
C  19.88200 49.15100 31.83000
H  13.74700 53.39400 29.51600
H  13.68800 54.87300 23.29200
H  19.49200 52.26900 22.54400
H  17.95500 51.50400 30.89900
H  15.92100 53.41000 31.16200
H  14.49000 51.46200 31.37200
H  16.20200 50.66000 31.45200
H  15.47800 50.82500 29.90200
H  18.35600 54.53700 30.56200
H  19.59100 53.43500 30.47500
H  18.65200 54.59500 32.86800
H  19.86300 53.36300 32.58100
H  10.68800 53.95100 27.98300
H  11.22600 55.53600 28.50200
H  11.88500 54.06200 29.22800
H  9.39000 54.74500 26.06500
H  9.46900 55.95700 24.77000
H  10.16400 56.32400 26.30900
H  15.54500 55.01700 21.55600
H  17.32500 52.55100 21.22000
H  14.21800 52.48500 21.54100
H  15.34400 52.76100 20.18000
H  14.03200 53.88500 20.48700
H  18.88300 54.89100 21.98600
H  17.59900 55.51200 20.89400
H  18.57900 54.91000 19.19400
H  19.10800 53.26700 19.70200
H  19.97900 54.76700 20.18000
H  22.38200 50.65400 24.43200
H  21.92200 51.71800 23.23900
H  21.22400 50.05400 23.33900
H  20.90800 51.88700 29.45700
H  20.64300 48.41000 31.58800
H  18.86200 48.77400 31.75400
H  19.97700 49.56600 32.83300

