158

Mg 0.97500 7.79300 25.22600
C  1.51500 9.68400 28.24400
C  1.40400 4.98700 27.25500
C  0.89400 5.93400 22.41100
C  1.16200 10.73600 23.43400
N  1.51600 7.41400 27.50000
C  1.57400 8.29400 28.51000
C  1.74100 7.65400 29.92000
C  1.73800 6.11000 29.57300
C  1.59700 6.12900 28.02100
C  3.07700 5.41900 29.95000
C  0.53100 7.97100 30.94300
C  1.00200 8.27300 32.46500
H  2.15500 7.50100 32.97000
N  1.05300 5.72400 24.87700
C  1.13700 4.79500 25.88800
C  0.86500 3.50700 25.27900
C  0.63300 3.72700 23.87400
C  0.84300 5.12900 23.61600
C  0.60100 2.22600 26.10400
C  0.23300 2.82200 22.77000
O  -0.03500 3.21400 21.62300
C  0.03400 1.32300 22.92500
N  1.22200 8.24300 23.18900
C  1.07700 7.31000 22.18400
C  0.82100 8.02700 20.83100
C  1.09700 9.51000 21.13900
C  1.12300 9.55100 22.66300
C  1.44500 7.40800 19.54100
C  0.10000 10.44300 20.45800
C  -1.27800 10.66400 21.24200
N  1.33600 9.81800 25.63300
C  1.28300 10.90300 24.80300
C  1.44300 12.14200 25.54600
C  1.50600 11.67300 26.90800
C  1.34700 10.26900 26.91600
C  1.76200 13.49700 24.94300
C  1.82800 12.12400 28.25000
O  2.08100 13.20900 28.66200
C  1.67700 10.81000 29.15000
C  2.78200 10.81600 30.09100
O  3.88500 10.23400 29.92100
O  2.43300 11.44200 31.25800
C  3.49900 11.48600 32.25100
H  1.50000 4.09900 27.88300
H  0.75400 5.47500 21.43000
H  1.03200 11.67500 22.89100
H  2.74200 7.95900 30.22500
H  0.83400 5.67200 29.99600
H  3.14300 5.75900 30.98300
H  3.98900 5.67900 29.41200
H  3.09700 4.33000 29.90600
H  -0.28600 7.26200 30.80900
H  0.16800 8.90500 30.51500
H  0.13800 7.93000 33.03400
H  1.10500 9.35300 32.57500
H  -0.46600 2.00200 26.11000
H  0.71900 2.48500 27.15700
H  1.14400 1.35200 25.74600
H  0.80700 0.91200 23.57500
H  0.02800 0.82100 21.95700
H  -0.87400 1.16000 23.50600
H  -0.24400 7.95700 20.61100
H  2.07100 9.81600 20.75800
H  2.15400 6.62500 19.80800
H  1.94200 8.15800 18.92500
H  0.70100 6.90200 18.92500
H  -0.18500 10.25200 19.42400
H  0.52900 11.44300 20.52400
H  -2.06900 11.12600 20.65100
H  -1.23200 11.41400 22.03200
H  -1.60600 9.75000 21.73700
H  2.71700 13.33600 24.44300
H  2.04400 14.07300 25.82500
H  0.85700 13.79900 24.41700
H  0.83600 10.93900 29.83200
H  3.95400 10.51900 32.46600
H  3.08500 11.82000 33.20300
H  4.31900 12.10900 31.89300
Mg -12.65700 39.02900 41.64800
C  -11.02900 36.09700 40.77500
C  -10.13700 40.80500 40.02000
C  -14.54300 41.73600 42.02300
C  -15.25800 37.06200 43.06200
N  -10.87700 38.52200 40.48500
C  -10.40700 37.22900 40.25500
C  -9.11800 37.22800 39.46000
C  -8.74200 38.77000 39.33600
C  -9.96200 39.43600 39.99200
C  -7.44000 39.19800 39.93900
C  -9.30600 36.59400 38.05700
C  -8.37400 35.45900 37.58400
H  -7.12400 35.76700 36.57500
N  -12.32200 41.05200 41.24300
C  -11.27700 41.55600 40.48100
C  -11.45400 43.00600 40.45400
C  -12.70100 43.34400 41.14700
C  -13.28200 42.04800 41.48100
C  -10.38400 43.87600 39.74900
C  -13.16800 44.70800 41.44000
O  -12.42600 45.67000 41.38500
C  -14.55300 44.96400 42.08000
N  -14.67700 39.36500 42.42600
C  -15.11200 40.58500 42.51200
C  -16.53400 40.59100 43.32600
C  -16.61700 39.11000 43.82300
C  -15.45000 38.46300 43.10900
C  -16.62400 41.63200 44.50300
C  -17.99800 38.48300 43.52000
C  -18.61000 37.85300 44.81600
N  -13.07800 37.09500 41.90300
C  -14.08400 36.37900 42.48300
C  -13.91600 34.91400 42.50400
C  -12.69600 34.81400 41.82500
C  -12.18000 36.12100 41.52300
C  -14.87100 33.94800 43.08200
C  -11.72100 33.84200 41.43700
O  -11.67400 32.63100 41.62000
C  -10.60500 34.59400 40.70400
C  -9.26500 34.31200 41.35300
O  -8.79600 34.53000 42.48900
O  -8.61000 33.61200 40.36100
C  -7.28500 33.15900 40.77500
H  -9.33300 41.36400 39.53700
H  -15.27800 42.53900 42.10800
H  -15.97700 36.55500 43.70900
H  -8.25000 36.70200 39.85900
H  -8.73500 39.03900 38.28000
H  -6.82200 38.40300 40.35700
H  -7.58400 39.96000 40.70600
H  -6.80900 39.53700 39.11800
H  -9.25500 37.33600 37.26000
H  -10.32800 36.21500 38.05000
H  -9.02800 34.78200 37.03600
H  -8.03500 35.04200 38.53200
H  -10.43300 44.91000 40.09300
H  -10.72200 43.88800 38.71200
H  -9.37000 43.47800 39.75900
H  -15.26700 44.53900 41.37500
H  -14.75200 46.02900 42.19300
H  -14.57500 44.46400 43.04900
H  -17.28700 40.84900 42.58100
H  -16.31500 38.98900 44.86400
H  -17.62900 42.04500 44.42200
H  -15.83000 42.37600 44.45300
H  -16.51200 41.14400 45.47100
H  -17.77300 37.64100 42.86600
H  -18.72500 39.09600 42.98700
H  -18.29100 36.81100 44.83600
H  -19.68000 38.01400 44.94500
H  -18.17100 38.26300 45.72600
H  -15.50400 34.23700 43.92200
H  -14.36700 33.08500 43.51700
H  -15.51500 33.69600 42.24000
H  -10.61000 34.26000 39.66600
H  -7.48400 32.58300 41.67900
H  -6.58100 33.97000 40.96500
H  -6.98800 32.53400 39.93300

