158

Mg 24.47100 -6.58700 47.78800
C  27.01100 -4.21200 46.88500
C  22.35900 -4.88900 45.67700
C  22.39600 -9.08500 48.27800
C  26.97300 -8.28800 49.62300
N  24.77100 -4.86600 46.21900
C  25.84800 -4.05700 46.15400
C  25.58600 -2.90600 45.13100
C  23.91500 -2.86500 45.27500
C  23.58300 -4.30100 45.74500
C  23.28300 -1.71500 46.09600
C  26.23600 -3.26400 43.72500
C  27.26500 -2.24100 43.11600
H  27.36900 -2.32200 41.61200
N  22.60200 -6.94600 47.06000
C  21.87800 -6.14800 46.12400
C  20.63700 -6.80900 45.84000
C  20.53000 -8.00400 46.67200
C  21.90300 -8.07900 47.43300
C  19.71100 -6.41800 44.78300
C  19.39400 -8.94100 46.76400
O  18.41500 -8.67900 46.07700
C  19.37300 -10.23700 47.58300
N  24.74600 -8.50700 48.70300
C  23.67500 -9.27000 48.85200
C  23.94200 -10.50900 49.62800
C  25.35800 -10.18400 50.34200
C  25.74300 -8.95800 49.55500
C  22.85600 -11.02100 50.64400
C  26.42100 -11.34900 50.40200
C  27.06500 -11.36300 51.79500
N  26.52100 -6.33000 48.29100
C  27.44100 -7.11700 49.00900
C  28.75100 -6.46200 49.02700
C  28.56700 -5.36700 48.18300
C  27.28100 -5.36500 47.73000
C  29.95700 -6.96900 49.80000
C  29.25300 -4.10700 47.75300
O  30.31100 -3.61500 48.10200
C  28.30800 -3.34600 46.78600
C  28.17600 -1.88300 47.21100
O  27.74600 -1.40500 48.28400
O  28.43400 -1.12100 46.11000
C  27.98100 0.22000 46.25600
H  21.63300 -4.25300 45.16500
H  21.77400 -9.92900 48.58300
H  27.73000 -8.91500 50.09800
H  26.01300 -2.04300 45.64100
H  23.53400 -2.80200 44.25600
H  24.01200 -0.91100 46.20300
H  23.03200 -2.11900 47.07600
H  22.36200 -1.33800 45.65200
H  25.41300 -3.10000 43.03000
H  26.60500 -4.28600 43.63700
H  28.26400 -2.41400 43.51500
H  27.02100 -1.23200 43.44900
H  19.38200 -7.24100 44.14900
H  20.22000 -5.67500 44.17100
H  18.86600 -5.93500 45.27400
H  19.62800 -9.95600 48.60500
H  19.93700 -11.02700 47.08700
H  18.35100 -10.60900 47.65500
H  24.06600 -11.31600 48.90600
H  25.19400 -9.72700 51.31800
H  23.44500 -11.36300 51.49500
H  22.37300 -11.90200 50.22300
H  22.13100 -10.23100 50.83800
H  27.21100 -11.03600 49.72000
H  26.09500 -12.28300 49.94500
H  27.19700 -12.40600 52.08300
H  26.43800 -10.93400 52.57600
H  28.00400 -10.81700 51.69900
H  29.56300 -7.32300 50.75200
H  30.74600 -6.22100 49.87900
H  30.40300 -7.84400 49.32800
H  28.72000 -3.39100 45.77700
H  28.41500 0.65500 45.35500
H  28.44600 0.77900 47.06800
H  26.90200 0.36100 46.30400
Mg -12.37500 39.73700 42.40300
C  -10.86300 36.82100 41.27200
C  -9.79400 41.56400 40.91000
C  -14.26800 42.58500 42.92200
C  -15.23900 37.93400 43.30800
N  -10.62300 39.23100 40.95300
C  -10.08700 37.96300 40.86800
C  -8.68900 37.99900 40.31300
C  -8.34400 39.58700 40.24100
C  -9.66400 40.15200 40.84200
C  -7.00600 39.95400 40.95000
C  -8.65400 37.22300 38.94100
C  -7.41400 36.32700 39.02200
H  -7.02600 35.66300 37.75900
N  -12.04900 41.77200 41.98500
C  -10.91100 42.34600 41.40500
C  -11.05400 43.82400 41.43800
C  -12.27100 44.09100 42.16800
C  -12.98000 42.76900 42.36500
C  -10.08800 44.81100 40.79600
C  -12.83700 45.52700 42.61800
O  -12.20400 46.56100 42.36900
C  -14.13800 45.68800 43.37800
N  -14.57000 40.18900 42.87600
C  -14.97900 41.40000 43.21100
C  -16.39300 41.38400 43.82200
C  -16.76700 39.90700 43.66100
C  -15.40200 39.31100 43.34600
C  -16.45400 41.82800 45.34300
C  -17.80600 39.54300 42.57200
C  -18.83500 38.48900 43.00200
N  -12.94400 37.72700 42.41000
C  -14.11400 37.20700 42.82400
C  -14.00100 35.73800 42.62700
C  -12.68200 35.54400 42.14000
C  -12.15400 36.81100 41.89100
C  -15.09200 34.79300 43.11500
C  -11.68200 34.56100 41.78600
O  -11.61300 33.38600 41.99100
C  -10.44100 35.37300 41.24000
C  -9.28900 35.06400 42.08900
O  -9.08600 35.45700 43.22800
O  -8.49800 34.11700 41.40500
C  -7.33900 33.59800 42.18500
H  -8.92300 42.18700 40.69700
H  -14.95500 43.36800 43.24800
H  -16.02400 37.35300 43.79500
H  -8.06700 37.51800 41.06800
H  -8.12800 39.88100 39.21500
H  -6.50800 40.68000 40.30700
H  -6.38000 39.07400 41.10000
H  -7.23000 40.41400 41.91300
H  -8.53100 37.90100 38.09600
H  -9.53500 36.59800 38.79500
H  -7.63100 35.57100 39.77600
H  -6.59900 36.95300 39.38600
H  -10.32200 45.00900 39.75000
H  -9.04700 44.49100 40.76700
H  -10.17300 45.81500 41.21100
H  -14.19200 44.93500 44.16500
H  -14.92500 45.43000 42.66900
H  -14.28600 46.65500 43.85800
H  -17.09200 42.03400 43.29600
H  -17.16100 39.46700 44.57700
H  -16.32900 41.07700 46.12300
H  -17.42200 42.26500 45.58900
H  -15.75200 42.57600 45.71200
H  -17.33800 39.12000 41.68300
H  -18.22700 40.42500 42.09100
H  -18.44600 37.47900 42.87700
H  -19.79200 38.58700 42.48900
H  -18.98600 38.41800 44.07900
H  -14.78100 34.30800 44.04000
H  -15.11500 33.97500 42.39400
H  -16.08500 35.18000 43.34300
H  -10.33000 35.03600 40.20900
H  -6.60900 33.31700 41.42600
H  -7.62900 32.71300 42.75200
H  -6.88800 34.47400 42.65000

