158

Mg -1.42600 34.90300 26.05400
C  -3.00300 32.98900 28.45500
C  -0.15400 36.85200 28.45600
C  -0.30700 36.82500 23.57200
C  -2.84100 32.70700 23.52600
N  -1.59500 34.89100 28.26100
C  -2.17600 33.97600 29.03400
C  -2.06800 34.29400 30.52700
C  -1.34100 35.67900 30.51300
C  -1.02200 35.84700 28.97200
C  -1.97800 36.91300 31.05900
C  -1.20900 33.22100 31.30600
C  -2.02300 32.42900 32.38200
H  -1.36100 32.22200 33.71100
N  -0.34700 36.59300 26.00300
C  0.13400 37.26700 27.11000
C  0.95400 38.36300 26.69200
C  0.79800 38.45000 25.29600
C  -0.07200 37.32200 24.88500
C  1.69900 39.30400 27.74200
C  1.42900 39.49100 24.40400
O  1.28100 39.54300 23.20400
C  2.30100 40.54400 24.97600
N  -1.51900 34.79000 23.89900
C  -0.95600 35.71000 23.12700
C  -1.09100 35.35900 21.67100
C  -1.67700 33.94200 21.70700
C  -2.06800 33.82000 23.12700
C  -1.89700 36.43700 20.98100
C  -0.63500 32.88800 21.22500
C  0.35200 32.27700 22.20500
N  -2.73700 33.24300 25.92100
C  -3.14800 32.39400 24.87300
C  -4.05600 31.34900 25.37100
C  -4.07400 31.59200 26.80900
C  -3.20300 32.68200 27.03600
C  -4.83400 30.43500 24.53200
C  -4.71800 31.18500 28.11000
O  -5.64200 30.44900 28.33200
C  -3.80500 31.92500 29.17200
C  -4.77700 32.48100 30.12800
O  -5.37500 33.53700 29.97300
O  -4.94600 31.66700 31.21600
C  -5.65200 32.24100 32.37500
H  0.17600 37.63800 29.13800
H  0.19700 37.45700 22.83900
H  -3.26400 32.04100 22.77200
H  -3.07100 34.47500 30.91400
H  -0.46400 35.52600 31.14300
H  -3.04200 36.68300 31.00800
H  -1.81200 37.71700 30.34200
H  -1.71900 37.25400 32.06100
H  -0.32400 33.58300 31.82900
H  -0.88300 32.49200 30.56300
H  -2.26000 31.45600 31.95100
H  -2.93100 32.99700 32.57900
H  2.00900 38.73900 28.62200
H  0.93800 40.02300 28.04700
H  2.58400 39.84900 27.41600
H  1.82500 41.19900 25.70600
H  2.54100 41.10600 24.07400
H  3.24500 40.22700 25.41800
H  -0.08600 35.36400 21.24700
H  -2.52700 33.81200 21.03700
H  -2.17800 37.18700 21.72100
H  -2.80800 36.00800 20.56500
H  -1.21400 36.87800 20.25500
H  -0.12800 33.49100 20.47100
H  -1.26600 32.07400 20.86700
H  0.09300 32.50700 23.23900
H  1.41300 32.43900 22.01400
H  0.18300 31.20200 22.27000
H  -4.22100 30.00500 23.73900
H  -5.68500 30.96000 24.09900
H  -5.27900 29.62700 25.11400
H  -3.31800 31.10800 29.70400
H  -6.57800 32.69400 32.02200
H  -4.97400 32.94100 32.86200
H  -5.88500 31.45800 33.09600
Mg -10.60600 16.59200 42.62300
C  -7.36500 17.61200 42.51600
C  -11.49400 19.91400 41.79700
C  -13.81300 15.64900 42.49900
C  -9.58400 13.23100 43.11800
N  -9.53400 18.51500 42.04500
C  -8.15600 18.68400 42.14700
C  -7.75900 20.04700 41.67500
C  -9.06100 20.85600 41.89200
C  -10.08800 19.74900 41.89500
C  -8.98600 21.75500 43.13100
C  -7.14200 19.94200 40.22200
C  -5.61400 20.31500 39.97400
H  -4.76700 19.36500 39.33000
N  -12.41600 17.65500 42.27000
C  -12.54700 18.95600 41.95900
C  -13.92200 19.20600 41.65400
C  -14.58000 17.96100 41.78100
C  -13.59500 17.00700 42.23000
C  -14.51100 20.54000 41.22200
C  -16.03600 17.72300 41.53400
O  -16.67500 18.74400 41.28800
C  -16.80000 16.43700 41.72200
N  -11.51300 14.70100 42.67000
C  -12.87400 14.62600 42.73200
C  -13.35500 13.21700 43.02500
C  -12.07300 12.38900 43.29400
C  -10.94800 13.46100 42.89000
C  -14.44300 13.07400 44.03700
C  -11.81800 11.08500 42.46700
C  -11.28600 9.98600 43.32300
N  -8.84900 15.60200 42.78500
C  -8.54600 14.26800 43.12200
C  -7.09100 14.17700 43.17800
C  -6.63000 15.48000 43.06200
C  -7.72700 16.28300 42.74300
C  -6.35300 12.90600 43.27000
C  -5.38500 16.28700 43.04500
O  -4.20000 15.95500 43.21500
C  -5.87100 17.78800 42.75700
C  -5.58000 18.47000 44.08100
O  -6.22500 18.20400 45.07300
O  -4.46000 19.25700 44.08600
C  -4.08900 19.98400 45.24400
H  -11.76700 20.92600 41.48900
H  -14.84100 15.28300 42.45400
H  -9.27500 12.23600 43.44500
H  -6.91200 20.27600 42.32200
H  -9.14500 21.57900 41.08100
H  -7.94200 21.85900 43.42600
H  -9.63300 21.25000 43.84900
H  -9.42800 22.67800 42.75600
H  -7.65900 20.62800 39.55100
H  -7.24100 18.92600 39.83800
H  -5.19100 20.50500 40.96100
H  -5.58500 21.22900 39.38100
H  -15.04100 20.51100 40.27000
H  -13.74600 21.31400 41.15700
H  -15.22800 20.83800 41.98700
H  -17.77200 16.60300 41.25900
H  -16.94300 16.04000 42.72700
H  -16.41500 15.64200 41.08300
H  -13.79300 12.86600 42.09000
H  -12.01300 12.24600 44.37300
H  -15.35400 12.72600 43.55000
H  -14.74300 13.94500 44.62000
H  -14.20100 12.20400 44.64700
H  -11.05100 11.21600 41.70400
H  -12.73500 10.79300 41.95300
H  -12.10000 9.28800 43.51800
H  -10.97700 10.46500 44.25200
H  -10.44900 9.43400 42.89500
H  -5.30300 13.00400 42.99500
H  -6.86400 12.21800 42.59600
H  -6.32800 12.51500 44.28700
H  -5.24500 18.33300 42.05000
H  -4.80400 20.20300 46.03700
H  -3.64400 20.91800 44.89900
H  -3.27600 19.39600 45.67000

