158

Mg 47.22100 15.10300 27.54300
C  45.60000 15.07400 30.66700
C  49.57100 17.13500 28.76100
C  48.63400 15.12500 24.42900
C  44.56600 13.22900 26.30200
N  47.46900 16.03500 29.49000
C  46.75200 15.84600 30.63600
C  47.45400 16.43100 31.80000
C  48.57600 17.33000 31.13900
C  48.60500 16.76800 29.70600
C  48.25600 18.76500 31.16900
C  48.02700 15.42600 32.78500
C  47.63700 15.61500 34.28400
H  48.71500 15.53800 35.26600
N  48.94200 15.97800 26.71000
C  49.74800 16.80200 27.36500
C  50.90400 17.01800 26.55300
C  50.70600 16.30500 25.33800
C  49.30000 15.82100 25.39900
C  52.12500 17.82600 27.18800
C  51.63600 16.27000 24.15000
O  51.27200 16.01700 23.01900
C  53.03700 16.47200 24.39900
N  46.71900 14.31700 25.69000
C  47.45000 14.44800 24.50600
C  46.84700 13.70200 23.29100
C  45.49500 13.10300 23.91900
C  45.64100 13.52000 25.41300
C  46.57600 14.53800 22.03200
C  45.37100 11.61100 23.68600
C  46.51600 10.81500 24.35900
N  45.40100 14.38400 28.27100
C  44.43500 13.67100 27.65200
C  43.38100 13.38700 28.55300
C  43.80000 13.87200 29.84300
C  45.01200 14.46100 29.55200
C  42.05000 12.62500 28.20100
C  43.41000 13.98400 31.22500
O  42.52800 13.50700 31.89900
C  44.59900 14.84600 31.82500
C  44.00100 16.04800 32.47900
O  43.43300 16.94300 31.93100
O  44.14700 15.88700 33.87000
C  43.21200 16.70000 34.62100
H  50.25900 17.90300 29.12200
H  49.09500 15.19200 23.44100
H  43.83100 12.50200 25.95000
H  46.71400 17.03100 32.32900
H  49.51900 17.16500 31.66000
H  47.84200 19.04600 32.13800
H  47.46200 19.02800 30.47000
H  49.16500 19.36000 31.08800
H  49.11000 15.37100 32.67100
H  47.71800 14.44700 32.41800
H  46.93900 14.80600 34.50000
H  46.97000 16.46600 34.42200
H  53.03800 17.23300 27.13600
H  52.19600 17.98900 28.26300
H  52.34500 18.67200 26.53600
H  53.24400 15.79100 25.22500
H  53.13500 17.51200 24.70900
H  53.71700 16.18400 23.59700
H  47.36900 12.78900 23.00600
H  44.65500 13.66400 23.51200
H  47.35200 14.14300 21.37700
H  46.74600 15.59900 22.21200
H  45.58500 14.28600 21.65300
H  45.32000 11.44200 22.61000
H  44.47700 11.14200 24.09700
H  46.17400 10.16700 25.16600
H  47.32200 11.43000 24.76100
H  46.87500 10.22600 23.51500
H  42.25600 11.64700 27.76400
H  41.43700 13.07700 27.42100
H  41.45400 12.39500 29.08400
H  45.08100 14.34000 32.66200
H  42.88000 15.99200 35.38000
H  42.32800 17.00300 34.06100
H  43.70000 17.54100 35.11400
Mg 8.95500 47.79700 27.38000
C  7.36000 47.48600 30.62000
C  11.87000 48.41200 29.08800
C  10.30900 48.68700 24.57200
C  5.66100 47.83100 25.98000
N  9.59500 47.73700 29.65200
C  8.77700 47.54200 30.76800
C  9.57200 47.74600 32.04400
C  10.98000 48.15500 31.57900
C  10.87000 48.12600 30.05400
C  11.50000 49.51800 32.15200
C  9.47900 46.45000 32.95000
C  9.58500 46.76500 34.41900
H  10.23300 45.77200 35.36900
N  10.81300 48.15600 26.85000
C  11.87500 48.39100 27.64100
C  13.04300 48.70700 26.81900
C  12.66700 48.74000 25.46500
C  11.21800 48.52100 25.55800
C  14.28400 49.10800 27.47900
C  13.48200 49.02400 24.21600
O  12.91600 49.21500 23.15200
C  15.02800 49.20000 24.32400
N  8.07200 48.27900 25.54100
C  8.92000 48.52800 24.53200
C  8.21000 48.51600 23.14900
C  6.78600 48.25400 23.58500
C  6.80300 48.06700 25.12800
C  8.40600 49.69500 22.22300
C  6.14100 47.05000 22.88000
C  5.96600 46.99200 21.35000
N  6.95300 47.78400 28.05200
C  5.72500 47.86900 27.34600
C  4.60300 47.71800 28.27900
C  5.24000 47.57200 29.53400
C  6.65700 47.60900 29.38900
C  3.10500 47.67100 27.95100
C  4.98100 47.45100 30.86200
O  3.92800 47.53500 31.46400
C  6.28300 47.25700 31.61200
C  6.24600 45.86500 31.99400
O  6.49200 44.86100 31.31600
O  5.80000 45.84200 33.32500
C  5.66700 44.50900 33.98200
H  12.75300 48.71100 29.65600
H  10.60300 49.14500 23.62500
H  4.67200 47.67900 25.54300
H  9.02100 48.45400 32.66300
H  11.74600 47.44400 31.89000
H  10.85700 50.00400 32.88700
H  11.59300 50.22600 31.32900
H  12.42700 49.20200 32.62900
H  10.31200 45.77500 32.75500
H  8.57000 45.87600 32.77000
H  8.59600 46.91200 34.85200
H  10.11900 47.71600 34.40500
H  15.04400 48.36800 27.22800
H  14.33200 48.89900 28.54800
H  14.58600 50.13600 27.27700
H  15.35200 49.56400 23.34900
H  15.56200 48.25000 24.36000
H  15.35700 49.91900 25.07400
H  8.56800 47.69300 22.53000
H  6.23700 49.15300 23.30700
H  8.50800 50.59200 22.83400
H  7.61000 49.78100 21.48400
H  9.33300 49.48900 21.68900
H  5.12600 46.97700 23.27000
H  6.63200 46.13800 23.21900
H  6.03800 48.00600 20.95700
H  5.00000 46.60400 21.02400
H  6.60800 46.25900 20.86200
H  2.94200 47.57900 26.87700
H  2.55200 48.55300 28.27400
H  2.57600 46.84100 28.42000
H  6.30700 47.97400 32.43300
H  6.57900 43.98200 33.70200
H  4.83300 43.97300 33.52900
H  5.64300 44.51000 35.07100

