158

Mg -1.37200 17.67400 27.23700
C  -2.00100 15.31100 29.79700
C  -1.31000 20.13800 29.57800
C  -1.16700 19.73300 24.72900
C  -2.35300 15.10100 25.06200
N  -1.61600 17.71600 29.43800
C  -1.86900 16.64700 30.27000
C  -1.89200 17.10500 31.75200
C  -1.95800 18.66200 31.58500
C  -1.55200 18.90000 30.10500
C  -3.32800 19.42100 31.79600
C  -0.69200 16.53600 32.53700
C  -0.20000 17.24400 33.81800
H  -0.09200 16.42700 35.12900
N  -1.18900 19.70700 27.11400
C  -1.14800 20.52400 28.18600
C  -0.94000 21.90800 27.68900
C  -0.86800 21.89600 26.28700
C  -1.16200 20.40600 25.94800
C  -0.85600 23.05900 28.71300
C  -0.85800 22.97200 25.31700
O  -0.87300 22.79200 24.10400
C  -0.81800 24.44100 25.77400
N  -1.64400 17.46600 25.22200
C  -1.47700 18.42800 24.34700
C  -1.68100 18.01600 22.87000
C  -1.84400 16.45500 22.97600
C  -1.97200 16.32200 24.49600
C  -2.81100 18.68400 22.10600
C  -0.63300 15.64400 22.45600
C  0.86000 15.91400 22.88200
N  -1.91600 15.62400 27.31400
C  -2.25000 14.72700 26.33200
C  -2.37600 13.39400 26.83100
C  -2.28400 13.59600 28.21100
C  -2.05000 14.94100 28.47600
C  -2.79300 12.25900 25.96100
C  -2.33500 12.90400 29.43700
O  -2.33200 11.69000 29.65300
C  -2.25300 13.98400 30.55600
C  -1.15400 13.51300 31.38100
O  0.04600 13.72300 31.22900
O  -1.68100 12.89200 32.44600
C  -0.67000 12.28300 33.38100
H  -1.21500 20.96400 30.28500
H  -1.03600 20.28400 23.79500
H  -2.48500 14.39300 24.24200
H  -2.87500 16.84800 32.14500
H  -1.14700 19.19600 32.08100
H  -3.99200 19.29700 30.94000
H  -3.08200 20.43700 32.10400
H  -3.86500 18.86700 32.56700
H  0.19000 16.28700 31.94500
H  -1.23500 15.65800 32.88600
H  -0.98000 17.97900 34.01400
H  0.64100 17.93000 33.72400
H  -1.33300 23.90500 28.21900
H  0.15300 23.33500 29.02000
H  -1.36100 22.85000 29.65600
H  -1.73500 24.78700 26.25000
H  -0.69200 25.25100 25.05500
H  0.07100 24.33700 26.39600
H  -0.78000 18.20900 22.28700
H  -2.77700 16.15100 22.50200
H  -2.37400 19.28700 21.31100
H  -3.40300 19.25500 22.82100
H  -3.50000 17.95600 21.67600
H  -0.69100 15.62800 21.36700
H  -0.74400 14.63900 22.86300
H  1.38500 15.00300 23.17000
H  0.96500 16.74000 23.58600
H  1.33000 16.18000 21.93500
H  -2.07500 12.27300 25.14100
H  -3.78600 12.27500 25.51100
H  -2.66500 11.30300 26.46900
H  -3.22600 13.83500 31.02300
H  0.28900 12.06200 32.91300
H  -1.00700 11.30900 33.73600
H  -0.60100 12.85700 34.30500
Mg 42.23900 41.51800 27.04700
C  41.19200 43.82300 29.46900
C  43.33400 39.43500 29.55500
C  43.42100 39.48200 24.72700
C  41.76100 44.00400 24.66600
N  42.19900 41.69000 29.31900
C  41.71100 42.66300 30.09500
C  41.89700 42.30300 31.57600
C  42.80400 40.99000 31.53500
C  42.73000 40.58100 30.01800
C  44.32000 40.99600 31.96400
C  40.48100 42.17400 32.17400
C  40.27200 42.95700 33.52300
H  39.70000 42.23400 34.70600
N  43.11400 39.65800 27.12700
C  43.45000 38.94300 28.20200
C  43.87200 37.65100 27.82000
C  44.01200 37.67600 26.39600
C  43.56500 39.03500 26.00300
C  44.29000 36.57400 28.74800
C  44.55700 36.54800 25.36600
O  44.57900 36.71000 24.10700
C  44.93200 35.24900 25.86000
N  42.48600 41.64400 25.06600
C  42.88900 40.66300 24.30000
C  42.70600 40.89600 22.78000
C  42.31900 42.42800 22.71300
C  42.12500 42.72400 24.27100
C  43.84100 40.53400 21.73000
C  41.13800 42.79000 21.73200
C  39.80400 43.04700 22.35500
N  41.53900 43.53000 27.00100
C  41.47700 44.47900 25.98700
C  40.83400 45.65100 26.42100
C  40.70400 45.46200 27.78700
C  41.23600 44.18500 28.10500
C  40.29200 46.76000 25.56700
C  40.31600 46.04300 29.08200
O  39.81000 47.16300 29.29500
C  40.71200 45.07000 30.22700
C  41.65000 45.72600 31.12100
O  42.72600 46.18100 30.81900
O  41.00300 45.82100 32.33500
C  41.58800 46.66900 33.29000
H  43.71100 38.84700 30.39400
H  43.85600 38.87600 23.93000
H  41.67100 44.79600 23.92000
H  42.56400 43.06200 31.98600
H  42.33600 40.19200 32.11200
H  44.39700 42.01400 32.34600
H  45.05100 40.98400 31.15500
H  44.52700 40.16700 32.64000
H  40.35400 41.11600 32.40500
H  39.73000 42.37500 31.41000
H  39.47200 43.67600 33.34200
H  41.14900 43.48500 33.90000
H  45.37500 36.61200 28.84900
H  43.86800 35.63500 28.39200
H  43.85700 36.66000 29.74400
H  45.31400 34.69700 25.00100
H  43.98500 34.75800 26.08300
H  45.54700 35.20400 26.75900
H  41.81100 40.36600 22.45300
H  43.20600 42.94700 22.35100
H  43.38600 40.33300 20.76000
H  44.15900 39.53500 22.02900
H  44.65500 41.24400 21.58500
H  40.92600 42.02600 20.98400
H  41.42300 43.69400 21.19400
H  39.56600 42.48200 23.25600
H  39.05800 42.84800 21.58500
H  39.60600 44.10800 22.50200
H  40.02600 46.43800 24.56100
H  41.03500 47.55600 25.51500
H  39.41100 47.15900 26.06900
H  39.74600 45.07600 30.73300
H  42.00200 46.05800 34.09200
H  40.74000 47.21200 33.70700
H  42.29500 47.42600 32.95200

