158

Mg 46.35800 17.09400 27.94100
C  44.96800 16.24000 30.97000
C  48.99500 18.59500 29.77500
C  47.99500 17.84900 25.00500
C  43.91100 15.49900 26.29300
N  46.91600 17.30900 30.16800
C  46.11000 16.97300 31.22000
C  46.68200 17.37300 32.56800
C  47.88100 18.32600 32.15600
C  47.99100 18.10400 30.61100
C  47.58100 19.79300 32.46500
C  47.11600 16.17400 33.41100
C  46.67300 16.22400 34.88800
H  46.60600 17.63800 35.43200
N  48.12500 18.13100 27.47300
C  49.09600 18.63500 28.35800
C  50.22400 19.12400 27.57700
C  49.84700 19.14800 26.20300
C  48.61400 18.37000 26.17700
C  51.42100 19.84300 28.28000
C  50.53000 19.68200 24.84900
O  50.11800 19.45900 23.69300
C  51.84300 20.45500 24.88000
N  45.99100 16.68400 25.83900
C  46.80000 17.02700 24.85100
C  46.15100 16.66100 23.47300
C  45.05400 15.66600 24.01800
C  45.00600 15.89100 25.47800
C  45.67300 17.91400 22.61400
C  45.27400 14.17700 23.59700
C  45.94800 13.09100 24.53500
N  44.67700 16.22300 28.43400
C  43.77300 15.55500 27.66300
C  42.68200 14.98900 28.48100
C  43.18800 15.20200 29.78200
C  44.37100 15.98300 29.73200
C  41.52800 14.23600 28.06600
C  42.82700 15.09100 31.16700
O  41.70900 14.66000 31.52000
C  43.92500 15.69800 32.00200
C  43.31200 16.81000 32.75500
O  43.08500 17.92700 32.26000
O  42.91200 16.38800 34.07800
C  42.32100 17.36600 35.01400
H  49.82400 19.06500 30.30800
H  48.28900 18.07400 23.97700
H  43.17800 14.89600 25.75300
H  45.95600 17.95200 33.13800
H  48.79900 17.97500 32.62800
H  48.42900 20.16700 33.04000
H  46.68500 20.01600 33.04500
H  47.47900 20.20600 31.46200
H  48.20200 16.11400 33.48300
H  46.73200 15.25400 32.97000
H  47.48200 15.77800 35.46600
H  45.72300 15.70500 35.01700
H  51.03100 20.77700 28.68300
H  52.24600 19.96100 27.57900
H  51.90500 19.25600 29.06100
H  51.61200 21.43100 25.30800
H  52.25700 20.62700 23.88700
H  52.59600 19.97600 25.50600
H  46.87500 16.18600 22.81100
H  44.11600 15.94100 23.53500
H  44.58900 17.83400 22.53900
H  46.15200 17.83100 21.63900
H  46.04600 18.81900 23.09400
H  45.88600 14.17200 22.69500
H  44.33500 13.66500 23.38700
H  47.02700 13.24400 24.58000
H  45.62800 12.08400 24.27000
H  45.57300 13.20700 25.55200
H  40.60200 14.79900 27.94500
H  41.41400 13.45600 28.81800
H  41.66200 13.66200 27.14900
H  44.23000 14.95400 32.73800
H  41.25000 17.40100 34.81300
H  42.73000 18.36800 34.88400
H  42.65000 16.94600 35.96400
Mg 46.53200 24.96300 27.80400
C  47.39500 27.29100 30.30600
C  45.59000 22.82800 30.28000
C  45.94700 22.79200 25.35200
C  47.72000 27.35300 25.47100
N  46.50200 25.03500 30.02300
C  46.89900 26.09400 30.79900
C  46.85000 25.72600 32.34000
C  46.41900 24.24600 32.26600
C  46.13700 24.00000 30.77500
C  47.40300 23.34400 33.07500
C  45.88400 26.67100 33.10300
C  46.44400 27.25900 34.35600
H  45.45600 27.62900 35.45100
N  45.68000 23.08200 27.81600
C  45.39400 22.32300 28.92200
C  44.92200 21.01500 28.50500
C  44.92100 21.08700 27.07900
C  45.60500 22.37400 26.69400
C  44.50200 19.92700 29.49600
C  44.34100 20.08000 26.12800
O  44.55700 20.10700 24.93300
C  43.32000 19.08800 26.57400
N  46.92600 24.98600 25.74500
C  46.65900 23.88400 24.97900
C  46.94500 24.19800 23.48200
C  47.14100 25.69300 23.47700
C  47.21900 26.08800 24.96100
C  48.06600 23.33800 22.81700
C  46.06400 26.55100 22.75700
C  46.46300 27.03200 21.35200
N  47.43300 26.90100 27.81900
C  47.91100 27.73000 26.85100
C  48.48800 28.88500 27.42400
C  48.25700 28.78900 28.78700
C  47.64100 27.58100 28.96200
C  49.25600 29.92500 26.69100
C  48.51400 29.47900 30.09600
O  49.08400 30.51100 30.38400
C  48.05300 28.44900 31.17800
C  49.21900 28.03700 31.92800
O  49.98100 27.17000 31.61700
O  49.23600 28.76300 33.10300
C  50.52000 28.76200 33.87100
H  45.35300 22.12300 31.08000
H  45.80500 22.06500 24.55000
H  48.03000 28.12600 24.76500
H  47.84400 25.80200 32.78200
H  45.42500 24.12200 32.69700
H  48.10900 22.96300 32.33800
H  46.97000 22.47600 33.57300
H  48.04700 23.88100 33.77200
H  45.01200 26.11600 33.45000
H  45.61100 27.53300 32.49500
H  46.86400 28.21500 34.04500
H  47.23900 26.66300 34.80300
H  44.90500 18.96200 29.18900
H  43.43100 19.81600 29.66600
H  44.97900 20.16000 30.44900
H  43.70300 18.50300 27.41100
H  43.06500 18.44600 25.73100
H  42.44700 19.55900 27.02600
H  46.00200 24.08100 22.94800
H  48.13000 25.95400 23.10100
H  48.35500 22.54300 23.50400
H  48.90100 24.01000 22.62200
H  47.81500 22.95800 21.82700
H  45.80800 27.33800 23.46600
H  45.14300 25.97700 22.65700
H  45.72200 26.65600 20.64700
H  47.41900 26.59200 21.06900
H  46.34000 28.11500 21.35200
H  49.90500 30.38700 27.43500
H  48.63400 30.74600 26.33300
H  49.78900 29.47700 25.85200
H  47.32500 28.98400 31.78700
H  50.47800 28.23000 34.82200
H  50.64400 29.81700 34.11500
H  51.41000 28.52800 33.28600

