158

Mg 42.18800 42.17000 27.23900
C  41.11500 44.37200 29.83100
C  43.21100 39.99000 29.61800
C  43.15300 40.16500 24.77700
C  41.18900 44.54700 24.95500
N  42.39900 42.29700 29.47300
C  41.80800 43.22200 30.30200
C  42.20400 42.87600 31.78100
C  43.02700 41.55200 31.64300
C  42.85100 41.21000 30.14700
C  44.52000 41.57800 32.07000
C  40.97900 42.74400 32.75300
C  41.09300 43.32200 34.19200
H  40.31100 42.59300 35.32900
N  43.06400 40.29800 27.19800
C  43.33800 39.54700 28.27800
C  43.70300 38.21000 27.91600
C  43.62700 38.22700 26.48500
C  43.24800 39.60200 26.05700
C  44.22800 37.11700 28.87600
C  43.89100 37.07300 25.47000
O  43.81500 37.30200 24.27500
C  44.08700 35.64700 25.95100
N  42.33800 42.40100 25.17600
C  42.73500 41.39600 24.33500
C  42.59000 41.80400 22.89700
C  41.79900 43.12100 22.97500
C  41.77400 43.42700 24.45400
C  43.88700 41.97800 22.17600
C  40.40700 43.21200 22.23200
C  39.13500 42.93200 23.00200
N  41.41200 44.14600 27.33300
C  41.07100 44.98000 26.29500
C  40.36400 46.16900 26.85900
C  40.32000 45.91800 28.25200
C  40.98300 44.72900 28.47800
C  39.87600 47.35800 26.05300
C  39.89700 46.44300 29.55900
O  39.20000 47.45700 29.78600
C  40.34700 45.47400 30.65400
C  41.20600 46.19300 31.60700
O  42.38000 46.41900 31.57300
O  40.53600 46.51700 32.77600
C  41.31800 47.08500 33.88000
H  43.40300 39.17500 30.32000
H  43.47400 39.54000 23.94100
H  40.67100 45.26200 24.31300
H  42.92100 43.52000 32.29000
H  42.66400 40.76100 32.29900
H  45.12100 41.07800 31.31000
H  44.42500 41.09500 33.04300
H  44.82100 42.62500 32.08100
H  40.90700 41.67600 32.96100
H  40.04600 43.11100 32.32700
H  40.62600 44.30700 34.20100
H  42.15700 43.43800 34.39600
H  44.62400 37.57700 29.78200
H  45.09800 36.58100 28.49500
H  43.45100 36.36700 29.02000
H  45.16100 35.55300 26.10800
H  43.74700 34.94800 25.18700
H  43.52900 35.40800 26.85700
H  41.92700 41.04300 22.48600
H  42.40600 43.87800 22.47800
H  43.95700 42.97200 21.73300
H  44.13200 41.24000 21.41200
H  44.67400 41.87700 22.92300
H  40.60400 42.55700 21.38300
H  40.27400 44.18000 21.74900
H  39.27200 42.48900 23.98900
H  38.52600 42.21400 22.45200
H  38.49500 43.80500 23.12800
H  40.29500 47.40100 25.04800
H  40.33900 48.14200 26.65200
H  38.79300 47.47800 26.01400
H  39.43200 45.04500 31.06200
H  41.64400 46.26300 34.51600
H  40.71000 47.66600 34.57300
H  42.15900 47.71800 33.59600
Mg 35.40200 49.47200 26.26900
C  35.80600 47.49100 29.00000
C  34.20600 52.06100 28.15000
C  34.99100 51.28000 23.33900
C  36.36700 46.76800 24.20400
N  34.83300 49.67600 28.36200
C  35.22700 48.79200 29.28600
C  35.12900 49.38000 30.71800
C  34.34500 50.68900 30.46200
C  34.39400 50.82000 28.93000
C  32.86000 50.78500 31.08800
C  36.50700 49.55200 31.43900
C  36.57800 48.82100 32.83400
H  35.56200 49.06100 33.99000
N  34.83000 51.37000 25.85500
C  34.44800 52.33100 26.76400
C  34.29900 53.59400 26.02000
C  34.42500 53.39700 24.64000
C  34.78700 51.93300 24.61300
C  34.05200 54.86700 26.77500
C  34.33700 54.28700 23.45000
O  34.28000 53.88300 22.28900
C  34.06900 55.73100 23.72200
N  35.76700 49.11000 24.08700
C  35.45600 50.00400 23.10400
C  35.56500 49.33600 21.71300
C  36.19200 47.97600 22.05800
C  36.17800 47.91700 23.54800
C  34.26700 49.26000 20.88400
C  37.69100 47.88900 21.46200
C  38.82900 48.30900 22.48500
N  35.96600 47.48700 26.53000
C  36.38800 46.56700 25.56400
C  36.66200 45.33500 26.34600
C  36.49500 45.67300 27.69000
C  36.07900 46.99200 27.71500
C  37.19900 44.06100 25.73700
C  36.55600 45.11500 28.97800
O  36.92100 44.04300 29.41000
C  36.10000 46.29700 29.92900
C  34.88300 45.77800 30.65700
O  33.81300 45.55500 30.24200
O  35.25100 45.50200 31.94200
C  34.14400 45.24400 32.84300
H  33.82300 52.85400 28.79700
H  35.05200 51.80800 22.38600
H  36.31300 45.88100 23.56900
H  34.49200 48.69500 31.27700
H  34.81800 51.52600 30.97500
H  32.19400 51.18300 30.32300
H  32.94000 51.49300 31.91300
H  32.47600 49.86500 31.52600
H  36.88700 50.57100 31.50700
H  37.22700 48.94800 30.88800
H  37.58400 49.00700 33.20900
H  36.58900 47.73200 32.79100
H  33.10200 55.29900 26.46200
H  34.94400 55.48700 26.68900
H  33.82600 54.68900 27.82700
H  33.06700 55.94400 24.09500
H  34.19800 56.22400 22.75900
H  34.83400 56.00800 24.44800
H  36.34700 49.90900 21.21600
H  35.62300 47.13100 21.67000
H  34.10600 48.18800 20.76900
H  34.53400 49.88400 20.03100
H  33.46700 49.71100 21.47200
H  37.68300 48.51900 20.57300
H  37.89300 46.83800 21.25800
H  39.68200 47.69500 22.19600
H  38.66600 48.26000 23.56200
H  39.09100 49.35600 22.33100
H  38.28800 44.03000 25.78300
H  36.90800 43.85900 24.70600
H  36.74200 43.29800 26.36700
H  36.89500 46.38200 30.67100
H  34.38600 45.71600 33.79500
H  33.96700 44.17100 32.91500
H  33.16900 45.63000 32.54400

