158

Mg 47.65600 16.45300 28.77200
C  45.62200 15.98000 31.78100
C  49.79100 18.20600 30.72600
C  49.22100 17.28900 25.92800
C  45.02300 15.08200 26.89800
N  47.62500 17.06500 31.09100
C  46.78500 16.76000 32.05400
C  47.36500 17.20600 33.41900
C  48.66300 18.01400 33.01000
C  48.68800 17.85700 31.46600
C  48.81200 19.42800 33.52600
C  47.57900 15.98200 34.33700
C  47.91000 16.19400 35.80900
H  47.70200 17.63900 36.52000
N  49.34600 17.42500 28.37500
C  50.14300 18.18300 29.29900
C  51.35400 18.50700 28.64000
C  51.14100 18.21500 27.29100
C  49.81800 17.59700 27.13800
C  52.51300 19.14100 29.33700
C  52.09200 18.38100 26.01400
O  51.84100 17.96700 24.91200
C  53.47600 18.75600 26.22700
N  47.10900 16.29700 26.58500
C  47.97100 16.67800 25.61200
C  47.32200 16.39000 24.19600
C  46.14600 15.42300 24.53100
C  46.06400 15.57200 26.09100
C  46.76700 17.68500 23.59700
C  46.44800 13.93400 24.23700
C  45.73300 13.10600 23.13200
N  45.76800 15.68000 29.18900
C  44.82700 15.09400 28.28000
C  43.64800 14.62900 29.02700
C  43.96100 14.92500 30.33500
C  45.25000 15.49800 30.43700
C  42.37200 14.04200 28.34600
C  43.40100 14.85300 31.64000
O  42.36200 14.38000 32.08700
C  44.49000 15.46700 32.58500
C  43.88200 16.62800 33.31500
O  43.71300 17.71700 32.80000
O  43.61700 16.36800 34.66700
C  42.97700 17.49800 35.35700
H  50.54100 18.68100 31.36200
H  49.70500 17.48900 24.97000
H  44.18100 14.68700 26.32600
H  46.62200 17.83500 33.90800
H  49.51000 17.42000 33.35300
H  48.69700 20.19600 32.76200
H  49.79300 19.61400 33.96400
H  48.10000 19.51300 34.34700
H  48.32900 15.26800 33.99700
H  46.62900 15.44600 34.33000
H  48.88000 15.71900 35.95800
H  47.21200 15.52000 36.30500
H  52.36300 19.13600 30.41600
H  52.75900 20.15100 29.00900
H  53.38900 18.52300 29.13700
H  53.85100 17.84700 26.69800
H  53.46500 19.63300 26.87400
H  54.03800 19.08300 25.35200
H  48.02400 15.94300 23.49300
H  45.14700 15.65600 24.16200
H  47.67000 18.14700 23.19800
H  46.33100 18.32400 24.36500
H  46.09800 17.53900 22.75000
H  46.27400 13.29500 25.10200
H  47.52200 13.98400 24.05900
H  46.48400 12.73400 22.43400
H  44.79700 13.50100 22.73900
H  45.39500 12.11200 23.42500
H  42.57600 13.07400 27.88900
H  41.99200 14.74000 27.60100
H  41.58800 14.00800 29.10300
H  44.89500 14.74400 33.29400
H  42.62700 17.02500 36.27500
H  42.14200 17.89200 34.77900
H  43.63500 18.28600 35.72200
Mg 44.03500 42.81700 26.20600
C  42.63800 44.84100 28.66100
C  45.42100 40.82200 28.53000
C  45.71800 41.19400 23.80000
C  43.50600 45.51200 23.88300
N  44.09500 42.91000 28.31700
C  43.37300 43.74500 29.15900
C  43.53500 43.48100 30.65100
C  44.67100 42.39100 30.59300
C  44.87100 42.06700 29.05800
C  46.00600 42.77100 31.26500
C  42.22600 43.19000 31.50000
C  42.16400 42.44600 32.81200
H  41.44500 43.04000 34.01600
N  45.16200 41.08900 26.17300
C  45.59000 40.35700 27.25800
C  46.33100 39.23700 26.79900
C  46.47400 39.37200 25.36600
C  45.76700 40.64800 25.05300
C  46.76100 38.19100 27.78500
C  47.17300 38.45300 24.45200
O  47.24700 38.66300 23.22300
C  47.95900 37.29400 24.98800
N  44.33300 43.24200 24.11000
C  45.09100 42.39600 23.37800
C  45.15000 42.87000 21.88700
C  44.45100 44.21100 21.97000
C  44.09200 44.39100 23.39200
C  46.53800 42.86100 21.23500
C  43.15600 44.27900 21.02700
C  41.82300 43.74700 21.42200
N  43.24100 44.76200 26.20300
C  43.08800 45.71400 25.19900
C  42.24300 46.74000 25.74200
C  41.97400 46.42300 27.06300
C  42.64100 45.21500 27.32200
C  41.64200 47.95600 25.06800
C  41.36900 46.87000 28.25700
O  40.67300 47.86800 28.44700
C  41.81600 45.83000 29.34400
C  42.60700 46.59700 30.31600
O  43.61300 47.29500 30.15600
O  41.81700 46.72800 31.51900
C  42.56100 47.54100 32.60000
H  45.77400 40.07900 29.24900
H  46.19300 40.54400 23.06200
H  43.32400 46.34200 23.19800
H  44.08800 44.37700 30.93200
H  44.21100 41.47000 30.95200
H  45.91300 43.61700 31.94600
H  46.78800 42.97300 30.53200
H  46.34700 41.94800 31.89300
H  41.70300 42.65300 30.70900
H  41.64300 44.10000 31.63700
H  43.15000 42.08800 33.10700
H  41.69600 41.49700 32.55000
H  47.06600 37.23500 27.36000
H  45.96100 37.93300 28.48000
H  47.59500 38.63200 28.33200
H  48.69600 37.78700 25.62200
H  48.52600 37.06000 24.08800
H  47.31500 36.49400 25.35600
H  44.51000 42.25900 21.25000
H  45.17200 44.99800 21.74800
H  46.54300 41.94400 20.64700
H  47.41000 42.60900 21.84000
H  46.71800 43.68100 20.54000
H  43.40400 43.92200 20.02800
H  42.95600 45.34100 20.88400
H  41.90000 43.14200 22.32500
H  41.45100 43.06200 20.66000
H  41.06700 44.53300 21.44700
H  41.43300 47.78800 24.01100
H  42.47900 48.65500 25.08500
H  40.69700 48.19200 25.55800
H  40.93500 45.35500 29.77600
H  42.53500 46.88000 33.46600
H  42.04600 48.47900 32.80500
H  43.62200 47.75300 32.46800

