158

Mg 46.95900 25.54200 28.91900
C  47.64900 27.55700 31.66000
C  46.19700 22.90100 31.16600
C  46.95900 23.41900 26.34500
C  48.26500 28.12200 26.85600
N  46.82000 25.34300 31.09200
C  47.05200 26.37700 31.99900
C  46.71500 26.00700 33.38100
C  46.53000 24.47100 33.24000
C  46.55800 24.17800 31.76400
C  47.40500 23.54000 34.03100
C  45.62200 26.74600 34.15800
C  45.73800 26.62100 35.75000
H  44.40300 26.33400 36.50000
N  46.47600 23.50500 28.68200
C  46.10300 22.65400 29.71000
C  45.80100 21.35500 29.07500
C  46.11200 21.47100 27.65700
C  46.53800 22.88300 27.49000
C  45.29200 20.23800 29.90800
C  45.97300 20.41500 26.54900
O  46.36700 20.57100 25.42000
C  45.47800 19.01500 26.90700
N  47.62000 25.73900 26.91200
C  47.41300 24.72500 26.00700
C  47.92500 25.03800 24.55500
C  47.99200 26.56700 24.70700
C  47.95300 26.86100 26.26100
C  49.19800 24.25600 24.23800
C  46.84600 27.26300 23.90900
C  45.49100 27.29000 24.64900
N  47.86800 27.44100 29.15800
C  48.20100 28.44200 28.24000
C  48.60800 29.64500 28.97200
C  48.42000 29.32300 30.29000
C  47.95900 28.02000 30.37400
C  49.19300 30.93000 28.28800
C  48.46200 29.87100 31.62500
O  48.80100 30.95000 32.04300
C  47.97300 28.70300 32.63000
C  49.03800 28.31100 33.57500
O  50.15900 27.95500 33.18300
O  48.59400 28.20300 34.90300
C  49.63500 27.65700 35.72000
H  45.92000 22.16600 31.92500
H  46.93300 22.78100 25.45900
H  48.50000 28.91800 26.14700
H  47.63600 26.10900 33.95500
H  45.50800 24.20200 33.50700
H  48.13700 24.14800 34.56200
H  48.00100 22.84000 33.44600
H  46.86200 22.99900 34.80600
H  44.64700 26.42000 33.79500
H  45.68100 27.82100 33.98800
H  46.16700 27.50500 36.22200
H  46.40300 25.76500 35.85700
H  45.99700 19.40700 29.92400
H  44.32800 19.85700 29.57100
H  45.08200 20.61200 30.91000
H  45.81600 18.60500 27.85800
H  45.70100 18.26600 26.14700
H  44.39300 18.93300 26.85200
H  47.20500 24.79900 23.77200
H  48.97900 26.81500 24.31600
H  49.34000 23.78200 23.26600
H  49.40900 23.56100 25.05100
H  49.97500 25.02000 24.21900
H  46.72000 26.74500 22.95800
H  47.20700 28.28600 23.80200
H  45.34800 28.26900 25.10700
H  45.51100 26.59700 25.49000
H  44.61700 27.16300 24.01000
H  49.71700 30.69000 27.36200
H  49.85100 31.43000 28.99900
H  48.40500 31.62500 27.99800
H  47.07600 29.08300 33.11900
H  50.67000 27.99900 35.73500
H  49.74500 26.62000 35.40300
H  49.20000 27.68700 36.71900
Mg -9.34100 18.25000 43.67600
C  -5.84200 17.96300 44.02700
C  -8.93800 21.68500 43.14400
C  -12.63200 18.54500 43.14600
C  -9.49300 14.76100 43.40300
N  -7.57500 19.62900 43.49200
C  -6.32900 19.28900 43.83100
C  -5.39500 20.54300 43.73100
C  -6.40100 21.73500 43.81800
C  -7.72000 20.99000 43.41100
C  -6.49700 22.32400 45.22000
C  -4.50100 20.55000 42.43100
C  -5.02700 19.80600 41.11700
H  -5.92400 20.57000 40.15000
N  -10.60100 19.89400 43.16500
C  -10.28800 21.23400 43.09400
C  -11.48800 21.97400 42.74500
C  -12.62100 21.17000 42.87200
C  -11.98600 19.82400 43.01200
C  -11.33600 23.44300 42.49700
C  -14.18900 21.56300 42.79900
O  -14.44700 22.77200 42.80200
C  -15.34300 20.59200 42.88100
N  -10.76000 16.81600 43.15200
C  -12.08300 17.23900 43.19300
C  -13.01400 16.01000 43.35300
C  -12.02400 14.83700 43.09600
C  -10.70800 15.46500 43.25800
C  -13.80300 15.96600 44.67500
C  -12.24700 14.18600 41.66000
C  -13.59800 13.48500 41.47600
N  -7.96300 16.64800 43.70300
C  -8.16200 15.30200 43.57600
C  -6.89200 14.62500 43.77900
C  -5.95200 15.64900 43.94100
C  -6.63900 16.84900 43.89700
C  -6.58800 13.15800 43.70500
C  -4.56700 15.96800 44.13100
O  -3.56700 15.26200 44.31800
C  -4.41800 17.50500 44.18400
C  -3.78300 17.98200 45.38200
O  -2.63100 18.24600 45.43000
O  -4.67700 18.00900 46.41400
C  -4.13700 18.60000 47.65800
H  -8.73800 22.73700 42.92900
H  -13.71200 18.70400 43.16000
H  -9.56300 13.67100 43.42000
H  -4.84100 20.63000 44.66600
H  -6.22600 22.54400 43.10900
H  -7.25100 23.10400 45.11900
H  -5.48500 22.70800 45.34500
H  -6.74400 21.60900 46.00500
H  -3.42800 20.43800 42.58900
H  -4.60100 21.62500 42.28100
H  -5.50500 18.84500 41.31000
H  -4.14900 19.48100 40.56000
H  -11.66200 23.66600 41.48200
H  -10.37100 23.91700 42.68000
H  -12.00400 23.99000 43.16300
H  -15.12000 19.99300 43.76300
H  -15.35600 19.89200 42.04500
H  -16.33100 21.03200 42.74400
H  -13.65100 16.12900 42.47700
H  -12.12500 14.01200 43.80200
H  -13.69300 15.01500 45.19500
H  -14.85200 16.15700 44.44900
H  -13.32700 16.67100 45.35700
H  -11.49100 13.43200 41.43800
H  -12.13500 15.06200 41.02200
H  -14.15800 13.93200 40.65500
H  -14.26600 13.51900 42.33600
H  -13.48400 12.44000 41.18700
H  -5.54900 13.02200 43.40500
H  -7.10100 12.62000 42.90800
H  -6.79900 12.78000 44.70500
H  -3.83100 17.73100 43.29300
H  -4.98200 18.65700 48.34500
H  -3.67600 19.57800 47.52100
H  -3.42100 17.89900 48.08700

