158

Mg 30.39300 58.21900 40.10200
C  27.58300 56.21200 39.34300
C  32.37900 55.52100 39.58700
C  33.00700 60.32300 40.11000
C  28.24400 60.88400 40.72100
N  29.98500 56.10200 39.52600
C  28.81100 55.50900 39.23600
C  29.08700 54.05700 38.75900
C  30.49900 53.78000 39.36200
C  30.99100 55.23700 39.55800
C  30.50500 52.96300 40.65400
C  29.05300 53.98600 37.20600
C  27.88700 53.09100 36.72400
H  27.00800 53.67700 35.59000
N  32.45600 57.94300 39.86000
C  33.07400 56.75600 39.65800
C  34.52500 56.99200 39.72700
C  34.70900 58.36400 39.77800
C  33.37300 58.97900 39.95900
C  35.59600 55.93800 39.58100
C  36.04900 58.99800 39.85300
O  37.14200 58.38400 39.74800
C  36.17600 60.46100 40.26200
N  30.58900 60.37900 40.27400
C  31.78400 60.95400 40.29800
C  31.59100 62.47600 40.53700
C  30.09400 62.59200 40.83100
C  29.56400 61.18400 40.61800
C  32.40000 63.17200 41.64400
C  29.26300 63.66500 40.04000
C  28.37400 64.50500 40.88200
N  28.32000 58.52500 40.10700
C  27.63300 59.67100 40.45100
C  26.26300 59.33800 40.37800
C  26.20100 58.03100 39.92600
C  27.47600 57.55500 39.75500
C  25.11500 60.23100 40.85500
C  25.34200 57.01200 39.61600
O  24.12300 57.04800 39.44800
C  26.10200 55.77600 39.24800
C  25.71600 54.73400 40.26800
O  26.29400 54.54600 41.38900
O  24.67600 54.01300 39.83100
C  24.21000 53.00500 40.77300
H  33.05000 54.66000 39.61200
H  33.79200 61.08200 40.12000
H  27.52900 61.69700 40.86100
H  28.41700 53.35600 39.25700
H  31.05600 53.27200 38.57500
H  29.54500 52.49700 40.87600
H  30.74500 53.42000 41.61300
H  31.19300 52.12900 40.51300
H  29.98700 53.59500 36.80200
H  28.84700 54.99300 36.84200
H  27.21600 52.80300 37.53300
H  28.28500 52.11400 36.45200
H  36.02600 56.06000 38.58700
H  35.08400 54.97900 39.66200
H  36.33200 56.04700 40.37700
H  35.80800 61.07700 39.44200
H  37.22800 60.70600 40.41400
H  35.58400 60.70900 41.14300
H  31.84000 63.01400 39.62200
H  30.01600 62.82500 41.89300
H  33.08200 62.46700 42.11900
H  31.80200 63.64200 42.42500
H  32.99800 64.01100 41.28900
H  28.61600 63.15800 39.32500
H  29.88200 64.25600 39.36500
H  27.43700 64.77600 40.39600
H  28.92100 65.41100 41.14300
H  28.08100 63.98500 41.79400
H  24.25100 60.03500 40.22000
H  25.31100 61.30300 40.87300
H  24.80700 59.99100 41.87300
H  25.75600 55.40700 38.28300
H  24.48200 52.01600 40.40600
H  23.15600 53.28100 40.72000
H  24.50900 53.09400 41.81700
Mg -12.84000 37.94800 41.50700
C  -10.41000 35.48800 40.81700
C  -10.62700 40.41700 40.40100
C  -15.21200 40.27500 42.00200
C  -15.03200 35.38500 42.39500
N  -10.81600 38.00700 40.53700
C  -10.01900 36.86200 40.47000
C  -8.60800 37.22100 39.95900
C  -8.69600 38.78500 39.76400
C  -10.14600 39.11700 40.17700
C  -7.61800 39.53000 40.68000
C  -8.35400 36.46700 38.58800
C  -6.95200 35.91700 38.35500
H  -6.06000 36.48700 37.25100
N  -12.87700 40.09100 41.24700
C  -11.87900 40.90300 40.90700
C  -12.28100 42.25500 40.85400
C  -13.63200 42.23400 41.30000
C  -14.02500 40.83100 41.54400
C  -11.33000 43.37300 40.62100
C  -14.54900 43.47000 41.46600
O  -14.01000 44.60200 41.23500
C  -16.02000 43.38100 41.78600
N  -14.78800 37.84200 42.07700
C  -15.62100 38.89900 42.13500
C  -16.99600 38.58600 42.71700
C  -16.99300 37.01300 42.50800
C  -15.48700 36.69300 42.33900
C  -17.24300 38.98100 44.21500
C  -17.83300 36.60000 41.22500
C  -17.13200 36.22100 39.89200
N  -12.75800 35.83600 41.63500
C  -13.71300 34.94000 42.12400
C  -13.07700 33.59400 42.23500
C  -11.81800 33.73000 41.68200
C  -11.68600 35.17100 41.35900
C  -13.76200 32.30100 42.64000
C  -10.57300 33.07900 41.32600
O  -10.16100 31.93700 41.29000
C  -9.60600 34.21200 40.74100
C  -8.34400 34.26800 41.57500
O  -8.24000 34.68100 42.71400
O  -7.23800 33.73600 40.87200
C  -5.91800 33.91700 41.44800
H  -9.81900 41.10900 40.15700
H  -16.03400 40.93200 42.29500
H  -15.67800 34.55100 42.68000
H  -7.76200 36.95600 40.59300
H  -8.44100 39.04600 38.73600
H  -6.88100 38.85500 41.11500
H  -8.19000 39.85700 41.54800
H  -7.23100 40.40900 40.16500
H  -8.53200 37.21600 37.81600
H  -9.02400 35.63600 38.36700
H  -6.96100 34.84200 38.17400
H  -6.37300 36.03400 39.27100
H  -11.84300 44.02800 39.91700
H  -10.37400 43.02900 40.22500
H  -11.20400 43.89900 41.56800
H  -16.47700 42.64400 41.12600
H  -16.34800 44.36100 41.43900
H  -16.32500 43.24700 42.82400
H  -17.77800 39.06400 42.12700
H  -17.40200 36.41100 43.31900
H  -18.01500 39.74900 44.25900
H  -16.33700 39.27800 44.74300
H  -17.62900 38.06700 44.66600
H  -18.61500 37.32600 40.99900
H  -18.25700 35.66300 41.58700
H  -16.69600 35.22400 39.83100
H  -16.43000 36.99400 39.58100
H  -17.97700 36.33200 39.21100
H  -13.37300 31.52800 41.97800
H  -14.84900 32.38800 42.66000
H  -13.47700 32.02600 43.65600
H  -9.46100 33.93700 39.69600
H  -5.86900 34.06700 42.52700
H  -5.55000 34.85900 41.04000
H  -5.14600 33.20400 41.16100

