158

Mg 40.75500 7.78900 29.49000
C  42.64600 9.22000 31.96800
C  38.53600 6.66400 31.80900
C  38.91300 6.61000 26.92600
C  43.21300 8.68300 27.11600
N  40.59900 7.96100 31.62000
C  41.42200 8.64200 32.46900
C  41.00100 8.60900 33.97300
C  39.96600 7.43700 33.85300
C  39.60700 7.38900 32.34800
C  40.24600 6.13700 34.56800
C  40.47900 10.00700 34.52700
C  39.75500 10.02400 35.90000
H  40.56800 10.63200 37.05500
N  39.08400 6.73800 29.40200
C  38.27300 6.41900 30.46200
C  37.21700 5.58200 29.94600
C  37.15900 5.72000 28.50800
C  38.42200 6.41900 28.24300
C  36.31300 4.87500 30.99500
C  36.11500 5.28100 27.56700
O  36.30600 5.26400 26.34700
C  34.76800 4.93600 28.15900
N  41.03600 7.64000 27.37900
C  40.20000 7.03800 26.59900
C  40.56900 7.16700 25.04800
C  41.82100 8.02900 25.17200
C  42.04300 8.07300 26.62000
C  40.86900 5.74700 24.46600
C  41.91100 9.42600 24.30500
C  40.90400 10.44200 24.73600
N  42.57400 8.74100 29.53200
C  43.47400 9.00900 28.46100
C  44.58000 9.70900 28.98700
C  44.27000 9.89800 30.34300
C  43.05100 9.23300 30.62500
C  45.79900 10.24300 28.16200
C  44.72000 10.39900 31.61600
O  45.77800 11.00300 31.77000
C  43.72100 10.07500 32.69100
C  44.31900 9.45500 33.93900
O  44.88700 8.38700 33.99100
O  44.20500 10.29400 34.96400
C  44.64800 9.73600 36.30900
H  37.76900 6.24100 32.46100
H  38.30700 6.32600 26.06300
H  43.89100 9.09400 26.36500
H  41.81000 8.36200 34.66000
H  39.02400 7.83900 34.22500
H  39.46900 5.97300 35.31500
H  41.24200 6.10100 35.00700
H  40.23700 5.36700 33.79600
H  39.90600 10.45500 33.71600
H  41.28400 10.74100 34.54100
H  39.52800 9.00000 36.20000
H  38.77000 10.42400 35.66200
H  35.46100 5.55200 31.05700
H  36.76400 4.52600 31.92400
H  35.77200 3.99300 30.65400
H  34.60800 5.44900 29.10700
H  34.94200 3.89100 28.41600
H  33.98900 5.04600 27.40600
H  39.75600 7.55000 24.43100
H  42.66100 7.44600 24.79600
H  41.83000 5.66000 23.95900
H  40.15800 5.53100 23.66900
H  40.63000 4.99600 25.21900
H  41.56400 9.14000 23.31200
H  42.91900 9.83500 24.37800
H  39.92400 9.96700 24.69200
H  40.88100 11.25100 24.00600
H  41.19300 10.77200 25.73300
H  45.47900 10.93700 27.38400
H  46.38000 9.43200 27.72300
H  46.48000 10.76700 28.83200
H  43.38600 11.05500 33.03100
H  45.71600 9.95700 36.33700
H  44.27700 8.73700 36.53300
H  44.24600 10.37600 37.09400
Mg -0.43000 43.35900 25.25800
C  1.69700 42.61300 27.88200
C  -2.99600 42.80400 27.39300
C  -2.52100 43.37800 22.62500
C  2.44500 43.20100 23.12000
N  -0.60200 42.60000 27.41000
C  0.40900 42.64500 28.32500
C  -0.14200 42.64200 29.75300
C  -1.65000 42.31000 29.49900
C  -1.78100 42.59000 28.00400
C  -2.28300 40.94400 29.90000
C  0.07400 44.08900 30.37900
C  0.05100 44.13800 31.94300
H  -0.20900 42.84300 32.76700
N  -2.49000 43.32000 25.04000
C  -3.37100 43.06400 26.06800
C  -4.72400 43.15300 25.53900
C  -4.59800 43.24400 24.14400
C  -3.16000 43.33400 23.84700
C  -5.94800 43.04000 26.44000
C  -5.66800 43.39500 23.04500
O  -5.46000 43.71700 21.90100
C  -7.19600 43.24300 23.49300
N  -0.07800 43.36800 23.20300
C  -1.07500 43.31500 22.28900
C  -0.55000 43.40300 20.82300
C  0.95100 43.75800 21.10800
C  1.16200 43.39600 22.54200
C  -0.77900 41.97800 20.14000
C  1.51100 45.22400 20.78100
C  1.20300 46.42300 21.64800
N  1.64100 43.13700 25.38000
C  2.64100 43.00000 24.50900
C  3.92200 42.73400 25.15000
C  3.61700 42.59800 26.49500
C  2.19500 42.78000 26.55100
C  5.24400 42.57500 24.40400
C  4.18600 42.21300 27.75300
O  5.36700 41.97900 28.03900
C  3.02100 42.49900 28.74400
C  3.14600 41.40300 29.75700
O  2.78200 40.19900 29.72500
O  3.65700 41.92800 30.91100
C  4.13800 41.02300 31.98900
H  -3.82800 42.69400 28.09200
H  -3.12600 43.44100 21.71800
H  3.34000 43.22600 22.49500
H  0.42100 41.94900 30.37800
H  -2.28400 43.03800 30.00500
H  -3.07400 40.75600 29.17400
H  -2.71300 41.08900 30.89100
H  -1.45700 40.23500 29.96000
H  -0.63100 44.80700 29.96000
H  1.01600 44.50200 30.02000
H  -0.63700 44.94700 32.19100
H  0.98200 44.49400 32.38400
H  -6.56000 43.93900 26.37900
H  -5.83100 42.87500 27.51100
H  -6.47400 42.23800 25.92100
H  -7.44500 42.33900 24.04800
H  -7.60500 43.30100 22.48400
H  -7.62800 44.08800 24.02900
H  -0.94300 44.10700 20.08900
H  1.47800 43.07100 20.44700
H  -1.39500 41.30800 20.73900
H  0.18500 41.48700 20.00500
H  -1.32800 42.16700 19.21800
H  1.12000 45.23300 19.76400
H  2.59200 45.09400 20.73500
H  1.07300 47.29900 21.01400
H  2.08500 46.61300 22.26000
H  0.28600 46.30600 22.22600
H  5.96200 42.26200 25.16100
H  5.60600 43.44300 23.85100
H  5.11100 41.72800 23.73100
H  3.19200 43.49600 29.15100
H  5.19900 40.94800 31.75000
H  3.67000 40.03900 32.00800
H  4.05000 41.49000 32.97000

