158

Mg -2.00000 17.22700 26.89700
C  -2.12800 15.01800 29.70000
C  -2.66300 19.81400 29.03300
C  -2.42300 19.20600 24.12800
C  -2.34800 14.34900 24.74300
N  -2.19300 17.33800 29.14500
C  -2.29700 16.37800 30.06500
C  -2.63500 16.92600 31.43900
C  -3.22000 18.37200 31.08600
C  -2.62700 18.53600 29.68200
C  -4.78900 18.50800 31.25300
C  -1.45100 17.08500 32.42900
C  -1.77700 17.27900 33.97200
H  -0.79400 16.80100 34.98100
N  -2.18100 19.29400 26.58500
C  -2.42200 20.13300 27.65200
C  -2.48000 21.46800 27.07800
C  -2.36900 21.35700 25.64900
C  -2.34600 19.89700 25.38000
C  -2.64600 22.66300 27.95900
C  -2.35000 22.39500 24.62300
O  -2.51100 22.13900 23.43200
C  -2.14300 23.83500 25.03500
N  -2.32400 16.84700 24.82900
C  -2.46500 17.86300 23.88400
C  -2.88200 17.23300 22.55100
C  -2.35100 15.75600 22.69800
C  -2.32500 15.63500 24.18300
C  -4.37000 17.47400 22.23700
C  -0.93000 15.43700 22.02100
C  -0.69300 14.04000 21.34100
N  -2.12200 15.09100 27.09100
C  -2.30100 14.07100 26.11300
C  -2.47100 12.78100 26.85800
C  -2.30500 13.08200 28.24600
C  -2.05600 14.51100 28.30800
C  -2.83500 11.41300 26.30500
C  -2.27100 12.47100 29.56900
O  -2.31900 11.31800 29.96500
C  -2.17200 13.70100 30.54000
C  -1.09400 13.60500 31.50600
O  0.10700 13.69200 31.22500
O  -1.61400 13.35500 32.71000
C  -0.63200 13.25000 33.79800
H  -2.81800 20.60700 29.76700
H  -2.60400 19.88400 23.29100
H  -2.43200 13.50300 24.05800
H  -3.35500 16.29600 31.96200
H  -2.86100 19.20800 31.68600
H  -5.32500 18.48500 30.30400
H  -4.90700 19.48000 31.73300
H  -5.25600 17.68200 31.78900
H  -0.98500 18.05500 32.25200
H  -0.66500 16.34000 32.30800
H  -2.77400 16.84400 34.05000
H  -1.83000 18.34600 34.19000
H  -2.41700 22.53200 29.01700
H  -3.62700 23.12100 27.83600
H  -2.06500 23.48300 27.53700
H  -1.15500 24.09200 25.41600
H  -2.94200 24.20500 25.67700
H  -2.19800 24.44100 24.13100
H  -2.35300 17.72200 21.73200
H  -3.05600 15.06400 22.23700
H  -4.76900 18.13000 23.01000
H  -4.87600 16.51100 22.18000
H  -4.56700 18.05400 21.33500
H  -0.16200 15.52600 22.78900
H  -0.80300 16.28200 21.34400
H  0.00800 14.06900 20.50700
H  -1.59600 13.64800 20.87200
H  -0.33500 13.28300 22.03900
H  -2.45600 11.40400 25.28300
H  -3.90500 11.25800 26.16300
H  -2.38700 10.65500 26.94700
H  -3.08500 13.73500 31.13500
H  -1.14100 12.81100 34.65600
H  -0.16300 14.17600 34.13100
H  0.05700 12.49800 33.41400
Mg -8.85000 18.49800 43.27200
C  -5.44100 18.36000 43.32800
C  -8.67500 21.86000 42.45000
C  -12.32300 18.66400 43.06200
C  -9.09700 15.10200 43.73300
N  -7.15800 19.97100 42.79000
C  -5.85500 19.67100 42.97600
C  -4.92500 20.90900 42.73600
C  -6.08300 22.11000 42.76300
C  -7.42500 21.26900 42.60000
C  -6.13800 22.90000 44.09300
C  -3.98600 20.78300 41.52700
C  -4.45400 20.00400 40.26100
H  -4.33700 20.73100 38.89900
N  -10.33300 20.03200 42.73100
C  -9.99300 21.37800 42.57300
C  -11.23300 22.16300 42.40200
C  -12.31400 21.27800 42.65600
C  -11.69700 19.96500 42.87200
C  -11.25500 23.68100 42.14900
C  -13.78500 21.65600 42.84500
O  -14.16900 22.78400 42.97000
C  -14.83800 20.69200 43.11600
N  -10.48000 17.08600 43.21000
C  -11.80100 17.41700 43.22200
C  -12.77800 16.20800 43.36500
C  -11.72100 15.00100 43.41300
C  -10.35300 15.71200 43.42200
C  -13.74100 16.18500 44.52600
C  -11.89700 13.94000 42.25600
C  -11.00300 13.99200 40.96000
N  -7.61000 16.98800 43.47400
C  -7.79800 15.72600 43.77700
C  -6.53400 15.12900 44.07300
C  -5.55700 16.13900 43.95000
C  -6.30800 17.23500 43.52000
C  -6.31900 13.67700 44.40300
C  -4.11400 16.43700 44.06800
O  -3.15600 15.74900 44.29300
C  -4.02300 17.90100 43.55800
C  -3.38900 18.61500 44.73700
O  -3.95600 18.95400 45.75800
O  -2.09700 18.98100 44.31700
C  -1.52700 20.02500 45.14100
H  -8.51600 22.93100 42.59200
H  -13.41200 18.70600 42.99400
H  -9.10900 14.03200 43.94900
H  -4.38200 20.99600 43.67700
H  -5.85200 22.76200 41.92000
H  -6.89400 22.41200 44.70800
H  -6.35300 23.94700 43.87800
H  -5.22000 22.91800 44.68000
H  -3.05100 20.38100 41.91800
H  -3.79800 21.81200 41.21800
H  -5.50900 20.00300 40.53400
H  -4.00800 19.01000 40.23500
H  -11.62200 23.99200 41.17100
H  -10.24800 24.06600 42.30600
H  -11.79200 24.20700 42.93800
H  -14.57100 20.03700 43.94500
H  -14.85800 20.13900 42.17700
H  -15.77500 21.23100 43.25100
H  -13.45000 16.10300 42.51300
H  -11.83400 14.53100 44.38900
H  -14.72300 16.44000 44.12900
H  -13.50300 16.86500 45.34500
H  -13.98100 15.18300 44.88100
H  -12.86100 14.20000 41.81800
H  -11.96600 12.93700 42.67800
H  -11.00600 12.95400 40.62800
H  -9.97700 14.34900 41.04500
H  -11.60200 14.43100 40.16200
H  -5.58600 13.64300 45.20900
H  -5.92500 13.21100 43.50000
H  -7.21200 13.14200 44.72500
H  -3.42500 17.84300 42.64800
H  -0.44700 19.87300 45.15200
H  -1.83800 20.13000 46.18100
H  -1.65800 20.98900 44.65000

