158

Mg 16.72300 -0.68300 27.46500
C  15.81900 1.24900 30.19300
C  18.83200 -2.48900 29.41400
C  18.18600 -1.76300 24.66600
C  14.82300 1.61400 25.36900
N  17.24000 -0.65900 29.61600
C  16.79200 0.23100 30.50900
C  17.20800 -0.18100 31.96000
C  18.25700 -1.28400 31.68600
C  18.10200 -1.55000 30.16500
C  19.69100 -0.97400 32.27700
C  16.02600 -0.69500 32.79700
C  15.95100 -0.48700 34.33000
H  17.08800 0.24600 35.07500
N  18.16500 -2.09900 27.08400
C  18.80400 -2.83000 28.02300
C  19.65000 -3.85200 27.27300
C  19.46300 -3.57700 25.85500
C  18.62100 -2.40700 25.85000
C  20.57800 -4.83000 28.01300
C  19.99300 -4.37600 24.67200
O  19.83200 -4.04800 23.52600
C  20.81700 -5.57400 24.92700
N  16.56300 -0.09000 25.35700
C  17.29900 -0.74500 24.42700
C  17.05500 -0.14700 23.05600
C  15.76600 0.71900 23.22300
C  15.67200 0.70900 24.73100
C  18.22400 0.59700 22.38800
C  14.49000 0.02800 22.64100
C  13.66100 0.93700 21.69600
N  15.47700 1.03800 27.67700
C  14.72400 1.84100 26.78400
C  13.92600 2.80600 27.50200
C  14.36100 2.62100 28.87500
C  15.33800 1.58900 28.92400
C  12.80700 3.67300 27.01200
C  14.20400 3.15200 30.19800
O  13.50000 4.04800 30.70900
C  15.11500 2.25100 31.14000
C  16.03300 3.00400 31.98200
O  17.12700 3.32300 31.62600
O  15.44600 3.41800 33.19100
C  16.28400 4.35600 33.99700
H  19.48600 -3.04200 30.09100
H  18.71200 -2.26100 23.84900
H  14.28900 2.30000 24.70800
H  17.73800 0.59800 32.50800
H  17.97400 -2.24800 32.11000
H  20.45100 -1.21000 31.53100
H  19.79700 -1.69500 33.08800
H  19.84100 0.00400 32.73400
H  15.96700 -1.78200 32.74500
H  15.15300 -0.42000 32.20400
H  15.84100 -1.46500 34.80000
H  15.02900 0.09400 34.34500
H  20.79500 -4.42700 29.00200
H  21.54000 -4.83300 27.50200
H  20.13300 -5.81100 28.18400
H  20.39600 -6.13100 25.76400
H  21.74700 -5.05100 25.15100
H  20.80100 -6.29100 24.10600
H  16.85800 -1.08000 22.52700
H  15.92200 1.72000 22.82100
H  17.95900 1.50500 21.84600
H  18.57900 -0.11500 21.64400
H  18.98400 0.85300 23.12700
H  13.78100 -0.13300 23.45400
H  14.55100 -0.98900 22.25200
H  14.13900 1.90800 21.56300
H  12.59000 1.07600 21.84100
H  13.95500 0.57600 20.71100
H  12.08900 3.78700 27.82400
H  12.30300 3.21500 26.16100
H  13.22100 4.60500 26.62600
H  14.46400 1.75500 31.86000
H  16.75400 3.77400 34.78900
H  15.49600 4.98800 34.40700
H  17.02900 4.92400 33.43900
Mg 49.00300 35.32000 25.60900
C  46.82200 34.51000 28.20200
C  49.83700 38.09100 27.34300
C  50.97500 36.19100 22.91800
C  47.66100 32.68000 23.63700
N  48.23500 36.30700 27.47000
C  47.49300 35.67200 28.43900
C  47.44800 36.49500 29.74300
C  48.24600 37.83100 29.25300
C  48.83100 37.38800 27.99100
C  47.40600 39.17700 29.07500
C  48.18600 35.85100 30.93400
C  47.30400 35.59700 32.11500
H  47.43600 36.64300 33.19200
N  50.33900 36.88100 25.29000
C  50.49800 37.87200 26.12800
C  51.50500 38.74300 25.56200
C  52.05100 38.12700 24.42700
C  51.15700 36.97600 24.18000
C  52.00300 40.04100 26.24400
C  53.23200 38.49100 23.49900
O  53.67900 37.79600 22.62200
C  53.93700 39.76800 23.74200
N  49.29500 34.57400 23.61300
C  50.14400 35.11400 22.63600
C  50.03800 34.35600 21.30300
C  49.32400 33.04100 21.70600
C  48.72500 33.40700 23.10800
C  49.46200 35.24300 20.10500
C  50.22700 31.76200 21.75500
C  49.72700 30.51100 20.94300
N  47.35000 33.97300 25.73800
C  46.98800 32.90000 24.89400
C  45.94400 32.14600 25.55300
C  45.85100 32.69500 26.87500
C  46.73200 33.79000 26.92800
C  45.42600 30.84200 25.12700
C  45.29700 32.59200 28.15100
O  44.45700 31.77000 28.54400
C  45.94900 33.62800 29.13400
C  46.74200 32.87500 30.15200
O  47.91400 32.51800 30.05000
O  45.84600 32.47200 31.20400
C  46.57100 31.77900 32.23600
H  50.23300 38.96300 27.86800
H  51.58900 36.62000 22.12400
H  47.34000 31.80000 23.07600
H  46.40600 36.70200 29.98900
H  49.10600 38.18100 29.82500
H  47.74500 39.82900 28.27000
H  47.50300 39.66700 30.04400
H  46.37600 38.83600 28.96500
H  48.92700 36.60200 31.21100
H  48.64500 34.92200 30.59600
H  47.46200 34.62600 32.58400
H  46.26100 35.64900 31.80200
H  51.39400 40.39900 27.07500
H  52.03000 40.87700 25.54600
H  53.07000 39.97000 26.45500
H  54.53500 40.04100 22.87300
H  54.52300 39.82400 24.66000
H  53.24500 40.61000 23.77200
H  51.03800 34.17200 20.91000
H  48.45800 32.89600 21.06100
H  49.25800 36.24700 20.47600
H  48.60800 34.76700 19.62300
H  50.26500 35.35900 19.37700
H  50.22900 31.33400 22.75700
H  51.24000 32.08200 21.50900
H  49.34000 29.74000 21.60800
H  50.55200 30.03800 20.41000
H  48.94100 30.66500 20.20400
H  46.10700 30.22600 24.53900
H  44.59400 31.07700 24.46300
H  44.99500 30.27200 25.95000
H  45.08000 34.19600 29.46500
H  46.47600 30.71300 32.02700
H  45.99400 31.82100 33.16000
H  47.60500 32.11800 32.29900

