158

Mg 8.01800 3.44500 28.46500
C  9.75300 2.21900 31.30100
C  6.31800 5.68400 30.64900
C  6.27500 4.70200 25.84900
C  9.38300 0.92300 26.53800
N  7.93600 3.82500 30.60900
C  8.81000 3.27400 31.53600
C  8.53800 3.80200 32.97800
C  7.38100 4.72600 32.75400
C  7.19500 4.78700 31.17600
C  6.15200 4.50100 33.60300
C  9.89700 4.54600 33.40900
C  9.90300 5.54000 34.58600
H  10.52700 5.09300 35.86500
N  6.64200 5.12400 28.24000
C  6.03200 5.82600 29.26000
C  5.08900 6.78100 28.62900
C  5.19200 6.58500 27.20900
C  6.13300 5.43500 27.02800
C  4.27100 7.71100 29.40000
C  4.38100 7.25800 26.15600
O  4.46900 7.02400 24.97000
C  3.43200 8.38800 26.50300
N  7.74000 2.79700 26.53900
C  7.04000 3.57000 25.61800
C  7.17700 3.02500 24.18400
C  8.21700 1.87100 24.44200
C  8.44400 1.79600 25.91900
C  5.82900 2.44500 23.44500
C  9.58900 1.94900 23.66800
C  10.72500 2.80100 24.39600
N  9.37500 1.88400 28.77500
C  9.81100 0.95900 27.91000
C  10.78200 0.08700 28.51300
C  10.79100 0.53700 29.88000
C  9.89400 1.64700 30.00900
C  11.60300 -0.92500 27.75100
C  11.32300 0.32300 31.21100
O  12.09200 -0.56200 31.47200
C  10.69100 1.35400 32.13100
C  9.95600 0.76700 33.31400
O  8.78700 0.35700 33.33600
O  10.88100 0.62200 34.39900
C  10.40500 -0.33200 35.38000
H  5.83300 6.39200 31.32400
H  5.87100 5.12000 24.92400
H  9.86900 0.17300 25.91100
H  8.28600 2.98100 33.64800
H  7.66200 5.77400 32.85800
H  5.39800 4.14300 32.90200
H  5.65600 5.40400 33.96100
H  6.24300 3.70100 34.33800
H  10.42200 4.99000 32.56300
H  10.62800 3.76100 33.59900
H  8.89600 5.82000 34.89300
H  10.41300 6.45300 34.27700
H  4.36700 8.65700 28.86700
H  4.82900 7.83800 30.32800
H  3.23000 7.48900 29.63300
H  2.87400 8.05400 27.37800
H  2.79500 8.59900 25.64400
H  3.89300 9.34500 26.74900
H  7.50300 3.88000 23.59200
H  7.81300 0.95000 24.02100
H  4.91600 2.96900 23.72800
H  5.73300 1.39000 23.70100
H  6.01200 2.42900 22.37100
H  9.41800 2.20800 22.62300
H  9.93600 0.92700 23.51500
H  10.36600 3.45200 25.19200
H  11.30200 3.42600 23.71500
H  11.54000 2.18300 24.77400
H  11.98000 -0.67200 26.76000
H  11.08200 -1.86500 27.56900
H  12.45700 -1.12800 28.39800
H  11.46000 2.03300 32.50100
H  10.47200 0.15900 36.35100
H  11.01500 -1.23500 35.37000
H  9.34400 -0.56700 35.29300
Mg 49.87900 45.98600 43.67700
C  46.64700 46.77600 42.55000
C  49.34500 42.71800 42.46400
C  53.19500 45.42800 44.08800
C  50.33100 49.31000 44.60000
N  48.24300 44.93600 42.53600
C  47.01500 45.45400 42.21700
C  46.14800 44.38700 41.52600
C  46.94400 43.06400 41.72900
C  48.25300 43.57400 42.31400
C  46.35300 41.85300 42.50400
C  45.85500 44.66300 40.00300
C  44.44200 44.18200 39.67400
H  43.83000 44.85600 38.41700
N  51.07400 44.26100 43.49800
C  50.65000 43.06300 42.98200
C  51.82800 42.27500 42.85100
C  52.98900 43.04200 43.33000
C  52.44800 44.31500 43.69400
C  51.70400 40.82500 42.27300
C  54.43600 42.51800 43.27400
O  54.73500 41.41700 42.80900
C  55.62300 43.30600 43.82800
N  51.56400 47.22200 44.26600
C  52.82700 46.77900 44.39000
C  53.79600 47.83400 45.06700
C  52.76400 48.92000 45.47400
C  51.46500 48.51800 44.75900
C  54.63900 47.33900 46.29000
C  53.33500 50.30100 45.15200
C  53.63900 50.70100 43.64800
N  48.73700 47.75800 43.56400
C  49.05600 48.99300 44.04200
C  47.90700 49.91700 43.78900
C  46.92100 49.06300 43.29100
C  47.50500 47.80900 43.12200
C  47.84300 51.36100 44.20500
C  45.49400 48.90100 42.85400
O  44.57400 49.67800 42.88700
C  45.38400 47.55400 42.25100
C  44.22300 46.86500 42.85200
O  44.01800 46.55600 43.99900
O  43.35700 46.54700 41.82800
C  42.17600 45.88200 42.27500
H  49.21700 41.71000 42.06500
H  54.23600 45.32800 44.40000
H  50.43300 50.34000 44.94800
H  45.20900 44.14500 42.02600
H  47.12900 42.71000 40.71500
H  45.51600 42.07000 43.16700
H  47.10400 41.45700 43.18800
H  45.92300 41.12200 41.82000
H  46.54700 44.12900 39.35100
H  45.97600 45.70300 39.70300
H  43.75800 44.20400 40.52300
H  44.51500 43.10600 39.51300
H  52.05000 40.77000 41.24100
H  50.72400 40.35400 42.35500
H  52.31200 40.15800 42.88400
H  55.38100 43.64300 44.83700
H  55.74300 44.26500 43.32400
H  56.55900 42.79600 43.60100
H  54.51000 48.18500 44.32100
H  52.53400 48.88500 46.53900
H  54.26200 47.75500 47.22400
H  55.69600 47.60100 46.24100
H  54.55600 46.25300 46.32100
H  54.33200 50.27600 45.59100
H  52.70200 51.04600 45.63300
H  54.71500 50.79100 43.49900
H  53.23900 51.71300 43.58000
H  53.16800 50.11700 42.85700
H  46.89800 51.85400 43.97800
H  48.69500 52.00000 43.97000
H  47.85100 51.27700 45.29100
H  45.34800 47.62900 41.16500
H  41.42400 46.51300 42.75000
H  42.39300 45.01700 42.90200
H  41.72300 45.47500 41.37100

