158

Mg 1.52300 -2.09500 45.37900
C  4.83500 -1.02600 44.81900
C  0.37900 0.40600 43.36100
C  -1.50100 -3.68500 45.11200
C  2.82800 -5.02600 46.95300
N  2.59200 -0.56800 44.08400
C  3.86700 -0.22300 44.13000
C  4.17500 0.98700 43.22500
C  2.70900 1.59200 43.11500
C  1.79500 0.42700 43.62500
C  2.49200 2.88900 43.95300
C  4.71900 0.50100 41.85500
C  5.77400 1.34600 41.14400
H  5.31500 2.13300 39.95100
N  -0.46900 -1.52900 44.51200
C  -0.69500 -0.47300 43.70900
C  -2.02000 -0.55500 43.25800
C  -2.61800 -1.71700 43.91700
C  -1.53300 -2.35000 44.56300
C  -2.67900 0.43800 42.34800
C  -4.07200 -2.04100 43.96800
O  -4.83400 -1.33700 43.37600
C  -4.61200 -3.21500 44.74200
N  0.86000 -4.23600 45.69000
C  -0.52900 -4.49500 45.66800
C  -0.80100 -5.91400 46.36000
C  0.63500 -6.39700 46.81200
C  1.53800 -5.17800 46.47400
C  -1.77300 -5.75000 47.50200
C  0.98600 -7.76200 46.15300
C  1.34800 -8.92200 47.06000
N  3.41800 -2.83700 45.95800
C  3.78300 -4.03000 46.57900
C  5.22100 -4.03900 46.82000
C  5.72500 -2.93900 46.07100
C  4.57400 -2.21600 45.60400
C  5.89200 -5.02100 47.71800
C  6.82700 -2.16900 45.70000
O  7.99400 -2.33400 45.84200
C  6.31000 -0.91300 44.82800
C  6.87800 0.31300 45.46800
O  7.23400 0.34200 46.61900
O  7.10600 1.27100 44.53700
C  8.01800 2.28500 45.05400
H  0.00900 1.30500 42.86200
H  -2.45800 -4.20100 45.00800
H  3.02300 -5.79800 47.70000
H  4.82000 1.68700 43.75600
H  2.36200 1.78000 42.09900
H  3.42500 3.44200 44.06100
H  2.26500 2.58100 44.97400
H  1.63000 3.46600 43.61600
H  3.87500 0.53700 41.16600
H  5.00700 -0.54900 41.90000
H  6.51200 0.63900 40.76400
H  6.16200 2.12900 41.79600
H  -3.66400 0.24800 41.92100
H  -2.06100 0.57700 41.46100
H  -2.80700 1.37800 42.88500
H  -4.55600 -4.10500 44.11500
H  -5.62300 -2.88800 44.98200
H  -4.05500 -3.35200 45.66900
H  -1.13200 -6.58600 45.56800
H  0.64700 -6.63000 47.87600
H  -2.70700 -6.03100 47.01500
H  -1.87600 -4.71700 47.83500
H  -1.64800 -6.49400 48.28900
H  1.86700 -7.77200 45.51000
H  0.17200 -8.27000 45.63800
H  1.03700 -9.86300 46.60600
H  0.70100 -8.85000 47.93400
H  2.36300 -8.90600 47.45600
H  6.26500 -4.72300 48.69800
H  6.80400 -5.27200 47.17600
H  5.25200 -5.89700 47.81900
H  6.76300 -1.04600 43.84600
H  8.88400 1.76700 45.46800
H  7.49800 2.96000 45.73300
H  8.28300 2.89800 44.19200
Mg 54.44300 23.98600 43.06500
C  52.04700 26.43200 42.63300
C  52.13900 21.70200 42.16100
C  56.99400 21.85500 42.23800
C  56.90700 26.54200 42.99100
N  52.25500 24.03500 42.63400
C  51.49200 25.13800 42.47000
C  50.10700 24.75500 41.99300
C  50.11400 23.20100 42.13900
C  51.61500 22.94300 42.30900
C  49.38400 22.63300 43.32100
C  49.81300 25.14000 40.56300
C  51.00300 24.92900 39.53900
H  50.66100 24.75200 38.07700
N  54.51400 21.98600 42.48100
C  53.42600 21.14900 42.24400
C  53.89700 19.86400 41.81400
C  55.31000 19.92000 41.96700
C  55.67500 21.31600 42.25100
C  53.04400 18.63500 41.54400
C  56.22100 18.66900 41.81800
O  55.76800 17.58600 41.36900
C  57.66200 18.72600 42.09200
N  56.65500 24.10900 42.73000
C  57.50000 23.07600 42.49900
C  58.97900 23.45400 42.34200
C  58.87300 24.99500 42.59800
C  57.37600 25.22600 42.79600
C  60.02300 22.74900 43.24800
C  59.55400 25.88800 41.49800
C  58.75100 26.16000 40.22400
N  54.44800 26.01200 43.10700
C  55.47800 26.93400 43.03100
C  54.98900 28.27300 43.11600
C  53.63300 28.12600 43.05700
C  53.34800 26.72600 42.95200
C  55.80600 29.44500 43.00700
C  52.35900 28.83500 43.12600
O  52.10800 29.96700 43.41100
C  51.29000 27.82500 42.61300
C  50.81300 28.30400 41.32300
O  51.50700 28.25300 40.31000
O  49.50100 28.76000 41.33600
C  49.03200 29.14300 40.02700
H  51.44800 20.86600 42.02900
H  57.83300 21.22300 41.93900
H  57.64700 27.34400 43.03100
H  49.43200 25.18300 42.73300
H  49.63900 22.71500 41.28800
H  49.64600 23.29400 44.14700
H  49.77900 21.67400 43.65800
H  48.30300 22.52600 43.23200
H  49.41400 26.15300 40.49700
H  49.08700 24.48700 40.08000
H  51.60600 24.09200 39.89000
H  51.68300 25.77100 39.67000
H  52.99900 18.54600 40.45900
H  52.05100 18.78900 41.96900
H  53.51400 17.75700 41.98800
H  58.14800 17.75100 42.06200
H  57.99300 19.13800 43.04500
H  58.04600 19.30300 41.25000
H  59.25700 23.33800 41.29400
H  59.40400 25.15700 43.53600
H  60.65000 22.08200 42.65700
H  59.51100 22.22500 44.05500
H  60.71200 23.49800 43.63900
H  60.50600 25.40100 41.28200
H  59.86000 26.80800 41.99600
H  58.67200 27.23500 40.05900
H  57.73900 25.76100 40.28800
H  59.29000 25.70000 39.39500
H  55.17600 30.33300 43.06100
H  56.24700 29.40000 42.01100
H  56.55000 29.36600 43.79900
H  50.48000 27.81300 43.34100
H  49.38800 30.15800 39.84700
H  47.94400 29.18000 40.08500
H  49.40600 28.47900 39.24800

