158

Mg 24.66700 1.23600 29.86500
C  26.89600 1.33400 32.58900
C  22.10800 1.63100 32.03600
C  22.77500 1.01500 27.20500
C  27.46500 0.74600 27.82100
N  24.55600 1.50600 32.06300
C  25.53700 1.49000 32.98800
C  24.99600 1.66200 34.39900
C  23.45500 1.58000 34.22500
C  23.30100 1.65400 32.68300
C  22.71600 0.33500 34.85500
C  25.36000 2.96200 35.11000
C  26.01200 2.84400 36.53400
H  25.57300 3.79200 37.58900
N  22.73100 1.41400 29.64000
C  21.81500 1.61300 30.64900
C  20.50000 1.71900 30.05000
C  20.68200 1.38700 28.66900
C  22.13600 1.22600 28.48200
C  19.17900 2.02900 30.80800
C  19.60200 1.32200 27.58300
O  19.80800 0.95000 26.45300
C  18.18200 1.68800 27.86000
N  25.12000 0.87000 27.73100
C  24.09400 0.89500 26.90400
C  24.57700 0.84000 25.49900
C  26.14800 0.91700 25.58500
C  26.29700 0.91400 27.10300
C  23.94300 -0.35700 24.62600
C  26.77600 2.18200 24.98800
C  26.58300 3.50400 25.80000
N  26.74300 1.00000 30.07600
C  27.72900 0.80300 29.19300
C  29.04100 0.64200 29.83500
C  28.74500 0.97600 31.14400
C  27.37500 1.09700 31.29100
C  30.38700 0.39500 29.18800
C  29.29800 1.11600 32.50100
O  30.49200 0.98100 32.90300
C  28.06600 1.28500 33.49000
C  27.93900 0.18600 34.49100
O  27.48500 -0.95200 34.37200
O  28.62200 0.51500 35.66100
C  28.73800 -0.41200 36.80200
H  21.17100 1.77600 32.57900
H  22.24300 1.20300 26.27100
H  28.30900 0.69900 27.13000
H  25.29300 0.78200 34.97000
H  22.82700 2.38200 34.61200
H  21.82200 0.57300 35.43300
H  23.39500 -0.06300 35.60900
H  22.51100 -0.43800 34.11500
H  24.52900 3.66600 35.13700
H  26.11400 3.38500 34.44500
H  27.06400 2.96300 36.27400
H  25.78000 1.83000 36.85900
H  18.59400 1.11300 30.72600
H  18.63900 2.80300 30.26200
H  19.24500 2.32000 31.85600
H  17.64600 1.63600 26.91300
H  18.24300 2.71800 28.21000
H  17.71300 0.94700 28.50700
H  24.26300 1.79100 25.07000
H  26.54500 0.03100 25.08900
H  23.23300 -0.90500 25.24600
H  24.65000 -1.17600 24.49200
H  23.58400 -0.08500 23.63400
H  26.31300 2.22500 24.00200
H  27.85000 2.12800 24.80900
H  25.59200 3.80900 25.46300
H  27.30900 4.21700 25.40800
H  26.58400 3.46000 26.88900
H  31.10300 0.60000 29.98300
H  30.52500 1.10700 28.37400
H  30.42500 -0.68200 29.02400
H  28.23900 2.15000 34.13000
H  29.63600 -0.26600 37.40300
H  28.69000 -1.48300 36.60500
H  27.87600 -0.19300 37.43300
Mg 9.34800 48.08800 25.96500
C  7.49900 47.71900 28.80200
C  12.07500 49.08400 27.70700
C  10.99800 48.39800 22.93400
C  6.38300 47.59800 24.07800
N  9.68700 48.42400 27.97600
C  8.83000 48.12800 29.01200
C  9.54100 48.28100 30.40600
C  10.90800 48.79700 29.92300
C  10.90300 48.71700 28.40300
C  11.29700 50.22200 30.58000
C  9.55000 46.98600 31.22400
C  10.48700 46.92300 32.41000
H  9.93400 46.38000 33.72800
N  11.23700 48.79900 25.40500
C  12.24000 49.05200 26.28300
C  13.50300 49.15700 25.57300
C  13.23800 48.96700 24.16600
C  11.73400 48.70100 24.14000
C  14.75000 49.43200 26.38700
C  14.14900 48.96700 22.98800
O  13.73800 48.86400 21.82700
C  15.59900 49.29600 23.12000
N  8.70000 48.14100 23.77100
C  9.61800 48.18800 22.79500
C  8.92100 47.85500 21.42300
C  7.41800 47.58200 21.77500
C  7.50000 47.76100 23.28400
C  9.10500 48.88000 20.20400
C  6.80500 46.28500 21.20200
C  7.41400 44.96200 21.75600
N  7.30000 47.83800 26.32500
C  6.23200 47.64500 25.48400
C  5.02800 47.39700 26.20300
C  5.46700 47.34200 27.59200
C  6.83700 47.69900 27.60600
C  3.64400 46.99200 25.75400
C  5.01000 47.15300 28.93900
O  3.90200 46.95400 29.38900
C  6.35400 47.31200 29.78200
C  6.52100 46.00100 30.45600
O  6.97000 44.99000 30.02200
O  6.09100 46.09200 31.80800
C  6.35800 44.96000 32.71900
H  13.01400 49.20400 28.25100
H  11.53300 48.40700 21.98200
H  5.44200 47.34500 23.58400
H  8.95200 48.96400 31.01900
H  11.76300 48.20800 30.25700
H  11.36700 51.07900 29.91100
H  12.29400 50.15100 31.01300
H  10.62000 50.50300 31.38600
H  9.76400 46.16600 30.53900
H  8.55500 46.90900 31.66400
H  10.68400 47.98000 32.58900
H  11.41700 46.39600 32.20000
H  15.42800 48.61500 26.14000
H  14.73400 49.56400 27.46900
H  15.17000 50.34600 25.96700
H  15.63100 50.19100 23.74100
H  16.04700 49.38600 22.13000
H  15.95600 48.34900 23.52400
H  9.46400 46.93500 21.20600
H  6.83400 48.37500 21.30900
H  9.09900 48.31400 19.27300
H  10.01000 49.45400 20.40500
H  8.25200 49.55800 20.22200
H  7.00600 46.29900 20.13100
H  5.73400 46.19600 21.38100
H  6.72100 44.12200 21.78200
H  7.77100 45.12900 22.77300
H  8.32200 44.68900 21.21700
H  3.20900 46.04300 26.06600
H  3.67800 46.90100 24.66800
H  3.01300 47.86400 25.92500
H  6.35000 48.05700 30.57700
H  7.24500 44.38100 32.45700
H  5.46600 44.34200 32.61600
H  6.30800 45.50000 33.66400

