158

Mg 3.79400 -0.55300 43.41700
C  7.20300 0.04100 43.10400
C  3.12400 2.22800 41.59300
C  0.50600 -1.59200 43.07000
C  4.52600 -3.73700 44.67500
N  5.06500 0.87600 42.52200
C  6.45900 1.02000 42.48000
C  6.95600 2.24500 41.77400
C  5.56600 3.07300 41.76800
C  4.47200 2.01900 41.96800
C  5.39400 4.20200 42.82800
C  7.61000 1.99300 40.39700
C  7.27500 0.71200 39.60000
H  6.25200 0.78900 38.47000
N  2.03900 0.29000 42.46800
C  1.96600 1.49000 41.88900
C  0.63000 1.79900 41.56300
C  -0.23400 0.73800 42.02900
C  0.76600 -0.29700 42.55600
C  0.18300 3.08100 40.99900
C  -1.75700 0.65800 42.02200
O  -2.44100 1.56400 41.55900
C  -2.57700 -0.44900 42.49600
N  2.65900 -2.37500 43.82600
C  1.34900 -2.53000 43.58200
C  0.88100 -4.00300 43.95900
C  2.25500 -4.72200 44.29300
C  3.23600 -3.53300 44.25500
C  -0.11900 -4.10600 45.21000
C  2.67900 -5.91300 43.28700
C  2.89300 -7.19300 44.05200
N  5.42700 -1.60300 44.06100
C  5.58200 -2.84200 44.60200
C  6.99400 -3.13300 45.03700
C  7.66900 -2.04100 44.45400
C  6.69200 -1.11400 43.87300
C  7.51400 -4.31900 45.75200
C  9.02000 -1.46600 44.12200
O  10.16400 -1.80000 44.37400
C  8.75100 -0.11400 43.28000
C  9.37800 1.07000 43.92700
O  9.86000 2.02400 43.29700
O  9.21900 1.12000 45.28600
C  9.55900 2.32100 45.98800
H  3.03900 3.16200 41.03300
H  -0.51400 -1.92200 43.27600
H  4.66400 -4.71100 45.15000
H  7.70900 2.70700 42.41200
H  5.54200 3.62300 40.82700
H  5.20400 5.19400 42.41700
H  6.36500 4.36200 43.29900
H  4.57300 4.08100 43.53400
H  8.69700 1.92200 40.43500
H  7.48200 2.83100 39.71100
H  6.73700 0.05900 40.28800
H  8.22500 0.23000 39.36900
H  1.00100 3.46900 40.39100
H  0.08300 3.84400 41.77100
H  -0.66500 3.08300 40.31500
H  -2.47800 -0.73000 43.54500
H  -2.19400 -1.27200 41.89300
H  -3.63900 -0.30000 42.30300
H  0.49000 -4.48800 43.06500
H  2.28300 -5.09200 45.31800
H  0.14500 -5.03900 45.70900
H  -1.17800 -4.12200 44.95500
H  0.02500 -3.27700 45.90200
H  3.49700 -5.62700 42.62500
H  1.84500 -6.06800 42.60200
H  3.31400 -7.95900 43.40100
H  1.99400 -7.47600 44.60100
H  3.68300 -7.05500 44.79100
H  8.57600 -4.35700 45.99100
H  7.23700 -5.14900 45.10200
H  6.90600 -4.46100 46.64500
H  9.27400 -0.06200 42.32500
H  9.24100 2.10500 47.00800
H  8.88500 3.11300 45.66200
H  10.61700 2.55000 45.85700
Mg 43.85600 3.57300 47.18400
C  41.97000 6.51200 47.07400
C  41.06700 1.66100 46.94900
C  45.88700 0.93900 46.88000
C  46.83700 5.69400 46.90700
N  41.76100 4.11700 47.00800
C  41.18100 5.32900 47.22100
C  39.63500 5.19800 47.29500
C  39.46400 3.57800 47.44300
C  40.85300 3.04300 47.05600
C  38.97900 3.08100 48.80800
C  38.74400 5.72100 46.09300
C  39.17100 5.22400 44.74200
H  39.33700 6.18500 43.62800
N  43.58100 1.57100 46.84600
C  42.32100 0.96800 46.80500
C  42.48000 -0.49700 46.77600
C  43.92200 -0.70200 46.68400
C  44.52600 0.63600 46.75500
C  41.40000 -1.59200 46.86500
C  44.57200 -2.03000 46.45700
O  43.89000 -3.06700 46.49400
C  46.01300 -2.28500 46.12600
N  46.07800 3.33100 46.86900
C  46.55600 2.12800 47.12200
C  48.13400 2.26000 47.21000
C  48.45800 3.87000 46.94700
C  47.04000 4.34100 46.84400
C  48.73100 1.63800 48.52800
C  49.39900 4.21100 45.85200
C  50.76000 4.73700 46.19700
N  44.34300 5.69400 47.00600
C  45.59100 6.38300 46.99200
C  45.33000 7.83400 46.97000
C  43.94100 7.91000 46.91700
C  43.44300 6.58500 47.10000
C  46.40400 8.88300 46.89500
C  42.81000 8.80100 46.80200
O  42.75600 10.02200 46.64800
C  41.47400 7.92500 46.92600
C  40.82100 8.41400 48.21500
O  41.22600 8.25700 49.34700
O  39.62200 9.14000 47.86200
C  38.67000 9.46000 48.93100
H  40.16500 1.05400 47.05400
H  46.55900 0.07900 46.84400
H  47.66000 6.39600 47.05700
H  39.28600 5.77300 48.15300
H  38.68300 3.36500 46.71300
H  39.72900 2.91200 49.58100
H  38.56100 2.08300 48.67500
H  38.21600 3.78800 49.13300
H  38.67300 6.80900 46.06500
H  37.71400 5.46600 46.34100
H  38.41500 4.54700 44.34500
H  40.17800 4.80800 44.73600
H  41.66400 -2.32700 47.62600
H  41.21500 -1.99700 45.87100
H  40.48400 -1.21600 47.32100
H  46.69300 -2.20000 46.97400
H  46.20100 -1.66700 45.24900
H  46.03800 -3.29800 45.72400
H  48.59300 1.77600 46.34800
H  48.84700 4.41600 47.80600
H  49.42100 2.42200 48.84000
H  49.28700 0.71200 48.37700
H  47.92700 1.49100 49.24900
H  48.92200 4.89100 45.14600
H  49.58000 3.29700 45.28700
H  50.76100 5.81300 46.02000
H  51.55100 4.34600 45.55800
H  50.98900 4.43300 47.21800
H  45.72400 9.71800 46.72500
H  47.03600 8.65600 46.03600
H  46.97700 8.94700 47.82000
H  40.79000 8.02700 46.08300
H  37.74200 9.90000 48.56600
H  39.08800 10.24900 49.55600
H  38.39400 8.61600 49.56300

