158

Mg 36.55400 0.95300 29.68600
C  34.31000 2.39000 31.97200
C  38.90600 1.18100 32.06700
C  38.76200 -0.00600 27.36900
C  34.07000 1.15000 27.12200
N  36.61400 1.78200 31.77200
C  35.55900 2.17300 32.51700
C  35.84300 2.20200 33.99700
C  37.35500 2.05000 33.94700
C  37.67200 1.67100 32.50600
C  38.22100 3.10400 34.57600
C  35.04400 1.09800 34.77100
C  34.31800 1.48100 36.08500
H  34.81900 2.73300 36.82500
N  38.43700 0.47400 29.75000
C  39.23600 0.53600 30.86000
C  40.57200 0.02600 30.54300
C  40.53400 -0.31700 29.19300
C  39.13400 -0.02300 28.71200
C  41.70900 0.12800 31.59700
C  41.76000 -0.80900 28.30900
O  41.68900 -0.92700 27.06600
C  43.07600 -1.11600 28.91000
N  36.42000 0.73100 27.49900
C  37.54400 0.38600 26.79800
C  37.20200 0.19800 25.31000
C  35.69600 0.42700 25.22500
C  35.34800 0.77900 26.67000
C  38.09200 1.00700 24.36200
C  34.85000 -0.75000 24.71400
C  34.14800 -1.77100 25.70400
N  34.58900 1.64800 29.49100
C  33.68000 1.65900 28.45200
C  32.41400 2.26200 28.96100
C  32.64100 2.47100 30.33000
C  33.93900 2.15300 30.61600
C  31.14400 2.29100 28.15600
C  31.97700 2.92400 31.51900
O  30.81500 3.19900 31.68000
C  33.01700 2.78200 32.64500
C  33.08100 4.11200 33.32300
O  33.70600 5.08900 32.93000
O  32.14700 4.12100 34.39500
C  31.79600 5.44500 34.93800
H  39.67400 1.16100 32.84400
H  39.47400 -0.09100 26.54600
H  33.27900 1.18800 26.36900
H  35.58900 3.16600 34.43700
H  37.70800 1.16100 34.47000
H  38.79500 2.63300 35.37500
H  37.59900 3.92200 34.93800
H  38.99600 3.40700 33.87300
H  35.72800 0.29000 35.03000
H  34.31500 0.62400 34.11400
H  34.44400 0.69800 36.83200
H  33.28100 1.52200 35.75100
H  42.32800 -0.76500 31.51200
H  41.39600 0.09400 32.64000
H  42.46000 0.87600 31.34400
H  43.50200 -0.32500 29.52700
H  43.75200 -1.37900 28.09600
H  43.03300 -2.02700 29.50700
H  37.48600 -0.85000 25.20600
H  35.46700 1.24800 24.54500
H  38.66900 0.30900 23.75500
H  38.72800 1.69400 24.92000
H  37.48600 1.67400 23.74900
H  35.57200 -1.31600 24.12500
H  34.02800 -0.38100 24.10100
H  33.10400 -1.95500 25.45000
H  34.28400 -1.58100 26.76900
H  34.56100 -2.77200 25.57800
H  31.13100 1.86700 27.15200
H  30.78000 3.31900 28.16300
H  30.51300 1.72700 28.84200
H  32.58100 2.14100 33.41100
H  32.49400 5.61200 35.75800
H  30.74200 5.43500 35.21700
H  31.87200 6.20200 34.15800
Mg 36.03000 50.12900 25.85700
C  36.07000 48.23800 28.69900
C  34.56700 52.64300 27.71500
C  35.52700 51.91400 23.04200
C  36.93500 47.39800 23.91700
N  35.51900 50.49400 27.97400
C  35.65000 49.48700 28.90900
C  35.33400 50.11000 30.32800
C  34.58800 51.35700 29.97800
C  34.87000 51.53100 28.44100
C  32.97600 51.37200 30.29000
C  36.56000 50.33000 31.20400
C  36.35800 49.59800 32.53400
H  34.98800 49.67900 33.16600
N  35.30100 52.06600 25.44800
C  34.80900 52.94500 26.38500
C  34.38900 54.12900 25.71500
C  34.69500 54.02700 24.34500
C  35.22800 52.62300 24.19000
C  33.81000 55.25900 26.38500
C  34.41800 55.00400 23.13500
O  34.70900 54.72000 21.92900
C  33.82400 56.42400 23.30800
N  36.36200 49.81100 23.75100
C  36.07900 50.68800 22.78200
C  36.42800 50.11800 21.39300
C  36.93600 48.71400 21.71400
C  36.66700 48.56400 23.21700
C  35.27800 50.25000 20.32700
C  38.31800 48.41200 21.17500
C  39.50900 48.92300 22.02900
N  36.40800 48.17200 26.17600
C  36.80000 47.16700 25.29600
C  37.15200 45.98300 26.07900
C  36.86400 46.35300 27.42200
C  36.44100 47.69700 27.39600
C  37.48700 44.66500 25.50200
C  36.86100 45.82900 28.73900
O  37.24100 44.74000 29.15300
C  36.21100 47.03600 29.63800
C  34.89900 46.48300 30.11800
O  33.91500 46.29100 29.47800
O  35.01400 46.11000 31.38200
C  33.86200 45.56600 32.05400
H  34.07500 53.31800 28.41900
H  35.38700 52.43700 22.09300
H  37.41600 46.57700 23.38100
H  34.62400 49.45700 30.83500
H  34.96800 52.22600 30.51600
H  32.72500 50.37500 30.65300
H  32.41800 51.65800 29.39800
H  32.77600 51.83200 31.25700
H  36.69500 51.40500 31.31900
H  37.44200 49.84400 30.78600
H  37.12100 50.00500 33.19800
H  36.70900 48.57800 32.37400
H  33.51000 55.15900 27.42800
H  32.91300 55.45100 25.79700
H  34.53700 56.06400 26.27200
H  34.28900 57.09500 24.03000
H  32.77200 56.40200 23.59200
H  33.72200 56.92500 22.34500
H  37.27300 50.68800 21.00500
H  36.24300 47.97300 21.31500
H  34.51700 50.92200 20.72500
H  34.91700 49.26800 20.02100
H  35.60400 50.76000 19.42000
H  38.43200 48.88000 20.19700
H  38.35500 47.33100 21.04500
H  39.95700 48.06500 22.53100
H  39.15100 49.64900 22.75900
H  40.31300 49.33100 21.41600
H  37.96800 44.01600 26.23400
H  38.21300 44.86700 24.71400
H  36.63700 44.14300 25.06200
H  36.80000 47.35100 30.49900
H  33.04200 46.27100 31.92000
H  34.04100 45.32100 33.10100
H  33.42800 44.66600 31.61800

