158

Mg 29.76800 57.70100 40.71300
C  27.16100 55.46600 39.83800
C  31.98900 55.29100 39.48100
C  32.26200 60.02300 40.77800
C  27.48000 60.12500 41.43600
N  29.55300 55.63400 39.69000
C  28.44400 54.90100 39.59000
C  28.70600 53.46200 38.99600
C  30.29000 53.41200 39.06900
C  30.69700 54.87100 39.43800
C  30.89500 52.40400 40.06500
C  28.05400 53.06400 37.73000
C  27.66700 54.17100 36.67200
H  28.38300 54.11800 35.25000
N  31.85300 57.62800 40.22300
C  32.57400 56.53900 39.77500
C  33.90100 56.84400 39.59300
C  33.99000 58.26300 39.91900
C  32.66800 58.72900 40.36800
C  34.92200 55.86800 39.19400
C  35.30500 59.09600 39.85700
O  36.34000 58.69700 39.38100
C  35.32500 60.42200 40.44200
N  29.86700 59.80000 41.16300
C  30.97500 60.45500 41.14000
C  30.81400 61.95600 41.51000
C  29.31300 61.97000 42.06500
C  28.82400 60.59400 41.51300
C  31.73100 62.47500 42.61500
C  28.40600 63.22100 41.69600
C  28.20900 64.16400 42.83700
N  27.76200 57.84000 40.74900
C  26.95600 58.88900 41.11100
C  25.59500 58.50700 41.07800
C  25.63300 57.21300 40.64300
C  26.96500 56.82400 40.37600
C  24.35700 59.32800 41.32200
C  24.84000 55.99400 40.27500
O  23.65900 55.83000 40.24700
C  25.82500 54.84300 39.72400
C  25.78400 53.65900 40.57300
O  25.78300 53.68700 41.80600
O  25.70000 52.57900 39.77100
C  25.91600 51.27000 40.43500
H  32.66900 54.47100 39.24200
H  33.06300 60.76400 40.73100
H  26.75400 60.88100 41.74200
H  28.51900 52.70100 39.75500
H  30.79000 53.13400 38.14100
H  30.21200 51.58500 40.29100
H  30.93900 52.76200 41.09400
H  31.79000 51.90400 39.69700
H  27.10500 52.56600 37.93100
H  28.75000 52.41600 37.19800
H  27.82000 55.15100 37.12400
H  26.61600 53.95600 36.47800
H  35.89800 56.31300 39.00000
H  34.59500 55.26900 38.34500
H  35.17600 55.17500 39.99600
H  34.83400 61.15700 39.80400
H  36.37300 60.71400 40.37400
H  35.13500 60.62000 41.49700
H  30.94300 62.48300 40.56500
H  29.28400 61.90100 43.15300
H  32.63400 62.94300 42.22400
H  32.08900 61.61500 43.18100
H  31.18800 63.11400 43.31200
H  27.51900 62.99000 41.10700
H  29.11400 63.83200 41.13600
H  28.69900 65.12900 42.70300
H  28.52100 63.77500 43.80700
H  27.14700 64.36500 42.98100
H  24.43700 59.57500 42.38100
H  23.43800 58.75900 41.18200
H  24.23400 60.21900 40.70600
H  25.45300 54.62900 38.72200
H  26.02700 50.47300 39.70000
H  25.05400 50.92500 41.00700
H  26.76100 51.39000 41.11400
Mg -4.43200 24.43200 25.64000
C  -3.48600 26.15500 28.63900
C  -6.59600 22.58700 27.36000
C  -5.09600 22.79300 22.74900
C  -2.05100 26.45100 23.87500
N  -4.88300 24.42800 27.79900
C  -4.50900 25.18300 28.90000
C  -5.29100 24.77800 30.15200
C  -6.06400 23.45700 29.65400
C  -5.85400 23.50700 28.15600
C  -5.65000 22.14400 30.38900
C  -6.21700 25.87800 30.70500
C  -6.13500 26.03400 32.27400
H  -5.81500 24.79000 33.08800
N  -5.69200 22.98600 25.11900
C  -6.55800 22.38400 25.95600
C  -7.35900 21.34800 25.20200
C  -6.81400 21.43800 23.88400
C  -5.76800 22.39400 23.86400
C  -8.51500 20.50900 25.81900
C  -7.23500 20.57500 22.71100
O  -6.78200 20.68200 21.56300
C  -8.00800 19.31700 22.89900
N  -3.85200 24.69800 23.60900
C  -4.14800 23.76800 22.69900
C  -3.29100 23.98700 21.33500
C  -2.50700 25.30500 21.70000
C  -2.88400 25.59800 23.11100
C  -2.54600 22.69000 20.91600
C  -2.71500 26.47200 20.68200
C  -1.45800 26.83900 19.94300
N  -2.93800 25.94000 26.07300
C  -2.08700 26.63800 25.28400
C  -1.31500 27.57400 26.13100
C  -1.79600 27.36600 27.42800
C  -2.85400 26.40200 27.35600
C  -0.30600 28.51100 25.53700
C  -1.79400 27.92500 28.81800
O  -1.21600 28.93800 29.28200
C  -2.88800 27.04400 29.68600
C  -2.23200 26.40200 30.82300
O  -1.45700 25.46400 30.70100
O  -2.52600 27.05800 31.95500
C  -1.90400 26.50000 33.20300
H  -7.26500 21.97900 27.97200
H  -5.08200 22.32200 21.76400
H  -1.25200 27.02300 23.39700
H  -4.58500 24.37900 30.88000
H  -7.14300 23.40300 29.79800
H  -5.09100 21.53800 29.67600
H  -6.54900 21.56900 30.61100
H  -5.16500 22.41900 31.32600
H  -7.18900 25.86600 30.21300
H  -5.73600 26.81200 30.41500
H  -7.11700 26.38100 32.59300
H  -5.43600 26.81100 32.58500
H  -8.28700 19.45600 25.98000
H  -9.41100 20.63900 25.21200
H  -8.68500 20.88100 26.82900
H  -7.99200 18.72100 21.98600
H  -9.04400 19.58600 23.10400
H  -7.64500 18.80100 23.78800
H  -3.93900 24.20900 20.48700
H  -1.46100 25.01000 21.61100
H  -2.69100 22.55600 19.84400
H  -2.90900 21.85500 21.51500
H  -1.50400 22.65700 21.23500
H  -3.06000 27.34200 21.24100
H  -3.47100 26.24900 19.92800
H  -0.64100 26.11700 19.94300
H  -1.17700 27.83400 20.28700
H  -1.90700 26.95000 18.95600
H  -0.79200 29.47600 25.39500
H  -0.10200 28.39100 24.47300
H  0.64200 28.55700 26.07400
H  -3.65300 27.70600 30.09200
H  -0.82500 26.40700 33.08500
H  -2.32900 25.57200 33.58600
H  -2.16000 27.15100 34.03900

