158

Mg 47.34800 25.31800 27.72400
C  48.11700 27.50600 30.34300
C  47.07200 22.78600 29.97200
C  46.77200 23.20400 25.13900
C  48.14200 27.89800 25.50900
N  47.66100 25.23900 29.89800
C  47.82700 26.21700 30.81400
C  47.65600 25.83700 32.27500
C  47.46400 24.29700 32.05800
C  47.43000 24.04100 30.58200
C  48.60000 23.47600 32.79500
C  46.57300 26.59500 33.01800
C  46.31000 25.99200 34.49500
H  45.85500 26.94300 35.57300
N  46.95900 23.28500 27.59700
C  46.92600 22.39100 28.59600
C  46.56800 21.10300 28.15300
C  46.37900 21.17400 26.68900
C  46.76900 22.62100 26.39100
C  46.22200 19.97300 29.11200
C  45.92900 20.03100 25.66400
O  45.72100 20.36500 24.51700
C  45.62200 18.54800 26.10100
N  47.61000 25.47300 25.65700
C  47.06400 24.51900 24.80600
C  47.20400 24.87100 23.35300
C  47.53600 26.42500 23.41200
C  47.73400 26.63400 24.95900
C  48.17900 24.07700 22.46800
C  46.43900 27.31900 22.71500
C  46.93800 28.54400 21.96700
N  48.10200 27.32400 27.83700
C  48.34200 28.25300 26.83500
C  48.77800 29.46900 27.42300
C  48.62300 29.25100 28.82900
C  48.28500 27.88900 29.01500
C  49.11700 30.79300 26.74400
C  48.69600 29.88700 30.16400
O  49.05700 31.02100 30.45600
C  48.39800 28.76300 31.14200
C  49.50100 28.67700 32.16800
O  50.60400 28.19700 32.13000
O  49.00000 29.15400 33.32200
C  49.86200 29.10100 34.51300
H  46.85500 22.15200 30.83500
H  46.54900 22.47600 24.35600
H  48.36700 28.76300 24.88100
H  48.66100 25.94400 32.68300
H  46.51600 23.98400 32.49500
H  49.08500 22.64900 32.27600
H  48.12700 23.12000 33.71000
H  49.45400 24.10500 33.04600
H  45.61200 26.51700 32.51000
H  46.84400 27.64300 33.14700
H  47.13800 25.39700 34.88100
H  45.48700 25.28100 34.41600
H  45.15700 19.84800 28.91600
H  46.41800 20.33200 30.12200
H  46.90700 19.15900 28.87400
H  44.66900 18.45100 26.62300
H  46.46000 18.23700 26.72500
H  45.60700 17.87000 25.24800
H  46.24600 24.66200 22.87600
H  48.46400 26.66600 22.89300
H  49.07400 24.52800 22.04100
H  47.64900 23.64000 21.62200
H  48.59500 23.24800 23.04200
H  45.68600 27.62100 23.44300
H  45.94700 26.70300 21.96100
H  46.53700 28.59300 20.95400
H  48.01700 28.67400 22.05200
H  46.57100 29.46600 22.41700
H  48.33800 31.51200 27.00000
H  49.37200 30.72000 25.68700
H  50.04500 31.05700 27.25200
H  47.51300 29.10400 31.67800
H  49.51200 29.75000 35.31600
H  50.87100 29.45300 34.29500
H  49.93300 28.06400 34.83900
Mg -2.59700 35.12500 27.02300
C  -4.44000 33.05800 29.24300
C  -1.62500 36.90400 29.75300
C  -0.75600 36.84000 24.92700
C  -3.97000 33.35400 24.26600
N  -3.13100 35.09800 29.23400
C  -3.71400 34.05000 29.90800
C  -3.61400 34.18000 31.43900
C  -3.08800 35.60500 31.50200
C  -2.51600 35.95500 30.13200
C  -3.99900 36.73300 32.00500
C  -2.72400 32.99700 32.06800
C  -3.25400 32.38400 33.40200
H  -3.95500 33.36500 34.34300
N  -1.35000 36.59700 27.32000
C  -0.92300 37.10100 28.55600
C  0.03700 38.08800 28.24500
C  0.30900 38.09300 26.87400
C  -0.65200 37.11300 26.26900
C  0.56900 39.01100 29.31400
C  1.39800 38.88900 26.06800
O  1.51000 38.74700 24.87300
C  2.37500 39.71100 26.76400
N  -2.48000 35.19100 24.81900
C  -1.57900 35.97000 24.21700
C  -1.56900 35.79000 22.68200
C  -2.54900 34.59600 22.49500
C  -3.09200 34.35400 23.94100
C  -1.83200 37.16400 21.98900
C  -2.00300 33.39500 21.69000
C  -1.28600 32.26000 22.46900
N  -3.92200 33.57800 26.74600
C  -4.31300 32.95400 25.59200
C  -5.21600 31.86600 25.93000
C  -5.33300 31.87900 27.33400
C  -4.55000 32.99100 27.78700
C  -5.86100 30.89900 24.94000
C  -5.81200 31.15300 28.52300
O  -6.53100 30.18600 28.55400
C  -5.28600 31.85000 29.76000
C  -6.41300 32.34300 30.64200
O  -7.27100 33.13800 30.33800
O  -6.41800 31.58200 31.82100
C  -7.46400 31.88000 32.82100
H  -1.34300 37.60000 30.54700
H  0.00500 37.24900 24.25900
H  -4.18100 32.61600 23.48900
H  -4.58100 34.32200 31.92200
H  -2.28100 35.67700 32.23100
H  -4.33200 36.32100 32.95700
H  -4.87100 36.93600 31.38200
H  -3.39200 37.60100 32.26400
H  -1.75600 33.43600 32.30800
H  -2.66300 32.15400 31.37900
H  -2.44800 32.07400 34.06700
H  -3.90700 31.54100 33.17800
H  0.14300 39.00400 30.31700
H  0.57700 40.02200 28.90700
H  1.60500 38.71300 29.48200
H  1.81600 40.46900 27.31300
H  2.99900 40.16500 25.99400
H  2.96600 39.06800 27.41700
H  -0.60500 35.42800 22.32500
H  -3.48700 34.92200 22.04600
H  -0.95600 37.80400 22.09700
H  -2.74800 37.72000 22.19000
H  -1.87700 36.96400 20.91800
H  -1.36500 33.80700 20.90800
H  -2.67700 32.85000 21.02900
H  -0.48300 31.81700 21.88100
H  -1.96600 31.43300 22.67200
H  -0.78700 32.81800 23.26100
H  -6.70900 30.43200 25.44200
H  -5.11100 30.17600 24.62100
H  -6.18700 31.47000 24.07000
H  -4.52500 31.18600 30.16900
H  -7.11200 32.77400 33.33600
H  -7.51000 31.10400 33.58500
H  -8.45900 31.97800 32.38700

