158

Mg 54.41300 24.69100 45.30900
C  51.92000 26.64600 43.84000
C  53.43500 22.07100 43.58900
C  57.34500 23.06900 46.32300
C  55.86900 27.66500 46.59100
N  52.92600 24.44000 43.93200
C  52.02700 25.34100 43.33300
C  51.03100 24.65800 42.34900
C  51.47700 23.18300 42.37400
C  52.68400 23.23200 43.30800
C  50.39100 22.19300 42.81900
C  50.92800 25.31500 40.92700
C  50.76000 24.46600 39.62700
H  51.83700 24.83000 38.60200
N  55.25500 22.80500 45.00000
C  54.64200 21.87800 44.30700
C  55.37100 20.65400 44.50200
C  56.53400 20.86200 45.22900
C  56.43300 22.31400 45.56000
C  54.83300 19.40800 43.97400
C  57.63300 19.88900 45.46500
O  57.64600 18.79900 44.93400
C  58.80600 20.11200 46.50300
N  56.43600 25.31700 46.14300
C  57.39300 24.42900 46.54400
C  58.48300 25.20400 47.39500
C  58.09200 26.67100 47.01300
C  56.64500 26.50000 46.64200
C  58.58100 24.79700 48.84600
C  58.95600 27.50800 45.96100
C  59.51500 28.85100 46.43300
N  54.01100 26.72100 45.31100
C  54.60300 27.80300 45.96300
C  53.74900 28.94500 45.97400
C  52.68500 28.48500 45.19800
C  52.90400 27.19100 44.73600
C  53.93800 30.10900 46.84900
C  51.41700 28.88000 44.68500
O  50.80100 29.90200 44.79900
C  50.89600 27.71600 43.80400
C  50.56700 28.30400 42.49700
O  51.30900 28.57000 41.54100
O  49.15900 28.36400 42.45800
C  48.55500 28.67200 41.14800
H  53.13900 21.17100 43.04600
H  58.21000 22.58700 46.78200
H  56.24600 28.62400 46.95200
H  50.00600 24.70900 42.71800
H  51.99600 22.78200 41.50400
H  50.34800 21.76600 43.82100
H  50.71300 21.32700 42.24100
H  49.45300 22.66400 42.52300
H  51.76000 26.00700 40.79800
H  50.07800 25.99700 40.92700
H  49.73100 24.57700 39.28700
H  50.83800 23.41600 39.91000
H  53.81600 19.20800 44.31100
H  55.31300 18.46900 44.25400
H  54.70800 19.56900 42.90400
H  59.09900 19.13700 46.89200
H  58.32700 20.56700 47.37000
H  59.67800 20.62600 46.09700
H  59.42800 24.91500 46.93300
H  58.13300 27.14400 47.99400
H  58.89700 25.66600 49.42300
H  59.36900 24.07100 49.04900
H  57.62900 24.46900 49.26500
H  58.32900 27.75300 45.10400
H  59.79200 26.88300 45.64800
H  59.17700 29.71300 45.85800
H  60.60300 28.79300 46.45300
H  59.18700 29.03400 47.45700
H  53.03300 30.26800 47.43400
H  54.07800 30.89800 46.11100
H  54.77500 29.98700 47.53700
H  49.93500 27.29500 44.10000
H  48.51900 29.75500 41.02900
H  47.52300 28.32500 41.09600
H  49.02600 28.10200 40.34800
Mg 47.06000 16.65900 28.21200
C  44.96500 16.22200 30.94200
C  49.09500 18.60500 30.32900
C  48.77200 17.66100 25.48500
C  44.61100 15.23000 26.22900
N  46.93200 17.44200 30.37100
C  46.09000 16.95800 31.27300
C  46.46600 17.41500 32.69400
C  47.66200 18.40700 32.43500
C  47.96600 18.18200 30.92800
C  47.64800 19.89300 32.81400
C  46.83800 16.21100 33.63900
C  46.22300 16.21700 34.92700
H  45.73800 17.60100 35.56800
N  48.79300 17.82400 27.99100
C  49.49000 18.51700 28.94600
C  50.58800 19.21000 28.30100
C  50.58200 18.83400 26.90100
C  49.35100 18.06400 26.76600
C  51.64200 19.88600 29.14500
C  51.59300 19.18200 25.82000
O  51.42900 18.89900 24.65600
C  52.90200 19.82700 26.14300
N  46.78200 16.43800 26.19000
C  47.60700 16.88500 25.23100
C  47.04600 16.70200 23.83500
C  45.85800 15.75700 24.12200
C  45.70800 15.76700 25.58400
C  46.52900 18.11100 23.26500
C  46.08100 14.31300 23.65200
C  44.86300 13.42700 23.35100
N  45.18100 15.76000 28.57600
C  44.30400 15.21600 27.63000
C  43.19600 14.59500 28.31300
C  43.43500 14.93000 29.69400
C  44.60900 15.76200 29.67800
C  42.07900 13.87300 27.75200
C  42.84600 14.92100 31.05300
O  41.81800 14.40600 31.45800
C  43.85800 15.81200 31.92800
C  43.06800 16.98600 32.43300
O  42.76800 17.94300 31.77300
O  42.67700 16.81100 33.74400
C  41.89200 17.89200 34.38700
H  49.70400 19.19600 31.01700
H  49.29200 17.92100 24.56000
H  43.79400 14.83500 25.62200
H  45.70900 18.07700 33.11500
H  48.57300 18.06000 32.92200
H  46.79300 20.31200 33.34500
H  47.82700 20.59400 31.99900
H  48.50200 19.95000 33.48900
H  47.90200 16.01600 33.78000
H  46.46800 15.32100 33.13000
H  46.91800 15.77000 35.63800
H  45.41100 15.49100 34.96700
H  52.67100 19.72800 28.82200
H  51.69600 19.60500 30.19700
H  51.47900 20.96400 29.15400
H  52.74100 20.76500 26.67400
H  53.37400 20.11000 25.20200
H  53.46800 19.08400 26.70600
H  47.80900 16.28300 23.17900
H  44.93800 16.10400 23.65100
H  46.33500 18.87400 24.01800
H  45.66500 17.84700 22.65400
H  47.29300 18.57800 22.64300
H  46.70900 13.77000 24.35900
H  46.69000 14.32200 22.74800
H  43.94800 13.74600 23.84800
H  45.15400 12.42400 23.66500
H  44.71400 13.39600 22.27100
H  41.50800 13.56000 28.62600
H  42.28700 13.08800 27.02400
H  41.39800 14.55500 27.24400
H  44.01900 15.20500 32.81900
H  42.24700 18.88500 34.11300
H  42.15200 17.75200 35.43700
H  40.80400 17.83800 34.35500

