158

Mg 17.04600 -1.77100 28.07700
C  16.30600 0.26600 30.95000
C  18.88300 -3.73400 30.29400
C  18.31600 -3.44700 25.39700
C  15.73300 0.59500 26.02000
N  17.57500 -1.67500 30.37900
C  17.08200 -0.86000 31.33700
C  17.60600 -1.16200 32.72200
C  18.55100 -2.36600 32.44100
C  18.27500 -2.63200 30.96400
C  20.11600 -2.28500 32.73900
C  16.46400 -1.48000 33.79000
C  16.68200 -0.91800 35.19400
H  18.07000 -0.34600 35.55800
N  18.24100 -3.45300 27.86100
C  18.84800 -4.15200 28.90600
C  19.42200 -5.40000 28.38600
C  19.33000 -5.33400 26.95700
C  18.59200 -4.03800 26.69200
C  20.04800 -6.46600 29.29000
C  19.78900 -6.30100 25.97400
O  19.71000 -6.12500 24.76600
C  20.64700 -7.48400 26.38500
N  17.00000 -1.53800 26.05500
C  17.57400 -2.27700 25.11100
C  17.54800 -1.68700 23.72900
C  16.58500 -0.55000 24.04900
C  16.39700 -0.52400 25.46200
C  18.95300 -1.18500 23.26000
C  15.22500 -0.67800 23.23200
C  14.98600 0.54500 22.22800
N  16.14200 -0.02500 28.35800
C  15.63700 0.75500 27.41400
C  14.88100 1.85400 28.00600
C  15.11400 1.69800 29.42000
C  15.99900 0.60500 29.58200
C  14.06800 2.85000 27.31700
C  14.90700 2.32900 30.72700
O  14.38000 3.31600 31.07500
C  15.55400 1.34600 31.75200
C  16.55500 2.11000 32.51900
O  17.66500 2.40400 32.21500
O  15.98200 2.52500 33.74100
C  16.82400 3.51300 34.42900
H  19.46800 -4.25900 31.05200
H  18.50600 -4.04100 24.50000
H  15.23700 1.24900 25.30000
H  18.26200 -0.35500 33.04900
H  18.23800 -3.26900 32.96600
H  20.33800 -1.33800 33.23100
H  20.71900 -2.38500 31.83700
H  20.28500 -3.20600 33.29700
H  16.21600 -2.53900 33.72900
H  15.64900 -0.85800 33.42100
H  16.40000 -1.75700 35.83100
H  15.93200 -0.14600 35.36700
H  19.87300 -6.33500 30.35800
H  21.13400 -6.53100 29.35800
H  19.69800 -7.47700 29.08300
H  19.97100 -8.19300 26.86200
H  21.47600 -7.28500 27.06300
H  21.18600 -8.08300 25.65000
H  17.26700 -2.45800 23.01200
H  17.04000 0.36800 23.67600
H  19.03200 -0.09900 23.32200
H  19.02100 -1.50900 22.22200
H  19.74900 -1.71600 23.78200
H  14.43500 -0.79400 23.97400
H  15.11100 -1.52100 22.55000
H  14.60700 0.16400 21.27900
H  15.88400 1.14300 22.07200
H  14.18700 1.16000 22.64100
H  13.13300 2.45600 26.91700
H  14.56700 3.32000 26.47000
H  13.75600 3.70100 27.92300
H  14.89400 1.01400 32.55400
H  17.03000 4.27300 33.67600
H  17.74600 3.06300 34.79700
H  16.28100 4.03800 35.21500
Mg 35.73400 1.37800 29.23300
C  33.52200 2.44200 31.69600
C  38.20200 1.06500 31.62400
C  37.83000 0.51100 26.83700
C  33.23300 2.00000 26.73300
N  35.87100 1.87300 31.36600
C  34.81600 2.12000 32.17200
C  35.22500 2.02400 33.68500
C  36.72600 1.77000 33.57600
C  36.98400 1.49700 32.09500
C  37.53300 3.00800 33.97600
C  34.42100 0.85800 34.43200
C  33.97600 1.37000 35.82100
H  34.75500 2.41900 36.52000
N  37.68200 0.95200 29.25600
C  38.50800 0.69700 30.32600
C  39.77300 0.10500 29.90600
C  39.75500 0.09100 28.46500
C  38.40200 0.55500 28.09600
C  40.78700 -0.25300 30.91200
C  40.88500 -0.23000 27.52100
O  40.85400 -0.11800 26.27200
C  42.03900 -0.99600 28.10800
N  35.49400 1.23700 27.17000
C  36.54400 0.90100 26.34800
C  36.20800 0.71800 24.89300
C  34.76700 1.24700 24.78200
C  34.42300 1.43500 26.31100
C  37.24500 1.37000 23.87900
C  33.83300 0.22200 24.08100
C  32.58900 0.67200 23.30900
N  33.74800 2.09400 29.16200
C  32.92700 2.33800 28.10200
C  31.70400 2.87200 28.63400
C  31.89800 2.95600 30.01300
C  33.13000 2.46800 30.30200
C  30.44200 3.07200 27.95100
C  31.25000 3.26900 31.22900
O  30.17900 3.67900 31.30800
C  32.25300 2.96400 32.37700
C  32.53700 4.20500 33.18000
O  33.29300 5.07200 32.83500
O  31.79900 4.26200 34.30900
C  31.96100 5.47800 35.20700
H  39.06200 1.04300 32.29700
H  38.50800 0.07000 26.10300
H  32.56600 2.23400 25.90100
H  35.00700 2.98900 34.14100
H  36.99500 0.85800 34.10900
H  36.85900 3.69100 34.49400
H  37.98600 3.51800 33.12600
H  38.30800 2.65400 34.65500
H  35.12900 0.03700 34.54900
H  33.50600 0.74300 33.85200
H  34.02200 0.55300 36.54100
H  32.97300 1.74300 35.61500
H  40.84900 0.53600 31.66200
H  41.82700 -0.39900 30.62200
H  40.62800 -1.24200 31.34100
H  41.90500 -1.73500 28.89900
H  42.77200 -0.24900 28.41300
H  42.43200 -1.55100 27.25600
H  36.22500 -0.34200 24.63800
H  34.60000 2.17800 24.23800
H  36.72800 1.99500 23.15100
H  37.65300 0.61100 23.21200
H  38.06600 1.85400 24.40800
H  33.57200 -0.52400 24.83200
H  34.44300 -0.30700 23.34900
H  32.52600 0.14000 22.36000
H  32.49100 1.75200 23.19900
H  31.72500 0.28900 23.85100
H  30.22400 2.15700 27.40000
H  30.53900 3.85600 27.20000
H  29.62500 3.24100 28.65200
H  31.89000 2.15200 33.00800
H  32.72200 6.19900 34.90800
H  32.22900 5.21000 36.23000
H  30.98300 5.95900 35.24000

