158

Mg 25.48300 1.30400 29.78400
C  27.57900 1.05200 32.50700
C  22.76000 1.81500 31.90700
C  23.45100 1.27100 27.10100
C  28.16400 0.36700 27.69100
N  25.22300 1.26900 31.93300
C  26.24000 1.29200 32.85100
C  25.73300 1.46900 34.31900
C  24.23800 1.79700 34.13100
C  24.04100 1.58500 32.63100
C  23.23300 1.06100 34.93400
C  26.50900 2.64800 34.93100
C  26.83200 2.44800 36.41600
H  26.62800 3.45400 37.50500
N  23.40300 1.61800 29.56400
C  22.51400 1.77600 30.51900
C  21.18000 1.89200 29.92200
C  21.34700 1.77700 28.58300
C  22.75700 1.55500 28.35500
C  19.94500 2.13700 30.72100
C  20.26800 1.86700 27.51100
O  20.57200 1.85300 26.32300
C  18.82700 2.01700 27.87400
N  25.72300 0.89400 27.73200
C  24.75900 1.02800 26.75800
C  25.29500 0.88400 25.31700
C  26.79900 0.68800 25.57500
C  26.92400 0.57400 27.13500
C  24.60100 -0.23400 24.57300
C  27.67300 1.82900 24.99100
C  28.60200 1.29900 23.87500
N  27.46600 0.56900 30.02700
C  28.39800 0.34100 29.08600
C  29.62900 0.17000 29.84900
C  29.42100 0.43100 31.17500
C  28.05600 0.73100 31.22300
C  30.95800 -0.17600 29.34700
C  29.98900 0.44700 32.47500
O  31.11200 0.17600 32.89000
C  28.79200 0.78300 33.46400
C  28.61900 -0.31300 34.43100
O  28.12700 -1.41200 34.19400
O  29.12500 0.07800 35.66700
C  29.06500 -0.96100 36.66900
H  21.99000 2.24500 32.55100
H  22.74700 1.37000 26.27200
H  29.06100 0.35500 27.06900
H  25.97100 0.51400 34.78800
H  23.89800 2.82800 34.22400
H  22.98800 1.79000 35.70600
H  23.70700 0.13000 35.24600
H  22.33800 0.78200 34.37700
H  25.83500 3.49700 35.03500
H  27.38400 2.83300 34.30700
H  27.87600 2.14300 36.48800
H  26.36600 1.52200 36.75100
H  20.11000 2.03800 31.79400
H  19.25500 1.33600 30.45500
H  19.38500 3.06800 30.63800
H  18.24300 2.39100 27.03200
H  18.62000 2.79200 28.61300
H  18.38800 1.05300 28.12900
H  25.10900 1.84200 24.83200
H  27.11900 -0.26400 25.15200
H  23.67900 0.10400 24.09900
H  24.32900 -1.02400 25.27400
H  25.34900 -0.77300 23.99100
H  28.25000 2.34900 25.75600
H  27.02500 2.59200 24.56100
H  29.13500 0.38800 24.14800
H  29.28600 2.11400 23.63700
H  28.09900 1.05200 22.94000
H  31.21100 -1.08600 29.89100
H  31.70100 0.58000 29.60100
H  31.02700 -0.42800 28.28900
H  29.07600 1.72200 33.93800
H  28.25100 -1.68400 36.61700
H  28.80700 -0.46500 37.60500
H  30.05600 -1.40500 36.76300
Mg 16.81500 51.75500 26.79700
C  18.88200 50.48200 29.22400
C  14.58000 52.78500 29.17200
C  14.74800 52.61000 24.25600
C  19.01300 50.40800 24.38600
N  16.69500 51.49500 28.82800
C  17.72800 51.08800 29.74200
C  17.34500 51.31500 31.15900
C  15.84400 51.74600 31.14100
C  15.70100 52.00700 29.62700
C  14.86000 50.72600 31.79100
C  18.25300 52.45000 31.77900
C  18.40200 52.46200 33.31100
H  17.44400 51.51600 34.18200
N  15.00000 52.73200 26.67000
C  14.25200 53.04500 27.84200
C  13.13800 53.85200 27.38500
C  13.17600 53.85400 25.90200
C  14.37300 53.03100 25.55000
C  12.11100 54.44400 28.38600
C  12.19300 54.54700 24.92300
O  12.36700 54.50300 23.70900
C  11.01300 55.29800 25.42500
N  16.89600 51.43700 24.62400
C  15.90000 51.93800 23.86100
C  16.17800 51.65000 22.35900
C  17.62900 50.99700 22.37000
C  17.88800 50.92700 23.87400
C  15.15900 50.67600 21.84400
C  18.73900 51.85200 21.58400
C  19.04600 53.21300 22.07800
N  18.54900 50.65900 26.78700
C  19.33000 50.25400 25.74600
C  20.47700 49.52100 26.25500
C  20.34600 49.66100 27.60600
C  19.16200 50.34700 27.89500
C  21.59200 48.81700 25.49700
C  21.01000 49.32500 28.89400
O  22.05800 48.76500 29.07400
C  20.01800 49.80900 30.04600
C  19.47500 48.67300 30.83000
O  18.77300 47.83500 30.34400
O  19.96800 48.65000 32.11100
C  19.54700 47.53200 32.86900
H  13.95600 53.08000 30.01800
H  14.11000 52.84200 23.40100
H  19.64200 49.89300 23.65600
H  17.54600 50.39700 31.71000
H  15.67400 52.71500 31.61000
H  15.46700 49.97700 32.29900
H  14.29600 50.21600 31.00900
H  14.17900 51.22500 32.48100
H  17.80900 53.40400 31.49500
H  19.28400 52.34400 31.44000
H  18.04800 53.45400 33.59100
H  19.43000 52.25100 33.60400
H  12.58800 55.26000 28.92900
H  11.96900 53.69000 29.15900
H  11.14200 54.71700 27.96800
H  10.22400 54.57300 25.62700
H  10.72300 55.97400 24.62100
H  11.40500 55.99900 26.16100
H  16.18900 52.54800 21.74100
H  17.55700 49.95300 22.06500
H  14.58500 51.32200 21.17900
H  14.48700 50.11500 22.49300
H  15.72000 49.99200 21.20700
H  18.52100 52.01200 20.52800
H  19.63300 51.23500 21.67700
H  18.20300 53.67800 22.59100
H  19.28800 53.85200 21.22900
H  19.94900 53.21900 22.68900
H  22.60900 49.14300 25.72100
H  21.45100 48.97800 24.42900
H  21.64400 47.78100 25.83100
H  20.52400 50.54300 30.67300
H  18.46300 47.54400 32.98200
H  19.98600 47.49600 33.86600
H  19.70300 46.52100 32.49300

