158

Mg 41.86600 40.86900 26.67400
C  40.87400 43.28300 28.92300
C  42.99400 38.92500 29.21800
C  42.89800 38.63800 24.32000
C  41.20700 43.20500 24.12500
N  41.89200 41.09100 28.82000
C  41.31200 42.07700 29.49100
C  41.30100 41.75200 31.00900
C  42.34600 40.65100 31.10200
C  42.45300 40.19800 29.65000
C  43.75800 40.90400 31.46500
C  39.96600 41.61900 31.68500
C  39.56000 42.44200 32.98400
H  39.39100 41.59500 34.30300
N  42.75700 39.01600 26.72700
C  43.16000 38.36100 27.91800
C  43.66500 37.02600 27.55500
C  43.67200 36.94700 26.13800
C  43.08300 38.24300 25.66300
C  44.07900 36.01200 28.59200
C  44.20600 35.90600 25.21600
O  44.32700 36.04900 23.98600
C  44.67200 34.55300 25.79600
N  42.08700 40.94100 24.49400
C  42.46400 39.84300 23.72100
C  42.29500 40.17400 22.27500
C  41.73300 41.61400 22.20500
C  41.66000 41.96000 23.70900
C  43.68200 40.02700 21.44800
C  40.35500 41.72100 21.56400
C  40.41300 42.13600 20.08400
N  41.22800 42.88800 26.48800
C  40.96900 43.66600 25.38200
C  40.29700 44.83400 25.83200
C  40.25700 44.80500 27.24100
C  40.87100 43.58900 27.56800
C  39.78700 45.89300 24.93000
C  39.84100 45.49800 28.55300
O  39.34100 46.58400 28.69100
C  40.20300 44.46900 29.63900
C  41.12000 45.17300 30.56300
O  42.15300 45.78300 30.19200
O  40.70500 45.08100 31.89300
C  41.44100 45.71500 32.93700
H  43.32700 38.27100 30.02700
H  43.17500 37.96700 23.50400
H  40.90200 43.85800 23.30500
H  41.81100 42.64900 31.36100
H  41.96400 39.87300 31.76300
H  43.94200 40.64600 32.50800
H  44.06500 41.93300 31.27900
H  44.49600 40.38100 30.85700
H  39.85000 40.55000 31.86400
H  39.22300 41.93300 30.95300
H  38.69500 43.07600 32.79200
H  40.48800 43.00300 33.09400
H  43.53800 35.06800 28.52400
H  43.95600 36.48400 29.56700
H  45.15300 35.88900 28.45700
H  45.41700 34.62100 26.58800
H  45.18300 34.13800 24.92700
H  43.82300 33.96000 26.13700
H  41.61700 39.35600 22.03100
H  42.44500 42.27900 21.71800
H  44.53300 39.75700 22.07400
H  43.99800 40.81900 20.77100
H  43.34200 39.20000 20.82400
H  39.71700 42.50000 21.98100
H  40.01300 40.68900 21.64400
H  39.55900 42.73900 19.77500
H  40.34700 41.19300 19.54300
H  41.32700 42.67600 19.83800
H  40.59700 46.51900 24.55400
H  39.09900 46.51700 25.50000
H  39.27900 45.37300 24.11700
H  39.42400 44.06200 30.28300
H  41.66200 45.05400 33.77500
H  40.92400 46.60300 33.30000
H  42.42500 46.06700 32.62600
Mg -10.63600 39.59400 40.26400
C  -9.81700 36.32200 39.43100
C  -7.28700 40.45300 39.32700
C  -11.50700 42.78400 40.05300
C  -13.88600 38.54500 40.79900
N  -8.77900 38.52900 39.20000
C  -8.71100 37.18000 39.11400
C  -7.30300 36.78700 38.72700
C  -6.47500 38.04100 38.98600
C  -7.53800 39.09700 39.27000
C  -5.38100 37.89500 40.03800
C  -7.13500 36.14000 37.36400
C  -7.73000 37.02600 36.24500
H  -8.87500 36.40500 35.42900
N  -9.53900 41.33400 39.86900
C  -8.22000 41.49800 39.47300
C  -7.92500 42.87600 39.47300
C  -9.11100 43.62700 39.65900
C  -10.12200 42.58400 39.87200
C  -6.55800 43.36200 39.03600
C  -9.17600 45.15000 39.59000
O  -8.22700 45.80200 39.23200
C  -10.45400 45.87300 39.87800
N  -12.53100 40.59200 40.34700
C  -12.65200 41.91100 40.20200
C  -14.08300 42.33300 39.95700
C  -14.90100 41.00500 40.42600
C  -13.71700 39.96700 40.52300
C  -14.46200 43.57800 40.73300
C  -16.08500 40.54600 39.52200
C  -17.47300 41.14800 39.91100
N  -11.66600 37.85700 40.17800
C  -12.93400 37.57900 40.55900
C  -13.13600 36.14200 40.49700
C  -11.98300 35.53300 39.99000
C  -11.08700 36.70900 39.82900
C  -14.41300 35.45000 40.83400
C  -11.28200 34.26700 39.59000
O  -11.63800 33.08800 39.50900
C  -9.87200 34.79000 39.20700
C  -8.90400 34.05000 40.10200
O  -8.72100 34.32600 41.29400
O  -8.35300 33.01300 39.43100
C  -7.19200 32.36100 40.11600
H  -6.22700 40.68500 39.20700
H  -11.86400 43.81300 39.96500
H  -14.91700 38.35600 41.10400
H  -7.05700 35.96000 39.39300
H  -5.94200 38.33400 38.08100
H  -4.46100 38.02000 39.46500
H  -5.27900 36.92800 40.53000
H  -5.39100 38.65900 40.81500
H  -7.50100 35.11600 37.28400
H  -6.07700 36.31100 37.16300
H  -7.00300 37.33600 35.49500
H  -8.09200 37.94600 36.70500
H  -6.42500 44.17500 39.75000
H  -6.60800 43.67700 37.99400
H  -5.76100 42.63400 39.19300
H  -10.92600 45.66800 40.83900
H  -11.18000 45.71500 39.08100
H  -10.10700 46.90300 39.79000
H  -14.27700 42.50500 38.89800
H  -15.35500 41.10800 41.41100
H  -13.73700 44.00900 41.42400
H  -15.32900 43.44300 41.37900
H  -14.67100 44.38500 40.03100
H  -16.17200 39.46000 39.52900
H  -15.83700 41.05800 38.59300
H  -17.44100 41.86300 40.73400
H  -18.00500 40.21600 40.09900
H  -18.00100 41.66600 39.11100
H  -15.22500 35.83400 40.21500
H  -14.68000 35.57900 41.88300
H  -14.34700 34.40900 40.51800
H  -9.60000 34.45400 38.20600
H  -7.39900 32.13100 41.16100
H  -6.38700 33.08700 40.23500
H  -6.85600 31.45400 39.61400

