158

Mg 25.41100 1.40700 30.20700
C  27.71800 0.94300 32.92200
C  22.87600 1.72300 32.51300
C  23.27600 1.53700 27.65700
C  28.02600 0.55400 28.07100
N  25.33500 1.28700 32.51100
C  26.40400 1.26300 33.37500
C  25.92900 1.57300 34.84900
C  24.39700 1.70500 34.68100
C  24.14500 1.59000 33.14300
C  23.79600 0.48500 35.41100
C  26.68300 2.87100 35.49000
C  27.10300 2.85700 36.98700
H  26.39500 3.93300 37.88300
N  23.37200 1.59900 30.11500
C  22.52400 1.76600 31.18700
C  21.15200 1.93900 30.65000
C  21.23400 1.69000 29.27900
C  22.65900 1.54700 28.95500
C  19.86700 2.27600 31.37800
C  20.20000 1.66000 28.23900
O  20.45700 1.28900 27.13800
C  18.77100 1.91900 28.62600
N  25.49000 0.85800 28.12200
C  24.55600 1.30700 27.24400
C  25.11200 1.20600 25.77200
C  26.67000 1.06100 25.93900
C  26.78300 0.86400 27.47700
C  24.50200 0.22600 24.72900
C  27.52400 2.14600 25.31300
C  27.59400 3.59100 26.02700
N  27.43100 0.88300 30.38200
C  28.41700 0.56000 29.40900
C  29.72600 0.35100 29.99200
C  29.44500 0.51100 31.37400
C  28.11600 0.80800 31.52700
C  31.07400 -0.00200 29.31200
C  30.12600 0.46500 32.63600
O  31.29700 0.34800 32.92800
C  29.03800 0.91400 33.68200
C  28.89100 -0.14600 34.88100
O  28.10300 -1.06300 34.90500
O  29.64000 0.22800 35.96300
C  29.22300 -0.49900 37.18300
H  21.97900 1.88400 33.11400
H  22.61500 1.83000 26.83800
H  28.90100 0.49600 27.42000
H  26.14700 0.69000 35.45000
H  23.84300 2.51200 35.16200
H  24.36400 0.36900 36.33400
H  23.80900 -0.30700 34.66200
H  22.77100 0.67100 35.73400
H  25.98800 3.71000 35.51100
H  27.60300 3.21900 35.02000
H  28.14200 3.17800 37.05000
H  26.95600 1.89800 37.48500
H  19.29600 1.35100 31.29200
H  19.40000 3.17100 30.96800
H  19.93000 2.38200 32.46100
H  18.22300 1.85800 27.68500
H  18.74300 2.90400 29.09100
H  18.35600 1.14900 29.27600
H  24.94600 2.20800 25.37600
H  27.21700 0.21400 25.52300
H  24.00800 0.67800 23.86900
H  23.73700 -0.44800 25.11400
H  25.22000 -0.51200 24.37100
H  27.26800 2.32000 24.26700
H  28.57500 1.85600 25.32300
H  26.94800 3.55400 26.90400
H  27.19100 4.25400 25.26100
H  28.61900 3.86100 26.27900
H  31.00400 -0.46700 28.32800
H  31.50700 -0.71200 30.01700
H  31.74600 0.84300 29.16300
H  29.32400 1.90100 34.04300
H  29.68300 -1.47900 37.31400
H  28.14900 -0.63700 37.30400
H  29.56200 0.09400 38.03200
Mg -1.91600 33.31900 25.84300
C  -3.36200 31.80700 28.62300
C  -0.15900 35.37900 27.87100
C  -0.82700 35.03200 23.11900
C  -4.09300 31.45100 23.82800
N  -1.90000 33.60000 27.97200
C  -2.48800 32.85100 28.96400
C  -1.97400 33.30300 30.32600
C  -1.19200 34.59600 30.04700
C  -1.13400 34.59200 28.51700
C  -1.98900 35.91300 30.41600
C  -1.14900 32.23400 31.19200
C  -0.97700 32.57300 32.70600
H  -1.29700 31.52000 33.74600
N  -0.57200 34.91800 25.50800
C  0.12900 35.49100 26.47300
C  1.17700 36.32800 25.84400
C  0.98400 36.39800 24.46300
C  -0.18500 35.44800 24.27900
C  2.21800 37.02900 26.74100
C  1.68300 37.08200 23.35100
O  1.51400 36.89400 22.16900
C  2.71800 37.98600 23.74600
N  -2.24300 33.15100 23.75600
C  -1.83200 34.15200 22.85600
C  -2.59500 34.09100 21.49700
C  -3.59200 32.89200 21.79600
C  -3.28700 32.42700 23.22500
C  -3.22300 35.47800 21.12300
C  -3.37900 31.80000 20.72500
C  -2.38700 30.63600 21.00900
N  -3.38100 31.95900 26.06000
C  -4.13300 31.24500 25.14700
C  -5.00100 30.30400 25.86400
C  -4.75000 30.51400 27.21800
C  -3.75800 31.49400 27.26600
C  -5.83800 29.35700 25.23300
C  -4.97000 30.05200 28.57900
O  -5.71000 29.17800 28.96000
C  -4.08900 30.87200 29.54400
C  -4.97100 31.67200 30.47900
O  -6.01200 32.25800 30.15600
O  -4.52000 31.50700 31.77600
C  -5.47300 31.82300 32.95400
H  0.54200 35.98500 28.44800
H  -0.57800 35.67500 22.27200
H  -4.77400 30.80700 23.26700
H  -2.80700 33.62900 30.95000
H  -0.24700 34.56300 30.59000
H  -2.97900 35.74500 29.99300
H  -1.67600 36.76300 29.80900
H  -2.01200 36.15300 31.47900
H  -0.16300 32.19800 30.73000
H  -1.60600 31.25000 31.08300
H  -1.73500 33.34200 32.85800
H  -0.01200 33.05400 32.86500
H  3.23400 37.17000 26.37300
H  2.50100 36.45500 27.62400
H  1.91600 38.02600 27.06000
H  2.21400 38.57800 24.51000
H  2.82400 38.66600 22.90100
H  3.66400 37.49200 23.96600
H  -1.86600 33.76200 20.75600
H  -4.62800 33.20700 21.67200
H  -4.27300 35.29300 20.89800
H  -2.77700 35.87600 20.21200
H  -3.21500 36.14500 21.98500
H  -3.08300 32.23700 19.77200
H  -4.32800 31.26800 20.64700
H  -1.97000 30.21000 20.09700
H  -2.77900 29.78100 21.56000
H  -1.62800 31.07800 21.65400
H  -5.27900 28.68400 24.58200
H  -6.62600 29.92900 24.74300
H  -6.25700 28.82600 26.08800
H  -3.27200 30.30200 29.98700
H  -5.77600 32.87000 32.96500
H  -5.05300 31.49100 33.90300
H  -6.37200 31.24100 32.74800

