158

Mg 41.17700 40.27900 27.25600
C  40.31100 42.94900 29.37900
C  42.20200 38.59100 29.92500
C  42.32900 38.00800 25.04500
C  40.83500 42.44400 24.44200
N  40.98700 40.55600 29.39400
C  40.60300 41.71200 30.03300
C  40.35100 41.51600 31.51900
C  41.05200 40.08800 31.73700
C  41.58700 39.76600 30.22600
C  42.36600 40.18500 32.66500
C  38.79500 41.65600 31.84200
C  38.51400 42.62400 32.98700
H  37.88400 42.04800 34.30200
N  42.10900 38.53000 27.45800
C  42.47500 37.99500 28.66400
C  43.10100 36.72000 28.44500
C  43.08300 36.47000 26.98600
C  42.49900 37.69100 26.43600
C  43.73100 35.94200 29.64500
C  43.59400 35.21100 26.20200
O  43.50400 34.89400 25.04300
C  44.20300 34.13900 26.96800
N  41.61600 40.29400 25.07700
C  41.99600 39.15900 24.34600
C  42.04600 39.40500 22.84300
C  41.46900 40.85300 22.74700
C  41.29600 41.23700 24.17200
C  43.49200 39.10400 22.23900
C  40.11700 40.88100 22.00300
C  38.84800 40.06600 22.47000
N  40.68800 42.29600 26.89700
C  40.58200 43.01600 25.72700
C  40.13800 44.35500 26.06400
C  40.03200 44.38100 27.50700
C  40.36800 43.05900 27.95800
C  39.90200 45.43400 25.04600
C  39.81900 45.17800 28.66800
O  39.57600 46.38100 28.78900
C  39.94500 44.29800 29.91700
C  41.08100 44.79600 30.77400
O  42.26800 44.78000 30.57100
O  40.57800 45.18300 31.99600
C  41.49700 45.56200 33.08800
H  42.49700 37.98300 30.78300
H  42.62300 37.11300 24.49200
H  40.60200 43.08000 23.58500
H  40.88300 42.28600 32.07800
H  40.35600 39.35900 32.15200
H  42.51500 41.22700 32.94900
H  43.22900 39.70100 32.20800
H  42.14800 39.52400 33.50400
H  38.48200 40.61500 31.92100
H  38.34100 42.03500 30.92700
H  37.72600 43.30800 32.67300
H  39.43200 43.05200 33.39100
H  44.04800 36.68100 30.38000
H  44.59700 35.34300 29.36200
H  43.00900 35.27600 30.11900
H  43.35300 33.94300 27.62100
H  45.02800 34.57800 27.52900
H  44.52500 33.24800 26.42900
H  41.37700 38.65700 22.41700
H  42.24700 41.43300 22.25100
H  44.16800 38.84500 23.05400
H  43.92800 39.88700 21.61900
H  43.41900 38.21600 21.61100
H  40.40000 40.47000 21.03300
H  39.75100 41.90400 21.92400
H  38.58200 39.36800 21.67600
H  37.93900 40.66200 22.55800
H  39.00800 39.42900 23.34000
H  40.63500 45.34500 24.24400
H  40.13900 46.40100 25.49000
H  38.87500 45.57900 24.70900
H  39.06900 44.26600 30.56500
H  42.54200 45.26100 33.00900
H  41.00500 45.08300 33.93500
H  41.41400 46.64700 33.15600
Mg 0.55300 43.55800 26.28300
C  2.78500 43.85900 28.81200
C  -1.83300 42.59600 28.59300
C  -1.53600 42.79700 23.73400
C  3.03300 44.33100 23.95800
N  0.47800 43.19300 28.43300
C  1.52100 43.46400 29.31800
C  1.03300 43.45600 30.78700
C  -0.43700 42.84100 30.64400
C  -0.63800 42.90800 29.11600
C  -0.59800 41.43400 31.25100
C  1.10500 44.85400 31.39500
C  1.07100 44.95300 32.91900
H  0.69700 43.75900 33.75400
N  -1.49900 42.99900 26.15300
C  -2.25100 42.65300 27.22500
C  -3.58800 42.36300 26.72700
C  -3.54400 42.55400 25.29900
C  -2.15800 42.67400 25.00400
C  -4.70800 41.81200 27.63900
C  -4.64400 42.47400 24.28100
O  -4.42500 42.56100 23.10100
C  -6.00200 42.52500 24.83100
N  0.88300 43.26700 24.18500
C  -0.20400 42.97600 23.39200
C  0.18200 43.19700 21.95300
C  1.59800 43.83900 21.95500
C  1.90800 43.80500 23.45200
C  0.05400 41.81000 21.18500
C  1.65400 45.31300 21.35400
C  1.17900 46.53600 22.13100
N  2.55900 44.00400 26.28400
C  3.45600 44.26900 25.31500
C  4.75600 44.44200 25.84500
C  4.56800 44.26100 27.23800
C  3.17900 44.06800 27.45600
C  6.10600 44.67600 25.09100
C  5.19600 44.24000 28.58400
O  6.36500 44.33200 28.96100
C  4.02900 44.00800 29.65900
C  4.33800 42.71500 30.24300
O  4.15600 41.58700 29.81400
O  4.82000 43.00800 31.45100
C  4.98400 41.94800 32.41200
H  -2.65700 42.40500 29.28300
H  -2.20700 42.79600 22.87200
H  3.79800 44.64400 23.24500
H  1.69500 42.88500 31.43800
H  -1.24300 43.41200 31.10600
H  0.05000 41.38600 32.12700
H  -0.35400 40.61600 30.57400
H  -1.58200 41.31000 31.70300
H  0.49000 45.59200 30.88100
H  2.12500 45.19300 31.21500
H  0.30900 45.70600 33.11800
H  2.07300 45.16600 33.29100
H  -5.41500 41.23200 27.04500
H  -5.30500 42.65200 27.99400
H  -4.33100 41.39700 28.57300
H  -6.04000 42.90200 25.85300
H  -6.35800 41.49400 24.82500
H  -6.60100 43.16400 24.18200
H  -0.50100 43.98000 21.62500
H  2.27800 43.21300 21.37900
H  0.99700 41.56900 20.69400
H  -0.71800 41.95700 20.43100
H  -0.16100 40.94400 21.81200
H  1.32200 45.23800 20.31800
H  2.70900 45.46000 21.12500
H  0.46900 47.02600 21.46500
H  1.98500 47.17700 22.48900
H  0.73400 46.16400 23.05400
H  5.91400 45.03500 24.08000
H  6.89700 43.92700 25.09300
H  6.54400 45.51600 25.62900
H  4.04000 44.72500 30.48000
H  4.01700 41.85600 32.90600
H  5.77300 42.26900 33.09200
H  5.07000 40.97400 31.93100

