158

Mg 29.91800 58.17600 41.21600
C  26.97200 56.63900 39.89700
C  31.73000 55.45600 39.80300
C  32.62500 59.91400 41.69500
C  27.94400 61.01800 42.01300
N  29.42600 56.20600 40.04000
C  28.13600 55.90300 39.63200
C  28.16700 54.55400 38.78700
C  29.62200 54.01100 39.17300
C  30.35500 55.33900 39.70400
C  29.55800 52.87200 40.26500
C  28.04500 54.85000 37.28100
C  27.35200 53.82100 36.36800
H  27.92500 53.57200 34.95300
N  31.88300 57.66200 40.98400
C  32.43500 56.56300 40.33300
C  33.89100 56.77900 40.31700
C  34.17600 58.03800 40.84300
C  32.85800 58.56300 41.23500
C  34.89100 55.66100 39.98400
C  35.61700 58.54200 41.14600
O  36.61300 57.88400 40.94700
C  35.87300 59.92700 41.75100
N  30.13400 60.23100 41.71200
C  31.41300 60.63500 41.90700
C  31.56800 62.11800 42.22800
C  30.02900 62.46300 42.32600
C  29.30400 61.14900 42.10100
C  32.45800 62.46300 43.47700
C  29.57700 63.64700 41.43400
C  29.10000 64.90300 42.22000
N  27.83400 58.73500 41.06900
C  27.25600 59.85200 41.57400
C  25.79600 59.70700 41.39300
C  25.66800 58.53700 40.63700
C  26.95400 57.91600 40.56100
C  24.76500 60.70800 41.92500
C  24.67700 57.59500 40.16000
O  23.46100 57.72600 40.20200
C  25.50000 56.37100 39.48500
C  24.95300 55.12000 40.13800
O  25.32500 54.70400 41.24900
O  24.09100 54.37700 39.33400
C  23.50600 53.21300 40.00700
H  32.34000 54.57600 39.59000
H  33.53800 60.50100 41.81800
H  27.45600 61.95900 42.27300
H  27.32000 53.92700 39.06500
H  30.15700 53.64600 38.29600
H  28.52700 52.85000 40.61500
H  30.25500 53.12900 41.06300
H  29.83600 51.88100 39.90500
H  29.07700 55.05800 36.99900
H  27.53300 55.81200 37.24900
H  26.36800 54.18000 36.06700
H  27.13500 52.89300 36.89800
H  35.75100 55.92100 39.36700
H  34.41600 54.86700 39.40700
H  35.18100 55.27200 40.95900
H  36.95300 60.05900 41.68900
H  35.45000 59.95200 42.75500
H  35.42400 60.62400 41.04300
H  32.00500 62.56700 41.33600
H  29.84500 62.54500 43.39700
H  32.57500 61.59500 44.12600
H  31.88400 63.22700 44.00300
H  33.38700 62.84200 43.05200
H  28.85300 63.27600 40.70900
H  30.31900 64.16200 40.82400
H  29.37000 65.87500 41.80600
H  29.39700 64.83200 43.26600
H  28.01100 64.86500 42.24300
H  24.74400 61.57200 41.26200
H  25.14500 61.04200 42.89100
H  23.80400 60.25800 42.17500
H  25.44500 56.31500 38.39800
H  24.26300 52.56300 40.44600
H  22.88000 52.59100 39.36700
H  22.95700 53.63600 40.84800
Mg 17.18100 53.23900 26.92900
C  19.12600 51.65700 29.28400
C  15.04100 54.17800 29.45800
C  14.97900 54.32900 24.62700
C  19.11000 51.70600 24.39400
N  17.04500 52.76400 29.07100
C  17.93300 52.13300 29.86500
C  17.53800 52.28800 31.26900
C  16.02800 52.69900 31.18100
C  16.02200 53.30800 29.79100
C  15.04300 51.54300 31.27200
C  18.53700 53.35100 31.90100
C  18.91800 53.11700 33.30700
H  17.87100 52.44200 34.14700
N  15.36800 54.18900 26.98900
C  14.67400 54.59800 28.15000
C  13.50600 55.27000 27.81600
C  13.33600 55.21900 26.37400
C  14.62900 54.53000 25.88200
C  12.70800 55.94100 28.86100
C  12.19400 55.62300 25.52600
O  12.08800 55.37900 24.33800
C  11.14000 56.50300 26.16500
N  17.12500 53.02800 24.92400
C  16.08200 53.65500 24.14700
C  16.39600 53.53500 22.58200
C  17.86200 52.93900 22.59600
C  18.03900 52.49300 24.02000
C  15.44500 52.51600 21.86500
C  18.97800 53.88000 22.12300
C  19.98900 53.33500 21.12700
N  18.82900 51.88300 26.80800
C  19.54400 51.45400 25.71000
C  20.74900 50.71800 26.15800
C  20.66400 50.81700 27.57500
C  19.46700 51.59500 27.90200
C  21.76300 50.03000 25.26800
C  21.26800 50.42400 28.85100
O  22.17100 49.65200 29.11800
C  20.40700 51.07000 30.00400
C  20.07600 49.96900 30.92900
O  19.34300 49.05500 30.61700
O  20.60500 50.17700 32.16900
C  19.97000 49.34100 33.26500
H  14.36900 54.39500 30.29000
H  14.33800 54.75400 23.85200
H  19.81600 51.29300 23.67100
H  17.64500 51.33300 31.78400
H  15.80600 53.47100 31.91800
H  15.56100 50.58700 31.34600
H  14.40700 51.58000 30.38700
H  14.35500 51.57800 32.11700
H  18.09900 54.34700 31.84100
H  19.51400 53.35100 31.41700
H  19.02100 54.09100 33.78500
H  19.76900 52.43600 33.27900
H  12.24900 56.85700 28.48700
H  13.30200 56.23600 29.72600
H  11.83900 55.31700 29.07200
H  11.62100 57.46700 26.33000
H  10.78900 55.96600 27.04500
H  10.31400 56.61300 25.46200
H  16.40300 54.50600 22.08700
H  17.92800 51.99100 22.06100
H  16.00200 51.59100 21.71400
H  15.11900 52.96900 20.92900
H  14.51700 52.34800 22.41100
H  19.48700 54.24700 23.01400
H  18.66000 54.83600 21.70700
H  19.71000 53.61100 20.11000
H  20.01000 52.25000 21.22000
H  20.98800 53.70300 21.36200
H  22.38200 50.82500 24.85300
H  21.25300 49.55100 24.43200
H  22.45100 49.34100 25.75700
H  21.03700 51.85700 30.41800
H  20.48900 48.38400 33.20300
H  18.90700 49.31200 33.02700
H  20.09500 49.72900 34.27600

