158

Mg 35.48800 1.45600 29.40900
C  33.46600 2.46200 32.05700
C  38.19500 1.40700 31.52000
C  37.67700 0.93300 26.77500
C  32.82400 1.90500 27.19800
N  35.78200 1.93400 31.59900
C  34.82000 2.21200 32.50100
C  35.41300 2.16500 33.90300
C  36.98000 2.24000 33.62600
C  37.01700 1.80800 32.15100
C  37.62700 3.67300 33.82700
C  34.90900 0.91300 34.70700
C  34.64100 1.09900 36.17100
H  35.06300 2.34100 36.87500
N  37.63900 1.04700 29.20400
C  38.51900 1.07900 30.25200
C  39.81200 0.69000 29.67300
C  39.73200 0.55600 28.28100
C  38.31000 0.89900 28.01500
C  41.03300 0.54600 30.72500
C  40.84400 0.26700 27.20800
O  40.77700 0.16000 25.94800
C  42.27800 -0.13100 27.79100
N  35.32400 1.32100 27.41200
C  36.33200 1.11500 26.47000
C  35.85800 1.05200 25.01900
C  34.31200 1.03500 25.24500
C  34.10700 1.42600 26.70000
C  36.48500 2.17900 24.16300
C  33.66400 -0.20200 24.78800
C  33.19400 -1.26100 25.87500
N  33.54600 2.12500 29.49900
C  32.54700 2.26700 28.54200
C  31.33000 2.78200 29.15900
C  31.63100 2.75700 30.53400
C  33.03300 2.50700 30.67900
C  30.03500 3.14400 28.43900
C  31.04400 2.87900 31.86300
O  29.87700 3.00200 32.21700
C  32.27200 2.78700 32.90700
C  32.36600 3.95700 33.62700
O  32.61900 5.08000 33.15000
O  31.89500 3.79500 34.92100
C  31.56000 5.00600 35.62800
H  39.09000 1.54100 32.13100
H  38.34500 0.79400 25.92300
H  32.03300 2.01100 26.45300
H  35.05000 3.05600 34.41600
H  37.55000 1.55000 34.24800
H  36.88300 4.32900 34.27900
H  37.74900 4.09400 32.82900
H  38.60700 3.60600 34.30000
H  35.57000 0.04900 34.63200
H  33.94800 0.66400 34.25700
H  35.15300 0.21700 36.55600
H  33.57900 1.01400 36.40100
H  41.85000 -0.09900 30.40000
H  40.77800 0.01800 31.64300
H  41.41200 1.56500 30.80500
H  42.60900 0.67800 28.44200
H  43.03300 -0.33900 27.03200
H  42.05200 -0.98800 28.42700
H  36.18000 0.11000 24.57500
H  33.77400 1.75600 24.63000
H  37.03900 1.70400 23.35300
H  37.14100 2.84600 24.72300
H  35.70900 2.75900 23.66200
H  34.38500 -0.74600 24.17800
H  32.78000 0.15400 24.26100
H  32.11100 -1.30900 25.76200
H  33.55600 -1.17600 26.89900
H  33.67200 -2.14900 25.46100
H  29.17400 2.82700 29.02700
H  30.01500 2.60000 27.49400
H  29.95100 4.20000 28.18200
H  32.01700 1.93600 33.53800
H  30.77600 4.78800 36.35300
H  31.30100 5.85600 34.99700
H  32.50200 5.29000 36.09800
Mg 25.77600 51.21200 27.02300
C  23.67200 51.89400 29.84400
C  28.05000 49.89600 29.13800
C  27.86300 51.00200 24.39500
C  23.45500 52.68800 24.96100
N  25.78700 50.88300 29.25100
C  24.82700 51.24300 30.21500
C  25.21000 50.81000 31.60500
C  26.71800 50.34000 31.37900
C  26.86000 50.34000 29.81700
C  27.83000 51.11100 32.13000
C  24.31200 49.68400 32.23700
C  23.95600 49.63200 33.73600
H  24.88300 50.30400 34.83700
N  27.63700 50.48400 26.75900
C  28.40400 49.93700 27.75500
C  29.65600 49.42900 27.12600
C  29.57600 49.64100 25.70200
C  28.27600 50.32200 25.53700
C  30.75900 48.78200 27.99400
C  30.56800 49.28800 24.64500
O  30.41700 49.41100 23.44300
C  31.78100 48.55100 25.05600
N  25.72300 51.87100 25.01300
C  26.71700 51.70400 24.14900
C  26.41100 52.25600 22.72200
C  24.93900 52.72600 22.84700
C  24.68500 52.41800 24.35200
C  27.31600 53.47900 22.34300
C  23.85900 51.97400 21.97200
C  23.90400 52.46900 20.50000
N  23.92200 52.08000 27.31900
C  23.06800 52.52200 26.33300
C  21.85600 52.85600 26.98400
C  22.08600 52.70100 28.41600
C  23.35300 52.13700 28.49300
C  20.63200 53.24300 26.30100
C  21.55700 52.85400 29.69200
O  20.45100 53.19000 30.14600
C  22.53200 52.38000 30.66100
C  22.85900 53.55000 31.51200
O  23.30400 54.64100 31.15000
O  22.49500 53.26800 32.79200
C  22.54300 54.36000 33.70800
H  28.92600 49.50700 29.66200
H  28.64000 50.91100 23.63400
H  22.57300 53.10300 24.46800
H  25.27700 51.76200 32.13200
H  26.77400 49.27000 31.57600
H  27.45500 51.83600 32.85300
H  28.53600 51.64500 31.49400
H  28.48900 50.42300 32.65900
H  24.62300 48.68100 31.94500
H  23.38200 49.75200 31.67200
H  23.70200 48.61000 34.01800
H  23.00600 50.16100 33.80800
H  30.59200 47.70500 28.00300
H  30.80400 49.22600 28.98800
H  31.73300 49.05300 27.58700
H  31.44900 47.63900 25.55100
H  32.48600 49.10900 25.67200
H  32.31200 48.22500 24.16100
H  26.47000 51.42600 22.01700
H  24.75600 53.79800 22.78100
H  27.94400 53.93600 23.10800
H  26.69100 54.09500 21.69700
H  28.06100 53.03500 21.68200
H  22.85600 52.11500 22.37400
H  24.07900 50.90600 21.96300
H  24.58000 53.32000 20.41500
H  22.95700 52.74000 20.03300
H  24.42900 51.73200 19.89200
H  19.84400 53.52900 26.99700
H  20.14500 52.44600 25.73900
H  20.79400 54.17300 25.75600
H  21.97900 51.58500 31.16200
H  21.67200 54.99900 33.56200
H  23.45600 54.94700 33.59900
H  22.40500 53.91100 34.69100

