158

Mg 24.39600 -3.99700 45.01600
C  26.31900 -1.26000 43.48300
C  21.65700 -3.12800 43.21300
C  23.25500 -7.15700 45.37700
C  27.67300 -5.11800 46.03600
N  24.05700 -2.43600 43.46500
C  24.95300 -1.42600 43.01300
C  24.19200 -0.56000 41.96700
C  22.73900 -1.15300 42.05000
C  22.79700 -2.29300 42.97400
C  21.66300 -0.07200 42.43700
C  24.70800 -0.49800 40.50000
C  25.66900 -1.70400 40.15600
H  25.65600 -2.07100 38.65600
N  22.59400 -4.93300 44.55200
C  21.49500 -4.34700 43.87400
C  20.43100 -5.25300 43.87500
C  20.92000 -6.43800 44.57200
C  22.31600 -6.23100 44.87700
C  19.07700 -5.02200 43.14800
C  20.00400 -7.63600 44.72400
O  18.89200 -7.66200 44.32300
C  20.40000 -8.81800 45.66000
N  25.36400 -5.84900 45.59300
C  24.60400 -6.95100 45.78100
C  25.42400 -8.03300 46.43800
C  26.94800 -7.43500 46.60300
C  26.64700 -6.07000 46.02200
C  24.92600 -8.71300 47.76500
C  28.06100 -8.24800 45.76400
C  28.25800 -9.56500 46.28700
N  26.47600 -3.21900 45.10500
C  27.65700 -3.85400 45.50600
C  28.78200 -3.00200 45.25900
C  28.23300 -1.90400 44.55800
C  26.90100 -2.14300 44.34800
C  30.27000 -3.09200 45.65100
C  28.59500 -0.57500 44.00700
O  29.58900 0.15300 44.13900
C  27.34500 -0.12400 43.17500
C  27.00000 1.31100 43.63100
O  26.17900 1.65100 44.51300
O  27.87500 2.10000 42.90600
C  27.99000 3.50800 43.23400
H  20.77000 -2.81400 42.65800
H  22.86500 -8.16600 45.52700
H  28.63400 -5.62700 46.13100
H  24.21400 0.42700 42.42900
H  22.61100 -1.47300 41.01600
H  20.65500 -0.33000 42.11400
H  21.89500 0.90400 42.01000
H  21.63600 0.03800 43.52100
H  25.37300 0.35900 40.39100
H  23.91500 -0.46700 39.75400
H  25.32200 -2.56800 40.72300
H  26.66600 -1.38300 40.45500
H  18.86200 -5.52300 42.20400
H  18.86700 -3.97800 42.91100
H  18.29900 -5.29600 43.86000
H  19.45700 -9.29600 45.92600
H  20.98800 -8.53900 46.53400
H  20.96100 -9.50600 45.02800
H  25.51900 -8.83300 45.70400
H  27.24500 -7.35200 47.64900
H  25.70000 -8.83600 48.52300
H  24.51400 -9.67500 47.46000
H  24.11200 -8.04600 48.04900
H  28.98000 -7.67700 45.90100
H  27.92000 -8.21700 44.68400
H  29.27500 -9.67900 46.66200
H  28.08200 -10.28700 45.49000
H  27.52100 -9.78900 47.05800
H  30.39000 -2.24200 46.32200
H  30.94500 -2.86100 44.82700
H  30.40900 -4.00600 46.22900
H  27.67700 -0.19900 42.14000
H  28.18200 4.16700 42.38700
H  28.89800 3.53600 43.83600
H  27.19500 3.93800 43.84400
Mg -12.76100 16.11800 41.87700
C  -9.72300 14.41100 41.49500
C  -11.19500 18.93200 40.65300
C  -15.74000 17.42700 41.48300
C  -14.22700 13.00100 42.68500
N  -10.76000 16.54900 41.02700
C  -9.68800 15.70300 41.03200
C  -8.39600 16.45000 40.57500
C  -8.81000 18.00800 40.71600
C  -10.35800 17.85900 40.82600
C  -8.16100 18.70200 41.92600
C  -7.85200 16.20400 39.08200
C  -6.33500 16.18200 39.00900
H  -5.77100 16.92200 37.80400
N  -13.45600 17.98100 41.06600
C  -12.64100 19.06100 40.77000
C  -13.43300 20.24900 40.53100
C  -14.79700 19.80200 40.67900
C  -14.75400 18.33500 41.12500
C  -12.88200 21.63800 40.05900
C  -16.06300 20.71100 40.62000
O  -16.07100 21.92000 40.25100
C  -17.42200 20.10000 40.88000
N  -14.64100 15.28600 42.04500
C  -15.68300 16.10300 41.95500
C  -16.97800 15.45100 42.29900
C  -16.50500 13.99300 42.61900
C  -15.05500 14.03300 42.41300
C  -17.70900 16.08300 43.46000
C  -17.21800 12.83600 41.70500
C  -17.95300 11.83700 42.57900
N  -12.12900 14.12600 42.14800
C  -12.83000 12.95000 42.47700
C  -11.90700 11.87800 42.68400
C  -10.65700 12.41600 42.35600
C  -10.85600 13.72000 41.95400
C  -12.12700 10.51900 43.22000
C  -9.24100 12.15200 42.28000
O  -8.56500 11.15300 42.50700
C  -8.56700 13.44200 41.66000
C  -7.44300 13.89300 42.56200
O  -7.59500 14.45400 43.65600
O  -6.27200 13.88000 41.82900
C  -5.12600 14.53500 42.45900
H  -10.72400 19.85400 40.30400
H  -16.76900 17.79100 41.44400
H  -14.75700 12.09100 42.97200
H  -7.60900 16.11700 41.25200
H  -8.60000 18.67400 39.87900
H  -8.66900 18.62900 42.88800
H  -8.04100 19.74700 41.64200
H  -7.18000 18.23300 41.99700
H  -8.30400 16.90700 38.38200
H  -8.20500 15.21400 38.79400
H  -6.07000 15.12500 39.03200
H  -5.83500 16.52300 39.91500
H  -13.42400 21.86700 39.14200
H  -11.80600 21.66800 39.88700
H  -13.18300 22.43200 40.74200
H  -18.15400 20.88800 40.70300
H  -17.38100 19.85100 41.94000
H  -17.72200 19.31000 40.19200
H  -17.71700 15.47000 41.49900
H  -16.62000 13.67800 43.65600
H  -17.27700 15.87200 44.43900
H  -18.78500 15.92800 43.39000
H  -17.47100 17.13800 43.59600
H  -16.40000 12.26400 41.26700
H  -17.79000 13.27200 40.88700
H  -18.90100 11.62600 42.08400
H  -18.24600 12.25700 43.54000
H  -17.42600 10.88900 42.69300
H  -12.29700 10.50100 44.29600
H  -11.24700 9.89100 43.07900
H  -13.00200 10.03900 42.78100
H  -8.14800 13.17800 40.68900
H  -5.17100 15.61600 42.32900
H  -4.20700 14.15800 42.00900
H  -4.91500 14.28200 43.49800

