158

Mg 1.85000 -2.11900 44.30900
C  5.07000 -1.15600 43.39400
C  0.50900 0.46300 42.41400
C  -1.20100 -3.46400 44.75600
C  3.22600 -4.84200 46.03500
N  2.72400 -0.65500 42.85700
C  4.09600 -0.41200 42.72700
C  4.31000 0.82100 41.85300
C  2.83100 1.49700 41.68700
C  1.95500 0.39300 42.34900
C  2.67300 2.92900 42.39800
C  5.06700 0.63600 40.55700
C  4.66000 -0.58100 39.63400
H  4.34900 -0.39200 38.19900
N  -0.08500 -1.55400 43.78200
C  -0.37100 -0.50900 42.94200
C  -1.88500 -0.39900 42.89300
C  -2.41300 -1.47100 43.62200
C  -1.21300 -2.21100 44.07500
C  -2.51500 0.81600 42.29200
C  -3.89600 -1.58100 44.02800
O  -4.64100 -0.68300 43.68000
C  -4.46200 -2.72100 44.77100
N  1.13300 -4.00600 45.11200
C  -0.20100 -4.29700 45.16700
C  -0.43100 -5.66700 45.72000
C  0.96400 -5.99000 46.38700
C  1.88000 -4.91600 45.70300
C  -1.64700 -5.80100 46.71600
C  1.42700 -7.50400 46.25700
C  1.45200 -8.33800 47.50900
N  3.73300 -2.87800 44.67400
C  4.12200 -3.91600 45.44100
C  5.60800 -3.88500 45.66400
C  5.98100 -2.78000 44.80700
C  4.81000 -2.25600 44.22200
C  6.38500 -4.79100 46.47000
C  7.15600 -2.05700 44.30300
O  8.31500 -2.10300 44.49700
C  6.58700 -1.03000 43.29300
C  7.04300 0.34800 43.66200
O  7.92600 0.95700 43.03200
O  6.31200 0.83800 44.79600
C  6.85500 2.02800 45.46300
H  0.03600 1.29800 41.89400
H  -2.19000 -3.89600 44.92100
H  3.69000 -5.63100 46.63100
H  4.95800 1.54000 42.35400
H  2.58800 1.55500 40.62600
H  3.37200 3.10600 43.21500
H  1.68900 2.98100 42.86400
H  2.83500 3.72100 41.66800
H  6.12900 0.44400 40.71000
H  5.01500 1.55800 39.97800
H  3.90000 -1.13100 40.19000
H  5.40800 -1.36800 39.73000
H  -3.49500 0.50600 41.92800
H  -1.95300 1.09300 41.40000
H  -2.53000 1.57000 43.08000
H  -5.48300 -2.48100 45.06700
H  -3.88900 -2.72400 45.69900
H  -4.40500 -3.66200 44.22300
H  -0.49800 -6.33900 44.86500
H  0.85300 -5.69700 47.43100
H  -2.05500 -4.84900 47.05500
H  -1.22300 -6.37400 47.54100
H  -2.47900 -6.32100 46.24100
H  2.47100 -7.66800 45.99200
H  0.72900 -7.99500 45.57700
H  2.35000 -8.05600 48.05900
H  1.46700 -9.39500 47.24300
H  0.60500 -8.22000 48.18500
H  7.28300 -4.33000 46.88000
H  6.65900 -5.64200 45.84600
H  5.88900 -5.28300 47.30700
H  6.91000 -1.28400 42.28300
H  7.87000 2.22800 45.11900
H  6.83100 2.01800 46.55200
H  6.26500 2.92700 45.28700
Mg -0.67600 7.80100 26.58500
C  0.26400 9.39900 29.63400
C  -0.76900 4.89900 28.24900
C  -0.62800 6.51700 23.70600
C  0.05500 11.04500 25.03500
N  -0.21300 7.30900 28.73700
C  -0.07900 8.06800 29.81500
C  -0.30900 7.32700 31.14100
C  -0.58000 5.86100 30.55200
C  -0.42900 5.98100 29.04200
C  0.20700 4.71600 31.21700
C  -1.53200 7.84000 32.00100
C  -1.32300 8.27500 33.43300
H  0.02800 7.84100 34.13100
N  -0.76800 5.92500 26.04400
C  -0.90400 4.80400 26.83500
C  -1.10100 3.62800 26.01200
C  -1.00600 4.18600 24.65100
C  -0.84800 5.67000 24.79100
C  -1.21200 2.18100 26.57700
C  -1.18000 3.43200 23.34500
O  -1.33900 3.96500 22.24800
C  -1.34400 1.91600 23.42100
N  -0.53900 8.72900 24.60800
C  -0.42700 7.89800 23.58300
C  -0.12300 8.70000 22.26600
C  -0.38800 10.18400 22.75300
C  -0.34900 10.04000 24.26100
C  1.35700 8.47600 21.87100
C  -1.60800 10.77100 22.03100
C  -1.34100 11.43100 20.65800
N  -0.04500 9.86400 27.18500
C  0.25900 11.01200 26.43600
C  0.79300 11.97900 27.29800
C  0.75800 11.41300 28.60200
C  0.25200 10.14200 28.43600
C  1.18800 13.36600 26.98700
C  1.05800 11.69500 29.95400
O  1.61400 12.61800 30.54800
C  0.53100 10.40600 30.72300
C  1.62800 10.08600 31.71100
O  2.63100 9.41700 31.45600
O  1.38500 10.80000 32.86800
C  2.56900 10.87800 33.70200
H  -1.00500 3.93500 28.70500
H  -0.52300 6.05200 22.72300
H  0.37700 12.02100 24.66600
H  0.62300 7.26900 31.70400
H  -1.63300 5.58800 30.49100
H  0.83300 5.17000 31.98500
H  0.99400 4.38800 30.53700
H  -0.43500 3.90300 31.55800
H  -2.32000 7.09300 31.89900
H  -1.83000 8.75900 31.49800
H  -2.12900 7.97900 34.10400
H  -1.26300 9.35700 33.55200
H  -0.38700 1.62100 26.13600
H  -2.13300 1.70900 26.23400
H  -0.94800 1.98400 27.61600
H  -1.48100 1.58700 22.39100
H  -2.23000 1.64300 23.99400
H  -0.48100 1.37900 23.81600
H  -0.86000 8.54300 21.47800
H  0.46000 10.83300 22.53600
H  1.95000 9.37300 22.05000
H  1.43900 8.10700 20.84900
H  1.79300 7.69500 22.49500
H  -1.92700 11.61200 22.64700
H  -2.39500 10.03900 21.84900
H  -0.69200 10.78300 20.06900
H  -0.91800 12.42600 20.79900
H  -2.31200 11.46600 20.16300
H  0.64400 14.08700 27.59700
H  1.08300 13.65400 25.94100
H  2.23700 13.41000 27.27700
H  -0.30400 10.60300 31.39700
H  3.23100 11.61400 33.24700
H  2.96300 9.86800 33.81100
H  2.30400 11.25900 34.68800

