158

Mg 46.68800 16.84700 28.72900
C  44.64900 16.66600 31.48900
C  48.79400 18.91500 30.56900
C  48.40300 17.52300 25.97500
C  44.19400 15.27500 26.82500
N  46.66100 17.71500 30.78800
C  45.76100 17.47800 31.72100
C  46.11800 17.91500 33.11300
C  47.41600 18.81800 32.75100
C  47.62300 18.56800 31.22100
C  47.46400 20.32000 33.12300
C  46.38800 16.77700 34.07200
C  46.55400 17.06100 35.54000
H  46.29500 18.45300 36.02600
N  48.39300 18.02900 28.36000
C  49.08100 18.75000 29.21100
C  50.24400 19.33100 28.52500
C  50.13600 19.00000 27.15100
C  48.94300 18.12200 27.12700
C  51.35000 20.12700 29.20500
C  50.95300 19.34400 25.95200
O  50.70600 18.97600 24.78200
C  52.23300 20.10800 26.20700
N  46.36800 16.47600 26.73500
C  47.23900 16.79000 25.80800
C  46.89200 16.40000 24.43300
C  45.61100 15.49100 24.66200
C  45.36600 15.74800 26.16400
C  46.72300 17.67200 23.54300
C  45.74400 13.97500 24.21800
C  44.83400 13.63800 22.97000
N  44.75500 16.03100 29.01800
C  43.82800 15.49300 28.17200
C  42.70800 15.06300 28.87400
C  42.90900 15.52100 30.24500
C  44.23700 16.04100 30.22600
C  41.54500 14.40800 28.32600
C  42.43700 15.66200 31.54600
O  41.32600 15.48400 31.97000
C  43.52000 16.31900 32.47100
C  42.86000 17.47000 33.21800
O  42.64600 18.59500 32.76800
O  42.45000 17.07800 34.46500
C  42.02300 18.04900 35.42600
H  49.53100 19.41600 31.20100
H  49.01800 17.58000 25.07400
H  43.38900 14.77400 26.28300
H  45.21600 18.46500 33.38200
H  48.28900 18.41900 33.26800
H  47.44800 20.89300 32.19600
H  48.37300 20.31500 33.72400
H  46.56200 20.48900 33.71200
H  47.29900 16.28600 33.72900
H  45.59100 16.03400 34.07800
H  47.48500 16.62900 35.90600
H  45.79000 16.53900 36.11600
H  51.23000 21.14300 28.82900
H  52.28000 19.57000 29.08700
H  51.17600 20.20800 30.27800
H  51.95500 21.12500 26.48500
H  52.78700 20.03400 25.27200
H  52.76400 19.61700 27.02200
H  47.71500 15.75300 24.12700
H  44.76500 16.00000 24.20100
H  46.78800 18.44900 24.30500
H  45.71400 17.79400 23.14900
H  47.38400 17.73200 22.67900
H  45.27900 13.38300 25.00600
H  46.76200 13.73200 23.91400
H  45.45100 13.01100 22.32700
H  44.43300 14.49100 22.42200
H  44.04400 12.95300 23.27700
H  41.71400 13.33200 28.29700
H  41.38600 14.79100 27.31800
H  40.58400 14.59300 28.80500
H  43.73800 15.54500 33.20600
H  41.11300 18.49600 35.02600
H  42.79400 18.78500 35.65400
H  41.61400 17.75500 36.39300
Mg 43.30500 42.44400 26.20300
C  41.84300 44.71700 28.72200
C  44.21400 40.48700 28.81500
C  44.39900 40.33500 23.90600
C  42.21800 44.76600 23.81200
N  43.10600 42.68000 28.48900
C  42.46800 43.60400 29.27900
C  42.54800 43.26800 30.77200
C  43.63400 42.09100 30.76400
C  43.68800 41.71700 29.26800
C  44.97000 42.46100 31.38200
C  41.19700 42.69200 31.14700
C  40.68600 43.05700 32.59900
H  41.75100 43.27300 33.78900
N  44.18400 40.63400 26.33700
C  44.37600 39.96100 27.49100
C  44.91600 38.67000 27.12400
C  44.86100 38.55200 25.77100
C  44.48500 39.85100 25.28100
C  45.48200 37.65500 28.02500
C  45.14700 37.30100 24.86700
O  45.13800 37.41000 23.63100
C  45.18800 35.90500 25.32000
N  43.51200 42.63500 24.22200
C  43.90700 41.57700 23.45900
C  43.81900 41.95600 21.97400
C  43.01300 43.27100 21.93800
C  42.85300 43.59900 23.43900
C  45.22600 41.97300 21.30800
C  41.64900 43.19300 21.19100
C  40.69400 42.12800 21.85400
N  42.37200 44.39400 26.23700
C  42.09200 45.18300 25.14700
C  41.64000 46.44400 25.60300
C  41.44600 46.34500 26.98800
C  41.91800 45.04000 27.35800
C  41.35400 47.70200 24.83400
C  41.02400 46.96100 28.21300
O  40.49300 48.04300 28.31600
C  41.16500 45.87400 29.33400
C  42.05100 46.49100 30.40900
O  43.24800 46.68200 30.19900
O  41.38000 46.68000 31.59800
C  42.23300 47.03000 32.70000
H  44.62300 39.92200 29.65500
H  44.56100 39.63200 23.08600
H  41.84800 45.26500 22.91400
H  42.80500 44.13500 31.38000
H  43.38500 41.13500 31.22600
H  45.84200 42.34300 30.73900
H  45.16100 41.86900 32.27700
H  45.01500 43.51300 31.66400
H  41.21800 41.61200 30.99800
H  40.51800 43.23200 30.48700
H  39.93200 42.32200 32.88000
H  40.08100 43.96300 32.61000
H  45.69900 38.13100 28.98100
H  46.42600 37.26300 27.64700
H  44.65500 36.97400 28.23000
H  45.52500 35.16900 24.59000
H  44.25800 35.61500 25.81100
H  46.00600 35.87800 26.04000
H  43.32200 41.13600 21.45700
H  43.69200 43.97000 21.45000
H  46.12400 42.14200 21.90200
H  45.18500 42.76200 20.55800
H  45.28700 41.06700 20.70500
H  41.81300 42.74600 20.21100
H  41.20000 44.17200 21.02400
H  41.12900 41.63900 22.72600
H  40.27000 41.29600 21.29300
H  39.72300 42.55400 22.10600
H  41.45000 47.50100 23.76700
H  42.04500 48.51000 25.07200
H  40.43700 48.23400 25.08800
H  40.14500 45.72200 29.68600
H  42.86600 46.18200 32.96100
H  41.52400 47.30500 33.48100
H  42.91300 47.84100 32.44200

