158

Mg 54.26500 24.54700 45.18500
C  52.06800 26.96600 44.01000
C  52.45200 22.07100 43.61400
C  56.78600 22.42900 45.76700
C  56.23900 27.21000 46.37400
N  52.69200 24.59600 43.64300
C  51.89000 25.73800 43.40200
C  50.73600 25.20100 42.54200
C  50.53000 23.69000 43.02100
C  51.96700 23.40300 43.47300
C  49.32500 23.62000 44.11100
C  50.95300 25.31600 40.94300
C  52.12000 26.20600 40.47400
H  53.45500 25.45600 40.09900
N  54.59200 22.51000 44.71300
C  53.65300 21.69000 44.19200
C  54.19300 20.41100 44.29300
C  55.49400 20.43900 44.81000
C  55.62700 21.80000 45.17600
C  53.36900 19.25600 43.65100
C  56.40700 19.29000 45.03400
O  56.08400 18.17700 44.58400
C  57.70400 19.37000 45.80200
N  56.25700 24.81200 45.70000
C  57.09800 23.76000 46.02100
C  58.44800 24.26000 46.16600
C  58.18200 25.66900 46.75800
C  56.83700 25.99500 46.11500
C  59.48100 23.45900 47.08300
C  59.25700 26.66200 46.31100
C  60.11700 27.20300 47.48000
N  54.09700 26.59600 45.41900
C  54.91200 27.49800 46.03000
C  54.18900 28.74000 46.24800
C  53.09400 28.65300 45.37800
C  53.09500 27.26900 44.93200
C  54.81200 30.00600 46.97000
C  51.91700 29.28500 44.74200
O  51.44800 30.42900 44.76600
C  51.17300 28.19900 43.82400
C  51.17900 28.76400 42.44600
O  52.12900 29.40900 41.95400
O  49.95800 28.60400 41.85800
C  49.74800 29.10600 40.47400
H  51.86200 21.21400 43.28500
H  57.61900 21.80100 46.09000
H  56.75200 28.12900 46.66400
H  49.92800 25.92800 42.62300
H  50.29100 23.03900 42.18100
H  49.75400 23.12700 44.98300
H  48.51000 22.97400 43.78500
H  49.06800 24.63800 44.40700
H  50.06500 25.65600 40.41000
H  51.20500 24.34300 40.52000
H  52.48500 27.01800 41.10300
H  51.69500 26.61400 39.55700
H  53.32900 19.68200 42.64800
H  52.44300 19.16700 44.21900
H  53.84100 18.27600 43.58600
H  58.08400 18.36500 45.98400
H  57.46900 19.77500 46.78600
H  58.47900 19.89000 45.24000
H  59.00600 24.38300 45.23900
H  58.07300 25.68600 47.84300
H  59.69300 24.04000 47.98000
H  60.45700 23.44100 46.59900
H  59.11600 22.47900 47.39000
H  58.77500 27.53600 45.87300
H  59.87600 26.41500 45.44900
H  59.99800 28.23300 47.81800
H  61.11400 27.16300 47.04100
H  60.19700 26.48800 48.29800
H  55.83600 29.98000 47.34100
H  54.08000 30.41900 47.66500
H  54.82800 30.77700 46.20000
H  50.14200 27.97500 44.09700
H  49.58400 30.15700 40.71000
H  48.93500 28.61500 39.94000
H  50.67700 29.02500 39.91000
Mg -12.05700 16.63700 41.57200
C  -9.07000 14.87100 40.81900
C  -10.43400 19.47900 40.00700
C  -14.95100 18.17700 41.63200
C  -13.47500 13.66200 42.75900
N  -10.00400 17.15700 40.60300
C  -8.99700 16.27900 40.42900
C  -7.73400 16.91200 39.80000
C  -8.12500 18.38400 39.48900
C  -9.61800 18.35100 40.05100
C  -7.23100 19.48700 40.20900
C  -7.24100 16.17400 38.48500
C  -5.72200 16.15600 38.18800
H  -5.23100 16.97000 37.02700
N  -12.58100 18.52200 40.98600
C  -11.81900 19.57100 40.39500
C  -12.71100 20.62400 40.11400
C  -13.94500 20.41000 40.66300
C  -13.88300 19.00200 41.10600
C  -12.24800 21.79400 39.26700
C  -15.14200 21.38900 40.96000
O  -15.16100 22.56800 40.44300
C  -16.33600 21.05000 41.78900
N  -13.94700 15.98700 42.11000
C  -14.99300 16.85500 42.08500
C  -16.35500 16.01900 42.38200
C  -15.75600 14.54900 42.68800
C  -14.25800 14.75600 42.60200
C  -17.24900 16.71400 43.44400
C  -16.40400 13.46200 41.81100
C  -17.29400 12.53200 42.58200
N  -11.41700 14.72800 42.01100
C  -12.08600 13.60700 42.53100
C  -11.18800 12.53100 42.61200
C  -10.00700 13.02500 42.01600
C  -10.24600 14.29500 41.52400
C  -11.30500 11.20400 43.21500
C  -8.63200 12.53300 41.66800
O  -8.21000 11.40300 41.86100
C  -7.96800 13.80000 40.87400
C  -6.82100 14.24100 41.68900
O  -6.78200 14.58500 42.87800
O  -5.81200 14.28900 40.76700
C  -4.48500 14.48000 41.41800
H  -10.02400 20.32200 39.44800
H  -15.82600 18.68200 41.21800
H  -13.97700 12.82800 43.25400
H  -6.89300 16.86900 40.49200
H  -8.26900 18.71800 38.46200
H  -7.83000 20.16500 40.81700
H  -6.56900 20.00900 39.51900
H  -6.47400 19.03100 40.84700
H  -7.61900 16.66800 37.58900
H  -7.51500 15.12300 38.38800
H  -5.32600 15.14100 38.21700
H  -5.18300 16.49500 39.07300
H  -13.06400 21.96300 38.56400
H  -11.37800 21.46400 38.69900
H  -11.99200 22.68300 39.84400
H  -16.79600 22.00900 42.02800
H  -16.10300 20.54000 42.72400
H  -16.94600 20.51700 41.06000
H  -16.91700 15.99600 41.44800
H  -15.95400 14.27000 43.72300
H  -17.24500 17.79800 43.32600
H  -17.05900 16.41000 44.47300
H  -18.27600 16.50500 43.14400
H  -15.65400 12.85600 41.30300
H  -16.96400 13.95600 41.01700
H  -18.33400 12.61800 42.26800
H  -17.29000 12.84800 43.62500
H  -16.92400 11.51000 42.49600
H  -12.01900 11.32500 44.03000
H  -10.35500 10.90100 43.65600
H  -11.65200 10.43000 42.53000
H  -7.69800 13.25000 39.97300
H  -3.75700 14.36800 40.61400
H  -4.35000 13.81600 42.27200
H  -4.24300 15.48700 41.75700

