158

Mg 54.60800 24.04800 44.46100
C  51.94800 26.22400 43.35900
C  52.83400 21.42400 42.69800
C  57.28600 22.12200 44.76300
C  56.36400 26.97100 45.33300
N  52.62800 23.87700 43.13100
C  51.71000 24.88200 42.91900
C  50.43800 24.39100 42.18600
C  50.63800 22.82300 42.39000
C  52.10900 22.68100 42.73600
C  49.80900 21.97900 43.45700
C  50.22900 24.67900 40.70200
C  51.49800 24.61200 39.84300
H  51.40400 25.36600 38.52900
N  54.98500 22.05300 43.87700
C  54.13300 21.14300 43.18000
C  54.87500 19.95700 43.06500
C  56.12400 20.10900 43.78800
C  56.20500 21.51000 44.16600
C  54.30200 18.73500 42.39100
C  57.04100 18.87800 44.07700
O  56.88700 17.76200 43.52000
C  58.17100 19.04900 45.06700
N  56.57300 24.52100 44.80200
C  57.50700 23.51700 44.98000
C  58.83200 24.10600 45.49700
C  58.53500 25.70400 45.40000
C  57.10600 25.74600 45.17300
C  59.26500 23.59400 46.95700
C  59.26700 26.51500 44.27100
C  59.99200 27.81600 44.61000
N  54.23800 26.05200 44.58800
C  55.02200 27.13600 45.03700
C  54.23800 28.36400 45.00200
C  53.02000 28.01600 44.34700
C  53.10200 26.64000 44.10300
C  54.62500 29.71800 45.55300
C  51.70700 28.55700 43.98100
O  51.27900 29.68200 44.10900
C  50.98800 27.40600 43.26000
C  50.50300 27.91100 41.89700
O  51.06700 28.59400 41.08800
O  49.13900 27.57100 41.80300
C  48.57600 28.21000 40.59800
H  52.23200 20.64000 42.23200
H  58.13000 21.44300 44.90100
H  56.85300 27.87900 45.69100
H  49.53100 24.68900 42.71200
H  50.51500 22.37900 41.40200
H  49.02300 22.55400 43.94700
H  50.40800 21.75900 44.34100
H  49.47000 21.01400 43.08100
H  49.76300 25.65300 40.54900
H  49.54600 23.99100 40.20300
H  51.74800 23.56500 39.67300
H  52.23100 25.21700 40.37600
H  53.34200 18.87400 41.89600
H  54.05000 18.09100 43.23400
H  55.04500 18.25300 41.75600
H  58.03200 19.75600 45.88500
H  58.96500 19.35600 44.38600
H  58.33400 18.07200 45.52200
H  59.62500 23.78800 44.82100
H  58.81200 26.00800 46.40900
H  59.43800 24.48800 47.55700
H  60.22200 23.07400 46.90600
H  58.43500 23.08300 47.44400
H  58.59000 26.72100 43.44200
H  59.95500 25.80400 43.81200
H  59.43500 28.72100 44.36900
H  61.00400 27.93800 44.22100
H  60.12500 27.84400 45.69200
H  54.46900 30.47100 44.78100
H  55.67700 29.66700 45.83100
H  54.07000 29.90500 46.47200
H  50.08400 27.15200 43.81500
H  48.55500 29.29900 40.56900
H  47.55200 27.85600 40.47300
H  49.10100 27.84300 39.71600
Mg 6.47200 54.34800 41.59300
C  5.92000 51.04100 41.04200
C  9.74000 53.89600 40.56500
C  6.68500 57.65100 41.20300
C  2.93600 54.83500 41.97300
N  7.57300 52.62700 40.52900
C  7.19000 51.39100 40.61800
C  8.34600 50.39600 40.25500
C  9.68100 51.24000 40.43700
C  8.97900 52.71300 40.54400
C  10.65400 50.98400 41.63200
C  8.21400 49.71500 38.90400
C  7.92800 50.55400 37.60800
H  6.95600 50.04200 36.54800
N  8.03700 55.58100 41.17700
C  9.29400 55.19200 40.74800
C  10.14100 56.34900 40.59400
C  9.31800 57.47000 40.75900
C  7.91600 56.92200 41.05100
C  11.58300 56.26000 40.24000
C  9.73400 58.97000 40.55300
O  10.90200 59.24100 40.26100
C  8.85100 60.09200 40.97100
N  5.02200 56.02100 41.55400
C  5.37400 57.28400 41.47300
C  4.18100 58.29700 41.61500
C  2.97300 57.35300 41.88100
C  3.73200 56.00400 41.95500
C  4.35000 59.22500 42.86800
C  1.82200 57.48900 40.84300
C  0.68200 58.51800 41.11800
N  4.76500 53.19000 41.68800
C  3.43400 53.49500 41.88000
C  2.76500 52.26800 41.98500
C  3.68200 51.24900 41.62100
C  4.86400 51.89800 41.43900
C  1.34500 52.16500 42.32200
C  3.82400 49.87100 41.53000
O  3.01700 48.96700 41.86400
C  5.29900 49.62400 41.05000
C  5.14000 48.92600 39.71900
O  4.82900 49.45700 38.64400
O  5.45500 47.62000 39.97900
C  5.16600 46.69400 38.95200
H  10.77700 53.64900 40.32700
H  6.70800 58.70200 40.90700
H  1.86900 54.86000 42.20300
H  8.21900 49.64800 41.03900
H  10.31900 51.11100 39.56300
H  10.44000 51.83100 42.28300
H  11.66000 50.97500 41.21300
H  10.51500 50.01800 42.11600
H  7.55700 48.85200 39.02100
H  9.20800 49.33900 38.66000
H  8.87200 50.61600 37.06600
H  7.54300 51.54200 37.86000
H  12.09300 57.16800 40.56300
H  11.68600 56.07900 39.17000
H  12.01000 55.47300 40.86100
H  8.29700 60.37200 40.07500
H  9.51800 60.93300 41.15800
H  8.26800 59.89000 41.86900
H  4.23900 58.96600 40.75600
H  2.51200 57.52400 42.85300
H  5.27400 59.79800 42.78900
H  4.38200 58.60700 43.76500
H  3.52100 59.93200 42.86200
H  1.36700 56.55200 40.52100
H  2.24100 57.79900 39.88500
H  -0.28900 58.04300 40.97400
H  0.86400 59.45900 40.59800
H  0.82500 58.86300 42.14200
H  0.69100 52.47000 41.50500
H  1.26800 52.79300 43.20900
H  1.00300 51.16200 42.57700
H  5.74400 48.86500 41.69300
H  5.89700 45.89200 39.05400
H  5.24400 47.06200 37.92900
H  4.28900 46.10800 39.22700

