158

Mg 47.72400 45.95700 43.55300
C  44.47500 46.34500 42.47500
C  47.67200 42.69300 42.35300
C  50.96300 45.63300 44.24000
C  47.72800 49.16000 44.82700
N  46.28300 44.75100 42.25400
C  45.00400 45.14000 41.99100
C  44.17900 43.96600 41.42000
C  45.13100 42.72500 41.49900
C  46.40900 43.36300 42.10500
C  44.61500 41.47900 42.34100
C  43.55600 44.31500 39.98100
C  42.27600 43.64200 39.59100
H  42.53100 42.58000 38.49800
N  49.13500 44.32200 43.46000
C  48.93100 43.11000 42.89600
C  50.15100 42.26500 43.03600
C  51.14300 43.08600 43.63400
C  50.41200 44.42300 43.83300
C  50.18100 40.84000 42.68100
C  52.52500 42.67100 43.91600
O  52.85000 41.59200 43.54700
C  53.53800 43.71500 44.46000
N  49.17100 47.29500 44.22900
C  50.43700 46.91000 44.49700
C  51.28400 48.10300 45.10200
C  50.26900 49.28200 45.17300
C  48.96400 48.57100 44.75400
C  51.91500 47.83300 46.43800
C  50.67200 50.47200 44.20200
C  51.31200 51.70300 44.88700
N  46.40600 47.49400 43.54400
C  46.55000 48.71300 44.26100
C  45.27500 49.37100 44.27100
C  44.44500 48.47800 43.65900
C  45.15800 47.36400 43.19900
C  45.02000 50.85800 44.83900
C  43.06900 48.27400 43.25200
O  42.05300 48.97000 43.25100
C  43.11300 46.91500 42.39900
C  42.04500 45.98100 42.75200
O  41.06200 45.76200 42.06700
O  42.20300 45.46200 44.03900
C  41.21800 44.49100 44.43700
H  47.63200 41.67500 41.96200
H  52.02900 45.67900 44.47400
H  47.61300 50.09900 45.37300
H  43.42700 43.61900 42.12900
H  45.39100 42.32800 40.51800
H  45.41000 41.02500 42.93300
H  44.13700 40.79900 41.63600
H  43.79500 41.71500 43.02000
H  44.30300 44.01400 39.24700
H  43.33200 45.38100 39.94300
H  41.52000 44.32900 39.21100
H  41.92900 43.10700 40.47500
H  50.05400 40.61900 41.62100
H  49.30100 40.36900 43.11900
H  50.99900 40.23300 43.07100
H  53.64500 44.46900 43.68000
H  54.49000 43.27400 44.75400
H  53.05100 44.09900 45.35700
H  52.05700 48.20700 44.34100
H  50.03900 49.58200 46.19500
H  53.00500 47.81500 46.45300
H  51.41400 46.94500 46.82600
H  51.64800 48.62100 47.14300
H  49.77500 50.60800 43.59600
H  51.42800 50.09800 43.51200
H  52.26900 51.95600 44.43100
H  51.55200 51.33200 45.88300
H  50.56700 52.49400 44.79200
H  44.00300 51.11600 45.13400
H  45.28500 51.59200 44.07800
H  45.57800 50.97600 45.76800
H  42.88200 47.34600 41.42500
H  41.57700 43.51900 44.09900
H  40.25000 44.55800 43.94000
H  41.08100 44.56600 45.51500
Mg -8.92700 18.46300 43.18600
C  -5.39900 18.24800 43.29900
C  -8.48900 21.95100 42.65900
C  -12.01500 18.71600 42.62900
C  -9.04400 14.92200 43.31100
N  -7.09100 19.92400 42.90800
C  -5.80900 19.51800 42.98700
C  -4.85100 20.74800 42.78900
C  -5.87200 21.98100 42.91300
C  -7.27100 21.27600 42.80900
C  -5.63200 22.93400 44.15600
C  -4.00900 20.66600 41.52600
C  -4.46500 19.69600 40.41900
H  -4.93700 20.45900 39.15000
N  -10.10900 20.12300 42.70900
C  -9.80400 21.46500 42.59700
C  -10.99500 22.18200 42.21600
C  -12.05200 21.22100 42.13600
C  -11.38900 19.97100 42.43600
C  -10.93900 23.55400 41.81900
C  -13.38100 21.47300 41.68900
O  -13.87900 22.59300 41.65300
C  -14.14700 20.35100 41.00200
N  -10.32100 16.99000 42.61100
C  -11.57900 17.34800 42.84300
C  -12.53100 16.09200 43.01500
C  -11.55800 14.92200 43.21700
C  -10.22700 15.65800 42.99000
C  -13.76900 16.17900 43.95000
C  -11.84000 13.68000 42.31700
C  -12.76900 12.72200 43.02200
N  -7.50600 16.85800 43.27900
C  -7.75300 15.49700 43.35100
C  -6.47300 14.81200 43.40300
C  -5.56400 15.85500 43.42800
C  -6.26000 17.09700 43.34600
C  -6.32700 13.36300 43.41200
C  -4.14600 16.14700 43.52000
O  -3.16200 15.45600 43.64100
C  -4.00200 17.70200 43.31400
C  -3.28300 18.20500 44.52700
O  -2.10800 18.58300 44.52600
O  -4.01600 18.13700 45.71400
C  -3.39000 18.70800 46.96400
H  -8.31900 23.02500 42.56500
H  -13.10700 18.71400 42.64400
H  -9.17400 13.94200 43.77600
H  -4.26500 20.71900 43.70800
H  -5.79200 22.48800 41.95100
H  -5.44000 23.95800 43.83700
H  -4.78600 22.67100 44.79200
H  -6.50200 22.97200 44.81200
H  -3.00400 20.42600 41.87200
H  -3.97200 21.63100 41.02200
H  -5.25100 19.02800 40.77100
H  -3.73300 18.95300 40.10300
H  -11.38000 24.22500 42.55700
H  -11.57700 23.59600 40.93600
H  -9.90800 23.86900 41.65900
H  -14.96600 19.85400 41.52200
H  -13.50900 19.63700 40.48100
H  -14.79700 20.85000 40.28200
H  -13.10200 15.86800 42.11400
H  -11.44300 14.63100 44.26100
H  -13.58900 15.56700 44.83400
H  -14.67600 15.81900 43.46600
H  -13.99800 17.20800 44.22600
H  -10.99900 13.06800 41.99300
H  -12.33600 14.07100 41.42800
H  -12.52400 11.66000 42.98900
H  -13.69000 12.75200 42.44000
H  -12.84100 13.03200 44.06400
H  -6.39000 12.90500 44.39900
H  -5.36700 12.95700 43.09300
H  -7.03900 12.89000 42.73600
H  -3.44000 17.94400 42.41200
H  -4.21100 18.74900 47.68000
H  -2.93000 19.69300 46.87600
H  -2.72000 17.97700 47.41700

