158

Mg 53.87100 23.45400 45.15600
C  51.57700 26.06400 44.30100
C  51.54100 21.25300 43.94400
C  56.32100 21.21000 45.14900
C  56.26300 25.96200 46.15700
N  51.72400 23.69300 44.25600
C  51.02200 24.83600 44.00700
C  49.60800 24.52200 43.50200
C  49.57900 22.90100 43.67500
C  51.04300 22.55700 44.04900
C  48.44100 22.39700 44.64800
C  49.39000 25.04500 42.06000
C  47.90200 25.18500 41.66400
H  47.50100 24.36200 40.39000
N  53.90100 21.48400 44.59800
C  52.87600 20.74700 44.05600
C  53.29700 19.36500 43.99400
C  54.72000 19.31600 44.30700
C  55.05800 20.68600 44.70200
C  52.43700 18.23500 43.40300
C  55.56000 18.04600 44.34900
O  55.15700 16.96700 43.87600
C  56.88500 17.94100 45.05000
N  56.02500 23.62700 45.33000
C  56.77900 22.50900 45.38400
C  58.22500 22.74400 45.76100
C  58.22000 24.24200 45.98300
C  56.77800 24.69400 45.75300
C  58.78700 21.95900 46.91900
C  59.17600 24.99800 44.98800
C  59.82600 26.34000 45.53900
N  53.96400 25.55300 45.30300
C  54.92300 26.37600 45.75500
C  54.37500 27.75100 45.78700
C  53.11000 27.65900 45.15600
C  52.92600 26.31900 44.84200
C  55.16500 28.95600 46.18900
C  51.95300 28.44500 44.79200
O  51.70100 29.69600 44.93500
C  51.07500 27.44000 44.05900
C  51.21500 27.79300 42.61900
O  51.92600 27.26300 41.77500
O  50.44100 28.89100 42.32400
C  50.16500 29.19500 40.98300
H  50.82800 20.45400 43.73100
H  57.10800 20.45400 45.17100
H  56.91700 26.74700 46.54300
H  48.92200 25.10900 44.11300
H  49.39100 22.43100 42.71000
H  47.98500 21.46200 44.32200
H  47.62400 23.11700 44.69300
H  48.73500 22.29100 45.69200
H  49.80500 24.25600 41.43400
H  49.82900 26.00500 41.78700
H  47.70500 26.23200 41.43300
H  47.27400 24.87400 42.49900
H  51.36800 18.42200 43.29500
H  52.48900 17.46200 44.17000
H  52.89600 17.88400 42.47900
H  57.65000 18.40900 44.43000
H  57.08600 16.87300 45.12600
H  56.92700 18.37700 46.04800
H  58.78500 22.39900 44.89200
H  58.53400 24.39600 47.01500
H  59.71900 22.37500 47.30000
H  58.87900 20.91700 46.61400
H  58.08300 21.84500 47.74400
H  58.64000 25.37100 44.11500
H  59.92800 24.26600 44.69500
H  60.88200 26.09000 45.64000
H  59.37700 26.66400 46.47700
H  59.73200 27.10400 44.76800
H  56.24500 28.80800 46.22400
H  54.71100 29.24800 47.13600
H  55.00400 29.68600 45.39500
H  50.00800 27.44200 44.28100
H  49.15500 29.60500 40.95300
H  50.32600 28.40000 40.25600
H  50.72400 30.10200 40.75100
Mg 48.40900 46.43200 42.50700
C  45.22700 46.79000 41.06900
C  48.56700 43.23600 40.94300
C  51.88100 46.30000 43.03500
C  48.35700 49.78900 43.35800
N  47.05600 45.10000 41.30300
C  45.81700 45.51200 40.79000
C  45.29600 44.42700 39.84600
C  46.10400 43.16800 40.29400
C  47.31300 43.81100 40.87800
C  45.40600 42.22200 41.29600
C  45.34400 44.76700 38.34100
C  43.96400 44.70900 37.60900
H  44.01200 43.92300 36.25800
N  50.03200 44.90000 42.13000
C  49.79000 43.69100 41.51400
C  51.06200 42.95600 41.50100
C  52.06500 43.78200 42.11500
C  51.31700 45.07100 42.48700
C  51.16900 41.61300 41.02200
C  53.50800 43.43600 42.47800
O  53.95500 42.29300 42.22300
C  54.51300 44.41200 43.05400
N  49.92800 47.76500 43.16500
C  51.25500 47.47700 43.39600
C  52.06500 48.72600 43.88400
C  50.87000 49.81400 43.87100
C  49.60000 49.06600 43.50400
C  52.53100 48.45900 45.39500
C  51.16300 51.00800 42.88200
C  51.14100 52.47600 43.43400
N  47.07100 47.95200 42.45400
C  47.15100 49.24700 42.85200
C  45.91900 49.86200 42.62200
C  45.08400 48.96200 41.96000
C  45.85100 47.78200 41.81700
C  45.45600 51.25500 43.03500
C  43.75700 48.75100 41.30800
O  42.76300 49.44100 41.21600
C  43.88200 47.28400 40.67400
C  42.69500 46.44900 41.08400
O  41.84400 46.03200 40.36100
O  42.79000 46.20200 42.39900
C  41.95200 45.19200 43.03500
H  48.76400 42.25000 40.51600
H  52.95100 46.27100 43.24800
H  48.54100 50.83400 43.61300
H  44.27000 44.33800 40.20400
H  46.32100 42.58300 39.40100
H  44.46500 42.61800 41.67800
H  45.96700 42.08500 42.22100
H  45.23600 41.27600 40.78100
H  46.00200 44.09800 37.78700
H  45.65300 45.81300 38.34600
H  43.61900 45.70200 37.32200
H  43.20300 44.22900 38.22400
H  52.21800 41.34900 40.88800
H  50.81700 41.46600 40.00100
H  50.69800 40.87900 41.67500
H  54.14600 44.54400 44.07100
H  54.62600 45.38000 42.56500
H  55.43100 43.82500 43.08500
H  52.86400 48.96700 43.18300
H  50.72800 50.19400 44.88300
H  52.40200 49.37700 45.96900
H  53.58300 48.17600 45.41900
H  51.93300 47.68600 45.87700
H  50.50500 50.82600 42.03200
H  52.15800 50.83300 42.47300
H  50.70200 52.43600 44.43100
H  50.40800 53.09000 42.91100
H  52.11500 52.96400 43.47600
H  45.95100 51.38200 43.99800
H  44.37000 51.19400 43.10800
H  45.82400 52.09600 42.44800
H  43.81300 47.42800 39.59600
H  42.53100 44.29600 43.25700
H  41.07300 44.85900 42.48300
H  41.61400 45.51300 44.02000

