158

Mg 7.94900 3.57900 27.27500
C  9.37500 2.04300 30.17100
C  5.67000 5.16000 29.29700
C  6.75600 4.82300 24.55500
C  9.94800 1.40500 25.37200
N  7.50800 3.56000 29.53700
C  8.25400 2.95400 30.49200
C  7.72100 3.21400 31.90800
C  6.51500 4.16700 31.56300
C  6.61500 4.40300 30.08500
C  5.10000 3.68400 32.01500
C  8.78300 3.88500 32.83700
C  8.25100 4.44500 34.17600
H  9.22200 4.36100 35.38300
N  6.47400 4.88200 27.04400
C  5.59600 5.37800 27.96000
C  4.66000 6.22500 27.25500
C  4.95900 6.09200 25.86200
C  6.12600 5.26100 25.74200
C  3.52200 6.98100 27.94900
C  4.43600 6.74700 24.74100
O  4.48500 6.39400 23.56100
C  3.73800 8.13700 24.90900
N  8.32300 3.22400 25.26900
C  7.66300 3.87900 24.30200
C  7.95600 3.37100 22.82600
C  9.14500 2.34000 23.16900
C  9.10200 2.25000 24.69800
C  6.75900 2.93600 21.96000
C  10.53000 2.62000 22.54400
C  11.56200 3.44200 23.44100
N  9.45500 2.12700 27.64000
C  10.15600 1.32700 26.73500
C  10.99500 0.34000 27.43800
C  10.68400 0.68800 28.77000
C  9.75900 1.73100 28.82500
C  11.72500 -0.79200 26.90400
C  11.05400 0.29600 30.09600
O  11.78800 -0.58300 30.46700
C  10.23000 1.22000 31.04100
C  9.44100 0.33400 31.93300
O  8.73500 -0.66800 31.59800
O  9.66400 0.68400 33.16600
C  8.58400 0.25800 34.07100
H  4.93000 5.72300 29.86900
H  6.38600 5.10500 23.56700
H  10.60900 0.76100 24.78800
H  7.55300 2.32200 32.51100
H  6.60400 5.17400 31.97000
H  4.55300 4.45700 32.55400
H  5.19200 2.76800 32.59900
H  4.45000 3.58200 31.14500
H  9.24800 4.65100 32.21600
H  9.52600 3.19700 33.24100
H  7.39200 3.79300 34.33400
H  7.93900 5.48000 34.03800
H  3.98500 7.81200 28.48000
H  3.17200 6.26500 28.69200
H  2.67800 7.29400 27.33400
H  2.75000 7.93200 25.32000
H  3.72900 8.61500 23.92900
H  4.38300 8.65200 25.62000
H  8.22700 4.28600 22.30000
H  8.80700 1.44200 22.65200
H  6.00500 2.34000 22.47400
H  7.12000 2.41900 21.07200
H  6.26100 3.83000 21.58300
H  10.40000 3.09300 21.57100
H  10.97300 1.68400 22.20400
H  11.13700 4.01600 24.26500
H  11.87000 4.33600 22.89900
H  12.41200 2.83300 23.74900
H  11.88000 -0.76900 25.82500
H  11.34300 -1.76300 27.22000
H  12.74500 -0.67700 27.27100
H  11.00000 1.77900 31.57300
H  8.77900 -0.68700 34.57700
H  7.56500 0.21000 33.68600
H  8.56000 0.89100 34.95800
Mg 25.26400 1.37900 29.38800
C  27.37300 1.28100 32.16800
C  22.60800 1.85800 31.51600
C  23.18000 1.30500 26.59800
C  28.03300 0.78600 27.39400
N  25.02400 1.59200 31.62600
C  26.00800 1.48500 32.52500
C  25.38400 1.46900 33.91000
C  23.83700 1.55800 33.67800
C  23.80400 1.75700 32.19000
C  23.00800 0.36600 34.14700
C  25.94100 2.74300 34.55000
C  26.69200 2.49800 35.81100
H  26.56600 3.38900 37.06100
N  23.23900 1.42700 29.15000
C  22.36100 1.67600 30.12500
C  20.97900 1.54200 29.62100
C  21.09300 1.42200 28.20900
C  22.55900 1.31400 27.89800
C  19.72400 1.56000 30.57200
C  20.07700 1.47100 27.27600
O  20.26600 1.33400 26.10100
C  18.64000 1.76500 27.62700
N  25.50100 1.02900 27.34400
C  24.56200 1.23000 26.36300
C  25.26100 1.25700 24.97800
C  26.79600 1.27500 25.22400
C  26.80300 1.03600 26.77100
C  24.73400 0.24700 23.97600
C  27.59900 2.49700 24.73500
C  27.16600 3.87500 25.22400
N  27.34100 1.08600 29.64800
C  28.30400 0.69500 28.74900
C  29.57300 0.45600 29.43600
C  29.22700 0.72900 30.73300
C  27.90300 1.08800 30.86400
C  30.85000 0.01700 28.83800
C  29.80400 0.83500 32.06400
O  30.94500 0.57700 32.41800
C  28.54300 1.13800 33.04800
C  28.46500 -0.01400 33.85100
O  28.00800 -1.10400 33.59200
O  29.07000 0.29300 34.98300
C  29.06000 -0.68900 36.05300
H  21.80400 2.11300 32.21000
H  22.54200 1.50700 25.73500
H  28.92700 0.63200 26.78700
H  25.64000 0.52200 34.38600
H  23.34900 2.45200 34.06600
H  22.07400 0.70600 34.59300
H  23.53100 -0.13300 34.96300
H  22.70600 -0.36800 33.40000
H  25.11100 3.41000 34.77900
H  26.58800 3.30000 33.87200
H  27.75900 2.51500 35.58800
H  26.29200 1.53200 36.11900
H  18.99400 0.90000 30.10400
H  19.34800 2.57700 30.68100
H  20.09500 1.11300 31.49400
H  18.05100 1.89500 26.71900
H  18.45100 2.70500 28.14600
H  18.18500 0.88600 28.08300
H  25.02000 2.24000 24.57400
H  27.37000 0.43500 24.83400
H  24.12900 0.80600 23.26300
H  24.14600 -0.56700 24.40000
H  25.59500 -0.09000 23.39900
H  27.45200 2.49700 23.65500
H  28.62700 2.29100 25.03400
H  26.52100 3.63700 26.07000
H  26.56400 4.41000 24.49000
H  27.96600 4.55800 25.51200
H  31.59800 -0.00100 29.63100
H  31.15600 0.82000 28.16700
H  30.66200 -0.94500 28.36100
H  28.74800 2.06300 33.58700
H  29.27200 -1.71400 35.75000
H  28.06900 -0.76200 36.50100
H  29.78300 -0.38500 36.81000

