158

Mg 24.68900 -7.87000 45.87700
C  27.12600 -5.52000 45.00700
C  22.39600 -6.38600 43.96100
C  22.61400 -10.45000 46.64800
C  27.30500 -9.59300 47.73500
N  24.76900 -6.18100 44.62900
C  25.92000 -5.35800 44.40000
C  25.52900 -4.21400 43.32400
C  23.93500 -4.35000 43.20800
C  23.68900 -5.72200 43.92600
C  23.20200 -3.16300 43.84200
C  26.29600 -4.45500 42.00200
C  25.68600 -3.61000 40.85000
H  24.90200 -4.22700 39.69600
N  22.81300 -8.37900 45.33900
C  21.97300 -7.55500 44.65400
C  20.65300 -8.19700 44.55000
C  20.68100 -9.34600 45.33600
C  22.11300 -9.46500 45.81300
C  19.47100 -7.61500 43.67300
C  19.39600 -10.22600 45.68500
O  18.30400 -9.97500 45.16200
C  19.48400 -11.50000 46.41200
N  24.94300 -9.72800 46.92700
C  23.92600 -10.52500 47.14000
C  24.25100 -11.75600 48.05100
C  25.83900 -11.66800 48.19200
C  26.07500 -10.25600 47.53200
C  23.58800 -11.70200 49.45000
C  26.72900 -12.72800 47.45500
C  28.00000 -13.25900 48.25400
N  26.82800 -7.57900 46.36600
C  27.66900 -8.30800 47.14200
C  28.91400 -7.61600 47.24700
C  28.74500 -6.50300 46.42100
C  27.47300 -6.52100 45.86600
C  30.13600 -8.10000 48.05100
C  29.38100 -5.37500 45.85300
O  30.54200 -4.97400 46.06600
C  28.42300 -4.67100 44.81500
C  28.30200 -3.25200 45.09600
O  28.82800 -2.44900 44.32000
O  27.44800 -2.92600 46.13600
C  27.00500 -1.50400 46.17100
H  21.64600 -5.86900 43.35900
H  21.88900 -11.23300 46.88000
H  28.05600 -10.18500 48.26200
H  25.94900 -3.33900 43.82100
H  23.64300 -4.49900 42.16800
H  22.74200 -2.66000 42.99200
H  23.66600 -2.47900 44.55100
H  22.36300 -3.51900 44.44000
H  26.11400 -5.51100 41.80300
H  27.28900 -4.04100 42.17500
H  26.54500 -3.00200 40.56600
H  24.92500 -2.93000 41.23400
H  19.56400 -6.53700 43.53800
H  18.50000 -7.75400 44.14800
H  19.51700 -8.22300 42.76900
H  19.95100 -11.23700 47.36100
H  20.15600 -12.14800 45.84900
H  18.52300 -11.99900 46.53300
H  24.06400 -12.64400 47.44800
H  26.16800 -11.71500 49.23100
H  23.14900 -12.69800 49.52100
H  22.80700 -10.95100 49.57300
H  24.19600 -11.75600 50.35300
H  26.94800 -12.31600 46.47000
H  26.10500 -13.59500 47.23400
H  28.23900 -12.71500 49.16800
H  28.86600 -13.18400 47.59600
H  27.80400 -14.32600 48.36600
H  30.50700 -9.00900 47.57700
H  29.88500 -8.20000 49.10700
H  30.85500 -7.28700 47.94800
H  28.90100 -4.74500 43.83900
H  26.45000 -1.28500 45.25900
H  27.81200 -0.79400 45.99100
H  26.36200 -1.29800 47.02700
Mg 16.81000 -3.33500 28.49400
C  16.09400 -1.06100 31.11200
C  18.31500 -5.38000 30.70800
C  18.07700 -5.02100 25.89800
C  15.52000 -0.86400 26.26300
N  17.24200 -3.11900 30.64300
C  16.85900 -2.20200 31.53700
C  17.18400 -2.68200 32.98700
C  18.08100 -3.96100 32.73200
C  17.87800 -4.14800 31.28600
C  19.62600 -3.81300 33.09000
C  15.89800 -3.03100 33.86300
C  15.70200 -2.27400 35.16500
H  16.83300 -1.87800 35.95700
N  17.87300 -5.04200 28.25500
C  18.36500 -5.76300 29.35200
C  18.88800 -7.03600 28.86300
C  18.82800 -6.94200 27.42000
C  18.25500 -5.64700 27.12500
C  19.36200 -8.18800 29.70100
C  19.35200 -7.96000 26.34700
O  19.32000 -7.70200 25.17300
C  19.97000 -9.23900 26.78900
N  16.61400 -3.08800 26.40400
C  17.30500 -3.89300 25.54500
C  17.11500 -3.46600 24.12900
C  16.17900 -2.23200 24.17000
C  16.03400 -2.03300 25.70700
C  18.50700 -3.25100 23.37500
C  14.84300 -2.35100 23.33500
C  13.55800 -2.04600 24.04700
N  15.84500 -1.42200 28.60800
C  15.37200 -0.53100 27.63400
C  14.76300 0.70600 28.29500
C  14.99700 0.45800 29.62600
C  15.67100 -0.81900 29.74500
C  14.15600 1.80900 27.53900
C  14.96200 1.12800 30.96800
O  14.48500 2.22000 31.20600
C  15.55600 0.09400 31.97900
C  16.53300 0.83100 32.75900
O  17.67100 1.09500 32.39700
O  15.93300 1.38700 33.82400
C  16.55000 2.45200 34.59000
H  18.70600 -6.15000 31.37800
H  18.43500 -5.58300 25.03300
H  15.08200 -0.13800 25.57500
H  17.78900 -1.90700 33.45800
H  17.61100 -4.83000 33.19200
H  20.17300 -3.65700 32.16000
H  20.01500 -4.74800 33.49200
H  19.72900 -3.03800 33.85000
H  15.68000 -4.05800 34.15700
H  15.06700 -2.76000 33.21200
H  14.90600 -2.70400 35.77300
H  15.23800 -1.35300 34.80900
H  18.76100 -9.02800 29.35500
H  19.05700 -8.05100 30.73900
H  20.42100 -8.43500 29.62200
H  20.85500 -9.24300 27.42600
H  20.26500 -9.83700 25.92600
H  19.14900 -9.79800 27.23800
H  16.60000 -4.37200 23.81300
H  16.65600 -1.37000 23.70300
H  18.67800 -2.17900 23.27300
H  18.51800 -3.70000 22.38100
H  19.30400 -3.50800 24.07200
H  14.79600 -3.33500 22.86900
H  14.88000 -1.70300 22.45900
H  13.37400 -2.60900 24.96200
H  12.78600 -2.29200 23.31800
H  13.58600 -0.97100 24.22200
H  14.47100 1.64000 26.50900
H  14.51000 2.80600 27.79900
H  13.07100 1.70500 27.53400
H  14.86900 -0.32800 32.71300
H  15.96000 3.36600 34.65800
H  17.58300 2.65700 34.30600
H  16.43900 2.18700 35.64100

