158

Mg 25.65100 -0.74000 29.28900
C  27.68000 -0.62600 32.12700
C  23.03400 0.21800 31.19900
C  23.76500 -0.52000 26.51700
C  28.39100 -1.74700 27.33200
N  25.43900 -0.36200 31.48900
C  26.40100 -0.14000 32.44400
C  25.88700 0.38600 33.78500
C  24.28900 0.45800 33.41900
C  24.20800 0.07400 31.93300
C  23.41700 -0.54300 34.30900
C  26.63200 1.69400 34.11000
C  27.59300 1.70700 35.31600
H  27.14800 2.64200 36.53500
N  23.62600 -0.27300 28.89900
C  22.74800 0.12500 29.87000
C  21.50100 0.42100 29.19000
C  21.73700 0.32800 27.80500
C  23.08600 -0.17100 27.69400
C  20.17300 0.72100 29.91100
C  20.91600 0.68400 26.62700
O  21.22100 0.50100 25.46900
C  19.54500 1.34900 26.86500
N  26.02900 -1.21400 27.20200
C  25.08700 -0.95900 26.19700
C  25.81400 -1.07500 24.81300
C  27.30200 -1.30000 25.14900
C  27.21500 -1.49800 26.64500
C  25.24500 -2.07000 23.75500
C  28.28000 -0.18200 24.62100
C  28.53000 1.06700 25.44200
N  27.61600 -1.23000 29.60800
C  28.56700 -1.69300 28.73600
C  29.72500 -1.98100 29.47200
C  29.51400 -1.50900 30.78100
C  28.15600 -1.13300 30.86600
C  31.04000 -2.45400 28.94100
C  30.12900 -1.28700 32.04400
O  31.26400 -1.52700 32.43100
C  29.02100 -0.61800 32.92500
C  29.04600 -1.33600 34.26800
O  28.43100 -2.34100 34.55000
O  29.74300 -0.54400 35.10900
C  29.90100 -1.14700 36.47300
H  22.20100 0.37400 31.88800
H  23.24700 -0.34200 25.57200
H  29.33300 -1.87700 26.79500
H  25.97200 -0.38900 34.54700
H  23.88300 1.46400 33.53100
H  24.04700 -0.97300 35.08700
H  22.74300 -1.24300 33.81600
H  22.69700 0.02200 34.90300
H  25.85200 2.43800 34.26900
H  27.21800 2.00100 33.24400
H  28.57000 2.08600 35.01600
H  27.73200 0.69400 35.69400
H  19.95400 1.78800 29.94000
H  20.30400 0.51600 30.97400
H  19.38700 0.08800 29.50000
H  19.45900 2.12600 27.62500
H  18.76400 0.63400 27.12300
H  19.20900 1.76000 25.91300
H  25.67100 -0.06500 24.42700
H  27.64100 -2.25200 24.74000
H  24.79400 -1.39900 23.02400
H  24.62000 -2.84800 24.19300
H  26.05600 -2.53700 23.19500
H  27.93400 0.08600 23.62300
H  29.30400 -0.54300 24.52600
H  27.94100 1.05300 26.35900
H  28.35300 1.96400 24.84800
H  29.58900 1.15300 25.68600
H  31.27400 -1.93100 28.01400
H  31.09500 -3.54100 28.88200
H  31.67300 -2.05500 29.73500
H  29.28800 0.42800 33.07700
H  29.17700 -0.69100 37.14800
H  30.92200 -1.05400 36.84300
H  29.79400 -2.22900 36.53900
Mg 35.24800 48.62300 25.49800
C  35.40900 46.96000 28.54700
C  34.22800 51.44700 27.20500
C  34.53300 49.98600 22.47700
C  36.21900 45.64300 23.86600
N  34.77000 49.08300 27.72100
C  35.01800 48.29200 28.72800
C  34.90900 49.03500 30.05400
C  34.38700 50.39900 29.61500
C  34.44600 50.33000 28.09800
C  32.91200 50.79200 29.98600
C  36.23300 49.03200 30.81300
C  36.10200 48.66200 32.28100
H  34.77700 49.10700 32.95000
N  34.53500 50.50600 24.84300
C  34.19100 51.57700 25.68200
C  33.89100 52.73600 24.90500
C  34.01500 52.32400 23.53200
C  34.34600 50.90900 23.53700
C  33.48800 54.05600 25.60600
C  33.76800 53.19200 22.29100
O  33.83200 52.74600 21.19400
C  33.44900 54.66600 22.53700
N  35.24900 47.90200 23.46500
C  34.98300 48.69300 22.39800
C  35.36000 48.07200 21.07600
C  36.23200 46.87800 21.60600
C  35.89200 46.77500 23.10000
C  34.17700 47.60400 20.23700
C  37.76000 47.13400 21.17400
C  38.72600 47.90300 22.14400
N  35.70400 46.67800 26.01100
C  36.10200 45.50800 25.29600
C  36.48300 44.40900 26.17900
C  36.18500 44.98600 27.42700
C  35.59100 46.31000 27.31500
C  37.16500 43.18200 25.78800
C  36.44100 44.67300 28.85800
O  37.05900 43.71100 29.33700
C  35.82300 45.93000 29.59400
C  34.62500 45.40400 30.18000
O  33.57600 45.16200 29.64200
O  34.91900 45.10600 31.47800
C  33.74800 44.61900 32.26400
H  33.92100 52.29900 27.81600
H  34.47100 50.58600 21.56700
H  36.53100 44.78200 23.27100
H  34.16400 48.49600 30.63900
H  35.00700 51.25500 29.88200
H  32.22200 50.79800 29.14200
H  32.84700 51.75000 30.50000
H  32.50200 50.00200 30.61400
H  36.77000 49.95400 30.58900
H  36.96700 48.37700 30.34200
H  36.89600 49.07000 32.90600
H  36.28900 47.58900 32.32100
H  32.50800 54.34600 25.22900
H  34.06800 54.95200 25.38700
H  33.42000 53.99400 26.69200
H  32.50400 54.83900 23.05200
H  33.31500 55.20000 21.59600
H  34.22800 55.15300 23.12300
H  35.96200 48.68400 20.40500
H  35.83800 45.94100 21.21200
H  34.29600 46.61600 19.79400
H  34.07400 48.27200 19.38200
H  33.29700 47.64000 20.88000
H  37.70000 47.65700 20.21900
H  38.18100 46.18100 20.85100
H  38.31700 48.02900 23.14600
H  38.98100 48.87700 21.72700
H  39.57800 47.24200 22.30400
H  37.84100 42.90400 26.59600
H  37.61100 43.07400 24.79900
H  36.44900 42.36300 25.72100
H  36.58400 46.25800 30.30200
H  33.00700 45.41400 32.18300
H  33.92400 44.31900 33.29700
H  33.26700 43.77900 31.76300

