158

Mg 16.54000 52.42200 25.11700
C  18.26500 51.15000 27.97100
C  13.84300 53.20000 27.19600
C  14.78800 53.47500 22.42800
C  18.96200 51.06400 23.17400
N  16.05400 52.13900 27.31100
C  16.92700 51.63400 28.28000
C  16.31600 51.91400 29.76100
C  14.84200 52.28300 29.37600
C  14.91700 52.54400 27.85100
C  13.77000 51.27700 29.83300
C  17.10400 53.09200 30.48400
C  17.57100 52.73600 31.89700
H  16.74600 51.91700 32.84400
N  14.62000 53.22900 24.87500
C  13.67800 53.50600 25.81900
C  12.42800 53.99800 25.26100
C  12.68000 54.10400 23.85800
C  14.13500 53.65000 23.72100
C  11.09900 54.19300 26.08600
C  11.77700 54.47400 22.67700
O  12.12700 54.50500 21.46400
C  10.39600 54.94100 22.90900
N  16.76300 52.22300 23.10700
C  16.01200 52.79000 22.19100
C  16.44300 52.53700 20.71800
C  17.89900 52.00400 21.03400
C  17.92900 51.76500 22.50100
C  15.55000 51.57100 19.95800
C  19.11000 53.01200 20.62500
C  20.04200 52.83100 19.43400
N  18.27700 51.37100 25.46600
C  19.20700 50.96200 24.50300
C  20.42700 50.46800 25.19400
C  20.09300 50.62900 26.55300
C  18.74200 51.12900 26.66200
C  21.63900 49.88700 24.67300
C  20.55200 50.39700 27.83400
O  21.67700 50.07900 28.20000
C  19.44500 50.73700 28.83200
C  19.30100 49.52800 29.70900
O  18.83500 48.43000 29.38000
O  19.77500 49.91300 30.93400
C  19.68900 48.86700 31.88600
H  13.01700 53.47100 27.85700
H  14.35000 53.85200 21.50100
H  19.69700 50.70200 22.45300
H  16.33300 50.97600 30.31600
H  14.61900 53.28900 29.73200
H  14.14400 50.54100 30.54400
H  13.28900 50.78300 28.98900
H  12.96300 51.79500 30.35100
H  16.42100 53.92700 30.63900
H  18.01800 53.28900 29.92400
H  17.82900 53.66500 32.40500
H  18.53300 52.23400 31.79200
H  11.01100 55.18700 26.52500
H  11.09600 53.47200 26.90300
H  10.25700 53.96400 25.43300
H  10.26500 55.80000 23.56600
H  9.86200 54.10200 23.35600
H  9.84400 55.07300 21.97900
H  16.45600 53.42800 20.09000
H  18.14800 51.00500 20.67500
H  14.56900 51.58000 20.43300
H  15.96600 50.56400 19.92500
H  15.34400 51.91000 18.94300
H  19.75000 53.17200 21.49300
H  18.67200 53.96800 20.33700
H  20.04100 51.78400 19.13100
H  21.04000 53.08200 19.79300
H  19.65600 53.44500 18.61900
H  21.59700 49.66800 23.60600
H  21.95400 48.99400 25.21100
H  22.33900 50.71400 24.79100
H  19.62000 51.52800 29.56100
H  18.70200 48.55200 32.22200
H  20.33900 49.21100 32.69100
H  20.13200 47.93500 31.53600
Mg -5.27000 25.00500 26.80600
C  -3.75700 26.51100 29.56800
C  -6.97300 22.88000 28.81000
C  -6.45500 23.61700 23.99200
C  -3.17000 27.13300 24.78000
N  -5.30600 24.74200 28.93500
C  -4.67800 25.48000 29.88600
C  -5.17700 25.03800 31.23300
C  -5.84900 23.67400 30.96200
C  -6.10400 23.71400 29.48200
C  -5.04400 22.46800 31.46800
C  -6.13800 26.11100 31.78600
C  -6.01100 26.37100 33.22800
H  -5.41100 25.29700 34.14400
N  -6.57300 23.49600 26.46900
C  -7.29100 22.77200 27.40000
C  -8.19300 21.90400 26.74300
C  -8.04600 22.14700 25.36900
C  -6.94900 23.11100 25.19200
C  -9.28600 21.13100 27.52300
C  -8.88900 21.48500 24.21000
O  -8.67100 21.74200 23.06300
C  -9.98800 20.48000 24.41900
N  -4.87600 25.34200 24.73000
C  -5.51900 24.57900 23.76200
C  -5.25100 25.14400 22.40400
C  -4.27100 26.39700 22.68800
C  -4.05200 26.27300 24.15000
C  -4.75700 24.09700 21.22700
C  -4.85800 27.81800 22.18500
C  -3.86900 28.55500 21.26200
N  -3.71200 26.44900 27.01100
C  -2.97900 27.15300 26.10800
C  -1.95500 27.93500 26.93600
C  -2.33700 27.82000 28.24800
C  -3.37000 26.90700 28.23100
C  -0.90100 28.88000 26.44800
C  -1.96100 28.23200 29.57500
O  -1.18600 29.05100 30.00400
C  -2.96500 27.40700 30.53500
C  -2.02800 26.67700 31.37100
O  -1.54300 25.62500 31.09000
O  -1.85000 27.35000 32.60000
C  -0.99300 26.75600 33.63300
H  -7.49200 22.23900 29.52600
H  -6.63800 23.10100 23.04700
H  -2.51800 27.78300 24.19200
H  -4.27100 24.83700 31.80400
H  -6.83500 23.74300 31.42100
H  -4.03200 22.67100 31.82000
H  -4.99100 21.79000 30.61600
H  -5.63600 21.97600 32.23800
H  -7.16900 25.78400 31.65500
H  -6.07100 27.06800 31.26800
H  -7.03000 26.45100 33.60800
H  -5.49900 27.28300 33.53200
H  -10.29200 21.35800 27.17000
H  -9.16100 21.17200 28.60500
H  -9.08100 20.09500 27.25400
H  -9.96700 19.89500 23.49900
H  -10.97500 20.90500 24.60300
H  -9.70900 19.78700 25.21300
H  -6.19700 25.55600 22.04900
H  -3.36000 26.12300 22.15600
H  -5.44900 24.07600 20.38500
H  -5.03500 23.15000 21.68900
H  -3.72300 24.17200 20.89000
H  -5.11700 28.44900 23.03400
H  -5.71200 27.74100 21.51200
H  -3.66000 29.53000 21.70400
H  -4.38500 28.84000 20.34500
H  -2.99800 27.93200 21.05900
H  -0.62100 28.59200 25.43400
H  0.02600 28.72200 26.99900
H  -1.26600 29.90500 26.37900
H  -3.37600 28.19100 31.17200
H  0.00600 26.67100 33.20600
H  -1.50900 25.81500 33.82300
H  -0.93700 27.26700 34.59500

