158

Mg 45.53300 4.46200 47.90200
C  43.01900 7.02100 47.23600
C  42.97400 2.20900 47.56200
C  47.91600 2.16200 47.68500
C  47.93200 7.03500 47.66700
N  43.21200 4.62200 47.50700
C  42.48400 5.76600 47.25600
C  41.02300 5.38900 46.91900
C  40.94400 3.82400 47.22600
C  42.48200 3.54400 47.51300
C  40.15100 3.56500 48.45600
C  40.56600 5.65900 45.48200
C  39.18600 6.30700 45.46500
H  38.51200 6.36100 43.97000
N  45.43700 2.44000 47.76300
C  44.29700 1.65300 47.58400
C  44.73500 0.28400 47.61800
C  46.09300 0.19500 47.68800
C  46.58200 1.61500 47.71000
C  43.74100 -0.83600 47.60200
C  47.00200 -1.02400 47.52200
O  46.45700 -2.11200 47.41400
C  48.43000 -1.00200 47.39300
N  47.62200 4.58300 47.53100
C  48.40800 3.46900 47.67100
C  49.91400 3.85200 47.80200
C  49.89000 5.39300 47.73000
C  48.38400 5.70600 47.61500
C  50.61700 3.22600 49.07100
C  50.83000 6.19900 46.72800
C  51.72700 7.32400 47.26500
N  45.57300 6.57900 47.53100
C  46.59500 7.45200 47.65800
C  46.08700 8.78700 47.63200
C  44.71000 8.68000 47.46100
C  44.39100 7.34400 47.41500
C  46.80100 10.03200 47.61400
C  43.46400 9.45900 47.24900
O  43.26000 10.67700 47.16100
C  42.30600 8.34800 47.12300
C  41.37800 8.57200 48.25400
O  41.74700 8.37300 49.40900
O  40.08500 8.69100 47.85400
C  39.04100 8.51000 48.94700
H  42.14700 1.49800 47.62200
H  48.64300 1.35100 47.77000
H  48.78500 7.70700 47.78100
H  40.43800 6.03800 47.57000
H  40.47900 3.30500 46.38800
H  39.14600 3.24700 48.18000
H  40.05700 4.52700 48.96000
H  40.56800 2.77800 49.08500
H  40.43800 4.72300 44.93900
H  41.20700 6.39000 44.98900
H  39.31200 7.35400 45.73800
H  38.54000 5.90900 46.24700
H  43.67400 -1.17500 46.56800
H  42.76300 -0.44400 47.88200
H  44.03800 -1.65800 48.25400
H  48.72400 -0.26400 46.64700
H  48.75800 -1.75600 46.67800
H  48.99300 -1.14400 48.31600
H  50.42800 3.46200 46.92300
H  50.06100 5.73600 48.75000
H  49.93800 2.49400 49.50900
H  50.87700 3.95100 49.84100
H  51.45800 2.61900 48.73500
H  50.29800 6.63200 45.88000
H  51.43400 5.46500 46.19500
H  51.24100 7.76700 48.13500
H  51.96500 7.99400 46.43900
H  52.58700 6.69700 47.50100
H  47.82300 10.01500 47.23600
H  46.93700 10.38600 48.63600
H  46.29900 10.78800 47.01000
H  41.81900 8.43900 46.15200
H  39.07600 9.34600 49.64600
H  39.31300 7.57600 49.43800
H  38.06900 8.53400 48.45300
Mg -11.66600 16.96000 41.52000
C  -8.36000 15.92500 41.84400
C  -10.63700 20.16900 40.88200
C  -14.72800 17.83700 40.54200
C  -12.60800 13.50900 41.59000
N  -9.73900 17.86100 41.36500
C  -8.52400 17.33400 41.66400
C  -7.30100 18.38200 41.34400
C  -8.16500 19.74200 41.40400
C  -9.62300 19.24300 41.24200
C  -7.98100 20.63500 42.59300
C  -6.73100 18.07100 39.86800
C  -5.19600 18.13600 39.69900
H  -4.54100 17.01600 38.81500
N  -12.62600 18.77300 40.89100
C  -12.01200 19.95100 40.75900
C  -12.91700 21.00600 40.37700
C  -14.16100 20.30600 40.10800
C  -13.94200 18.97200 40.56400
C  -12.44900 22.35700 40.03900
C  -15.46400 20.90200 39.53300
O  -15.54900 22.06700 39.12800
C  -16.79000 20.03800 39.41400
N  -13.42700 15.80600 41.00900
C  -14.59000 16.45700 40.79400
C  -15.71100 15.43300 40.83500
C  -15.02800 14.02000 40.94500
C  -13.60000 14.48300 41.23900
C  -16.85600 15.66500 41.86700
C  -15.22600 13.16300 39.72100
C  -14.41100 13.43600 38.45600
N  -10.76800 15.11700 41.83500
C  -11.22200 13.78500 41.75400
C  -10.19600 12.89800 41.92800
C  -9.02000 13.72200 41.92100
C  -9.41700 15.01100 41.86200
C  -10.23200 11.38500 42.01900
C  -7.57000 13.62800 42.07400
O  -6.80900 12.65700 42.24300
C  -7.03700 15.08200 41.87900
C  -6.29900 15.40500 43.05400
O  -6.74300 15.56300 44.16800
O  -4.95300 15.29200 42.80400
C  -4.06800 15.14400 43.92500
H  -10.20800 21.16400 40.74500
H  -15.75400 18.11200 40.28800
H  -12.93100 12.46600 41.60200
H  -6.56600 18.23500 42.13500
H  -7.99000 20.39100 40.54600
H  -7.26600 20.21700 43.30100
H  -8.94200 20.62600 43.10900
H  -7.51500 21.60200 42.40400
H  -7.05200 18.96700 39.33600
H  -7.22300 17.13300 39.61100
H  -4.74100 18.19000 40.68800
H  -4.91500 19.09700 39.26700
H  -11.90100 22.20200 39.10900
H  -11.92900 22.79600 40.89000
H  -13.38500 22.90700 39.93800
H  -17.56200 20.66100 38.96100
H  -17.09000 19.65300 40.38900
H  -16.51400 19.24300 38.72000
H  -16.21800 15.49500 39.87200
H  -15.38200 13.43700 41.79500
H  -16.57900 16.34500 42.67200
H  -17.29700 14.73600 42.22800
H  -17.70800 16.18500 41.42900
H  -16.27000 13.26100 39.42400
H  -14.92500 12.15300 40.00200
H  -13.83900 12.56900 38.12500
H  -13.89700 14.39300 38.36900
H  -15.19400 13.49700 37.70100
H  -10.44400 11.11600 40.98400
H  -11.09100 11.09300 42.62300
H  -9.35100 10.92800 42.47000
H  -6.36000 15.16400 41.02800
H  -3.02900 15.40100 43.71900
H  -4.23200 14.14100 44.32000
H  -4.33000 15.86400 44.70100

