158

Mg 49.01100 44.60200 43.15700
C  45.67100 45.41300 42.06900
C  48.60400 41.62200 41.35900
C  52.34400 44.27200 43.10300
C  49.26500 47.82100 44.37400
N  47.43200 43.75000 41.75300
C  46.13300 44.27200 41.50900
C  45.31500 43.31000 40.66400
C  46.05300 42.03100 40.78900
C  47.49000 42.45100 41.27500
C  45.33900 41.00400 41.70700
C  45.25000 43.87800 39.20700
C  43.98200 43.67300 38.41400
H  44.03900 42.79000 37.15700
N  50.30500 43.14100 42.41900
C  49.91600 41.96000 41.80000
C  51.12100 41.23600 41.47200
C  52.21500 41.89700 42.10300
C  51.61600 43.17800 42.53800
C  51.04800 39.88700 40.67400
C  53.60300 41.42900 42.15500
O  53.89200 40.35600 41.64000
C  54.64800 42.12400 42.87800
N  50.57900 45.90700 43.58600
C  51.90000 45.45900 43.54300
C  52.89700 46.52300 44.09600
C  51.87400 47.59200 44.69600
C  50.45100 47.10500 44.21400
C  53.99600 46.12000 45.09100
C  52.24800 49.16700 44.48300
C  52.61500 50.02500 45.65300
N  47.67900 46.22900 43.43000
C  47.95000 47.46800 43.95800
C  46.66500 48.23000 44.02100
C  45.82400 47.46000 43.29900
C  46.46000 46.24500 42.90300
C  46.43500 49.57800 44.66300
C  44.50100 47.45100 42.72500
O  43.58700 48.28700 42.62400
C  44.39300 46.08200 41.90200
C  43.15500 45.28600 42.34900
O  42.24100 44.87900 41.63400
O  43.18200 45.08900 43.68300
C  42.04100 44.45100 44.33900
H  48.43600 40.60900 40.98600
H  53.43200 44.31600 43.02100
H  49.35300 48.78600 44.87700
H  44.31300 43.24700 41.09000
H  46.22000 41.56600 39.81700
H  44.51800 41.49900 42.22600
H  45.96400 40.55700 42.47900
H  44.91200 40.16000 41.16400
H  46.01800 43.38500 38.61100
H  45.46600 44.94600 39.17500
H  43.58900 44.62500 38.05500
H  43.23400 43.22900 39.07100
H  51.82000 39.84300 39.90500
H  50.04900 39.66900 40.29600
H  51.14900 39.07700 41.39500
H  54.88300 42.94300 42.20000
H  55.42300 41.43200 43.20900
H  54.30800 42.64800 43.77100
H  53.29100 47.05400 43.22900
H  51.73900 47.41800 45.76300
H  53.97100 46.74300 45.98500
H  54.93800 46.27300 44.56600
H  53.95400 45.05700 45.32900
H  51.33200 49.69200 44.21300
H  52.93000 49.32300 43.64700
H  51.92900 50.84400 45.86700
H  53.61900 50.38100 45.42000
H  52.62000 49.42600 46.56400
H  47.32600 50.17000 44.87500
H  46.11700 49.48400 45.70100
H  45.67500 50.15000 44.13100
H  44.18900 46.23500 40.84200
H  41.73100 44.98400 45.23800
H  42.19000 43.40400 44.60400
H  41.14100 44.56700 43.73500
Mg 9.54000 47.77800 26.73900
C  7.70200 47.72200 29.67800
C  12.30500 48.90200 28.45300
C  11.21600 47.60300 23.93700
C  6.54900 47.10200 24.91600
N  9.94900 48.13400 28.93100
C  9.01700 48.15300 29.89100
C  9.61200 48.70100 31.22100
C  10.92800 49.39100 30.62200
C  11.09500 48.85100 29.19500
C  10.85200 50.96400 30.56900
C  9.96200 47.65100 32.27700
C  9.42900 47.80000 33.73100
H  9.47400 46.51200 34.65400
N  11.49500 48.07400 26.35500
C  12.49600 48.55400 27.16300
C  13.74800 48.34500 26.49300
C  13.48000 47.97600 25.11900
C  11.96700 47.83800 25.07200
C  15.05400 48.65900 27.20600
C  14.50100 47.74800 24.05600
O  14.15800 47.29400 22.97600
C  15.91400 47.80400 24.34900
N  8.92900 47.73300 24.69500
C  9.80700 47.46200 23.72900
C  9.20800 47.13800 22.38100
C  7.69800 47.09700 22.67200
C  7.70500 47.27100 24.18500
C  9.62900 48.09700 21.19500
C  7.06600 45.81300 22.12500
C  5.53000 45.98800 21.73900
N  7.43200 47.59300 27.18400
C  6.39100 47.19600 26.38800
C  5.23100 46.98800 27.16700
C  5.67700 47.16900 28.48600
C  7.06400 47.54500 28.43900
C  3.82400 46.60700 26.74800
C  5.31700 47.18000 29.82100
O  4.20500 46.95400 30.28000
C  6.59600 47.62300 30.65000
C  6.82600 46.56100 31.57400
O  7.09500 45.41900 31.23400
O  6.39500 46.92100 32.80500
C  6.29700 45.83300 33.72500
H  13.12000 49.38600 28.99600
H  11.67900 47.52300 22.95100
H  5.66000 46.87000 24.32600
H  8.93800 49.42400 31.68200
H  11.82500 49.17700 31.20400
H  11.70700 51.42400 31.06500
H  10.02000 51.42000 31.10600
H  10.79900 51.43500 29.58700
H  11.04000 47.49400 32.30000
H  9.60500 46.65400 32.02300
H  8.38200 48.09900 33.68400
H  10.02900 48.58700 34.18800
H  14.81300 48.66900 28.26900
H  15.30600 49.66600 26.87400
H  15.88500 47.97000 27.05400
H  16.59800 47.77100 23.50200
H  16.18100 46.88500 24.87000
H  16.16900 48.70200 24.91300
H  9.68900 46.18500 22.16000
H  7.26600 47.99300 22.22600
H  9.94100 47.56500 20.29600
H  10.31100 48.81800 21.64500
H  8.77800 48.74800 20.99300
H  7.17200 44.98500 22.82600
H  7.64900 45.46600 21.27200
H  5.39200 45.66700 20.70700
H  5.29100 47.04800 21.82300
H  4.91100 45.43400 22.44400
H  3.88900 46.01500 25.83600
H  3.20700 47.50300 26.67500
H  3.36800 46.01900 27.54500
H  6.39600 48.53200 31.21700
H  7.09400 45.13700 33.46200
H  5.25400 45.52200 33.67700
H  6.50600 46.24500 34.71200

