158

Mg 30.90100 59.23900 39.30200
C  28.26500 57.08800 38.27300
C  33.03500 56.66200 38.56100
C  33.40700 61.40600 39.82200
C  28.62300 61.73300 39.59400
N  30.60700 57.14900 38.55400
C  29.51500 56.49600 38.18200
C  29.71400 54.99600 37.91000
C  31.28200 54.83300 38.26100
C  31.69100 56.32600 38.44100
C  31.50100 54.11800 39.64800
C  29.34500 54.67800 36.38200
C  29.71400 55.63100 35.15600
H  28.60000 55.90100 34.12100
N  32.90100 59.05800 39.22400
C  33.61700 57.91100 38.93400
C  35.07500 58.14300 38.98200
C  35.23100 59.50300 39.45300
C  33.83600 60.09200 39.50200
C  36.05300 57.13300 38.45100
C  36.59200 60.13900 39.77800
O  37.54300 59.47400 40.02400
C  36.72600 61.64300 40.05400
N  31.01800 61.29400 39.65900
C  32.15000 62.01200 39.87400
C  31.89000 63.51600 39.95100
C  30.37000 63.54000 39.95000
C  29.95200 62.11500 39.65400
C  32.47600 64.11600 41.24100
C  29.86200 64.48000 38.83100
C  28.41600 65.03100 39.14700
N  28.84600 59.43800 39.09400
C  28.05000 60.50500 39.29400
C  26.64600 60.18900 39.08700
C  26.70400 58.84700 38.71900
C  28.06400 58.41400 38.71200
C  25.55200 61.09300 39.29900
C  25.89000 57.69900 38.32500
O  24.66700 57.66600 38.16800
C  26.88400 56.52000 38.06100
C  26.46000 55.27600 38.85200
O  26.95200 54.95500 39.98700
O  25.36400 54.67300 38.29700
C  24.58200 53.77000 39.07300
H  33.74600 55.83500 38.50600
H  34.11600 62.19400 40.08300
H  27.79400 62.43600 39.69400
H  29.13100 54.36300 38.58000
H  31.78600 54.30700 37.44900
H  31.98400 54.80700 40.34100
H  32.25600 53.34400 39.51200
H  30.53600 53.73800 39.98200
H  28.26100 54.56600 36.34300
H  29.66700 53.66500 36.13900
H  30.54200 55.10200 34.68500
H  30.12400 56.61700 35.37400
H  36.54900 57.59400 37.59700
H  35.62400 56.23100 38.01600
H  36.79000 56.93500 39.23000
H  37.74900 61.94900 40.27000
H  36.13800 61.74400 40.96600
H  36.33300 62.08300 39.13700
H  32.44500 64.00200 39.14800
H  29.89600 63.76700 40.90500
H  33.17300 64.93800 41.07800
H  32.92000 63.40400 41.93600
H  31.72500 64.71600 41.75500
H  29.79200 63.92700 37.89400
H  30.54900 65.31600 38.70100
H  28.03300 64.67700 40.10400
H  27.73000 64.77200 38.34000
H  28.41500 66.10400 39.34000
H  24.59200 60.61100 39.11600
H  25.71200 61.75800 38.45000
H  25.62100 61.53700 40.29200
H  26.68900 56.45000 36.99100
H  25.10500 52.84600 39.32100
H  23.69700 53.58800 38.46300
H  24.25400 54.38400 39.91300
Mg -0.87300 34.78200 27.44600
C  -2.55800 32.58800 29.80000
C  0.16700 36.55300 29.99400
C  0.01500 37.15600 25.23200
C  -2.42400 32.88900 25.07900
N  -1.10400 34.53800 29.67600
C  -1.79800 33.57200 30.37800
C  -1.64300 33.75800 31.87100
C  -0.86100 35.14400 31.98900
C  -0.54000 35.46400 30.45800
C  -1.58600 36.29200 32.78200
C  -1.01800 32.54000 32.62600
C  -1.66600 32.26600 33.98700
H  -0.75000 32.21500 35.17900
N  0.04100 36.59700 27.59400
C  0.46600 37.13700 28.73600
C  1.26200 38.31000 28.50400
C  1.25200 38.49100 27.10900
C  0.41300 37.45100 26.54600
C  1.90000 39.10800 29.59200
C  2.09200 39.50700 26.24300
O  1.98800 39.58400 25.02700
C  3.16200 40.34000 26.80500
N  -1.27000 35.12900 25.49700
C  -0.76100 36.12000 24.76900
C  -1.19100 36.02600 23.33000
C  -1.72100 34.54600 23.24900
C  -1.77500 34.11900 24.70000
C  -2.16000 37.13700 22.90600
C  -0.84500 33.53000 22.42400
C  -1.37900 33.37700 20.94900
N  -2.31900 33.16400 27.39200
C  -2.78300 32.48600 26.35400
C  -3.73900 31.48600 26.76800
C  -3.64900 31.42100 28.10900
C  -2.75900 32.45800 28.46200
C  -4.63500 30.69100 25.78700
C  -4.02500 30.72900 29.29600
O  -4.67300 29.66700 29.43400
C  -3.46900 31.53500 30.50000
C  -4.58100 32.01500 31.35300
O  -5.42400 32.79300 31.02200
O  -4.58300 31.35000 32.58700
C  -5.52400 31.65600 33.59100
H  0.56600 37.09700 30.85200
H  0.28500 37.83300 24.41800
H  -2.95300 32.30000 24.32700
H  -2.67700 33.89100 32.18800
H  0.02400 35.05900 32.62000
H  -1.61200 37.23800 32.24100
H  -1.11500 36.40700 33.75900
H  -2.62500 36.08600 33.03800
H  -0.00300 32.74500 32.96700
H  -1.00900 31.66100 31.98100
H  -1.93500 31.21100 34.03400
H  -2.56100 32.86000 34.17000
H  1.40200 39.03000 30.55900
H  1.98400 40.15900 29.31400
H  2.90800 38.70300 29.68200
H  3.70900 39.85500 27.61300
H  2.64800 41.24400 27.13300
H  3.88300 40.56600 26.01900
H  -0.32100 36.08200 22.67600
H  -2.69600 34.51000 22.76400
H  -2.19900 37.78700 23.77900
H  -3.11900 36.71300 22.60700
H  -1.79100 37.62500 22.00400
H  -0.72700 32.56900 22.92500
H  0.19300 33.86300 22.43100
H  -0.39900 33.42300 20.47400
H  -2.10500 34.15200 20.70100
H  -1.86900 32.41600 20.79400
H  -4.04300 29.81500 25.52300
H  -4.88400 31.24300 24.88200
H  -5.50400 30.33300 26.33900
H  -2.77400 30.83700 30.96800
H  -6.40200 32.14800 33.17200
H  -4.92600 32.26800 34.26600
H  -5.92100 30.76600 34.07700

