158

Mg 7.78300 52.61100 41.95500
C  7.16500 49.17100 41.48100
C  10.61800 52.26400 40.08200
C  7.91100 55.86300 41.68100
C  4.53100 52.73500 43.33700
N  8.73800 50.82500 40.89200
C  8.37800 49.58900 40.87700
C  9.51200 48.71500 40.23500
C  10.76600 49.66900 40.26800
C  10.05900 50.99600 40.42100
C  11.77600 49.44600 41.48400
C  9.05200 48.27000 38.74500
C  7.85900 49.02600 38.04400
H  7.25500 48.42300 36.81300
N  9.14100 53.92400 40.99300
C  10.27900 53.59300 40.28000
C  11.04300 54.81000 40.10000
C  10.27100 55.87400 40.53400
C  9.04000 55.23600 41.08400
C  12.49100 54.91900 39.56600
C  10.64200 57.37500 40.58400
O  11.66300 57.76700 40.06500
C  9.83900 58.39100 41.20600
N  6.39100 54.09200 42.53600
C  6.71400 55.40900 42.28100
C  5.57500 56.32500 42.72100
C  4.58900 55.33100 43.37200
C  5.21300 53.96800 43.11300
C  5.86000 57.54900 43.62700
C  3.08600 55.46700 43.03400
C  2.08600 55.69600 44.17000
N  6.15600 51.25300 42.40500
C  4.88300 51.45600 42.92100
C  4.39700 50.16700 43.33800
C  5.22400 49.20700 42.72800
C  6.21700 49.90200 42.10700
C  3.30100 49.86200 44.09200
C  5.44100 47.78200 42.48800
O  4.80400 46.85100 42.92700
C  6.69300 47.72300 41.56900
C  6.36900 46.96900 40.29500
O  5.31400 47.14300 39.67200
O  7.32000 46.04800 39.94100
C  6.96500 44.98100 38.97300
H  11.68000 52.20700 39.83400
H  7.91300 56.94900 41.56200
H  3.61500 52.89800 43.90900
H  9.62400 47.85500 40.89500
H  11.38400 49.60300 39.37200
H  11.40500 48.78600 42.26800
H  12.02900 50.39700 41.95300
H  12.68700 49.02600 41.05700
H  9.02900 47.19100 38.59100
H  9.81900 48.70300 38.10300
H  7.94500 50.11200 38.00100
H  7.10700 48.87600 38.81800
H  12.53900 55.77800 38.89700
H  12.75200 54.04100 38.97600
H  13.27000 55.02500 40.32100
H  9.68200 58.02400 42.22100
H  8.88200 58.44800 40.68700
H  10.34100 59.35800 41.23600
H  5.07900 56.69100 41.82200
H  4.64100 55.40000 44.45900
H  5.17700 57.76700 44.44800
H  6.03300 58.49600 43.11600
H  6.78200 57.34500 44.17200
H  2.72700 54.74900 42.29700
H  3.03500 56.43300 42.53200
H  2.71400 55.87700 45.04200
H  1.54100 54.80300 44.47600
H  1.43400 56.56500 44.08000
H  3.70100 49.57500 45.06400
H  2.64100 49.11900 43.64300
H  2.67800 50.74500 44.23500
H  7.51200 47.12500 41.97000
H  7.71000 44.86500 38.18600
H  6.05400 45.04000 38.37700
H  6.84100 44.05000 39.52600
Mg 1.95500 41.35900 26.42900
C  3.80100 41.98900 29.20200
C  -0.84200 40.53900 28.20200
C  0.50500 40.30000 23.54500
C  4.84700 42.20500 24.48500
N  1.50400 41.29100 28.49000
C  2.40300 41.64100 29.51500
C  1.71500 41.62700 30.87200
C  0.24700 41.19800 30.51800
C  0.26900 41.04700 28.98800
C  -0.20400 39.81000 31.12300
C  1.77600 43.03000 31.60100
C  2.24300 43.19600 33.07300
H  1.91000 41.97200 33.94800
N  0.13200 40.41700 26.01500
C  -0.92400 40.21200 26.86600
C  -2.02000 39.54900 26.20400
C  -1.56700 39.45500 24.79400
C  -0.24500 39.99800 24.73000
C  -3.35000 39.00900 26.86300
C  -2.30100 38.86600 23.54600
O  -1.84200 38.83000 22.41400
C  -3.73400 38.35200 23.79600
N  2.59200 41.31700 24.24200
C  1.74100 40.88300 23.29300
C  2.39500 40.95400 21.88900
C  3.80600 41.66700 22.15500
C  3.73300 41.75600 23.73600
C  2.58000 39.54800 21.14800
C  3.97300 43.00700 21.35000
C  4.11500 44.43500 22.12600
N  3.87900 42.02100 26.68200
C  4.91500 42.31400 25.84300
C  6.04400 42.77100 26.60500
C  5.66400 42.63200 27.96300
C  4.35700 42.13200 27.93200
C  7.37900 43.34000 26.09700
C  6.00900 42.79100 29.31000
O  7.04500 43.18500 29.85700
C  4.91500 42.23000 30.17400
C  5.45500 40.89500 30.78000
O  6.02000 39.99200 30.13800
O  5.15200 40.74700 32.06600
C  5.40800 39.51000 32.73200
H  -1.81900 40.32200 28.64000
H  0.06000 39.92500 22.62100
H  5.64900 42.56000 23.83400
H  2.27100 40.85000 31.39700
H  -0.52400 41.88200 30.87200
H  0.54300 39.49600 31.85100
H  -0.27400 39.01100 30.38600
H  -1.15400 39.88400 31.65300
H  0.75100 43.39500 31.65500
H  2.48200 43.72300 31.14400
H  1.94600 44.16900 33.46300
H  3.33200 43.18000 33.04100
H  -4.17400 39.70800 26.71900
H  -3.08300 38.87800 27.91100
H  -3.67700 38.05000 26.46100
H  -4.42100 39.05300 24.27000
H  -3.70300 37.44300 24.39700
H  -4.05800 38.11900 22.78200
H  1.78600 41.52300 21.18700
H  4.53300 40.99100 21.70500
H  1.99400 38.76500 21.63000
H  3.55000 39.19900 20.79600
H  1.88600 39.66500 20.31600
H  3.09800 43.10200 20.70800
H  4.82600 42.88900 20.68200
H  3.33600 45.13100 21.81600
H  5.04200 44.90600 21.79900
H  3.84300 44.46900 23.18100
H  8.13000 42.63500 25.74200
H  7.86600 44.03400 26.78200
H  7.12200 44.04500 25.30600
H  4.64000 42.91200 30.97800
H  4.93000 39.64100 33.70300
H  6.44800 39.24300 32.92400
H  4.89600 38.67600 32.25300

