158

Mg -0.01500 7.30300 24.96700
C  0.66300 9.44400 27.82300
C  0.57400 4.63100 27.01400
C  -0.46100 5.48400 22.30600
C  -0.08600 10.28400 23.06000
N  0.44300 7.08500 27.16300
C  0.70700 8.05000 28.11900
C  0.91500 7.47200 29.53300
C  0.87000 5.94500 29.13600
C  0.60600 5.82500 27.69800
C  2.08200 5.06700 29.57600
C  -0.10400 7.93300 30.63700
C  0.36400 7.93600 32.16200
H  1.63100 7.12800 32.58000
N  -0.05500 5.29600 24.73600
C  0.31900 4.36700 25.67000
C  0.34000 3.05700 25.00400
C  -0.03300 3.30700 23.64600
C  -0.21900 4.72100 23.50300
C  0.77200 1.75600 25.74400
C  0.06000 2.32400 22.50600
O  -0.07300 2.68000 21.31900
C  0.24800 0.85500 22.73700
N  0.28000 7.77800 22.83800
C  -0.17700 6.84600 22.01600
C  -0.59200 7.45900 20.69500
C  -0.75700 8.99300 21.02300
C  -0.21300 8.99200 22.42900
C  0.45700 7.14400 19.56000
C  -2.27300 9.45600 21.00900
C  -2.57100 10.69200 20.07900
N  0.35500 9.45800 25.30900
C  0.23000 10.54000 24.42200
C  0.36900 11.80000 25.12000
C  0.65800 11.41700 26.47600
C  0.53600 9.98700 26.48900
C  0.34100 13.16200 24.49400
C  0.99300 11.93400 27.79700
O  1.16600 13.09900 28.21800
C  0.86500 10.73700 28.73400
C  2.18900 10.68100 29.41900
O  3.23800 10.38800 28.91200
O  1.94000 11.15800 30.65900
C  3.14300 11.51400 31.47300
H  0.61000 3.74700 27.65400
H  -0.82300 4.83000 21.51000
H  -0.45000 11.11300 22.44900
H  1.89700 7.79200 29.88000
H  -0.05600 5.55500 29.55800
H  1.67500 4.24300 30.16100
H  2.84400 5.59000 30.15500
H  2.57000 4.75100 28.65400
H  -0.92000 7.21400 30.56700
H  -0.44500 8.90200 30.27200
H  -0.55300 7.65200 32.67800
H  0.50200 9.00300 32.34100
H  1.83400 1.55400 25.60300
H  0.24900 0.83600 25.48100
H  0.55500 1.79400 26.81100
H  -0.55000 0.47000 23.37300
H  1.26600 0.61100 23.03900
H  0.23800 0.33900 21.77700
H  -1.49900 6.90900 20.44400
H  -0.08300 9.61500 20.43500
H  1.17100 6.36100 19.81500
H  1.00800 8.05700 19.33500
H  0.00400 6.71900 18.66400
H  -2.47200 9.73800 22.04300
H  -3.06800 8.75000 20.76600
H  -2.10500 10.47300 19.11900
H  -2.05700 11.54400 20.52400
H  -3.62800 10.93400 19.97200
H  -0.55000 13.60700 24.93500
H  0.24900 13.15900 23.40800
H  1.19700 13.73300 24.85600
H  0.08900 11.01900 29.44600
H  4.00900 11.68700 30.83400
H  3.28700 10.73400 32.22000
H  2.84600 12.45600 31.93500
Mg 7.55900 53.26700 41.26500
C  7.06300 49.72300 40.70200
C  10.85400 52.73300 40.25500
C  7.96900 56.46800 41.10800
C  4.13700 53.42200 41.68300
N  8.79800 51.46400 40.52500
C  8.32800 50.18500 40.39900
C  9.55100 49.25900 39.98100
C  10.81000 50.21000 40.17700
C  10.14100 51.58200 40.37600
C  11.69800 49.78200 41.33400
C  9.49900 48.72200 38.56200
C  9.13400 49.55600 37.35300
H  8.20300 48.95200 36.27700
N  9.20600 54.45700 40.75800
C  10.46400 54.04700 40.32200
C  11.30000 55.16500 40.08000
C  10.40600 56.33900 40.29000
C  9.14900 55.83300 40.72400
C  12.68300 54.98100 39.63200
C  10.80400 57.74300 39.97900
O  11.94400 58.01900 39.72200
C  9.76700 58.90200 39.84800
N  6.11900 54.74100 41.06400
C  6.64000 55.99400 41.32200
C  5.54400 56.98300 41.74700
C  4.26700 56.01800 41.89500
C  4.86800 54.65400 41.58100
C  5.88700 57.86200 43.05500
C  3.04700 56.36800 41.13500
C  3.10800 56.32400 39.64900
N  5.92900 51.95700 41.33600
C  4.53600 52.15600 41.48900
C  3.84300 50.94200 41.52300
C  4.85200 49.96500 41.26900
C  6.08200 50.59700 41.14600
C  2.38700 50.67600 41.74600
C  5.04200 48.55000 41.12600
O  4.19700 47.63800 41.09800
C  6.45400 48.33200 40.71300
C  6.34200 47.61400 39.43600
O  5.84900 48.08300 38.41000
O  6.89900 46.37400 39.54200
C  6.79800 45.46400 38.37500
H  11.88200 52.42300 40.05700
H  8.09500 57.53500 41.30300
H  3.08100 53.46000 41.95700
H  9.64000 48.43500 40.68800
H  11.27200 50.26000 39.19000
H  11.67800 48.70700 41.51200
H  11.15500 50.29200 42.13100
H  12.68200 50.20700 41.14000
H  8.71700 47.96300 38.53200
H  10.40400 48.13000 38.42600
H  10.05400 49.84600 36.84500
H  8.66900 50.44200 37.78500
H  12.79700 54.12400 38.96900
H  13.39000 54.91300 40.45900
H  12.90100 55.89300 39.07600
H  9.05600 58.60200 39.07800
H  10.23000 59.84100 39.54500
H  9.28800 59.21800 40.77500
H  5.40500 57.66800 40.91100
H  4.07500 56.14800 42.96000
H  5.97200 58.92800 42.84300
H  6.88400 57.56100 43.37900
H  5.18900 57.63900 43.86200
H  2.86000 57.40900 41.39900
H  2.17300 55.82900 41.50100
H  2.08600 56.45400 39.29300
H  3.53700 55.38000 39.31500
H  3.70200 57.16400 39.28900
H  2.14400 49.64700 41.47900
H  1.66800 51.32000 41.23900
H  2.40000 50.87500 42.81700
H  6.92300 47.64000 41.41200
H  6.98400 45.98300 37.43500
H  5.81000 45.00400 38.34300
H  7.63400 44.76500 38.39200

