158

Mg 17.56300 -1.15000 28.12200
C  15.88700 0.73200 30.72700
C  19.28600 -2.71200 30.63000
C  19.08000 -2.80900 25.69300
C  15.65600 0.68200 25.86500
N  17.54500 -0.99500 30.43600
C  16.87300 -0.14000 31.26400
C  17.19600 -0.33000 32.75600
C  18.39500 -1.36100 32.66200
C  18.50800 -1.69900 31.15800
C  19.71700 -0.88100 33.37300
C  15.93400 -0.85000 33.57100
C  16.00400 -0.60800 35.05200
H  17.35700 -0.21000 35.76300
N  19.01500 -2.56100 28.16200
C  19.48500 -3.14000 29.26300
C  20.28300 -4.29500 28.85300
C  20.28800 -4.31400 27.43900
C  19.45800 -3.17800 27.01000
C  20.90200 -5.31200 29.85600
C  20.99700 -5.23200 26.48200
O  20.74700 -5.12500 25.28700
C  21.95900 -6.21800 27.04600
N  17.55200 -0.97100 26.11800
C  18.18500 -1.80600 25.25900
C  17.83500 -1.48100 23.78600
C  16.71100 -0.45300 23.95200
C  16.56100 -0.26000 25.47100
C  19.01500 -0.98700 22.95400
C  15.40600 -0.97600 23.17200
C  14.34000 -1.81000 23.96700
N  16.00600 0.42200 28.20400
C  15.29400 1.02100 27.19700
C  14.37400 2.01700 27.65200
C  14.54800 1.96000 29.06300
C  15.52500 0.93600 29.34900
C  13.58800 2.93900 26.71400
C  14.17700 2.48500 30.32700
O  13.37300 3.36300 30.51000
C  15.03200 1.83200 31.46500
C  15.78200 2.94100 32.23300
O  16.82700 3.48500 31.92000
O  15.12700 3.04400 33.50300
C  15.69500 4.07500 34.40400
H  19.80600 -3.27000 31.41100
H  19.43900 -3.27800 24.77400
H  15.09300 1.24000 25.11400
H  17.56700 0.63000 33.11400
H  18.03200 -2.28200 33.11700
H  19.69200 -1.15600 34.42700
H  19.78300 0.20500 33.43700
H  20.62900 -1.25800 32.91000
H  15.76100 -1.92400 33.50200
H  15.07400 -0.27800 33.22200
H  15.64800 -1.45800 35.63400
H  15.35500 0.24600 35.24900
H  20.35400 -5.17600 30.78800
H  21.92100 -4.97200 30.04400
H  20.84600 -6.36200 29.56900
H  22.54000 -6.58200 26.19800
H  21.40100 -7.10200 27.35500
H  22.68600 -5.83700 27.76200
H  17.44500 -2.40800 23.36400
H  16.92300 0.55300 23.59000
H  19.44100 -0.08300 23.38800
H  18.61300 -0.79400 21.95900
H  19.82000 -1.72100 22.91400
H  15.59700 -1.50400 22.23700
H  14.88200 -0.09600 22.79900
H  13.92900 -2.66300 23.42700
H  13.51700 -1.20300 24.34400
H  14.82100 -2.34000 24.78900
H  14.20200 3.67400 26.19400
H  12.83100 3.38600 27.35800
H  13.15800 2.19700 26.04100
H  14.22100 1.33100 31.99400
H  14.87000 4.74900 34.63600
H  16.44000 4.71900 33.93700
H  16.03200 3.59000 35.32000
Mg 25.64400 1.46200 29.74200
C  27.58800 1.00300 32.64600
C  22.84900 1.52500 31.72100
C  23.69800 1.11100 26.94400
C  28.46300 0.67400 27.80200
N  25.19900 1.15600 31.95300
C  26.19100 1.09600 32.92000
C  25.56700 1.14200 34.33300
C  24.07400 1.51200 33.97700
C  23.99400 1.35600 32.49000
C  22.97900 0.83000 34.79300
C  26.27500 2.18600 35.28600
C  25.39000 3.03400 36.10300
H  25.91200 3.25700 37.62300
N  23.58700 1.51700 29.38200
C  22.57800 1.62800 30.35400
C  21.28300 1.79200 29.72300
C  21.51300 1.64500 28.37300
C  22.97400 1.40600 28.15000
C  20.00400 1.98800 30.55500
C  20.44900 1.75000 27.30100
O  20.62000 1.42600 26.09900
C  19.07300 2.30900 27.65300
N  26.02400 1.01100 27.69100
C  25.07500 0.94400 26.79300
C  25.77400 0.97500 25.37800
C  27.27900 0.83900 25.59400
C  27.22500 0.84400 27.14200
C  25.27800 0.05500 24.18500
C  28.06200 1.95200 25.01500
C  29.51500 1.67700 24.73500
N  27.62200 0.93000 30.11100
C  28.65800 0.64200 29.21500
C  29.82300 0.25100 29.90300
C  29.50300 0.48300 31.24900
C  28.13500 0.87500 31.29900
C  31.03400 -0.32700 29.29800
C  30.03000 0.39500 32.60300
O  31.15000 0.06100 33.00200
C  28.81700 0.67500 33.59000
C  28.60600 -0.54500 34.54000
O  27.86200 -1.49300 34.33100
O  29.18000 -0.31200 35.76100
C  29.14200 -1.54500 36.61900
H  22.06100 1.78000 32.43400
H  23.14700 0.97300 26.01200
H  29.30900 0.41200 27.16400
H  25.47100 0.19500 34.86300
H  23.82300 2.56700 34.09100
H  22.17100 1.54200 34.96300
H  23.37000 0.47700 35.74700
H  22.56900 0.03600 34.16900
H  26.68800 2.92600 34.60200
H  27.01600 1.70300 35.92400
H  24.42000 2.57100 36.28200
H  25.24000 3.97900 35.58100
H  20.25900 2.12800 31.60600
H  19.48500 1.03500 30.45700
H  19.30500 2.72200 30.15400
H  18.40800 1.98400 26.85300
H  19.14200 3.38500 27.81300
H  18.53400 1.79200 28.44600
H  25.56500 1.96100 24.96200
H  27.67800 -0.16700 25.46000
H  24.63100 -0.69400 24.64300
H  26.12800 -0.40200 23.67900
H  24.66800 0.70100 23.55300
H  27.95700 2.76300 25.73600
H  27.72300 2.30700 24.04200
H  30.10700 2.29100 25.41300
H  29.79900 1.84800 23.69600
H  29.65600 0.64300 25.04900
H  31.53600 0.59500 29.00400
H  30.97400 -0.82900 28.33200
H  31.60900 -0.96300 29.97100
H  29.10400 1.53300 34.19900
H  29.15700 -2.49600 36.08600
H  28.26800 -1.55800 37.27100
H  30.00600 -1.40300 37.26800

