158

Mg 3.06200 -2.23000 44.04100
C  6.24000 -0.71300 43.72300
C  1.82800 0.21100 41.86500
C  0.30700 -3.92700 43.76400
C  4.78900 -5.02300 45.38000
N  4.01700 -0.54000 42.84300
C  5.24300 -0.02100 43.03100
C  5.41900 1.36100 42.40800
C  3.93300 1.67600 42.07300
C  3.19000 0.33900 42.32300
C  3.29500 2.81600 42.97200
C  6.42600 1.40300 41.18500
C  6.49500 0.16400 40.16000
H  5.88700 0.51700 38.77900
N  1.20100 -1.87800 43.12800
C  0.89600 -0.80400 42.32200
C  -0.45700 -0.99300 41.81000
C  -0.92600 -2.23000 42.26400
C  0.14400 -2.71200 43.18300
C  -1.07900 0.00900 40.86700
C  -2.31100 -2.81000 41.95000
O  -3.07400 -2.26300 41.22700
C  -2.77500 -4.24200 42.48300
N  2.56700 -4.12500 44.66900
C  1.32200 -4.62900 44.48900
C  1.12500 -6.04100 45.19400
C  2.60300 -6.41300 45.52000
C  3.36200 -5.11200 45.16400
C  0.15000 -5.99300 46.40900
C  3.23800 -7.66500 44.89700
C  3.83100 -8.66100 45.89200
N  5.13100 -2.72300 44.61900
C  5.65900 -3.96300 45.05100
C  7.02100 -3.85700 45.27300
C  7.31300 -2.57000 44.86100
C  6.15100 -1.91400 44.35800
C  7.92200 -4.95100 45.83000
C  8.37000 -1.64100 44.61200
O  9.55200 -1.61900 44.90500
C  7.77400 -0.37000 43.86500
C  8.09600 0.96600 44.54100
O  8.81500 1.88000 44.04100
O  7.70300 0.95000 45.84000
C  8.03800 2.09300 46.65300
H  1.45000 0.98900 41.19900
H  -0.55800 -4.59300 43.80100
H  5.28300 -5.89600 45.81300
H  5.73600 2.21200 43.01100
H  3.79700 1.93300 41.02300
H  2.65600 2.24600 43.64700
H  2.81300 3.60400 42.39400
H  3.97000 3.33200 43.65500
H  7.38200 1.80300 41.52300
H  6.06400 2.24700 40.59600
H  5.82100 -0.56900 40.60400
H  7.47200 -0.30200 40.03600
H  -1.75500 0.68300 41.39400
H  -1.50700 -0.48200 39.99300
H  -0.28100 0.57800 40.39000
H  -2.02000 -4.89800 42.04900
H  -3.74100 -4.54700 42.08100
H  -2.87700 -4.31800 43.56500
H  0.78900 -6.78900 44.47500
H  2.71000 -6.39300 46.60400
H  -0.63600 -6.74200 46.31000
H  -0.30300 -5.01700 46.58300
H  0.63900 -6.13700 47.37200
H  4.11200 -7.41700 44.29600
H  2.59300 -8.19800 44.19800
H  3.17700 -9.52100 46.03200
H  4.03500 -8.28300 46.89400
H  4.82100 -9.04700 45.64900
H  7.71600 -5.82600 45.21400
H  7.64100 -5.26400 46.83600
H  8.95900 -4.65500 45.99000
H  8.26400 -0.20500 42.90600
H  7.62100 1.84900 47.63000
H  7.51200 2.97100 46.27900
H  9.10700 2.29600 46.70700
Mg 40.04600 8.49200 29.77200
C  42.04700 9.51700 32.29800
C  37.73000 7.27800 31.93800
C  38.46200 6.78500 27.09900
C  42.71700 9.02900 27.45200
N  39.94300 8.38100 31.88000
C  40.78800 9.10500 32.75100
C  40.17600 9.33000 34.08200
C  38.91900 8.36400 33.96900
C  38.79800 8.00900 32.49600
C  39.03900 7.14200 34.90900
C  39.83700 10.79500 34.48800
C  39.14400 10.95700 35.90600
H  39.84700 11.83300 36.95100
N  38.24200 7.39600 29.53900
C  37.46600 7.02800 30.59300
C  36.32500 6.33400 30.08900
C  36.44000 6.31800 28.59800
C  37.79500 6.82800 28.35500
C  35.21300 5.62200 30.98200
C  35.60400 5.63400 27.61300
O  35.95800 5.34300 26.49700
C  34.30000 5.18600 28.03400
N  40.57500 7.75800 27.55600
C  39.73800 7.17300 26.69100
C  40.20500 7.22900 25.24700
C  41.37500 8.23600 25.38900
C  41.56400 8.41500 26.89400
C  40.56200 5.86500 24.57500
C  41.13500 9.66700 24.79300
C  39.81400 10.31900 25.19100
N  42.02400 9.05700 29.84600
C  42.97500 9.29300 28.86500
C  44.10400 9.96400 29.44500
C  43.78900 10.14800 30.79200
C  42.55800 9.47200 30.99500
C  45.28000 10.50300 28.78100
C  44.18700 10.73400 32.03200
O  45.13300 11.54300 32.23900
C  43.03600 10.39200 33.03500
C  43.51900 9.49600 34.15500
O  43.93500 8.33200 34.16000
O  43.52600 10.30400 35.27200
C  44.33600 9.74700 36.32800
H  36.95100 7.03900 32.66500
H  37.94900 6.35900 26.23400
H  43.43000 9.40000 26.71300
H  41.00200 8.95800 34.68800
H  37.99800 8.89600 34.20500
H  38.76500 6.24500 34.35400
H  38.60700 7.13100 35.91000
H  40.09300 7.13300 35.18600
H  39.18700 11.31000 33.78100
H  40.77500 11.34900 34.49300
H  38.97900 10.01000 36.41900
H  38.17900 11.43500 35.73800
H  35.47400 4.57700 31.15000
H  34.20200 5.61900 30.57400
H  35.12900 6.16500 31.92300
H  33.78100 4.72700 27.19300
H  33.73900 6.06000 28.36400
H  34.42200 4.44300 28.82200
H  39.36700 7.56100 24.63400
H  42.26700 7.77500 24.96500
H  40.37800 5.08600 25.31500
H  41.62400 5.81100 24.33500
H  39.85500 5.60500 23.78800
H  41.23800 9.22800 23.80000
H  41.94600 10.32600 25.10300
H  39.21900 9.67700 25.84000
H  39.11400 10.39400 24.35900
H  40.00500 11.36200 25.44600
H  45.14500 10.83800 27.75200
H  46.14100 9.83500 28.79700
H  45.60800 11.42300 29.26400
H  42.50400 11.26100 33.42100
H  45.23900 9.24600 35.97800
H  43.87200 9.21400 37.15800
H  44.67600 10.68500 36.76900

