158

Mg 40.78100 41.08500 26.75500
C  40.47300 43.59100 29.29400
C  41.55900 38.87500 29.27100
C  41.23100 38.89000 24.37700
C  40.14100 43.63300 24.42800
N  41.14400 41.28500 29.00400
C  40.76700 42.36900 29.82100
C  40.98700 41.96500 31.33500
C  41.62300 40.52200 31.22700
C  41.31700 40.17400 29.69600
C  43.04400 40.30400 31.57100
C  39.62500 41.93000 32.02100
C  39.60200 42.73500 33.36800
H  39.01000 41.93600 34.54100
N  41.38800 39.14900 26.74700
C  41.62000 38.46200 27.91300
C  42.03200 37.16600 27.45800
C  41.78600 37.00000 26.03800
C  41.50700 38.40900 25.66300
C  42.55700 36.13100 28.48000
C  41.77600 35.78400 25.16300
O  41.53000 35.88800 23.98100
C  42.34000 34.54600 25.69600
N  40.65800 41.23900 24.72700
C  40.86100 40.17100 23.92600
C  40.54900 40.46700 22.42200
C  39.98400 41.94400 22.47000
C  40.29500 42.29200 23.97200
C  41.82500 40.40700 21.52000
C  38.47400 42.06600 22.16500
C  37.61600 41.15700 23.02500
N  40.31200 43.19500 26.72300
C  40.20600 44.09200 25.70100
C  40.16000 45.37700 26.23200
C  40.17500 45.21700 27.65600
C  40.30000 43.88300 27.88900
C  39.84300 46.50600 25.26200
C  40.10700 45.97200 28.96800
O  40.01700 47.12000 29.15800
C  40.26300 44.93200 30.06100
C  41.46200 45.31700 30.89900
O  42.63400 45.34600 30.52300
O  41.06200 45.67600 32.18700
C  42.10100 46.05900 33.20000
H  41.79900 38.21100 30.10400
H  41.49400 38.20800 23.56500
H  39.88300 44.37200 23.66600
H  41.65600 42.67600 31.82000
H  41.04100 39.84700 31.85400
H  43.67100 40.06500 30.71200
H  43.02000 39.42300 32.21300
H  43.48700 41.13800 32.11500
H  39.29000 40.89300 32.00800
H  38.88200 42.37000 31.35500
H  38.92500 43.57700 33.22300
H  40.54700 43.13600 33.73500
H  41.73800 35.46200 28.74600
H  42.77500 36.60200 29.43800
H  43.50900 35.69500 28.17700
H  41.91400 34.45800 26.69600
H  43.42700 34.62200 25.73800
H  42.18700 33.63600 25.11700
H  39.82500 39.74500 22.04300
H  40.50800 42.66200 21.83900
H  42.62300 39.93700 22.09600
H  42.06400 41.44500 21.28900
H  41.59900 39.95600 20.55400
H  38.26100 41.72900 21.15100
H  38.18000 43.11300 22.24500
H  38.10700 40.51600 23.75600
H  37.07200 40.51600 22.33100
H  36.91800 41.78200 23.58200
H  39.92400 47.47600 25.75300
H  38.79700 46.57800 24.96500
H  40.40400 46.44900 24.32900
H  39.39400 44.87500 30.71700
H  42.40100 45.26100 33.87900
H  41.79600 46.91400 33.80400
H  43.01900 46.32000 32.67400
Mg 16.93700 52.34300 26.90200
C  18.95700 50.64700 29.12500
C  14.65000 52.97000 29.28600
C  14.91500 54.03000 24.53000
C  18.90500 51.28100 24.22600
N  16.88300 51.82500 28.88400
C  17.75100 51.17600 29.63800
C  17.41800 51.42800 31.14100
C  15.92200 51.78700 31.13000
C  15.81300 52.22500 29.68300
C  15.04000 50.74600 31.68700
C  18.38200 52.52400 31.79000
C  18.81300 52.10500 33.19800
H  17.83400 51.46100 34.18700
N  15.03100 53.33000 27.00300
C  14.29600 53.44100 28.10200
C  13.18200 54.24300 27.78700
C  13.24900 54.65400 26.42500
C  14.47900 53.99700 25.93000
C  12.04700 54.52600 28.80700
C  12.39100 55.60500 25.64400
O  12.60500 55.88100 24.45800
C  11.07000 56.06800 26.31800
N  16.91200 52.55800 24.64700
C  15.98200 53.28500 23.98300
C  16.10000 53.13900 22.44100
C  17.58700 52.47400 22.34000
C  17.82500 52.07000 23.81700
C  15.08400 52.14000 21.78000
C  18.68600 53.41900 21.88200
C  19.62800 52.87900 20.81900
N  18.61100 51.15800 26.59600
C  19.28300 50.71500 25.48900
C  20.37500 49.81400 25.92700
C  20.29600 49.82700 27.31300
C  19.22300 50.67200 27.67600
C  21.36100 49.14500 24.92800
C  20.94600 49.22400 28.52800
O  21.88400 48.48800 28.80800
C  20.14000 49.91100 29.75100
C  19.68800 48.96600 30.80300
O  18.75400 48.13600 30.71100
O  20.36200 49.18600 31.97000
C  19.93500 48.39600 33.17300
H  14.08100 53.11900 30.20600
H  14.27900 54.55800 23.81600
H  19.43900 50.92500 23.34200
H  17.50500 50.49000 31.68900
H  15.66200 52.72800 31.61500
H  14.65800 51.01600 32.67200
H  15.51500 49.78400 31.87900
H  14.16800 50.65500 31.04000
H  17.95500 53.52000 31.67900
H  19.22100 52.55000 31.09600
H  19.17900 52.98700 33.72400
H  19.68800 51.46100 33.11100
H  11.08100 54.29000 28.36200
H  12.12500 55.55400 29.16200
H  12.24500 53.90300 29.67900
H  10.64900 56.60200 25.46600
H  11.35500 56.80000 27.07300
H  10.47300 55.18600 26.54900
H  15.94300 54.16400 22.10400
H  17.50900 51.58600 21.71200
H  15.58300 51.58100 20.98800
H  14.23600 52.58500 21.25800
H  14.75100 51.42800 22.53500
H  19.23800 53.71100 22.77500
H  18.19500 54.22000 21.33100
H  20.61600 52.65900 21.22400
H  19.82500 53.58100 20.00900
H  19.25800 51.97800 20.33100
H  21.01100 48.87200 23.93300
H  21.47300 48.19700 25.45400
H  22.37200 49.54500 24.99500
H  20.83600 50.61100 30.21300
H  20.14000 49.04400 34.02500
H  20.48700 47.49300 33.43300
H  18.86000 48.21700 33.14900

