158

Mg -1.45900 17.52600 27.39200
C  -1.90100 15.23900 29.97300
C  -2.27200 20.02900 29.65800
C  -1.61600 19.68400 24.81000
C  -1.59100 14.89800 25.04000
N  -2.00400 17.66500 29.58500
C  -1.99800 16.61000 30.49000
C  -2.35600 17.07500 31.96500
C  -2.43600 18.63200 31.83400
C  -2.22800 18.82400 30.23500
C  -3.69700 19.32900 32.43000
C  -1.39600 16.60500 33.08900
C  -1.65100 17.17900 34.51300
H  -0.37300 17.04000 35.35200
N  -1.67700 19.52100 27.32400
C  -1.97400 20.42700 28.30100
C  -2.16000 21.71800 27.73800
C  -1.82700 21.59200 26.37800
C  -1.70400 20.18700 26.09200
C  -2.53900 23.00200 28.45900
C  -1.60600 22.67400 25.34200
O  -1.19000 22.59500 24.19900
C  -1.94900 24.10300 25.68100
N  -1.52800 17.30400 25.24800
C  -1.43500 18.43000 24.40100
C  -1.42000 17.98500 22.91500
C  -1.07800 16.45700 23.06400
C  -1.38100 16.15800 24.52800
C  -2.76500 18.28400 22.15300
C  0.28000 16.02500 22.53700
C  1.43200 16.56800 23.30200
N  -1.56400 15.48100 27.46300
C  -1.68900 14.59000 26.41500
C  -1.74900 13.25400 26.94600
C  -1.91400 13.43500 28.35100
C  -1.76200 14.83300 28.62000
C  -1.79100 11.95200 26.16400
C  -2.09800 12.72700 29.56600
O  -2.20100 11.56800 29.82600
C  -2.14100 13.89900 30.70200
C  -1.15300 13.51500 31.77400
O  -0.06900 14.07100 31.95300
O  -1.72300 12.61800 32.64400
C  -1.25500 12.67000 34.03700
H  -2.35400 20.81500 30.41200
H  -1.64200 20.45300 24.03500
H  -1.58700 14.13400 24.26000
H  -3.39100 16.76100 32.09800
H  -1.51800 18.99700 32.29500
H  -4.15900 18.61900 33.11600
H  -4.43400 19.70700 31.72200
H  -3.33400 20.23900 32.90800
H  -0.37200 16.68700 32.72500
H  -1.60300 15.55000 33.26800
H  -2.55400 16.69700 34.88400
H  -1.81100 18.25700 34.51400
H  -2.58600 22.84100 29.53600
H  -3.56200 23.18500 28.13100
H  -1.91800 23.89000 28.34000
H  -1.92000 24.86400 24.90100
H  -1.22800 24.52200 26.38300
H  -2.96400 24.02900 26.07200
H  -0.60100 18.39700 22.32600
H  -1.77000 15.76100 22.59000
H  -3.55900 18.55600 22.84900
H  -2.93200 17.38800 21.55600
H  -2.58100 19.09500 21.44900
H  0.37900 16.44800 21.53800
H  0.43900 14.94700 22.51100
H  1.09700 16.94100 24.27000
H  1.78900 17.46900 22.80400
H  2.27500 15.88100 23.38300
H  -1.75900 12.04200 25.07800
H  -2.64600 11.35000 26.46900
H  -0.93300 11.37500 26.51100
H  -3.09500 13.91600 31.23000
H  -1.58800 13.59800 34.50200
H  -0.17700 12.54200 34.12700
H  -1.74200 11.85700 34.57600
Mg 6.75100 54.54400 41.39900
C  6.12900 50.98900 41.12500
C  9.79900 53.93500 40.04500
C  6.73800 57.73400 40.67000
C  3.46900 54.76900 42.68300
N  7.71100 52.66600 40.55700
C  7.39600 51.33300 40.63700
C  8.46600 50.39800 40.11300
C  9.71500 51.31300 40.26200
C  9.06900 52.70900 40.32000
C  10.63600 50.93800 41.44200
C  8.22400 49.82200 38.63300
C  7.54900 50.62700 37.55000
H  6.56500 49.82000 36.62300
N  8.08800 55.72000 40.46000
C  9.39900 55.31000 40.10400
C  10.09400 56.46700 39.65800
C  9.19500 57.57800 39.57800
C  7.90900 57.11400 40.22300
C  11.49400 56.47100 39.23000
C  9.42600 58.94500 39.06100
O  10.51800 59.27700 38.56700
C  8.44600 60.01100 39.13700
N  5.21400 56.02100 41.40900
C  5.56300 57.36600 41.23600
C  4.40800 58.31400 41.63900
C  3.48900 57.35800 42.45200
C  4.11400 55.97900 42.23100
C  4.75900 59.55600 42.44800
C  1.97000 57.48600 42.06800
C  1.14100 58.55100 42.86000
N  5.04900 53.20000 41.90300
C  3.84500 53.43600 42.51100
C  3.11000 52.23100 42.60800
C  3.95400 51.25900 42.12300
C  5.14900 51.86400 41.72300
C  1.75000 52.04500 43.11600
C  4.16000 49.87300 41.88900
O  3.38000 48.96200 42.06500
C  5.59100 49.63100 41.29900
C  5.46400 48.93200 40.02300
O  4.90200 49.38300 39.04500
O  6.04400 47.66500 40.12900
C  5.55800 46.68800 39.17000
H  10.79900 53.89400 39.60600
H  6.60000 58.79700 40.46200
H  2.48700 54.89400 43.14400
H  8.57800 49.47600 40.68300
H  10.36400 51.35200 39.38800
H  11.59900 50.79100 40.95200
H  10.39700 49.96800 41.87900
H  10.57600 51.55600 42.33800
H  7.74000 48.84700 38.68700
H  9.21600 49.54700 38.27400
H  8.26000 51.04400 36.83700
H  7.03500 51.51400 37.91900
H  11.55200 56.35600 38.14700
H  11.95000 55.62200 39.74000
H  11.93700 57.35700 39.68400
H  8.79800 60.87200 38.56800
H  8.41800 60.35300 40.17200
H  7.46600 59.75700 38.73500
H  4.00900 58.57800 40.65900
H  3.73500 57.46000 43.51000
H  5.60300 59.42200 43.12500
H  3.94500 59.96500 43.04700
H  5.11600 60.31200 41.75000
H  1.43400 56.54300 42.17500
H  1.80500 57.69800 41.01100
H  1.77800 59.14400 43.51600
H  0.31100 58.07100 43.37700
H  0.65900 59.25700 42.18300
H  1.14300 52.93200 42.93400
H  1.75000 51.89300 44.19600
H  1.32100 51.15700 42.65300
H  6.16800 48.95000 41.92400
H  5.85200 47.02000 38.17400
H  4.48400 46.84300 39.06700
H  5.77400 45.63600 39.35300

