158

Mg 24.68100 -4.80800 45.91900
C  26.34300 -2.34300 43.80700
C  21.87500 -4.04700 44.03100
C  23.47600 -7.73300 46.87400
C  27.84500 -5.71600 47.07100
N  24.18500 -3.31100 44.14900
C  25.00000 -2.44800 43.55800
C  24.23400 -1.68600 42.44900
C  22.71200 -2.06300 42.75800
C  22.95200 -3.24300 43.69800
C  21.98900 -0.92700 43.50500
C  24.79100 -2.17600 41.06800
C  25.37100 -1.17100 40.10300
H  25.58400 -1.59100 38.60200
N  22.96100 -5.66500 45.61400
C  21.90300 -5.24500 44.83800
C  20.80400 -6.13000 44.99000
C  21.20000 -7.20300 45.87200
C  22.62000 -6.91100 46.15600
C  19.50700 -5.97500 44.17900
C  20.38800 -8.46700 46.18000
O  19.29000 -8.63300 45.75000
C  20.83000 -9.46700 47.18900
N  25.50800 -6.36600 46.96100
C  24.80800 -7.54000 47.20600
C  25.67800 -8.57000 47.84600
C  27.00200 -7.91400 48.07800
C  26.77800 -6.53000 47.43100
C  25.05500 -9.50100 48.92300
C  28.25400 -8.68800 47.72000
C  29.32000 -8.67800 48.82600
N  26.65200 -4.15600 45.71000
C  27.80300 -4.61300 46.25900
C  28.94500 -3.79600 45.77800
C  28.34800 -2.92200 44.91600
C  27.01100 -3.22400 44.80300
C  30.35200 -3.75800 46.17800
C  28.77300 -1.85700 43.98000
O  29.88500 -1.44000 43.75800
C  27.46400 -1.46900 43.22300
C  27.24100 -0.06000 43.62700
O  26.58300 0.27500 44.57700
O  27.79100 0.83400 42.73700
C  27.63200 2.28200 42.99900
H  20.91700 -3.78700 43.57400
H  23.11100 -8.74500 47.05900
H  28.86600 -6.03900 47.28300
H  24.32500 -0.60900 42.58600
H  22.07400 -2.43200 41.95500
H  22.34200 0.07900 43.27900
H  22.12000 -0.94400 44.58700
H  20.91300 -1.06500 43.40000
H  23.95800 -2.64800 40.54700
H  25.56300 -2.94300 41.13800
H  26.24200 -0.71200 40.57200
H  24.58100 -0.42800 40.20900
H  19.76400 -6.16700 43.13700
H  19.08100 -4.97300 44.22900
H  18.73100 -6.68200 44.47400
H  19.87800 -9.92800 47.45400
H  21.22900 -8.86100 48.00300
H  21.54200 -10.19500 46.80000
H  25.66200 -9.30400 47.04100
H  27.08600 -7.71700 49.14700
H  24.10600 -9.12500 49.30400
H  25.78900 -9.40300 49.72400
H  24.98700 -10.55600 48.65500
H  28.78300 -8.31700 46.84300
H  27.90900 -9.70400 47.52800
H  30.29500 -8.24700 48.59800
H  29.53200 -9.70800 49.11500
H  28.93700 -8.22800 49.74100
H  31.04800 -4.08000 45.40400
H  30.41100 -4.29100 47.12700
H  30.60800 -2.73800 46.46500
H  27.65200 -1.58600 42.15600
H  28.40100 2.62100 43.69300
H  26.69900 2.60100 43.46400
H  27.92400 2.94600 42.18600
Mg -5.98300 25.01800 26.72600
C  -4.47000 26.39600 29.61800
C  -7.63600 22.79500 28.63300
C  -6.98000 23.62800 23.83800
C  -3.69600 26.97500 24.84700
N  -5.94100 24.57000 28.92000
C  -5.40700 25.34200 29.90100
C  -5.89700 24.79200 31.31200
C  -6.54400 23.36500 30.87200
C  -6.71800 23.57200 29.35800
C  -5.81800 22.03300 31.26700
C  -6.75000 25.84400 32.09700
C  -7.52000 25.51100 33.37100
H  -6.96900 24.67300 34.52600
N  -7.29900 23.58000 26.25800
C  -7.94700 22.79600 27.24000
C  -8.90000 21.93500 26.53300
C  -8.76900 22.12900 25.11400
C  -7.65000 23.17700 24.98300
C  -9.87100 21.11200 27.40600
C  -9.63500 21.58700 23.97300
O  -9.48700 21.88400 22.78700
C  -10.73200 20.59600 24.36200
N  -5.40500 25.28700 24.64700
C  -5.99100 24.58100 23.66000
C  -5.41000 24.89400 22.32400
C  -4.54300 26.19900 22.59700
C  -4.61800 26.25400 24.13100
C  -4.60600 23.60700 21.97000
C  -4.82400 27.56900 21.86300
C  -3.55400 28.17800 21.20800
N  -4.40600 26.35700 27.10000
C  -3.62700 27.09300 26.22900
C  -2.73700 27.97000 26.92300
C  -3.11600 27.77500 28.26000
C  -4.10600 26.76400 28.34000
C  -1.80500 29.02000 26.39200
C  -2.85700 28.19200 29.60300
O  -2.13000 29.06800 30.09700
C  -3.72900 27.26700 30.56900
C  -2.69200 26.50000 31.35700
O  -1.83500 25.83600 30.77200
O  -2.83900 26.60200 32.68800
C  -1.65500 25.96900 33.35800
H  -8.18100 21.98800 29.12800
H  -7.33000 23.15200 22.92000
H  -2.98100 27.59000 24.29700
H  -4.97600 24.45500 31.78800
H  -7.49600 23.18200 31.37100
H  -5.21700 21.67500 30.43100
H  -6.51800 21.21900 31.45800
H  -5.12300 22.12800 32.10100
H  -7.53300 26.14700 31.40200
H  -6.09300 26.65300 32.41700
H  -8.41800 25.01800 32.99800
H  -7.78800 26.49300 33.76000
H  -9.69200 20.04100 27.50900
H  -10.91400 21.29100 27.14700
H  -9.93300 21.51700 28.41600
H  -11.45600 21.13000 24.97800
H  -10.32000 19.80600 24.99000
H  -11.27700 20.14900 23.53100
H  -6.12900 25.06800 21.52400
H  -3.54900 25.84500 22.32300
H  -5.15500 23.17100 21.13500
H  -4.48300 22.90700 22.79600
H  -3.60400 23.87800 21.63600
H  -5.12300 28.37600 22.53200
H  -5.50900 27.36500 21.04000
H  -3.87900 28.43800 20.20000
H  -2.69300 27.51300 21.13600
H  -3.36900 29.09100 21.77300
H  -1.34000 28.63100 25.48600
H  -1.03400 29.25500 27.12600
H  -2.35600 29.94100 26.20000
H  -4.36100 27.68900 31.35100
H  -1.34300 26.73900 34.06300
H  -0.79800 25.76700 32.71500
H  -1.87200 24.98100 33.76500

