158

Mg 0.08100 8.11600 26.20900
C  1.21100 9.65500 29.16300
C  -0.23000 5.16900 27.92100
C  -0.52400 6.60700 23.30500
C  0.70900 11.20100 24.48300
N  0.41800 7.43400 28.38900
C  0.74600 8.25500 29.38900
C  0.92700 7.47700 30.65500
C  0.52000 5.97200 30.22000
C  0.13800 6.15900 28.78600
C  1.65200 4.98600 30.59900
C  0.20500 8.06600 31.86700
C  0.86200 7.99000 33.28800
H  2.00200 6.97100 33.52900
N  -0.35000 6.23600 25.70300
C  -0.46900 5.11800 26.53500
C  -0.72600 3.91300 25.78700
C  -0.93000 4.31100 24.44300
C  -0.62000 5.74600 24.42200
C  -0.99800 2.48400 26.38700
C  -1.40100 3.45000 23.25900
O  -1.68800 3.98900 22.20200
C  -1.73700 2.01300 23.47100
N  0.15000 8.83300 24.18700
C  -0.00700 7.93300 23.18500
C  0.26700 8.62700 21.81500
C  0.27100 10.13200 22.16500
C  0.43900 10.07100 23.73800
C  1.56500 8.15000 21.08800
C  -0.94500 10.95300 21.65600
C  -0.57900 12.36700 21.32100
N  0.74100 10.07200 26.64700
C  1.00700 11.17000 25.88700
C  1.48700 12.30200 26.69700
C  1.51200 11.76300 27.99600
C  1.09100 10.42300 27.92100
C  1.90700 13.61500 26.25500
C  1.85800 12.08500 29.38100
O  2.28800 13.10800 29.90300
C  1.58400 10.77100 30.21600
C  2.63300 10.56400 31.26900
O  3.69000 9.95500 31.17100
O  2.34500 11.22000 32.45100
C  3.40300 11.07200 33.44100
H  -0.39700 4.21800 28.43200
H  -0.75800 6.13600 22.34800
H  0.85600 12.11300 23.90200
H  2.00200 7.51200 30.83400
H  -0.22500 5.54000 30.88800
H  2.02500 4.63300 29.63700
H  1.34000 4.07100 31.10200
H  2.52800 5.43600 31.06500
H  -0.73400 7.52400 31.98000
H  0.03000 9.12300 31.66300
H  0.05900 7.63200 33.93200
H  1.15300 8.95900 33.69300
H  -2.06500 2.37800 26.58400
H  -0.59100 2.48600 27.39800
H  -0.55900 1.74900 25.71100
H  -0.76600 1.52700 23.57000
H  -2.08000 1.68300 22.49000
H  -2.48000 1.78600 24.23500
H  -0.57100 8.42600 21.14800
H  1.20300 10.51400 21.74800
H  1.29300 7.43900 20.30800
H  2.07500 7.59200 21.87400
H  2.17500 8.91800 20.61300
H  -1.69100 10.91600 22.44900
H  -1.18800 10.43600 20.72700
H  -0.61000 12.56500 20.25000
H  0.36800 12.74300 21.70900
H  -1.28200 13.09800 21.72000
H  1.17500 14.26300 25.77300
H  2.64600 13.46700 25.46800
H  2.32800 14.22300 27.05600
H  0.62200 11.10000 30.60700
H  3.50200 10.02400 33.72300
H  3.07300 11.48900 34.39200
H  4.31700 11.45400 32.98400
Mg -4.52300 26.00600 25.92700
C  -2.96000 27.18300 28.90500
C  -6.45800 24.07400 27.82700
C  -5.46300 24.30400 23.16900
C  -2.12200 27.73600 24.09600
N  -4.60300 25.67300 28.10800
C  -4.02600 26.36200 29.16100
C  -4.69700 25.92700 30.51300
C  -5.59400 24.70300 30.14300
C  -5.58000 24.82900 28.60300
C  -5.01700 23.37600 30.70500
C  -5.52200 27.16200 31.06200
C  -5.34800 27.34900 32.60300
H  -4.81600 26.24800 33.50800
N  -5.93200 24.48200 25.49000
C  -6.61000 23.84900 26.44500
C  -7.55900 22.97300 25.79500
C  -7.15000 22.91600 24.40800
C  -6.16900 23.90100 24.24600
C  -8.52100 22.09500 26.59600
C  -7.71800 22.07800 23.27500
O  -7.20400 22.04100 22.11000
C  -8.81800 21.11800 23.47700
N  -3.84300 25.97100 23.91000
C  -4.37300 25.18300 22.92400
C  -3.52100 25.29400 21.66900
C  -2.63900 26.55900 21.88500
C  -2.86600 26.84600 23.38000
C  -2.89800 23.96000 21.23500
C  -3.11600 27.76100 20.98200
C  -2.08300 28.59500 20.10800
N  -2.96500 27.40200 26.34100
C  -2.12900 28.08500 25.47900
C  -1.29400 28.97200 26.24700
C  -1.54000 28.54500 27.59300
C  -2.61600 27.60800 27.58700
C  -0.41800 30.10700 25.67900
C  -1.17200 28.86100 28.94200
O  -0.33400 29.68900 29.34000
C  -2.08500 27.95900 29.86500
C  -1.22600 27.17700 30.77200
O  -0.36700 26.32400 30.50500
O  -1.52700 27.53400 32.01800
C  -0.76400 26.97300 33.12400
H  -7.14100 23.45200 28.41000
H  -5.69100 23.64300 22.33000
H  -1.38300 28.15300 23.40900
H  -3.91000 25.78600 31.25500
H  -6.60300 24.85700 30.52600
H  -3.97000 23.46500 30.99500
H  -5.06300 22.63500 29.90600
H  -5.66100 23.03300 31.51500
H  -6.52000 27.00100 30.65400
H  -5.09100 28.04300 30.58700
H  -6.26200 27.67400 33.10000
H  -4.63200 28.16300 32.71300
H  -8.05100 21.14100 26.83700
H  -9.38300 21.77100 26.01300
H  -8.81100 22.58000 27.52800
H  -9.09200 20.48600 22.63200
H  -9.65600 21.72100 23.82600
H  -8.52900 20.45400 24.29100
H  -4.20000 25.52400 20.84800
H  -1.62600 26.33500 21.55200
H  -1.82200 23.98800 21.40200
H  -3.15800 23.66200 20.21900
H  -3.20400 23.20100 21.95500
H  -3.64300 28.36900 21.71800
H  -3.84400 27.32900 20.29400
H  -1.25800 27.96700 19.76900
H  -1.83000 29.52600 20.61500
H  -2.49700 28.88000 19.14100
H  -0.33100 30.68300 26.60000
H  -1.01400 30.58600 24.90100
H  0.57200 29.76200 25.38000
H  -2.72400 28.67100 30.38800
H  -0.97800 25.91300 33.26200
H  -1.00400 27.47600 34.06100
H  0.28100 27.07600 32.83200

