158

Mg 16.64500 52.14000 25.82100
C  18.28700 50.98800 28.69600
C  14.06200 53.24100 27.75300
C  15.26800 53.46100 23.09300
C  19.18200 50.76000 23.87800
N  16.30100 52.18400 27.98300
C  17.16000 51.71000 29.01100
C  16.63000 52.17000 30.36100
C  15.21200 52.69400 30.04600
C  15.15300 52.69500 28.48400
C  14.08000 51.97600 30.92300
C  17.57500 53.26600 30.93300
C  18.09700 52.89100 32.29100
H  17.32700 53.41000 33.46200
N  14.86700 53.12300 25.44700
C  13.94900 53.51100 26.37600
C  12.83300 54.16600 25.71700
C  13.14400 54.18900 24.30100
C  14.48300 53.51600 24.20500
C  11.73800 54.85900 26.50600
C  12.32500 54.59800 23.12600
O  12.63600 54.44100 21.95100
C  11.04800 55.33500 23.26300
N  17.04100 51.99600 23.78800
C  16.46200 52.77500 22.88400
C  17.16300 52.81200 21.50500
C  18.55600 52.07300 21.76100
C  18.21900 51.54000 23.26100
C  16.34800 52.21100 20.31600
C  19.77800 53.00000 21.66000
C  21.13300 52.29600 21.53300
N  18.27800 51.00200 26.12500
C  19.20400 50.46400 25.27200
C  20.23600 49.66700 25.99700
C  19.88800 49.90500 27.32700
C  18.66200 50.60000 27.38700
C  21.53500 49.11200 25.51000
C  20.35500 49.68300 28.66400
O  21.29600 49.01600 29.10300
C  19.40400 50.45100 29.62600
C  18.90900 49.68800 30.78200
O  17.98200 48.90200 30.67800
O  19.76400 49.73500 31.79300
C  19.89700 48.71200 32.77300
H  13.20900 53.61700 28.32100
H  14.83400 53.93900 22.21200
H  19.99700 50.24900 23.36200
H  16.51300 51.31800 31.03100
H  15.12100 53.72900 30.37500
H  14.52700 51.69700 31.87700
H  13.77900 51.15500 30.27100
H  13.23100 52.64800 31.04700
H  17.07000 54.21700 31.10500
H  18.45400 53.41800 30.30700
H  19.12900 53.22000 32.40900
H  18.26300 51.81400 32.30700
H  12.03200 55.31300 27.45200
H  10.91500 54.14400 26.52100
H  11.33700 55.66900 25.89700
H  11.21300 56.23200 23.86100
H  10.50700 54.61100 23.87200
H  10.49800 55.46100 22.33100
H  17.33800 53.86500 21.28400
H  18.70500 51.17300 21.16500
H  15.45500 51.72800 20.71200
H  16.95100 51.44600 19.82600
H  16.09400 53.03600 19.65000
H  19.84100 53.73600 22.46200
H  19.55900 53.55100 20.74500
H  21.77600 52.61700 22.35200
H  21.66300 52.69000 20.66500
H  21.05100 51.21200 21.45100
H  21.97000 48.42800 26.23800
H  22.25800 49.91300 25.34800
H  21.35700 48.60900 24.56000
H  19.91600 51.28000 30.11500
H  20.72500 48.98500 33.42800
H  19.89300 47.73900 32.28300
H  19.03600 48.73000 33.44200
Mg -1.44600 35.19400 26.83800
C  -3.52500 33.62900 29.10500
C  -0.45800 37.38100 29.40800
C  0.08300 37.19100 24.60700
C  -2.74900 33.33800 24.32600
N  -2.06000 35.55400 28.98700
C  -2.77100 34.67400 29.71600
C  -2.82800 35.20400 31.17100
C  -1.95700 36.50800 31.21500
C  -1.44700 36.50700 29.79200
C  -2.71200 37.78100 31.56200
C  -2.42800 34.16700 32.21300
C  -3.43900 33.56500 33.19000
H  -2.85200 33.06500 34.55100
N  -0.30300 36.94300 27.01200
C  0.03700 37.62300 28.13500
C  1.07700 38.62700 27.85900
C  1.25900 38.61000 26.41900
C  0.28700 37.55100 25.96800
C  1.79000 39.50300 28.83400
C  2.16700 39.47200 25.49800
O  2.32600 39.18700 24.31400
C  3.04200 40.50700 26.08900
N  -1.16600 35.14800 24.79300
C  -0.53800 36.10700 24.04800
C  -0.53200 35.76400 22.54800
C  -1.38400 34.42600 22.54300
C  -1.73700 34.26000 23.97800
C  -1.10900 36.94100 21.61200
C  -0.73700 33.10400 22.06200
C  -1.55500 32.16800 21.13500
N  -2.87500 33.73600 26.70700
C  -3.31300 33.05800 25.59300
C  -4.30800 32.10700 26.00800
C  -4.34800 32.22100 27.41800
C  -3.53400 33.27400 27.76700
C  -5.04800 31.14100 25.12500
C  -4.99100 31.66800 28.60400
O  -5.72600 30.73500 28.72300
C  -4.55700 32.66800 29.72700
C  -5.80800 33.36900 30.08600
O  -6.15700 34.47800 29.70900
O  -6.50700 32.68800 31.05300
C  -7.51400 33.49400 31.74800
H  -0.04900 37.73500 30.35600
H  0.62800 37.70900 23.81400
H  -3.20500 32.66400 23.59800
H  -3.88000 35.35800 31.41300
H  -1.09200 36.43300 31.87400
H  -3.31900 37.56200 32.44000
H  -3.33200 38.19400 30.76700
H  -1.95600 38.44600 31.97900
H  -1.55600 34.58400 32.71800
H  -2.21700 33.26900 31.63200
H  -3.93500 32.66500 32.82500
H  -4.24900 34.23700 33.47500
H  2.86700 39.58600 28.68900
H  1.77800 39.15000 29.86600
H  1.33400 40.49200 28.80100
H  3.73800 40.14000 26.84400
H  2.41700 41.17100 26.68800
H  3.55100 41.14000 25.36200
H  0.42100 35.46800 22.11000
H  -2.28500 34.53400 21.93800
H  -2.18700 36.91500 21.45300
H  -0.58400 37.09700 20.67000
H  -0.94000 37.90900 22.08300
H  -0.38500 32.57800 22.95000
H  0.24100 33.29500 21.62000
H  -2.60600 32.43600 21.02700
H  -1.55200 31.18800 21.61200
H  -1.11200 32.14100 20.14000
H  -4.44100 30.50800 24.47900
H  -5.61700 31.74700 24.41900
H  -5.78600 30.58700 25.70500
H  -4.18500 32.17700 30.62500
H  -8.21000 33.95100 31.04500
H  -6.99500 34.25700 32.32900
H  -7.99700 32.75000 32.38100

