158

Mg 45.28200 2.95500 47.04100
C  43.03700 5.72300 46.56500
C  42.57200 0.83100 46.94900
C  47.43200 0.39800 46.86400
C  47.97700 5.22600 46.59400
N  43.07700 3.30300 46.70400
C  42.39200 4.51600 46.66300
C  40.90200 4.22700 46.91000
C  40.78800 2.75700 47.28800
C  42.25200 2.24500 46.96600
C  40.25400 2.41800 48.66400
C  40.06000 4.58700 45.71600
C  40.58500 4.22200 44.27500
H  40.74800 5.48900 43.34900
N  45.03100 0.85400 46.82700
C  43.86500 0.20500 46.87900
C  44.09100 -1.22500 46.79400
C  45.52500 -1.38800 46.85000
C  46.07700 -0.02600 46.82300
C  43.05900 -2.25900 46.77400
C  46.30700 -2.67900 46.65300
O  45.63900 -3.76100 46.68500
C  47.82600 -2.78900 46.41700
N  47.35400 2.83300 46.64000
C  47.97900 1.66200 46.86600
C  49.48500 1.83700 47.00100
C  49.71500 3.37200 46.74200
C  48.29900 3.85800 46.60200
C  50.05000 1.31300 48.32300
C  50.51700 3.81900 45.43900
C  51.87400 3.01600 45.29800
N  45.56000 5.10500 46.86200
C  46.71100 5.88600 46.64700
C  46.38400 7.24400 46.65700
C  44.95800 7.23300 46.61400
C  44.51400 5.95500 46.75000
C  47.33100 8.36100 46.50300
C  43.78800 8.11500 46.71100
O  43.76300 9.33900 46.94900
C  42.51700 7.17600 46.60900
C  41.63100 7.47000 47.76000
O  41.70500 6.95900 48.89800
O  40.82200 8.50200 47.43700
C  39.80400 8.95600 48.42700
H  41.67700 0.20700 46.98300
H  48.18600 -0.39100 46.89100
H  48.88200 5.83100 46.68400
H  40.60300 4.82500 47.77100
H  40.16000 2.25000 46.55500
H  40.05100 3.29300 49.28000
H  41.06600 1.83900 49.10400
H  39.34700 1.81600 48.60300
H  40.06200 5.67200 45.81100
H  39.02900 4.23700 45.76700
H  39.92300 3.49700 43.80200
H  41.55100 3.76400 44.48700
H  43.38000 -3.06300 46.11200
H  42.04500 -1.90900 46.58300
H  43.05100 -2.67400 47.78200
H  48.14400 -2.12400 45.61500
H  48.04000 -3.82800 46.16800
H  48.39400 -2.59500 47.32700
H  50.05300 1.32700 46.22300
H  50.16300 3.87200 47.60000
H  49.26900 0.90700 48.96700
H  50.59200 2.10100 48.84500
H  50.67700 0.43900 48.14800
H  50.69200 4.85300 45.73900
H  49.85900 3.65800 44.58600
H  52.62700 3.74000 44.98700
H  51.82800 2.27500 44.50000
H  52.13400 2.62300 46.28100
H  48.05000 7.94100 45.79900
H  47.88400 8.55400 47.42200
H  46.86100 9.31300 46.25700
H  41.95400 7.48300 45.72800
H  39.68700 8.40200 49.35900
H  38.83400 8.87000 47.93700
H  39.84700 10.02800 48.61800
Mg 35.57700 0.40500 29.78200
C  33.17500 1.68700 32.02300
C  37.85000 0.34400 32.42100
C  38.01400 -0.01300 27.62300
C  33.35000 1.23800 27.24600
N  35.56100 1.07100 31.99400
C  34.41000 1.42600 32.67500
C  34.63200 1.40400 34.25000
C  36.28600 1.29500 34.25500
C  36.61800 0.84000 32.80500
C  37.10200 2.61000 34.79200
C  33.82600 0.27900 35.01300
C  33.24400 0.60100 36.39300
H  34.05400 1.60100 37.32000
N  37.63100 -0.06400 29.99400
C  38.38800 -0.09900 31.14900
C  39.72700 -0.63600 30.88200
C  39.76400 -0.69600 29.44500
C  38.46100 -0.27100 28.91800
C  40.65000 -0.88100 31.96200
C  40.95600 -0.99700 28.60100
O  40.94700 -0.80700 27.36800
C  42.14900 -1.56800 29.18500
N  35.68500 0.58400 27.66400
C  36.81500 0.46200 27.03200
C  36.63700 0.68900 25.46200
C  35.16200 1.19500 25.51400
C  34.67400 0.91800 26.87500
C  37.69200 1.76000 24.89500
C  34.35500 0.55800 24.35700
C  33.47000 -0.69300 24.67500
N  33.65700 1.13300 29.57300
C  32.87400 1.40400 28.47200
C  31.62600 1.87900 28.86800
C  31.68900 2.00700 30.21200
C  32.95200 1.58400 30.62000
C  30.53900 2.35700 27.96500
C  31.00800 2.45900 31.41800
O  29.88600 3.04500 31.47700
C  31.88600 2.26000 32.60700
C  32.10500 3.49300 33.38600
O  32.71100 4.47800 32.91300
O  31.46400 3.39800 34.58900
C  31.57700 4.61900 35.39500
H  38.49200 0.40300 33.30200
H  38.72500 -0.13900 26.80400
H  32.65200 1.49100 26.44500
H  34.31600 2.40800 34.53700
H  36.58900 0.50600 34.94300
H  38.02400 2.25500 35.25300
H  36.48400 3.03100 35.58600
H  37.33200 3.35800 34.03400
H  34.49700 -0.56600 35.16000
H  32.99800 0.04200 34.34500
H  33.05900 -0.36700 36.85700
H  32.29700 1.09800 36.18200
H  40.88000 -1.91300 32.22800
H  40.38700 -0.42500 32.91600
H  41.56300 -0.36900 31.65800
H  42.93600 -0.95000 29.61700
H  42.52800 -2.24000 28.41500
H  41.86900 -2.28200 29.96000
H  36.78200 -0.34000 25.13400
H  35.14600 2.27900 25.40300
H  37.17800 2.54700 24.34400
H  38.28600 1.23000 24.15000
H  38.30800 2.16600 25.69800
H  35.08000 0.11000 23.67700
H  33.71100 1.29400 23.87700
H  33.70800 -1.16000 25.63100
H  33.61800 -1.42400 23.88000
H  32.42000 -0.40000 24.65100
H  30.61900 3.44200 27.90100
H  29.60100 2.11500 28.46500
H  30.50000 1.85100 27.00000
H  31.44300 1.54200 33.29700
H  31.45700 4.41200 36.45800
H  30.77600 5.25500 35.01800
H  32.55800 5.09200 35.33700

