158

Mg 6.45200 53.97800 42.69000
C  5.62200 50.69400 42.19600
C  9.31300 53.58600 40.69000
C  6.86400 57.42600 42.53800
C  3.10600 54.55400 43.83400
N  7.39000 52.33100 41.70800
C  6.86100 51.11000 41.54400
C  7.83200 50.19700 40.78500
C  9.16500 51.03800 40.72700
C  8.67000 52.41700 41.14900
C  10.39900 50.49800 41.57500
C  7.32400 49.64900 39.41100
C  6.52900 50.69900 38.50300
H  6.59200 50.54700 36.93400
N  8.01700 55.30000 41.93500
C  9.07000 54.91100 41.15300
C  9.89300 56.09500 40.97300
C  9.30200 57.19200 41.54600
C  7.99300 56.72000 42.08300
C  11.26000 56.03000 40.27200
C  9.92700 58.62300 41.59800
O  11.06200 58.84600 41.19600
C  9.26400 59.79700 42.40900
N  5.16100 55.68800 43.06800
C  5.55800 56.99800 42.96100
C  4.53000 58.01400 43.44000
C  3.25200 57.12600 43.47500
C  3.82500 55.71900 43.48400
C  5.03400 58.75200 44.82700
C  2.16400 57.32500 42.31700
C  0.99500 58.19700 42.64000
N  4.73000 52.92600 43.05300
C  3.53600 53.19400 43.69000
C  2.85200 51.96100 44.01200
C  3.57600 50.98500 43.32400
C  4.74800 51.60900 42.82000
C  1.60000 51.84400 44.80600
C  3.56900 49.52900 43.20600
O  2.88400 48.61000 43.59400
C  5.04600 49.22700 42.42400
C  4.59000 48.63600 41.10600
O  3.79000 49.16100 40.32800
O  5.27300 47.44900 40.82000
C  4.64500 46.61500 39.78900
H  10.19200 53.52200 40.04500
H  7.04400 58.50200 42.51100
H  2.05600 54.45800 44.12100
H  8.01200 49.23300 41.26200
H  9.59700 51.07300 39.72600
H  10.71000 51.29300 42.25200
H  11.18700 50.30200 40.84800
H  10.26900 49.56100 42.11700
H  6.72900 48.77300 39.67000
H  8.19600 49.30800 38.85300
H  6.85700 51.73100 38.62800
H  5.53000 50.73900 38.93700
H  11.42700 56.98500 39.77400
H  11.27000 55.33700 39.43000
H  12.04600 55.77700 40.98400
H  8.58400 60.23300 41.67800
H  10.04900 60.52000 42.63000
H  8.70000 59.42000 43.26300
H  4.43600 58.77400 42.66500
H  2.75500 57.33000 44.42400
H  4.74800 59.79800 44.94100
H  6.12100 58.67400 44.81500
H  4.68300 58.16100 45.67200
H  1.87100 56.29900 42.09600
H  2.70200 57.54600 41.39500
H  1.20400 58.71500 43.57600
H  0.13600 57.52900 42.70000
H  0.82200 58.80800 41.75400
H  1.33100 52.74300 45.36100
H  1.68700 51.09300 45.59100
H  0.78000 51.61000 44.12700
H  5.74000 48.53300 42.89800
H  4.35200 45.76000 40.39800
H  5.37700 46.31000 39.04100
H  3.74500 47.07000 39.37600
Mg 16.31600 51.53700 26.90000
C  18.28800 50.34200 29.52700
C  13.98400 52.48600 29.11900
C  14.43700 52.55700 24.25600
C  18.94500 50.66900 24.70900
N  16.18700 51.47300 29.05300
C  17.12600 50.98400 29.92000
C  16.66900 51.22400 31.39900
C  15.14800 51.57800 31.31300
C  15.09600 51.86100 29.76100
C  14.04900 50.45600 31.68100
C  17.60300 52.38200 32.01500
C  17.93500 52.33300 33.57000
H  17.02500 51.40500 34.46000
N  14.42100 52.40000 26.69100
C  13.65900 52.76300 27.74400
C  12.59100 53.52100 27.21700
C  12.60900 53.48000 25.83500
C  13.82200 52.74300 25.47700
C  11.64700 54.23600 28.08200
C  11.68200 54.12100 24.86700
O  11.81500 53.99900 23.67000
C  10.56900 55.04200 25.35500
N  16.66100 51.59800 24.83000
C  15.67300 52.02200 23.88500
C  16.34900 52.21000 22.53900
C  17.73100 51.60600 22.70700
C  17.81700 51.29400 24.19200
C  15.50800 51.80300 21.28100
C  18.88800 52.44900 22.11100
C  20.03100 51.73400 21.29800
N  18.22100 50.58300 27.00500
C  19.19900 50.32900 26.09400
C  20.38800 49.67100 26.70600
C  20.04900 49.77400 28.06600
C  18.75100 50.27800 28.21200
C  21.72600 49.23700 26.01400
C  20.58000 49.51500 29.32500
O  21.70800 49.10900 29.65000
C  19.46800 49.89400 30.37900
C  19.17500 48.54000 30.95300
O  19.14200 47.42800 30.40200
O  18.92600 48.66300 32.34400
C  18.11900 47.56600 32.86800
H  13.18200 52.82400 29.77900
H  13.81200 53.02600 23.49300
H  19.73000 50.38100 24.00800
H  16.59400 50.35200 32.04800
H  15.01500 52.43200 31.97600
H  13.41800 50.59700 32.55800
H  14.55900 49.49500 31.75900
H  13.40900 50.53400 30.80300
H  17.05500 53.32300 31.96600
H  18.56100 52.36400 31.49500
H  17.96200 53.35700 33.94200
H  18.93800 51.92600 33.69600
H  11.72700 54.11700 29.16200
H  10.70100 53.71800 27.92400
H  11.34100 55.24100 27.78800
H  9.96900 55.43100 24.53200
H  10.77700 55.98100 25.86800
H  9.93800 54.48800 26.05000
H  16.55200 53.28100 22.51200
H  17.80700 50.59300 22.31200
H  15.47500 52.65100 20.59700
H  14.46300 51.54400 21.45100
H  16.03100 51.00100 20.75900
H  19.40600 52.87100 22.97200
H  18.42200 53.24700 21.53300
H  20.43800 52.47000 20.60400
H  19.77700 50.78300 20.83000
H  20.84300 51.54600 22.00100
H  22.47500 48.90500 26.73300
H  22.13900 50.09300 25.47800
H  21.53000 48.39800 25.34600
H  19.86100 50.55700 31.15000
H  17.64200 47.91300 33.78500
H  18.63600 46.62800 33.06900
H  17.21600 47.43800 32.27100

