158

Mg -1.91000 16.89300 25.11600
C  -2.16100 14.85500 27.90600
C  -2.92300 19.48900 26.96400
C  -1.78300 18.78600 22.27600
C  -1.20400 13.98500 23.21900
N  -2.59000 17.16800 27.25800
C  -2.59800 16.22000 28.18200
C  -2.96300 16.86800 29.60100
C  -3.52300 18.26300 29.13400
C  -3.05900 18.27700 27.67400
C  -5.07300 18.52200 29.21300
C  -1.80600 16.94600 30.59900
C  -1.78000 16.04600 31.84200
H  -2.47600 16.61200 33.00900
N  -2.20700 18.92100 24.71500
C  -2.56200 19.81500 25.64600
C  -2.56200 21.15200 25.05800
C  -2.26800 21.00000 23.68300
C  -2.13900 19.48300 23.47200
C  -2.70900 22.41400 25.86700
C  -2.21400 21.93200 22.57200
O  -1.94100 21.57400 21.47700
C  -2.43300 23.35500 22.87400
N  -1.63700 16.39300 22.96300
C  -1.42100 17.40000 22.10600
C  -1.04500 16.88100 20.72300
C  -0.68400 15.39300 21.15000
C  -1.20400 15.22300 22.54300
C  -2.05900 17.06300 19.47500
C  0.79400 15.07300 21.07600
C  1.64400 16.01300 21.90700
N  -1.82600 14.78400 25.43200
C  -1.55800 13.75500 24.54800
C  -1.69700 12.50300 25.24300
C  -1.86800 12.89800 26.61800
C  -1.97900 14.30800 26.63400
C  -1.56300 11.07000 24.67200
C  -1.95700 12.49700 27.97800
O  -1.91700 11.35200 28.46300
C  -1.95900 13.78100 28.84200
C  -0.74600 14.01900 29.54900
O  0.20200 14.68500 29.22000
O  -0.69100 13.28900 30.67500
C  0.61800 13.23300 31.29500
H  -3.23100 20.36500 27.54000
H  -1.63200 19.29000 21.31900
H  -1.01100 13.08800 22.62600
H  -3.76800 16.33100 30.10100
H  -3.09400 19.09800 29.68700
H  -5.64000 17.74600 29.72600
H  -5.52900 18.87800 28.28900
H  -5.10300 19.40200 29.85500
H  -1.55400 17.96000 30.90700
H  -0.93300 16.83800 29.95600
H  -0.77200 15.77000 32.15200
H  -2.14000 15.06900 31.52000
H  -1.87700 23.11800 25.84400
H  -2.81200 22.13300 26.91500
H  -3.59500 23.00900 25.64500
H  -2.84500 23.78400 21.96000
H  -1.48400 23.85600 23.06600
H  -3.21500 23.50600 23.61800
H  -0.13100 17.38900 20.41600
H  -1.21600 14.68000 20.52100
H  -1.62000 17.51600 18.58600
H  -2.92600 17.64600 19.78400
H  -2.33500 16.03800 19.22600
H  1.00400 15.08800 20.00600
H  0.87600 14.02100 21.34900
H  2.14700 15.42600 22.67600
H  1.26700 16.99000 22.21100
H  2.43900 16.40800 21.27500
H  -1.70700 11.01800 23.59200
H  -2.39300 10.67300 25.25700
H  -0.60200 10.61600 24.91200
H  -2.83700 13.81500 29.48700
H  1.50600 13.48100 30.71200
H  0.74800 12.23600 31.71500
H  0.64800 14.00000 32.06900
Mg 15.49500 51.81700 26.49800
C  18.04100 50.90600 28.78300
C  13.28900 51.76900 29.12900
C  13.02800 52.41800 24.35400
C  17.82400 51.30100 23.85200
N  15.71900 51.53500 28.74800
C  16.87200 51.34100 29.43500
C  16.56100 51.50900 30.95700
C  15.06000 51.17600 30.98900
C  14.63800 51.50400 29.54700
C  14.82300 49.75300 31.36400
C  16.93000 52.92700 31.51300
C  17.02300 53.06600 32.98800
H  16.23800 52.16800 33.92700
N  13.49700 52.07400 26.70800
C  12.72800 51.98400 27.88100
C  11.32100 52.16600 27.67500
C  11.24500 52.43500 26.25300
C  12.60400 52.37100 25.71900
C  10.20900 52.10900 28.72500
C  10.00500 52.76500 25.39000
O  10.08000 52.99600 24.20700
C  8.58900 52.84100 26.10400
N  15.38800 51.78500 24.39000
C  14.25600 52.28100 23.79000
C  14.43700 52.44900 22.27600
C  15.94700 51.91400 22.06600
C  16.44200 51.70800 23.49200
C  13.48300 51.59700 21.42600
C  16.78200 52.90900 21.18600
C  17.63400 52.40400 20.04600
N  17.50500 51.25200 26.33800
C  18.30400 51.10600 25.21400
C  19.66300 50.76700 25.55400
C  19.52900 50.54100 26.97900
C  18.23800 50.92500 27.37500
C  20.86400 50.54200 24.70300
C  20.24400 50.08400 28.17500
O  21.41700 49.67300 28.30200
C  19.25600 50.37500 29.40700
C  19.01300 49.11900 30.21500
O  18.31300 48.17700 29.91800
O  19.56800 49.35100 31.43000
C  19.21900 48.48200 32.58500
H  12.60300 51.67400 29.97300
H  12.23600 52.64800 23.63900
H  18.56700 51.20700 23.05800
H  17.14900 50.74100 31.45900
H  14.44800 51.91600 31.50600
H  14.07300 49.25100 30.75300
H  14.58300 49.63300 32.42100
H  15.74200 49.17400 31.27700
H  16.34100 53.65600 30.95600
H  17.98000 53.02100 31.23700
H  16.71900 54.11000 33.05000
H  18.04600 53.01400 33.36200
H  9.52900 52.94500 28.56100
H  10.66000 52.13800 29.71700
H  9.60700 51.20600 28.62500
H  8.44500 51.90600 26.64600
H  7.78700 52.93400 25.37200
H  8.48900 53.70200 26.76500
H  14.39800 53.50600 22.01300
H  15.89500 50.90300 21.66200
H  13.13900 50.70300 21.94600
H  14.06700 51.09500 20.65500
H  12.66400 52.15200 20.96700
H  17.57800 53.29000 21.82600
H  16.28000 53.80200 20.81500
H  17.40200 52.91300 19.11000
H  17.58900 51.31600 19.98800
H  18.68900 52.54900 20.27900
H  20.72100 51.09900 23.77700
H  20.83800 49.49800 24.39000
H  21.79300 50.81600 25.20100
H  19.68500 51.11700 30.08000
H  18.71200 49.08800 33.33600
H  20.09600 48.12600 33.12600
H  18.55400 47.63600 32.41500

