158

Mg 47.29900 24.67600 27.67000
C  48.01000 26.97900 30.26800
C  46.58000 22.34300 30.14500
C  46.96800 22.20700 25.31300
C  48.42900 26.89300 25.45600
N  47.32600 24.69900 29.95600
C  47.48000 25.76200 30.78600
C  47.10400 25.50300 32.27000
C  46.99000 23.91900 32.21800
C  46.97000 23.62200 30.69900
C  47.90000 23.12100 33.08300
C  45.79300 26.21100 32.78800
C  45.97700 27.39300 33.78600
H  46.80400 26.97500 34.99900
N  46.71900 22.60300 27.76600
C  46.52500 21.85300 28.88800
C  46.19500 20.55000 28.53200
C  46.20500 20.42800 27.15800
C  46.58300 21.81500 26.66600
C  45.91000 19.45600 29.59400
C  45.86100 19.21100 26.28000
O  45.99200 19.22900 25.07000
C  45.23800 17.94000 26.88500
N  47.70000 24.48400 25.62200
C  47.41100 23.41300 24.87700
C  47.67800 23.80100 23.40100
C  47.97900 25.36400 23.47900
C  48.07100 25.57400 24.91000
C  48.77200 23.00800 22.59700
C  46.92100 26.35000 22.73500
C  45.62000 26.69500 23.55300
N  48.18700 26.49200 27.78400
C  48.55800 27.28900 26.77300
C  49.07700 28.54500 27.21500
C  48.87200 28.46100 28.55800
C  48.30500 27.21500 28.90700
C  49.70400 29.55700 26.29000
C  49.08500 29.19000 29.79600
O  49.62300 30.29200 29.96000
C  48.40100 28.31800 30.95000
C  49.46400 28.24600 32.02300
O  50.29400 27.35800 32.08300
O  49.25500 29.22400 32.86000
C  50.13000 29.25000 34.04100
H  46.35400 21.70800 31.00500
H  46.93000 21.39700 24.58100
H  48.78200 27.67100 24.77500
H  47.99500 25.88300 32.76900
H  45.93200 23.71100 32.37700
H  48.60700 22.47800 32.55900
H  47.33000 22.50300 33.77700
H  48.46200 23.87100 33.64000
H  45.13200 25.51300 33.30300
H  45.19100 26.56900 31.95300
H  45.01800 27.72100 34.18700
H  46.39000 28.24600 33.24700
H  46.36700 18.51100 29.30200
H  44.89400 19.32500 29.96600
H  46.38800 19.73400 30.53300
H  45.96700 17.44700 27.52800
H  45.00300 17.20600 26.11400
H  44.36000 18.27200 27.44000
H  46.78100 23.73200 22.78500
H  48.95500 25.72300 23.15100
H  49.64000 23.64900 22.43900
H  48.45300 22.77100 21.58200
H  49.06200 22.12100 23.16100
H  46.63700 25.85200 21.80700
H  47.36700 27.32800 22.55500
H  45.70300 27.76100 23.76100
H  45.55200 25.98000 24.37300
H  44.77500 26.57600 22.87400
H  50.39900 30.15100 26.88400
H  49.03400 30.17700 25.69400
H  50.39000 29.15100 25.54600
H  47.52100 28.84900 31.31300
H  51.04900 29.65400 33.61600
H  50.46500 28.31300 34.48600
H  49.61400 29.83600 34.80200
Mg 35.36700 48.79700 25.97500
C  35.61100 47.07800 29.04600
C  33.93700 51.48600 27.69800
C  34.44300 50.14300 23.00500
C  36.36400 45.81500 24.36400
N  34.67200 49.15700 28.14700
C  35.07400 48.43000 29.22300
C  34.74100 49.06200 30.60000
C  34.03200 50.41500 30.09100
C  34.24200 50.38900 28.55200
C  32.51900 50.51500 30.35400
C  36.03100 49.35100 31.39200
C  36.02700 49.32000 32.93600
H  34.62300 49.39200 33.69600
N  34.46700 50.63800 25.46000
C  34.04000 51.57500 26.29300
C  33.79800 52.77400 25.49700
C  33.75700 52.34900 24.15300
C  34.18900 50.96800 24.16200
C  33.62400 54.18800 26.14500
C  33.43100 53.18000 22.84600
O  33.31500 52.67200 21.74100
C  33.17100 54.64600 22.94900
N  35.43200 48.23200 24.03500
C  35.00100 48.90900 22.96100
C  35.31100 48.12400 21.60600
C  36.09300 46.87600 22.12800
C  35.97900 46.96500 23.62200
C  34.02300 47.80900 20.68400
C  37.56500 46.73000 21.59000
C  38.76900 47.37000 22.37400
N  35.99500 46.81300 26.55600
C  36.37700 45.71800 25.79500
C  36.65400 44.60400 26.65400
C  36.41100 45.11100 27.96900
C  35.95700 46.41000 27.81400
C  37.06300 43.18500 26.27900
C  36.43100 44.76400 29.42000
O  36.68100 43.73600 29.97300
C  35.81500 46.02300 30.15200
C  34.52100 45.66900 30.69100
O  33.41100 45.76900 30.11200
O  34.76400 45.14100 31.96200
C  33.64700 44.44000 32.56200
H  33.55100 52.34000 28.25800
H  34.05500 50.54600 22.06700
H  36.74000 44.90700 23.88800
H  34.05800 48.40600 31.13900
H  34.47500 51.31500 30.51700
H  31.86400 50.49200 29.48300
H  32.34000 51.35900 31.01900
H  32.28200 49.65700 30.98400
H  36.56300 50.27700 31.17600
H  36.70500 48.55100 31.08700
H  36.64100 50.17900 33.20700
H  36.51100 48.42300 33.32300
H  34.56600 54.68100 25.90500
H  33.50900 54.31800 27.22100
H  32.84500 54.67700 25.55900
H  32.17000 54.81900 23.34300
H  33.19300 55.19400 22.00700
H  33.86900 55.19200 23.58200
H  35.95000 48.59800 20.86200
H  35.64500 45.94800 21.77000
H  33.27800 47.08500 21.01300
H  34.40500 47.50400 19.70900
H  33.41000 48.70900 20.63800
H  37.58900 47.03800 20.54400
H  37.71400 45.65800 21.72000
H  39.43000 47.67400 21.56200
H  39.28500 46.64600 23.00500
H  38.40500 48.18100 23.00400
H  36.55200 42.72300 25.43400
H  36.88700 42.57600 27.16500
H  38.12700 43.10700 26.05600
H  36.46700 46.36100 30.95800
H  33.29200 43.77200 31.77700
H  32.93200 45.15600 32.96700
H  34.03700 43.93900 33.44800

