158

Mg 48.16200 46.01800 44.10800
C  44.96000 46.64900 42.91600
C  48.15900 42.94200 42.53900
C  51.46400 45.87900 44.68100
C  48.13000 49.40700 45.40900
N  46.65100 45.00800 42.84300
C  45.46800 45.41000 42.46600
C  44.83200 44.36400 41.57100
C  45.65800 43.04500 41.90000
C  46.94300 43.70100 42.44700
C  45.01100 42.23100 43.09700
C  44.78900 44.70800 40.02700
C  43.76300 44.05100 39.16800
H  44.18500 43.26700 37.92100
N  49.62000 44.50900 43.70400
C  49.39200 43.36500 43.04200
C  50.61700 42.67800 42.96300
C  51.67400 43.47600 43.58400
C  50.96600 44.69600 43.96000
C  50.68600 41.32100 42.31200
C  53.08100 42.94600 43.82700
O  53.44500 41.88300 43.35800
C  54.18300 43.72700 44.54200
N  49.57800 47.44300 44.89600
C  50.91400 47.11000 45.08100
C  51.67300 48.23500 45.80300
C  50.64200 49.38600 45.84600
C  49.32000 48.74900 45.44800
C  52.29600 47.94400 47.24000
C  51.02300 50.62100 44.92600
C  51.95100 51.66100 45.50600
N  46.86400 47.67700 44.17400
C  47.00700 48.97100 44.75600
C  45.78300 49.67400 44.62100
C  44.94700 48.80000 43.99000
C  45.64600 47.61300 43.72800
C  45.42600 51.02200 45.12100
C  43.67100 48.62900 43.39200
O  42.73600 49.40700 43.38100
C  43.57500 47.23300 42.72600
C  42.52800 46.38700 43.43000
O  42.75700 45.59900 44.31200
O  41.42400 46.38200 42.64300
C  40.50700 45.36300 43.06800
H  48.08200 41.89200 42.25000
H  52.54500 45.74900 44.77300
H  47.99200 50.36500 45.91600
H  43.79600 44.25100 41.88800
H  45.90800 42.40200 41.05600
H  43.96500 42.53400 43.14100
H  45.52500 42.42500 44.03800
H  45.08300 41.14900 42.99500
H  45.73000 44.51200 39.51400
H  44.70100 45.79400 39.99100
H  42.95300 44.69500 38.82500
H  43.30700 43.29300 39.80600
H  49.84600 41.06400 41.66700
H  50.66700 40.52900 43.06000
H  51.61000 41.31100 41.73300
H  53.73600 44.05300 45.48100
H  54.31100 44.59400 43.89400
H  55.16000 43.25000 44.62300
H  52.49400 48.49300 45.13400
H  50.59600 49.67700 46.89500
H  51.56700 47.82600 48.04200
H  53.07300 48.68200 47.43800
H  52.64900 46.93300 47.03800
H  50.09800 51.07700 44.57500
H  51.55400 50.30800 44.02700
H  51.48700 52.64600 45.44700
H  52.90600 51.60600 44.98400
H  52.23600 51.54300 46.55100
H  44.64800 51.43300 44.47900
H  46.30600 51.66500 45.09900
H  45.02800 50.94500 46.13300
H  43.25400 47.39500 41.69700
H  40.88500 44.34100 43.04800
H  39.60800 45.47900 42.46300
H  40.22900 45.45300 44.11800
Mg 29.85200 58.59700 39.21800
C  27.13400 56.54500 38.27200
C  32.00500 55.87800 38.79900
C  32.52100 60.70200 39.42800
C  27.61800 61.26600 39.07400
N  29.59500 56.42800 38.60500
C  28.37200 55.85200 38.36500
C  28.64300 54.37600 37.96100
C  30.17900 54.08700 38.22400
C  30.66400 55.54800 38.51800
C  30.55800 53.14000 39.32900
C  28.35300 54.03300 36.44000
C  28.73200 54.97900 35.30900
H  27.84200 55.20800 34.11600
N  32.01300 58.26400 39.26900
C  32.63900 57.08100 39.12800
C  34.00500 57.31500 39.26700
C  34.25500 58.65700 39.60500
C  32.91700 59.28900 39.35800
C  35.00300 56.08900 39.36500
C  35.50700 59.34500 40.04900
O  36.51200 58.61300 40.09700
C  35.66300 60.82900 40.39300
N  30.02300 60.62800 39.16300
C  31.22400 61.28000 39.42100
C  30.97200 62.76600 39.51400
C  29.50800 62.94500 39.21500
C  28.99200 61.49000 39.18000
C  31.58600 63.21800 40.87700
C  29.25500 63.60200 37.76100
C  28.07700 64.67800 37.76100
N  27.75800 58.90800 38.75100
C  27.00100 60.05800 38.76200
C  25.57700 59.67200 38.55400
C  25.58800 58.27500 38.25300
C  26.94500 57.93900 38.45300
C  24.37500 60.57100 38.66200
C  24.80300 57.15000 37.89900
O  23.62700 57.00400 37.61600
C  25.75700 55.99800 37.81100
C  25.29000 54.88800 38.66700
O  25.64300 54.57900 39.75200
O  24.39800 54.08400 38.04500
C  23.98400 52.79600 38.57300
H  32.56200 54.94000 38.74800
H  33.38900 61.35300 39.54800
H  27.00700 62.15600 39.23800
H  28.02900 53.75000 38.60900
H  30.78300 53.84100 37.35100
H  29.71400 52.50000 39.59000
H  30.71700 53.66800 40.27000
H  31.45000 52.52400 39.21400
H  27.26700 53.95200 36.48400
H  28.77400 53.03400 36.32000
H  29.60000 54.47200 34.88700
H  29.13600 55.93300 35.64600
H  35.12200 55.72200 38.34600
H  34.71700 55.30700 40.06900
H  35.96100 56.43500 39.75100
H  34.93300 61.17500 41.12500
H  35.56400 61.37000 39.45100
H  36.67700 60.95200 40.77400
H  31.63300 63.30600 38.83600
H  29.07400 63.57800 39.99000
H  31.65600 62.46800 41.66500
H  30.85700 63.94600 41.23000
H  32.53400 63.75400 40.83300
H  28.95700 62.82500 37.05800
H  30.17600 64.10600 37.46700
H  27.39200 64.41700 36.95500
H  28.48700 65.68700 37.71800
H  27.65000 64.60900 38.76200
H  24.23200 60.82100 39.71300
H  23.54200 60.11800 38.12400
H  24.39000 61.52500 38.13600
H  25.64500 55.63600 36.78900
H  24.35400 51.95800 37.98300
H  22.89500 52.79800 38.55100
H  24.43300 52.69800 39.56100

