158

Mg -9.53800 38.33400 41.00600
C  -8.26700 35.08900 40.76100
C  -6.51400 39.44700 39.78600
C  -10.89700 41.48500 40.51600
C  -12.71400 37.09800 41.68400
N  -7.60800 37.36000 40.43300
C  -7.24800 36.01000 40.48700
C  -5.83100 35.77800 40.19800
C  -5.20800 37.26100 40.30600
C  -6.48900 38.09300 40.10800
C  -4.44200 37.67200 41.68000
C  -5.79800 34.93100 38.83100
C  -5.89700 35.78000 37.57500
H  -7.08800 35.53900 36.56700
N  -8.84500 40.20700 40.28400
C  -7.54700 40.45900 39.88400
C  -7.39200 41.82900 39.43000
C  -8.58600 42.51700 39.74200
C  -9.52000 41.40100 40.19100
C  -6.10000 42.40300 38.95600
C  -8.69700 43.94900 39.57000
O  -7.75000 44.56600 39.13100
C  -9.98800 44.73300 39.83200
N  -11.57000 39.16100 41.02800
C  -11.83600 40.51700 40.89000
C  -13.34700 40.78100 41.17000
C  -13.88000 39.35000 41.54800
C  -12.65600 38.50500 41.50700
C  -13.41100 41.86300 42.25200
C  -15.12100 38.88300 40.69800
C  -16.46900 39.07400 41.40300
N  -10.39100 36.49000 41.26600
C  -11.65100 36.15900 41.63800
C  -11.72400 34.73800 41.98400
C  -10.43400 34.26300 41.57300
C  -9.62100 35.39600 41.13900
C  -12.88700 33.97700 42.48500
C  -9.59100 33.18200 41.55700
O  -9.75400 31.98600 41.83300
C  -8.27000 33.62200 40.87000
C  -7.05600 32.91800 41.33000
O  -6.18600 32.45300 40.62200
O  -7.02800 32.83500 42.71900
C  -5.81500 32.26800 43.29800
H  -5.60400 39.85900 39.34300
H  -11.32900 42.48700 40.46900
H  -13.68900 36.72200 42.00000
H  -5.29000 35.23400 40.97200
H  -4.51100 37.39100 39.47800
H  -3.39700 37.92200 41.49900
H  -4.55100 36.92600 42.46800
H  -4.93200 38.57700 42.03900
H  -6.63400 34.23400 38.76900
H  -4.82800 34.43700 38.88100
H  -4.99000 35.60100 36.99800
H  -5.95000 36.84700 37.78900
H  -6.30600 42.96100 38.04300
H  -5.34500 41.66600 38.67900
H  -5.55500 43.08200 39.61200
H  -9.71200 45.77500 39.99400
H  -10.60500 44.31600 40.62800
H  -10.62400 44.75100 38.94700
H  -13.70800 40.94000 40.15400
H  -14.08400 39.35000 42.61800
H  -13.74200 42.73600 41.69000
H  -12.47500 42.23700 42.66800
H  -14.07800 41.55300 43.05600
H  -15.04900 37.81600 40.48400
H  -15.12300 39.42500 39.75300
H  -16.54200 39.75800 42.24900
H  -16.71900 38.09800 41.81700
H  -17.15200 39.30800 40.58600
H  -12.54200 33.57700 43.43900
H  -13.17000 33.20100 41.77300
H  -13.68100 34.71700 42.58100
H  -8.29400 33.21300 39.86000
H  -5.65900 31.22700 43.01500
H  -5.89200 32.26700 44.38600
H  -4.94600 32.86000 43.01200
Mg -4.95000 25.41900 26.16100
C  -3.84100 26.86400 29.21200
C  -6.86700 23.21200 28.01200
C  -5.57900 23.90200 23.23600
C  -2.69400 27.60100 24.50500
N  -5.22300 25.02200 28.30600
C  -4.77200 25.78700 29.34200
C  -5.37500 25.34700 30.63600
C  -6.06200 24.02400 30.31100
C  -6.04200 24.05400 28.75300
C  -5.27400 22.81800 30.89800
C  -6.40200 26.40500 31.20500
C  -6.39700 26.53900 32.76800
H  -5.84500 25.43300 33.62400
N  -6.24000 23.88500 25.65100
C  -6.92200 23.09400 26.60000
C  -7.57100 21.99800 25.86700
C  -7.20600 22.16000 24.46600
C  -6.30500 23.34200 24.35400
C  -8.56400 21.02600 26.52900
C  -7.56900 21.27500 23.30700
O  -7.13400 21.40000 22.17500
C  -8.50600 20.24800 23.50700
N  -4.27700 25.69800 24.24600
C  -4.65800 24.86100 23.23400
C  -3.89900 25.22100 21.97200
C  -3.28000 26.61800 22.33000
C  -3.42600 26.63500 23.78500
C  -2.92500 24.24600 21.40900
C  -3.89200 27.91600 21.70300
C  -3.58800 28.19500 20.22100
N  -3.50500 26.87000 26.68000
C  -2.69700 27.73800 25.89900
C  -1.99700 28.55700 26.73600
C  -2.37500 28.32800 28.06900
C  -3.23600 27.26500 27.96000
C  -0.84300 29.49300 26.27200
C  -2.23600 28.70300 29.46500
O  -1.57100 29.61800 29.93900
C  -3.24900 27.77000 30.30900
C  -2.46000 27.03200 31.31500
O  -1.94900 25.93000 31.16900
O  -2.31500 27.81500 32.41800
C  -1.70600 27.27400 33.62900
H  -7.33900 22.40100 28.57000
H  -5.69000 23.36900 22.28900
H  -1.98600 28.15900 23.88900
H  -4.58800 25.27500 31.38700
H  -7.05400 24.18700 30.73300
H  -4.27500 23.13600 31.19500
H  -5.10300 22.08400 30.11000
H  -5.74800 22.41700 31.79400
H  -7.44900 26.20900 30.97800
H  -6.16400 27.33500 30.68800
H  -7.38100 26.73100 33.19700
H  -5.95700 27.51400 32.97700
H  -9.51100 21.08600 25.99300
H  -8.64600 21.11300 27.61300
H  -8.15300 20.04700 26.28500
H  -9.51200 20.61100 23.71700
H  -8.03800 19.54600 24.19700
H  -8.59400 19.66200 22.59200
H  -4.63200 25.35200 21.17600
H  -2.22600 26.56300 22.06000
H  -2.09700 24.74300 20.90500
H  -3.39000 23.55400 20.70700
H  -2.42200 23.69800 22.20600
H  -3.64900 28.80800 22.28100
H  -4.96000 27.86100 21.91300
H  -3.15700 29.19600 20.25300
H  -4.35800 28.23000 19.45000
H  -2.88600 27.44000 19.86700
H  -0.10500 29.78400 27.02000
H  -1.20400 30.28400 25.61400
H  -0.21600 28.86000 25.64300
H  -4.06500 28.34900 30.74200
H  -0.74400 27.77600 33.73300
H  -1.58100 26.19100 33.62200
H  -2.25200 27.54900 34.53200

