158

Mg 43.45000 4.89800 47.01300
C  41.20200 7.56900 47.12900
C  40.75700 2.80200 47.01400
C  45.66700 2.31600 46.64500
C  46.10300 7.13300 46.27400
N  41.23300 5.21000 47.08200
C  40.54000 6.32000 47.10400
C  39.02600 6.07100 47.19300
C  38.92700 4.55800 47.43300
C  40.40300 4.14200 47.11300
C  38.69100 4.23200 48.92500
C  38.23500 6.56500 45.92200
C  39.05600 6.61300 44.64500
H  38.30200 7.01100 43.36400
N  43.18500 2.81300 46.91700
C  42.01600 2.14600 46.87100
C  42.33600 0.73100 46.84100
C  43.78100 0.52800 46.98100
C  44.29500 1.94800 46.91600
C  41.24200 -0.30100 46.92400
C  44.51000 -0.76400 47.18500
O  43.85000 -1.76900 47.07800
C  46.08200 -0.85100 47.44400
N  45.52500 4.76300 46.43900
C  46.21900 3.60500 46.50400
C  47.73300 3.79700 46.20000
C  47.77200 5.38800 45.80800
C  46.37400 5.81900 46.19200
C  48.79300 3.46600 47.30500
C  48.16700 5.63700 44.27800
C  49.68000 5.91500 44.02500
N  43.67000 6.95000 46.62500
C  44.80900 7.70900 46.51200
C  44.37100 9.16300 46.59000
C  42.95400 9.13500 46.84200
C  42.65100 7.75300 46.87100
C  45.35100 10.28800 46.46900
C  41.81400 9.97600 47.15900
O  41.65300 11.22000 47.16900
C  40.63000 8.98300 47.21700
C  39.95200 9.23200 48.55000
O  40.37700 8.75100 49.58400
O  38.73900 9.76900 48.35000
C  37.69400 9.49000 49.40100
H  39.96000 2.08400 47.21900
H  46.44400 1.54900 46.66300
H  46.94600 7.81100 46.12700
H  38.55500 6.43500 48.10700
H  38.28400 4.09000 46.68700
H  38.09100 4.93400 49.50300
H  39.69100 4.08400 49.33400
H  38.25600 3.23300 48.89400
H  37.94800 7.55100 46.28800
H  37.33000 5.96000 45.85600
H  39.58800 5.67500 44.48800
H  39.88300 7.31300 44.76200
H  40.26600 0.11700 46.67700
H  41.17600 -0.57200 47.97700
H  41.45300 -1.23600 46.40500
H  46.31100 -0.17200 48.26500
H  46.72600 -0.73300 46.57300
H  46.33200 -1.84000 47.83000
H  47.85500 3.13100 45.34500
H  48.50600 5.90800 46.42400
H  49.47500 4.28300 47.54100
H  49.44600 2.64500 47.00800
H  48.24500 3.05500 48.15200
H  47.48300 6.37100 43.85000
H  47.92600 4.68400 43.80700
H  49.60500 6.68400 43.25500
H  50.21900 5.08900 43.56100
H  50.11700 6.39600 44.90000
H  45.58200 10.64100 47.47400
H  44.99100 11.19300 45.98000
H  46.24300 10.03600 45.89500
H  39.90500 9.08100 46.40900
H  36.96800 10.30100 49.34800
H  38.06200 9.29500 50.40800
H  37.20700 8.55100 49.13800
Mg -1.94100 34.28600 25.78000
C  -3.65000 32.58700 28.30100
C  -0.70200 36.36800 28.11300
C  -0.36400 35.62300 23.33700
C  -3.52700 32.01300 23.41700
N  -2.29600 34.56400 28.00200
C  -2.90000 33.64100 28.84600
C  -2.83700 34.04800 30.24000
C  -2.00900 35.36100 30.09900
C  -1.53200 35.41400 28.67500
C  -2.77700 36.68900 30.46400
C  -2.26400 32.91600 31.18300
C  -1.49300 33.26500 32.48700
H  -1.79900 32.37500 33.67800
N  -0.72000 35.85400 25.71300
C  -0.25800 36.58900 26.76400
C  0.68000 37.61400 26.24400
C  0.81600 37.35700 24.86300
C  -0.16400 36.28000 24.59400
C  1.38500 38.63900 27.08700
C  1.75000 37.99900 23.75000
O  1.77200 37.72700 22.56100
C  2.65200 39.06700 24.06400
N  -2.04900 33.89400 23.62500
C  -1.20400 34.59700 22.81000
C  -0.98300 33.90200 21.43300
C  -1.86600 32.69500 21.59500
C  -2.51900 32.89800 22.95200
C  -1.24100 34.81600 20.23300
C  -1.16600 31.29600 21.39900
C  0.06700 31.14000 22.30100
N  -3.38200 32.79600 25.75200
C  -3.90600 31.91900 24.72800
C  -4.84500 30.97400 25.35800
C  -4.76800 31.24900 26.73100
C  -3.84600 32.34900 26.92200
C  -5.66400 29.96200 24.71100
C  -5.35800 30.77900 27.97100
O  -6.17100 29.89200 28.18700
C  -4.62500 31.65900 29.05300
C  -5.60600 32.36700 29.86700
O  -6.34000 33.17000 29.44400
O  -5.63200 31.84600 31.11400
C  -6.29500 32.56700 32.18300
H  -0.17400 37.08700 28.74200
H  0.38100 35.93300 22.60100
H  -3.88000 31.14500 22.85700
H  -3.80900 34.36300 30.61900
H  -1.21400 35.33900 30.84500
H  -2.47900 37.01700 31.46000
H  -3.84200 36.47300 30.54200
H  -2.71900 37.41500 29.65300
H  -1.42800 32.40000 30.71100
H  -3.11700 32.29000 31.44500
H  -1.82700 34.27700 32.71600
H  -0.40900 33.18600 32.40800
H  1.26000 39.59600 26.57800
H  2.41000 38.29300 27.21600
H  1.01100 38.64100 28.11000
H  2.17700 39.81200 24.70300
H  3.09100 39.37400 23.11500
H  3.31200 38.50200 24.72200
H  0.04600 33.56400 21.30700
H  -2.64200 32.76000 20.83200
H  -0.31600 35.04500 19.70500
H  -1.63900 35.73900 20.65400
H  -1.95100 34.47700 19.47900
H  -0.80500 31.08700 20.39200
H  -1.92800 30.54800 21.61800
H  -0.07900 31.74200 23.19800
H  1.03400 31.37600 21.85600
H  0.12000 30.10900 22.65100
H  -5.34600 28.97300 25.03900
H  -5.55600 30.09700 23.63500
H  -6.68700 30.22300 24.98000
H  -4.20700 30.83800 29.63500
H  -5.68400 33.44000 32.41200
H  -6.25500 32.00000 33.11300
H  -7.34400 32.78600 31.98000

