158

Mg 27.13600 50.28300 25.95200
C  25.20900 51.33300 28.84400
C  29.58600 49.23900 28.19700
C  29.16400 49.90100 23.36200
C  24.75200 51.95200 24.00100
N  27.30100 50.26400 28.29800
C  26.38900 50.71200 29.25200
C  26.88000 50.41300 30.68400
C  28.26500 49.79500 30.45200
C  28.41500 49.66700 28.91000
C  29.43500 50.61100 31.05900
C  25.92900 49.56200 31.50600
C  25.61500 50.11100 32.89100
H  26.66600 49.93400 33.98100
N  28.97300 49.48200 25.77600
C  29.82400 49.16600 26.84400
C  31.08100 48.74700 26.24900
C  30.99700 48.91200 24.81100
C  29.69200 49.43700 24.57900
C  32.20700 48.25700 27.11800
C  32.02700 48.57600 23.80000
O  31.74400 48.64800 22.56800
C  33.47100 48.12900 24.14700
N  27.02000 50.95400 24.03400
C  27.90600 50.46800 23.11500
C  27.38600 50.58700 21.69600
C  25.87800 51.03100 21.92000
C  25.85200 51.35000 23.40200
C  28.17100 51.58000 20.77900
C  24.74100 50.07900 21.46700
C  23.60000 50.76400 20.66400
N  25.28200 51.37000 26.30300
C  24.46000 52.04100 25.43000
C  23.30100 52.57800 26.09600
C  23.58400 52.29000 27.42300
C  24.78500 51.60300 27.49300
C  22.17900 53.20000 25.54200
C  23.02500 52.37700 28.82200
O  21.94600 52.83700 29.14600
C  24.08400 51.79500 29.85200
C  24.51900 52.82800 30.88200
O  25.44800 53.57600 30.81000
O  23.56100 52.84400 31.85900
C  23.76200 53.71200 33.07900
H  30.24300 48.77700 28.93700
H  29.80900 49.77000 22.49100
H  23.99300 52.37800 23.34200
H  27.04400 51.31200 31.27800
H  28.39400 48.82200 30.92700
H  29.14000 51.60300 31.40100
H  30.15600 50.69400 30.24500
H  29.88900 50.03600 31.86700
H  26.38100 48.57700 31.62600
H  24.96600 49.42300 31.01500
H  24.67900 49.63000 33.17600
H  25.25200 51.13600 32.82800
H  32.94700 49.04100 27.28100
H  32.64700 47.41000 26.59000
H  31.89400 48.01200 28.13300
H  33.91300 47.72800 23.23500
H  33.43100 47.17600 24.67400
H  33.92100 48.96600 24.68100
H  27.53700 49.69000 21.09600
H  25.83300 51.93500 21.31300
H  28.78800 52.22900 21.40100
H  27.60500 52.26600 20.15000
H  28.81700 50.95200 20.16600
H  24.33300 49.59100 22.35200
H  25.23300 49.30600 20.87600
H  22.64500 50.48300 21.10900
H  23.67200 50.35200 19.65700
H  23.72000 51.84700 20.67500
H  22.47800 54.06400 24.94900
H  21.44200 53.54300 26.26800
H  21.62400 52.50800 24.90800
H  23.66900 50.97100 30.43300
H  24.23200 54.62200 32.70500
H  24.55000 53.23500 33.66200
H  22.85300 53.83400 33.66800
Mg -1.76100 33.84900 27.46700
C  -3.68000 32.31000 29.91000
C  -0.40800 35.82400 29.86300
C  -0.29200 35.75400 25.04300
C  -3.52600 32.21900 24.88000
N  -2.06700 34.00700 29.61800
C  -2.76700 33.18900 30.50400
C  -2.61900 33.63500 31.98300
C  -1.65900 34.83900 31.86100
C  -1.38500 34.94900 30.36700
C  -2.15700 36.21600 32.35900
C  -2.16300 32.46700 32.96000
C  -1.43300 32.95500 34.30100
H  -1.59700 32.19000 35.64700
N  -0.43300 35.50900 27.46600
C  0.06800 36.04500 28.54500
C  1.09200 37.00000 28.18200
C  1.06000 37.12400 26.80700
C  0.07200 36.16400 26.34800
C  1.98800 37.58100 29.21500
C  1.96800 37.85300 25.84600
O  1.82100 37.71400 24.65900
C  3.00300 38.80400 26.30100
N  -1.92100 34.04400 25.29200
C  -1.19000 34.85100 24.55200
C  -1.66100 34.77900 23.12500
C  -2.28300 33.37600 22.94900
C  -2.59200 33.13100 24.47000
C  -2.49700 36.06100 22.73100
C  -1.28200 32.18100 22.46400
C  0.18400 32.05900 22.96100
N  -3.34500 32.54800 27.38300
C  -3.95500 31.92800 26.28200
C  -4.89700 31.05600 26.77300
C  -4.87000 31.13700 28.16900
C  -3.86100 32.05100 28.49400
C  -5.75800 30.24400 25.92900
C  -5.42500 30.60700 29.42400
O  -6.24700 29.74000 29.64600
C  -4.72500 31.38400 30.50800
C  -5.82400 32.18700 31.19600
O  -6.69000 32.91300 30.69400
O  -5.74100 31.80700 32.49100
C  -6.84300 32.27300 33.35100
H  0.06200 36.32600 30.71100
H  0.08700 36.35500 24.21400
H  -4.08300 31.67700 24.11300
H  -3.64200 33.90500 32.24300
H  -0.66900 34.66900 32.28200
H  -1.34300 36.76800 32.83000
H  -2.83100 35.97400 33.18100
H  -2.64500 36.79600 31.57600
H  -1.46500 31.80500 32.44700
H  -3.02000 31.82300 33.15600
H  -1.75700 33.94300 34.62900
H  -0.36700 33.00300 34.08100
H  2.82000 36.94800 29.52300
H  1.36700 37.75400 30.09400
H  2.34200 38.56900 28.92100
H  3.77800 38.38900 26.94500
H  2.53100 39.68600 26.73300
H  3.41800 39.20300 25.37500
H  -0.86700 34.82500 22.37900
H  -3.18800 33.36300 22.34200
H  -2.39000 36.85800 23.46500
H  -3.53500 35.80600 22.51700
H  -2.12900 36.45600 21.78400
H  -1.37700 32.30100 21.38500
H  -1.89000 31.31700 22.73100
H  0.91200 32.27000 22.17800
H  0.38800 31.06400 23.35800
H  0.41400 32.72800 23.79100
H  -6.51000 30.89200 25.48000
H  -6.32700 29.61600 26.61500
H  -5.21000 29.68100 25.17400
H  -4.36900 30.66100 31.24200
H  -7.55500 32.91500 32.83100
H  -6.42300 32.78800 34.21500
H  -7.43000 31.40300 33.64500

