158

Mg 0.62500 42.87800 25.82900
C  2.53200 42.93100 28.89200
C  -2.05400 41.78200 27.49400
C  -0.81800 42.43500 22.90100
C  3.77500 43.64500 24.18000
N  0.35000 42.19100 27.99300
C  1.18300 42.50400 29.04000
C  0.37900 42.44000 30.36700
C  -0.97900 41.74600 29.90500
C  -0.93200 41.96000 28.34400
C  -1.08700 40.22300 30.33000
C  0.18100 43.90900 30.96800
C  0.62600 44.21800 32.45100
H  0.75400 43.03100 33.43800
N  -1.25800 42.34400 25.25600
C  -2.22000 41.87300 26.07900
C  -3.37300 41.54200 25.22300
C  -3.02600 41.80000 23.90900
C  -1.60300 42.11500 23.98000
C  -4.64400 41.01300 25.81300
C  -3.87000 41.64900 22.61000
O  -3.39700 41.82100 21.46600
C  -5.35700 41.17900 22.68400
N  1.34100 43.04700 23.97300
C  0.49700 42.83700 22.84800
C  1.19400 42.97300 21.48500
C  2.62700 43.47400 21.96900
C  2.60500 43.37200 23.46600
C  1.25900 41.61000 20.59600
C  2.90100 45.02600 21.56600
C  1.76300 46.06700 21.76800
N  2.73100 43.24400 26.41200
C  3.84800 43.62300 25.59000
C  5.02700 43.83500 26.47100
C  4.47200 43.57600 27.79200
C  3.10800 43.20600 27.66200
C  6.40300 44.12700 26.03600
C  4.94100 43.41000 29.14700
O  6.09500 43.43200 29.63300
C  3.63900 43.12200 29.90500
C  3.94100 41.84300 30.64500
O  3.89700 40.70500 30.16900
O  4.42600 42.07300 31.92000
C  4.76900 40.90000 32.72400
H  -3.00300 41.57800 27.99500
H  -1.21100 42.38300 21.88300
H  4.68900 43.80300 23.60400
H  0.93500 41.78900 31.04100
H  -1.71800 42.36600 30.41200
H  -1.27900 39.55700 29.48900
H  -1.96700 40.06800 30.95500
H  -0.22200 39.84500 30.87600
H  -0.83200 44.30400 31.04500
H  0.76300 44.59900 30.35700
H  -0.08900 44.91100 32.89400
H  1.58500 44.73600 32.41100
H  -5.44800 41.53100 25.29100
H  -4.74100 41.32900 26.85200
H  -4.65300 39.92500 25.74800
H  -6.01500 41.86500 23.21700
H  -5.33200 40.20900 23.18200
H  -5.88200 40.99500 21.74700
H  0.60800 43.68400 20.90300
H  3.43100 42.87300 21.54400
H  0.72800 40.89500 21.22400
H  2.24900 41.20100 20.39600
H  0.66000 41.65900 19.68700
H  3.16100 44.98800 20.50800
H  3.84600 45.30100 22.03500
H  1.92300 46.54500 22.73500
H  0.80200 45.59100 21.96200
H  1.65600 46.82700 20.99500
H  6.51000 43.66600 25.05500
H  7.07200 43.70900 26.78900
H  6.49700 45.20200 25.88400
H  3.45500 43.95000 30.58900
H  5.83300 40.66100 32.74400
H  4.18600 40.03100 32.41900
H  4.51000 41.18000 33.74500
Mg -1.69900 34.40500 26.83900
C  -3.35600 32.46300 29.25500
C  -0.30300 36.16100 29.34500
C  -0.37700 36.25100 24.47600
C  -3.07500 32.24400 24.28800
N  -2.03300 34.33900 29.09300
C  -2.69000 33.50400 29.88200
C  -2.52000 33.81100 31.37500
C  -1.69900 35.18000 31.27900
C  -1.30100 35.22700 29.83200
C  -2.40600 36.49200 31.71500
C  -1.77100 32.74600 32.27700
C  -2.44500 32.50900 33.65900
H  -1.63800 32.27200 35.01800
N  -0.57900 36.05800 26.95100
C  -0.00600 36.62200 28.05400
C  1.02900 37.64900 27.67900
C  0.93200 37.70800 26.22500
C  -0.05700 36.61500 25.80400
C  1.82100 38.40400 28.65200
C  1.65200 38.76000 25.31700
O  1.50900 38.77500 24.09800
C  2.58200 39.83000 25.99000
N  -1.70600 34.25500 24.70800
C  -1.24700 35.30100 23.98100
C  -1.58800 35.14800 22.48600
C  -2.16000 33.67500 22.39400
C  -2.34600 33.33400 23.89300
C  -2.58100 36.23100 21.90500
C  -1.35000 32.60400 21.63300
C  -0.55500 31.60800 22.44500
N  -3.00300 32.75700 26.71900
C  -3.35400 31.90700 25.64800
C  -4.09200 30.79200 26.14400
C  -4.16300 31.04900 27.53000
C  -3.42200 32.17700 27.80800
C  -4.80200 29.78400 25.38100
C  -4.68200 30.41100 28.76500
O  -5.28400 29.35400 28.86400
C  -4.10900 31.27500 29.95200
C  -5.17400 31.66200 30.91200
O  -5.55800 32.82500 31.03500
O  -5.60300 30.65200 31.78400
C  -6.39800 31.26800 32.90100
H  0.19400 36.59800 30.21300
H  0.08100 36.98500 23.80900
H  -3.36400 31.54700 23.49900
H  -3.51400 34.09600 31.71900
H  -0.76100 35.08900 31.82600
H  -3.41600 36.25800 32.05200
H  -2.42100 37.21000 30.89500
H  -1.86900 36.90000 32.57100
H  -0.75400 33.11900 32.39400
H  -1.63400 31.77600 31.79800
H  -3.05300 31.61000 33.55600
H  -3.19500 33.26500 33.89300
H  2.11900 37.82000 29.52200
H  1.25500 39.27800 28.97400
H  2.76700 38.80500 28.28900
H  2.09900 40.40300 26.78200
H  3.02200 40.42100 25.18700
H  3.33100 39.13700 26.37300
H  -0.67900 35.10200 21.88600
H  -3.18100 33.57500 22.02700
H  -3.56600 35.80300 21.71800
H  -2.18900 36.53000 20.93300
H  -2.56100 37.05800 22.61600
H  -0.62800 33.11400 20.99600
H  -1.99700 32.01600 20.98300
H  0.13300 31.08100 21.78400
H  -1.31900 30.92900 22.82400
H  0.03200 32.08200 23.23100
H  -4.31300 29.61800 24.42100
H  -5.81500 30.14600 25.20800
H  -4.85200 28.84900 25.93800
H  -3.45000 30.67100 30.57600
H  -5.79200 32.03900 33.37700
H  -6.77900 30.52100 33.59800
H  -7.33900 31.60800 32.47000

