158

Mg 26.40700 50.19900 26.40100
C  24.23200 51.39200 29.00600
C  28.62200 49.13900 28.64000
C  28.36700 49.37100 23.83300
C  24.08700 51.58400 24.02800
N  26.35100 50.21700 28.52800
C  25.39400 50.68800 29.42100
C  25.75800 50.23500 30.86700
C  27.30700 49.89900 30.77700
C  27.41700 49.64200 29.19100
C  28.22500 51.19000 30.96100
C  24.81000 49.14900 31.36500
C  24.53600 49.01400 32.90600
H  25.57900 49.49200 33.93200
N  28.38500 49.36800 26.25900
C  29.06800 48.93300 27.31000
C  30.36500 48.54500 26.83800
C  30.31300 48.65900 25.44600
C  28.98900 49.12200 25.12100
C  31.38500 47.92700 27.75200
C  31.42500 48.48000 24.37600
O  31.36900 48.86300 23.21400
C  32.74500 47.98000 24.81200
N  26.30600 50.68300 24.18300
C  27.17600 50.01200 23.45200
C  26.63700 49.86900 21.97500
C  25.32500 50.61900 22.07400
C  25.18600 50.88500 23.52700
C  27.68700 50.38200 20.88000
C  24.21600 49.81100 21.35800
C  23.16400 50.72500 20.67100
N  24.61700 51.28800 26.45400
C  23.79600 51.81200 25.44600
C  22.60800 52.41300 26.11200
C  22.71600 52.25700 27.50900
C  23.91100 51.48200 27.60100
C  21.49900 53.10300 25.41900
C  22.18300 52.62800 28.73800
O  21.24900 53.28700 29.06100
C  23.06100 51.92300 29.82500
C  23.46100 52.90800 30.82300
O  24.30100 53.77400 30.62100
O  22.78300 52.70900 31.98400
C  23.23500 53.61200 33.11300
H  29.29800 48.64600 29.34200
H  28.94600 48.97800 22.99500
H  23.26100 51.88200 23.37900
H  25.72300 51.16800 31.43000
H  27.47600 48.96700 31.31800
H  28.97900 51.10400 31.74300
H  27.65800 52.03600 31.35100
H  28.54100 51.59000 29.99800
H  25.23300 48.19800 31.04000
H  23.85200 49.27500 30.86000
H  24.40500 47.94400 33.07000
H  23.69300 49.67700 33.09700
H  31.49400 46.90900 27.37800
H  31.08400 47.73300 28.78100
H  32.37100 48.39200 27.74600
H  32.67000 46.94200 25.13800
H  33.16100 48.64500 25.56900
H  33.38800 47.86600 23.93900
H  26.34700 48.83000 21.82100
H  25.43500 51.65400 21.75100
H  28.25100 51.08200 21.49600
H  27.16600 50.83700 20.03700
H  28.39800 49.64700 20.50300
H  23.73400 49.28200 22.18000
H  24.45700 49.01600 20.65300
H  22.20900 50.64500 21.19000
H  22.95700 50.37300 19.66000
H  23.38100 51.79300 20.64800
H  20.52900 52.91300 25.87800
H  21.46500 52.75800 24.38600
H  21.69400 54.16300 25.58200
H  22.57200 51.08300 30.31800
H  23.40100 54.66100 32.86600
H  24.22100 53.24900 33.40400
H  22.48800 53.64900 33.90600
Mg -2.08000 34.44000 26.90200
C  -3.73200 32.62600 29.41100
C  -0.67900 36.35300 29.44600
C  -0.60500 36.12900 24.56200
C  -3.67000 32.64200 24.47200
N  -2.19200 34.45300 29.13500
C  -2.86400 33.55800 29.96200
C  -2.62300 33.85700 31.45900
C  -1.85800 35.23200 31.37200
C  -1.59100 35.38500 29.88400
C  -2.56200 36.40500 32.05200
C  -1.89900 32.75100 32.26300
C  -2.58900 32.27600 33.57700
H  -1.62600 32.22700 34.78900
N  -0.81500 36.06500 27.04000
C  -0.30600 36.67000 28.12700
C  0.70000 37.62700 27.74200
C  0.64700 37.66100 26.33000
C  -0.28600 36.58100 25.92500
C  1.55200 38.46100 28.71100
C  1.41700 38.47900 25.30200
O  1.19400 38.51300 24.13300
C  2.53400 39.36100 25.80500
N  -2.23300 34.51200 24.70000
C  -1.46100 35.26900 23.97900
C  -1.73200 35.11400 22.48600
C  -2.77600 34.00000 22.46100
C  -2.88800 33.67900 23.96000
C  -2.16700 36.46600 21.83200
C  -2.37200 32.93800 21.43300
C  -1.58900 31.67600 21.98100
N  -3.38000 32.85500 26.82800
C  -3.97300 32.25400 25.75100
C  -4.84100 31.24500 26.21900
C  -4.83700 31.30100 27.58300
C  -3.94000 32.29600 27.98400
C  -5.57100 30.30500 25.40200
C  -5.30300 30.73400 28.87500
O  -6.10800 29.84400 29.05100
C  -4.64300 31.55300 30.03600
C  -5.72800 32.11000 30.91100
O  -6.67800 32.68400 30.47700
O  -5.50800 31.84400 32.20600
C  -6.73800 31.96500 33.05100
H  -0.10700 36.92000 30.18300
H  0.09600 36.51300 23.81800
H  -4.15400 32.11200 23.65000
H  -3.65900 33.98500 31.77400
H  -0.93400 35.14300 31.94200
H  -3.02000 36.90900 31.20100
H  -1.87200 37.11800 32.50200
H  -3.40300 36.06200 32.65600
H  -0.87800 33.05500 32.49000
H  -1.91300 31.85000 31.65000
H  -2.89600 31.23500 33.47600
H  -3.55200 32.72500 33.82300
H  2.61800 38.29600 28.55200
H  1.43500 38.27000 29.77700
H  1.21000 39.49400 28.64700
H  2.71600 40.11300 25.03700
H  3.40700 38.77300 26.08900
H  2.11600 39.90100 26.65500
H  -0.80800 34.72000 22.06000
H  -3.73600 34.39700 22.13200
H  -1.78200 37.30000 22.41900
H  -3.21800 36.60800 21.58200
H  -1.61600 36.59400 20.90100
H  -1.72900 33.36500 20.66300
H  -3.34100 32.67200 21.01000
H  -2.21900 30.78700 21.96000
H  -1.22400 31.95600 22.96900
H  -0.70000 31.53300 21.36800
H  -5.85400 30.71100 24.43100
H  -6.53600 30.17000 25.89100
H  -4.96000 29.41100 25.27600
H  -3.99800 30.88800 30.60900
H  -6.71000 32.49100 34.00600
H  -7.13300 30.96500 33.23300
H  -7.64600 32.37200 32.60700

