158

Mg 25.01600 -6.90900 46.87000
C  27.55100 -4.73900 46.10900
C  22.88100 -5.17600 44.70800
C  22.95700 -9.58600 46.89800
C  27.34200 -8.81800 48.73300
N  25.30500 -5.24300 45.52000
C  26.44400 -4.45300 45.30400
C  26.29200 -3.49100 44.20900
C  24.63600 -3.42300 43.97400
C  24.21100 -4.68700 44.83100
C  24.01900 -2.09200 44.41100
C  27.05300 -3.84300 42.94900
C  27.78400 -2.59400 42.34900
H  27.48800 -2.23600 40.86800
N  23.15100 -7.33200 45.93200
C  22.40200 -6.43200 45.27700
C  21.09700 -7.05900 44.96700
C  21.16300 -8.37700 45.43000
C  22.43200 -8.49800 46.14200
C  19.93700 -6.34700 44.28400
C  19.98100 -9.36300 45.29100
O  19.04400 -9.07400 44.50600
C  19.89300 -10.69300 45.97400
N  25.10100 -8.99300 47.72800
C  24.05100 -9.80100 47.72000
C  24.27600 -11.17400 48.37400
C  25.63000 -10.76300 49.11000
C  26.07000 -9.45500 48.48000
C  23.13600 -11.67700 49.25900
C  26.75200 -11.78700 49.05100
C  27.38900 -12.20800 50.38100
N  27.02300 -6.77800 47.47600
C  27.78300 -7.62500 48.24600
C  29.12400 -6.98700 48.44700
C  28.99600 -5.83000 47.64400
C  27.72100 -5.73100 47.09200
C  30.29300 -7.55500 49.28600
C  29.76100 -4.71800 47.17900
O  30.96900 -4.51000 47.39400
C  28.89200 -3.97300 46.11800
C  28.72300 -2.61800 46.53500
O  28.01100 -2.26900 47.48700
O  29.32400 -1.84000 45.63300
C  28.89600 -0.40200 45.57200
H  22.18800 -4.62600 44.06700
H  22.32800 -10.47900 46.89000
H  28.12800 -9.30800 49.31000
H  26.56000 -2.48900 44.54400
H  24.45400 -3.52100 42.90300
H  24.61400 -1.22300 44.69200
H  23.24400 -2.15600 45.17500
H  23.51000 -1.75900 43.50700
H  26.40600 -4.27400 42.18500
H  27.80000 -4.59800 43.19400
H  28.81400 -2.88500 42.55500
H  27.82100 -1.74900 43.03600
H  19.87200 -6.90400 43.34900
H  20.02000 -5.30400 43.97900
H  19.01900 -6.60000 44.81300
H  19.98100 -10.65600 47.06000
H  20.73900 -11.25900 45.58400
H  19.01900 -11.26300 45.66100
H  24.52700 -11.98200 47.68600
H  25.25700 -10.48400 50.09600
H  23.25600 -11.45900 50.32000
H  23.03300 -12.74900 49.09200
H  22.17100 -11.19800 49.09700
H  27.58100 -11.44900 48.43000
H  26.42700 -12.75000 48.65700
H  27.33900 -13.29000 50.50400
H  26.93300 -11.59900 51.16200
H  28.42600 -11.87600 50.41000
H  29.76400 -8.15500 50.02700
H  30.77900 -6.69000 49.73600
H  30.94100 -8.11300 48.60900
H  29.22900 -4.03600 45.08300
H  29.27300 0.00000 44.63200
H  29.24100 0.18600 46.42200
H  27.80800 -0.39200 45.51000
Mg 48.00800 15.84700 27.85900
C  45.71200 15.80100 30.49900
C  50.00900 17.88300 29.70600
C  50.12200 15.82000 25.31900
C  45.63100 14.16300 25.81000
N  47.85800 16.81700 29.78800
C  46.88300 16.46800 30.76100
C  47.21500 17.12200 32.15900
C  48.39300 18.10300 31.69800
C  48.80900 17.59100 30.29100
C  48.08700 19.59100 31.60800
C  47.69700 15.99700 33.19600
C  47.12400 16.03700 34.67700
H  48.13400 15.86600 35.81400
N  49.88300 16.68700 27.57800
C  50.50800 17.49000 28.41300
C  51.79700 17.81400 27.87600
C  51.93100 17.15900 26.62700
C  50.62100 16.48500 26.43800
C  52.74400 18.75900 28.61200
C  53.02000 17.29800 25.59700
O  52.85600 16.82700 24.47400
C  54.30500 17.93600 25.88900
N  47.78000 15.31200 25.77100
C  48.83800 15.39200 24.96700
C  48.60300 14.75000 23.62200
C  47.21400 14.02000 23.80300
C  46.78700 14.52100 25.21500
C  48.77400 15.64500 22.33800
C  47.23900 12.52800 23.73800
C  47.79100 11.68400 22.58700
N  46.10200 15.22000 27.97300
C  45.25500 14.48600 27.13600
C  43.98900 14.24300 27.82400
C  44.16500 14.70300 29.12400
C  45.44900 15.24800 29.22200
C  42.76300 13.48800 27.31500
C  43.50300 14.86100 30.44800
O  42.37000 14.56100 30.77800
C  44.56900 15.46900 31.43900
C  44.08900 16.54300 32.26600
O  43.53600 17.56800 31.83200
O  44.39200 16.27700 33.57100
C  43.94900 17.35000 34.45100
H  50.73200 18.50400 30.24000
H  50.82900 15.81400 24.48600
H  44.93600 13.57400 25.20700
H  46.34300 17.68300 32.49400
H  49.26100 17.96300 32.34200
H  48.78400 20.15900 32.22500
H  47.06900 19.80300 31.93600
H  48.28200 20.00400 30.61800
H  48.77700 16.03200 33.33300
H  47.72300 15.03500 32.68400
H  46.32800 15.30700 34.82100
H  46.73600 17.05100 34.77300
H  53.61700 18.17500 28.90300
H  52.57100 19.19200 29.59700
H  52.97800 19.55400 27.90400
H  54.03000 18.94200 26.20500
H  54.83000 17.95800 24.93400
H  54.87200 17.35500 26.61700
H  49.30200 13.92800 23.46700
H  46.54400 14.27000 22.98000
H  48.20500 15.21900 21.51200
H  49.78600 15.45500 21.98100
H  48.70500 16.71200 22.54700
H  46.25800 12.08400 23.90700
H  47.92600 12.33400 24.56200
H  47.15300 10.98500 22.04600
H  48.68300 11.14700 22.91100
H  48.18900 12.37600 21.84500
H  43.02300 12.44100 27.46900
H  42.66800 13.69900 26.25000
H  41.80200 13.79100 27.73200
H  44.74400 14.58500 32.05300
H  44.38900 17.24200 35.44300
H  42.88000 17.15000 34.52600
H  44.14000 18.36600 34.10500

