158

Mg 27.12200 50.06900 26.83100
C  24.86900 51.15100 29.32900
C  29.29600 49.12000 29.13500
C  29.15000 49.55700 24.29300
C  24.68100 51.44200 24.52200
N  27.17400 50.19400 28.99700
C  26.07900 50.54400 29.79500
C  26.38900 50.20900 31.34200
C  27.88000 49.82000 31.24500
C  28.13900 49.59800 29.70800
C  28.82400 50.95400 31.77700
C  25.40200 49.05100 31.89700
C  24.68500 49.34300 33.27200
H  25.40200 50.36800 34.25300
N  29.01400 49.47200 26.67600
C  29.75200 49.08300 27.75900
C  31.03900 48.60200 27.23900
C  31.01800 48.82300 25.88600
C  29.71400 49.30300 25.56100
C  32.23300 48.20600 28.15500
C  32.18200 48.57100 24.78200
O  32.03100 48.82900 23.59600
C  33.48600 48.10500 25.23600
N  26.90200 50.49100 24.69700
C  27.90700 50.05200 23.90600
C  27.49300 50.19700 22.44700
C  26.15200 50.95400 22.53100
C  25.87000 50.87900 24.01600
C  28.45200 50.82800 21.45500
C  24.93600 50.48900 21.57600
C  24.92200 51.19600 20.20100
N  25.24800 51.24100 26.85500
C  24.40600 51.64200 25.84300
C  23.28800 52.30800 26.37700
C  23.38800 52.07800 27.77900
C  24.62800 51.42000 27.94600
C  22.11500 52.91500 25.61000
C  22.73900 52.30600 29.16000
O  21.75300 52.85000 29.45400
C  23.63700 51.52400 30.14000
C  23.92300 52.51800 31.26400
O  24.88100 53.24300 31.36300
O  22.86500 52.53500 32.19300
C  22.96500 53.56700 33.22300
H  30.09200 48.79000 29.80600
H  29.77500 49.34900 23.42200
H  24.12000 52.11900 23.87500
H  26.30500 51.11900 31.93700
H  28.10300 48.93000 31.83400
H  29.56800 51.30100 31.06000
H  29.32900 50.55500 32.65700
H  28.24400 51.80100 32.14200
H  25.98300 48.13000 31.94600
H  24.56300 48.95700 31.20700
H  24.54700 48.45200 33.88600
H  23.73700 49.73500 32.90500
H  32.24200 48.40600 29.22600
H  33.06300 48.86200 27.89400
H  32.51500 47.16600 27.98800
H  34.05700 47.78400 24.36500
H  33.53200 47.22600 25.88000
H  33.97000 48.93800 25.74700
H  27.29900 49.18800 22.08300
H  26.29700 52.00600 22.28600
H  29.50000 50.83000 21.75500
H  28.12800 51.84600 21.23600
H  28.52000 50.29200 20.50800
H  23.97600 50.76900 22.00800
H  24.92700 49.41100 21.41600
H  25.71900 51.92700 20.07100
H  23.92300 51.59700 20.03000
H  25.04300 50.51900 19.35600
H  21.55900 52.34400 24.86700
H  22.52000 53.73900 25.02300
H  21.31600 53.11600 26.32300
H  23.10700 50.63700 30.48900
H  21.99200 53.62100 33.71100
H  23.13600 54.58400 32.87100
H  23.65600 53.35200 34.03800
Mg 6.68400 53.95400 42.39200
C  6.43300 50.27000 41.98700
C  9.57100 53.88700 40.86200
C  6.38500 57.20300 42.05100
C  3.19000 53.72400 43.45300
N  7.79900 52.22900 41.32700
C  7.55500 50.91100 41.38600
C  8.89800 50.18700 41.08900
C  10.05500 51.32600 40.98200
C  9.13000 52.58300 41.13400
C  11.08900 51.47600 42.16200
C  8.88600 49.25100 39.84800
C  8.07500 49.77300 38.66400
H  8.80700 49.94600 37.32100
N  7.90000 55.35600 41.58100
C  9.01700 55.14900 41.02900
C  9.64500 56.40000 40.77200
C  8.77700 57.42500 41.14500
C  7.62900 56.73500 41.60600
C  11.11900 56.56300 40.56000
C  9.05900 58.87200 41.09900
O  10.08400 59.34400 40.69500
C  8.09400 59.83000 41.69400
N  5.02100 55.22900 42.76800
C  5.23500 56.55700 42.49800
C  4.06400 57.39200 43.06200
C  2.89800 56.28100 43.17900
C  3.75100 55.01400 43.15900
C  4.44100 58.12600 44.38000
C  1.71200 56.35200 42.05400
C  0.35000 56.12100 42.63500
N  5.12200 52.33100 42.72300
C  3.85100 52.40500 43.25700
C  3.35200 51.06500 43.53300
C  4.34500 50.19100 43.11500
C  5.40200 51.00700 42.59400
C  1.96800 50.67700 43.94400
C  4.70200 48.82600 42.84600
O  4.21600 47.78200 43.15700
C  6.11500 48.80600 42.08900
C  5.95200 48.14600 40.76500
O  5.21200 48.40400 39.86500
O  6.52100 46.87600 40.94400
C  6.13300 45.86100 39.95400
H  10.62700 53.86400 40.58300
H  6.25600 58.27800 41.90800
H  2.14200 53.78200 43.75600
H  8.98400 49.63300 42.02400
H  10.56700 51.25900 40.02200
H  11.05300 52.42800 42.69000
H  12.10200 51.24500 41.83400
H  10.96000 50.67200 42.88700
H  8.63700 48.23100 40.13800
H  9.86400 49.21100 39.36900
H  7.55100 50.68200 38.95900
H  7.30000 49.06900 38.36200
H  11.33600 56.95900 39.56800
H  11.58800 55.57900 40.53500
H  11.62200 57.12900 41.34300
H  8.53000 60.82700 41.75300
H  7.78400 59.50700 42.68700
H  7.15500 59.76800 41.14400
H  3.75900 58.20300 42.40000
H  2.43200 56.37400 44.16000
H  4.35100 57.35900 45.15000
H  3.80600 58.95000 44.70400
H  5.49900 58.37100 44.47800
H  1.94300 55.71900 41.19700
H  1.72100 57.33800 41.59000
H  0.22000 56.16800 43.71600
H  0.15900 55.06700 42.43500
H  -0.36200 56.74600 42.09600
H  1.27700 50.77500 43.10700
H  1.67700 51.06600 44.92000
H  2.05800 49.63500 44.24900
H  6.80600 48.30900 42.77000
H  5.06000 45.96700 39.79200
H  6.26400 44.85100 40.34300
H  6.64300 45.86700 38.99100

