158

Mg 2.56300 -1.16500 43.72500
C  6.00900 -0.39500 43.30300
C  1.85700 1.98200 42.21100
C  -0.44300 -2.20100 43.02500
C  3.49200 -4.40200 44.77600
N  3.77100 0.57500 42.80600
C  5.13700 0.66800 42.80700
C  5.66700 1.91300 42.10700
C  4.36500 2.71000 41.85900
C  3.23800 1.79900 42.38400
C  4.30300 4.11700 42.36700
C  6.47200 1.60300 40.75400
C  7.28100 2.77400 40.16500
H  6.90700 3.23800 38.73000
N  0.87800 -0.17500 43.06200
C  0.78600 1.10700 42.45300
C  -0.51900 1.43100 42.19200
C  -1.27200 0.21000 42.39100
C  -0.30200 -0.80600 42.88500
C  -0.99400 2.73100 41.59600
C  -2.65600 -0.03700 41.96900
O  -3.35600 0.76000 41.37900
C  -3.36500 -1.40700 42.30800
N  1.67000 -3.07000 43.87600
C  0.38600 -3.27800 43.49500
C  0.02400 -4.81700 43.57400
C  1.16200 -5.35500 44.44500
C  2.16100 -4.24500 44.41800
C  -1.41800 -5.18300 43.95900
C  1.71100 -6.79800 44.04400
C  1.75100 -7.85900 45.18800
N  4.32300 -2.18000 44.08600
C  4.57600 -3.44000 44.55600
C  5.96200 -3.67300 44.74100
C  6.55900 -2.52900 44.21300
C  5.58400 -1.58700 43.88700
C  6.58900 -4.92200 45.31900
C  7.85700 -1.86500 43.96500
O  8.98900 -2.20300 44.19600
C  7.52700 -0.53300 43.26100
C  8.48700 0.52100 43.79600
O  9.60300 0.81000 43.30400
O  7.99000 1.09600 44.99500
C  8.93400 1.99000 45.72300
H  1.54900 2.93900 41.78500
H  -1.42200 -2.64000 42.82000
H  3.79600 -5.36200 45.19800
H  6.27300 2.55500 42.74700
H  4.20400 2.86900 40.79200
H  3.26000 4.42800 42.30700
H  4.90200 4.74100 41.70400
H  4.82500 4.09000 43.32400
H  5.70300 1.39200 40.01100
H  7.10700 0.72300 40.85500
H  8.37000 2.73100 40.20100
H  6.98400 3.66100 40.72500
H  -2.02200 3.01800 41.81900
H  -0.58100 2.88500 40.59900
H  -0.42400 3.46400 42.16600
H  -4.42700 -1.17300 42.23700
H  -3.42300 -1.78700 43.32800
H  -3.12000 -2.17800 41.57800
H  0.26100 -5.19100 42.57800
H  0.79700 -5.40000 45.47100
H  -1.41300 -6.03200 44.64300
H  -2.02400 -5.50900 43.11400
H  -1.99800 -4.32700 44.30300
H  2.69600 -6.61000 43.61800
H  1.15000 -7.33400 43.27800
H  2.83000 -7.95900 45.30700
H  1.10500 -8.71100 44.98100
H  1.33400 -7.32800 46.04400
H  6.34300 -5.87500 44.85000
H  6.09200 -4.93000 46.28900
H  7.67300 -4.83600 45.39700
H  7.80200 -0.73100 42.22500
H  8.70800 2.99500 45.36800
H  9.99300 1.73500 45.74500
H  8.61500 1.93600 46.76400
Mg -4.60400 25.72100 26.07400
C  -3.10400 27.07300 29.03000
C  -6.20200 23.45200 28.12400
C  -5.60800 24.28900 23.34200
C  -2.35800 27.83400 24.20900
N  -4.65300 25.34000 28.29400
C  -4.05500 26.06400 29.27500
C  -4.53800 25.62400 30.70600
C  -5.28300 24.26700 30.33100
C  -5.40900 24.33700 28.79800
C  -4.64100 22.90300 30.77200
C  -5.40300 26.69500 31.38100
C  -5.05200 27.21100 32.79200
H  -4.51700 26.22300 33.81200
N  -5.72800 24.19800 25.77700
C  -6.30300 23.41200 26.71400
C  -7.14900 22.33900 26.04800
C  -7.06600 22.55100 24.68700
C  -6.07900 23.68400 24.58300
C  -8.00500 21.37700 26.92100
C  -7.73900 21.79100 23.49800
O  -7.60300 22.08100 22.32200
C  -8.58800 20.65400 23.78500
N  -4.01600 25.97300 24.08400
C  -4.69100 25.30600 23.12800
C  -4.28800 25.78500 21.71500
C  -3.15500 26.90100 22.02800
C  -3.16100 26.90200 23.52300
C  -3.58800 24.66200 20.87000
C  -3.42400 28.32200 21.31300
C  -2.54800 28.61100 20.09500
N  -3.05600 27.18700 26.49200
C  -2.35700 28.00500 25.61800
C  -1.64000 29.01600 26.33200
C  -1.92100 28.74900 27.68000
C  -2.82200 27.61900 27.73300
C  -0.88700 30.25900 25.76900
C  -1.68600 29.15800 29.01400
O  -0.96500 30.07600 29.43600
C  -2.45600 28.13800 29.92100
C  -1.44600 27.49500 30.78000
O  -0.43300 26.93500 30.39200
O  -1.73800 27.69100 32.11800
C  -0.63900 27.37400 33.09900
H  -6.81400 22.79100 28.74000
H  -5.90500 23.70300 22.46900
H  -1.75700 28.46100 23.54800
H  -3.58600 25.49700 31.22300
H  -6.31000 24.21800 30.69300
H  -4.05200 22.63100 29.89600
H  -5.39500 22.14600 30.98900
H  -3.91600 23.02300 31.57700
H  -6.45900 26.42900 31.42800
H  -5.37900 27.59200 30.76300
H  -5.99500 27.60800 33.16800
H  -4.39300 28.07600 32.71600
H  -7.44900 20.95400 27.75800
H  -8.15600 20.46700 26.34100
H  -9.01000 21.78500 27.02600
H  -9.05700 20.39600 22.83500
H  -9.34400 21.15000 24.39400
H  -8.05100 19.84400 24.27800
H  -5.11000 26.13400 21.09000
H  -2.16700 26.50600 21.79600
H  -4.22300 24.56600 19.98900
H  -3.55700 23.69700 21.37500
H  -2.53200 24.85000 20.67700
H  -3.18100 29.07900 22.05800
H  -4.47800 28.49800 21.09700
H  -2.03500 29.57000 20.16500
H  -3.19700 28.73600 19.22800
H  -1.76600 27.92000 19.77800
H  -1.48800 31.13000 25.50700
H  -0.24900 30.14000 24.89300
H  -0.30000 30.55500 26.63800
H  -3.18100 28.53800 30.63000
H  -0.84100 26.30700 33.18400
H  -0.72200 27.82600 34.08700
H  0.37800 27.56800 32.75900

