158

Mg 7.22900 53.69200 41.47100
C  6.39100 50.30300 40.90800
C  10.40600 52.89000 40.52100
C  7.91100 56.90100 41.17000
C  3.84900 54.37700 42.06100
N  8.20800 51.78800 40.63600
C  7.72200 50.50200 40.58600
C  8.77100 49.45400 40.04600
C  10.05700 50.27500 40.32000
C  9.55300 51.75000 40.51300
C  10.87100 49.83000 41.52500
C  8.52600 48.99900 38.52600
C  7.81500 50.11300 37.66000
H  7.90400 49.87300 36.17000
N  8.91700 54.70300 40.86400
C  10.15500 54.22600 40.59200
C  11.04100 55.22900 40.24600
C  10.37100 56.40500 40.34500
C  9.03200 56.08500 40.85500
C  12.48100 55.05600 40.06200
C  10.84300 57.77900 39.90600
O  11.97000 57.93900 39.44300
C  9.92700 58.85900 39.77700
N  5.98300 55.40600 41.32500
C  6.63600 56.59700 41.52500
C  5.64300 57.58800 42.08200
C  4.31700 56.84300 42.37400
C  4.71500 55.48000 41.83900
C  6.17100 58.35300 43.21000
C  3.05600 57.57300 41.79100
C  1.80200 57.46100 42.60100
N  5.43300 52.56000 41.67100
C  4.15900 53.03700 41.92500
C  3.34800 51.85900 41.98600
C  4.15900 50.76300 41.63500
C  5.42900 51.30300 41.35900
C  1.85100 51.85700 42.37200
C  4.18700 49.31900 41.52400
O  3.41400 48.42800 41.83000
C  5.61700 48.93200 40.98600
C  5.39800 47.97800 39.77900
O  4.73700 48.22400 38.78700
O  5.87200 46.73300 40.13500
C  5.47900 45.66600 39.13800
H  11.44700 52.64400 40.30000
H  8.21500 57.94200 41.29800
H  2.81700 54.61800 42.32400
H  8.72900 48.56400 40.67400
H  10.76900 50.27100 39.49500
H  10.15000 49.71200 42.33400
H  11.73900 50.47500 41.66500
H  11.22600 48.82200 41.31300
H  7.93300 48.09200 38.41400
H  9.53000 48.91400 38.10900
H  8.27600 51.09400 37.77200
H  6.77900 50.20800 37.98500
H  12.83900 55.01700 39.03300
H  12.76700 54.13900 40.57600
H  13.03700 55.82000 40.60700
H  8.90300 58.53500 39.59500
H  10.14200 59.49200 38.91700
H  9.96000 59.54000 40.62700
H  5.42100 58.28300 41.27200
H  4.18300 56.66300 43.44000
H  7.03000 57.78700 43.56700
H  5.39400 58.38000 43.97400
H  6.33100 59.42400 43.07900
H  2.95300 56.86700 40.96700
H  3.23700 58.60500 41.49300
H  1.48600 58.40800 43.03900
H  1.97500 56.73700 43.39700
H  0.96200 57.15600 41.97800
H  1.70200 50.94300 42.94800
H  1.32400 51.86300 41.41800
H  1.66000 52.76700 42.94100
H  6.13500 48.38400 41.77300
H  5.96600 46.06000 38.24500
H  4.41500 45.52900 38.94900
H  5.81800 44.71500 39.54900
Mg -3.21800 35.16900 26.38900
C  -4.90400 33.41800 28.77600
C  -1.64700 37.05400 28.66600
C  -1.99900 37.16900 23.81800
C  -5.17300 33.55800 24.02400
N  -3.54400 35.41800 28.45100
C  -4.12200 34.45900 29.27400
C  -3.73400 34.57000 30.75500
C  -2.81700 35.86100 30.63300
C  -2.66400 36.20600 29.13700
C  -3.38800 37.07800 31.37300
C  -2.84000 33.32500 31.20000
C  -3.25200 32.79500 32.59200
H  -2.32200 32.89800 33.84200
N  -2.02800 36.95800 26.27200
C  -1.34100 37.45500 27.35300
C  -0.33500 38.29800 26.93400
C  -0.39500 38.30300 25.48200
C  -1.51800 37.42100 25.10800
C  0.70600 38.94200 27.86900
C  0.43700 39.02300 24.44500
O  0.25100 39.01800 23.18400
C  1.71000 39.68300 24.88900
N  -3.76600 35.57400 24.26800
C  -3.10000 36.37900 23.42900
C  -3.52100 36.34000 21.97800
C  -4.18400 34.95800 22.02400
C  -4.49400 34.67000 23.50400
C  -4.44100 37.58000 21.57200
C  -3.31200 33.79900 21.41000
C  -2.49700 32.90700 22.33500
N  -4.66200 33.73600 26.30300
C  -5.34500 33.14600 25.31300
C  -6.03000 32.01800 25.80000
C  -5.90200 32.04200 27.22400
C  -5.05400 33.11500 27.46000
C  -6.82200 31.05500 25.05100
C  -6.28100 31.46200 28.48700
O  -7.03900 30.51500 28.65500
C  -5.65000 32.40400 29.58000
C  -6.71000 32.97400 30.36000
O  -7.51400 33.81800 29.97800
O  -6.82400 32.35100 31.50400
C  -7.88100 32.70600 32.48100
H  -1.03000 37.53000 29.43100
H  -1.62100 37.69400 22.93800
H  -5.69600 32.89900 23.32800
H  -4.61300 34.74800 31.37300
H  -1.74800 35.71700 30.78800
H  -3.55000 37.91400 30.69300
H  -2.61300 37.36600 32.08300
H  -4.37000 36.87700 31.80200
H  -1.80100 33.63200 31.32100
H  -2.81300 32.51200 30.47400
H  -3.38400 31.74100 32.35000
H  -4.23600 33.08100 32.96400
H  1.69200 38.87800 27.40800
H  0.68600 38.44500 28.83900
H  0.53900 40.01600 27.94100
H  1.35700 40.42800 25.60200
H  2.06400 40.39500 24.14300
H  2.44100 38.95000 25.23000
H  -2.67100 36.52300 21.32100
H  -5.09600 34.97500 21.42700
H  -4.01200 37.94900 20.64100
H  -4.39700 38.35800 22.33400
H  -5.42000 37.16900 21.32400
H  -2.51400 34.18800 20.77800
H  -4.10400 33.19100 20.97100
H  -2.35900 33.45200 23.26800
H  -1.45500 32.86800 22.01800
H  -2.99100 31.93500 22.31200
H  -6.74600 31.02000 23.96500
H  -7.86200 31.33200 25.22200
H  -6.74500 30.00500 25.33300
H  -5.05700 31.72100 30.19000
H  -8.61500 33.36600 32.01900
H  -7.37400 33.16600 33.32900
H  -8.22500 31.70600 32.74500

