158

Mg 24.33000 -5.89600 46.14200
C  26.32200 -3.26500 44.61900
C  21.64300 -4.58200 44.30200
C  22.63800 -8.48900 47.02900
C  27.16800 -6.90300 47.76600
N  24.08200 -4.06400 44.62300
C  25.00400 -3.18800 44.19700
C  24.40300 -2.33300 43.06800
C  22.87000 -2.52400 43.23100
C  22.80400 -3.79800 44.13900
C  22.42800 -1.29900 44.09300
C  24.98700 -2.82200 41.70000
C  25.71400 -1.85000 40.78700
H  25.29700 -1.79600 39.37600
N  22.45400 -6.56500 45.61000
C  21.45900 -5.87900 44.93600
C  20.28500 -6.75700 44.89700
C  20.49800 -7.84600 45.80200
C  21.91900 -7.68800 46.13500
C  18.94900 -6.36000 44.19600
C  19.47900 -8.87400 46.12900
O  18.36900 -8.95100 45.58400
C  19.79300 -9.90600 47.26000
N  24.80100 -7.40800 47.31000
C  23.93300 -8.43200 47.53600
C  24.61600 -9.49600 48.41600
C  25.99100 -8.89600 48.78900
C  25.97600 -7.60100 47.99400
C  23.76700 -10.26700 49.60000
C  27.25400 -9.80700 48.48300
C  28.29600 -10.04000 49.64500
N  26.35800 -5.17100 46.31200
C  27.39000 -5.72100 47.04100
C  28.51800 -4.81500 46.92400
C  28.22700 -3.94700 45.91100
C  26.81500 -4.11700 45.57700
C  29.87300 -4.89100 47.62300
C  28.70000 -2.89300 45.03900
O  29.80900 -2.39700 44.91000
C  27.52700 -2.43800 44.09200
C  27.23600 -0.95600 44.23100
O  26.46800 -0.48600 45.03300
O  28.07400 -0.32300 43.29000
C  27.88000 1.14500 43.25100
H  20.72900 -4.19900 43.84400
H  22.08500 -9.36900 47.36600
H  28.04800 -7.17100 48.35500
H  24.73200 -1.29900 43.18100
H  22.23900 -2.60400 42.34600
H  21.81500 -1.72200 44.88900
H  21.75000 -0.63700 43.55400
H  23.14400 -0.56400 44.46200
H  24.17500 -3.26900 41.12600
H  25.68400 -3.62300 41.94500
H  26.79500 -1.98300 40.81300
H  25.52600 -0.84000 41.15300
H  18.46100 -7.19500 43.69300
H  19.10000 -5.56500 43.46600
H  18.24200 -6.00400 44.94600
H  20.06700 -9.34400 48.15300
H  20.53600 -10.58700 46.84500
H  18.86000 -10.45100 47.40300
H  24.89300 -10.16400 47.60000
H  26.06200 -8.54000 49.81700
H  22.88000 -9.67100 49.81800
H  24.39000 -10.28900 50.49500
H  23.49500 -11.27300 49.28100
H  28.02300 -9.38900 47.83300
H  26.83200 -10.76500 48.18200
H  29.31700 -9.71600 49.44500
H  28.38000 -11.11700 49.79500
H  27.89600 -9.53600 50.52500
H  29.87500 -4.87100 48.71300
H  30.56000 -4.20500 47.12700
H  30.36900 -5.85600 47.51600
H  27.76800 -2.69800 43.06200
H  26.82900 1.33200 43.02800
H  28.54800 1.63500 42.54200
H  28.18200 1.57300 44.20700
Mg 40.69900 8.15300 30.13300
C  42.42300 9.25800 32.82500
C  38.28900 6.70000 32.33200
C  39.02600 6.83300 27.47900
C  43.19900 9.03600 27.99800
N  40.63000 7.65900 32.35200
C  41.31700 8.52500 33.25100
C  40.79100 8.45800 34.66100
C  39.71000 7.27300 34.52500
C  39.45400 7.23900 32.97400
C  40.23100 5.90800 34.92000
C  40.15000 9.85700 34.98000
C  39.70000 9.92100 36.41700
H  40.09800 11.09700 37.24700
N  38.88300 7.03200 29.87100
C  38.06700 6.64900 30.91200
C  36.82600 6.10200 30.26000
C  37.06600 6.14000 28.86100
C  38.37700 6.63000 28.67200
C  35.76400 5.38500 30.99600
C  36.21700 5.62000 27.74700
O  36.60900 5.41200 26.61100
C  34.80800 5.45900 27.92900
N  41.07100 7.79400 28.06600
C  40.20800 7.35700 27.13800
C  40.64600 7.54200 25.66300
C  42.08100 8.16400 25.90900
C  42.13000 8.32700 27.43100
C  40.59600 6.27700 24.76000
C  42.28100 9.49200 25.10700
C  41.89500 10.89000 25.82900
N  42.47200 8.94900 30.36400
C  43.35000 9.39800 29.36000
C  44.37000 10.24300 30.06100
C  44.04500 10.10700 31.41300
C  42.90900 9.33000 31.55300
C  45.49600 10.99400 29.44600
C  44.51600 10.52200 32.70400
O  45.47500 11.25900 32.90800
C  43.42900 10.07300 33.70900
C  44.17100 9.22900 34.63700
O  44.74800 8.22200 34.31300
O  44.19900 9.82800 35.88700
C  45.10400 9.08800 36.78500
H  37.44600 6.49300 32.99400
H  38.39300 6.54300 26.63800
H  43.96300 9.57700 27.43600
H  41.65400 8.29000 35.30600
H  38.81800 7.40600 35.13800
H  39.63700 5.59200 35.77800
H  41.30000 5.97500 35.11900
H  40.11900 5.20800 34.09200
H  39.29700 9.97400 34.31200
H  40.81500 10.70600 34.82400
H  40.11200 9.03800 36.90500
H  38.62100 9.78100 36.48100
H  35.93900 5.27400 32.06600
H  35.42500 4.40700 30.65700
H  34.88300 6.01900 31.09600
H  34.35300 6.44400 28.02600
H  34.63500 4.82200 28.79700
H  34.33600 5.04400 27.03900
H  40.04600 8.30600 25.16800
H  42.83300 7.43800 25.59800
H  41.58100 6.29700 24.29200
H  39.78100 6.31400 24.03700
H  40.60900 5.37600 25.37200
H  41.59400 9.44800 24.26200
H  43.30300 9.57400 24.73600
H  42.85400 11.31800 26.12200
H  41.40600 10.81200 26.80000
H  41.43800 11.56900 25.10900
H  45.31900 11.10600 28.37700
H  46.41800 10.51000 29.76900
H  45.44300 11.96000 29.94800
H  43.02500 11.03000 34.04000
H  45.12200 7.99800 36.78500
H  44.73100 9.23500 37.79800
H  46.15300 9.33400 36.62200

