158

Mg 6.41800 53.37500 41.35300
C  6.10800 49.96800 40.22500
C  9.46800 53.39200 39.76500
C  6.28600 56.66800 41.21500
C  2.91200 53.17200 42.25100
N  7.58100 51.88600 40.05800
C  7.26400 50.60700 39.74800
C  8.30400 49.93300 38.83600
C  9.49900 50.91900 39.08600
C  8.81000 52.14700 39.63900
C  10.71500 50.35800 39.89900
C  7.85800 49.83400 37.30400
C  7.95600 48.44000 36.64200
H  6.92000 47.97800 35.57300
N  7.75200 54.86800 40.72900
C  9.01200 54.67800 40.22000
C  9.69700 55.89600 40.18200
C  8.80100 56.94900 40.53200
C  7.53700 56.20400 40.79300
C  11.16800 55.91900 39.69300
C  9.06900 58.45800 40.40700
O  10.21200 58.87500 40.05400
C  8.00200 59.41500 40.55600
N  4.79800 54.64400 41.52300
C  5.10000 56.04000 41.49700
C  3.80800 56.84300 41.82300
C  2.72300 55.73200 42.08900
C  3.49100 54.41800 41.97400
C  3.85500 57.89700 43.03200
C  1.50100 55.77700 41.15800
C  0.10700 55.47400 41.79100
N  4.89400 51.89800 41.52400
C  3.64500 51.92000 42.05500
C  3.16200 50.59800 42.21900
C  4.09300 49.80800 41.52800
C  5.10900 50.64800 41.05000
C  1.82000 50.25600 43.00600
C  4.40000 48.38000 41.06600
O  3.88200 47.33500 41.40600
C  5.73600 48.49000 40.24600
C  5.56800 47.74900 38.92700
O  4.88200 48.15200 38.00000
O  5.84500 46.42700 39.06300
C  5.40300 45.44700 38.09300
H  10.51400 53.34800 39.45400
H  6.27500 57.74300 41.40700
H  1.88000 53.02400 42.57500
H  8.57600 48.96600 39.26100
H  9.96300 51.28700 38.17100
H  11.40300 49.68900 39.38300
H  10.25000 49.90300 40.77400
H  11.38200 51.08500 40.36300
H  8.57000 50.38600 36.69100
H  6.83600 50.20800 37.24400
H  8.07200 47.80000 37.51600
H  8.90200 48.35800 36.10700
H  11.28800 55.23800 38.85000
H  11.91400 55.67700 40.44900
H  11.38400 56.96000 39.45100
H  8.20900 60.43600 40.23400
H  7.73400 59.32500 41.60900
H  7.17900 59.11600 39.90700
H  3.62400 57.39800 40.90300
H  2.37800 55.80400 43.12000
H  3.58800 58.86600 42.61000
H  4.83500 57.94200 43.50700
H  3.15000 57.57400 43.79800
H  1.57800 55.08600 40.31800
H  1.48700 56.77300 40.71600
H  -0.34000 56.46800 41.82300
H  0.14400 55.11500 42.81900
H  -0.54500 54.80800 41.22700
H  1.46600 49.47100 42.33800
H  1.00900 50.98100 43.07200
H  2.08700 49.95900 44.02100
H  6.41700 47.88500 40.84400
H  4.41100 45.69100 37.71300
H  5.21600 44.43100 38.44100
H  6.10100 45.33700 37.26400
Mg -4.76200 25.14400 26.15100
C  -3.11400 26.49500 28.96700
C  -6.98000 23.67500 28.27600
C  -6.04600 23.52300 23.49800
C  -2.35200 26.58500 24.11200
N  -4.91100 24.91900 28.39400
C  -4.20700 25.65200 29.34000
C  -4.70300 25.37300 30.73500
C  -5.65100 24.13600 30.52300
C  -5.88400 24.23400 28.98100
C  -4.96600 22.80500 30.95400
C  -5.48200 26.59300 31.25100
C  -5.94400 26.60900 32.74600
H  -5.70400 25.42200 33.56600
N  -6.34200 23.90000 25.90100
C  -7.24500 23.50900 26.87000
C  -8.22500 22.59500 26.35400
C  -7.81600 22.45600 24.99600
C  -6.63600 23.30500 24.75000
C  -9.43200 22.04600 27.10400
C  -8.55400 21.62600 23.87400
O  -8.25000 21.62000 22.68300
C  -9.65500 20.50900 24.25900
N  -4.21100 25.01900 24.07900
C  -4.94900 24.28200 23.19500
C  -4.31700 24.44700 21.74600
C  -3.32700 25.63300 21.92700
C  -3.24000 25.73800 23.48000
C  -3.68400 23.18300 21.17400
C  -3.65100 27.00800 21.24500
C  -2.66400 27.54200 20.27300
N  -3.07000 26.36000 26.42500
C  -2.23900 26.91600 25.47500
C  -1.23800 27.70100 26.12100
C  -1.52800 27.58000 27.52000
C  -2.66400 26.79700 27.64800
C  -0.13900 28.37800 25.39600
C  -1.10400 27.91500 28.87500
O  -0.11400 28.53400 29.27500
C  -2.23600 27.27400 29.80400
C  -1.49100 26.40200 30.68900
O  -0.82300 25.41600 30.45000
O  -1.72900 26.81800 31.97700
C  -1.28800 25.93900 33.00200
H  -7.61300 23.37800 29.11500
H  -6.51200 23.15800 22.58000
H  -1.69900 27.23000 23.52100
H  -3.91000 25.10200 31.43200
H  -6.59600 24.38200 31.00800
H  -5.43700 22.39500 31.84700
H  -3.92200 22.93400 31.23800
H  -5.07100 22.03200 30.19200
H  -6.42000 26.75200 30.71900
H  -4.86900 27.46300 31.01600
H  -6.83000 27.21000 32.94800
H  -5.27300 27.38100 33.12200
H  -10.30700 22.09200 26.45600
H  -9.63800 22.58500 28.02900
H  -9.33200 21.02000 27.45900
H  -9.46800 20.13700 25.26700
H  -9.41000 19.66100 23.61900
H  -10.64600 20.95200 24.16900
H  -5.16900 24.58600 21.08100
H  -2.32500 25.25200 21.72900
H  -4.12900 22.98800 20.19800
H  -3.98300 22.30900 21.75300
H  -2.61800 23.17200 20.94600
H  -3.80400 27.64600 22.11500
H  -4.60300 26.98200 20.71600
H  -1.74500 26.97200 20.41100
H  -2.49200 28.56500 20.60600
H  -3.06300 27.53700 19.25800
H  0.61500 28.68100 26.12300
H  -0.49900 29.30900 24.95600
H  0.19900 27.79100 24.54300
H  -2.71700 28.07700 30.36400
H  -0.40900 26.33100 33.51500
H  -1.10800 24.92300 32.65000
H  -2.13500 25.83900 33.68000

