158

Mg 26.45400 50.42500 26.83600
C  24.60100 51.80600 29.50300
C  28.84500 49.55900 29.23500
C  28.47500 49.40900 24.37200
C  24.26000 51.92100 24.58300
N  26.68800 50.68200 29.14000
C  25.68300 51.02300 29.98200
C  26.12700 50.73800 31.47100
C  27.65200 50.47700 31.27200
C  27.76600 50.17700 29.79400
C  28.58800 51.70800 31.75000
C  25.31600 49.55900 32.06400
C  24.64000 49.75200 33.44600
H  25.32300 50.66000 34.48400
N  28.33600 49.45400 26.80800
C  29.14000 49.19600 27.91300
C  30.27300 48.41400 27.44800
C  30.17400 48.38700 25.97800
C  28.98400 49.15000 25.64600
C  31.26300 47.71400 28.39200
C  31.14300 47.71200 24.94600
O  30.91600 47.72400 23.73200
C  32.39700 46.92700 25.39400
N  26.34700 50.58900 24.71800
C  27.30100 50.06500 23.93200
C  26.90600 50.15900 22.41400
C  25.57400 51.05100 22.51200
C  25.38100 51.22200 24.00500
C  28.00000 50.74000 21.44400
C  24.23300 50.36000 21.92800
C  23.79500 49.04500 22.54000
N  24.81400 51.59400 26.95100
C  23.96800 52.13100 25.95900
C  22.92800 52.92300 26.52800
C  23.11900 52.79500 27.90600
C  24.23700 51.97100 28.12000
C  21.93600 53.69700 25.83700
C  22.61500 53.23200 29.18400
O  21.61500 53.86600 29.40400
C  23.54100 52.53900 30.29600
C  24.24700 53.60800 31.07200
O  25.43700 53.92300 31.08900
O  23.33900 54.10300 31.92800
C  23.89100 55.08200 32.82700
H  29.56200 49.14600 29.94700
H  29.00700 49.06200 23.48300
H  23.58600 52.37900 23.85600
H  26.03300 51.62500 32.09700
H  27.91800 49.64700 31.92600
H  29.22200 51.54200 32.62100
H  28.01700 52.63200 31.83800
H  29.27900 51.93800 30.94000
H  25.93300 48.67800 32.24000
H  24.51400 49.32200 31.36500
H  24.55500 48.83300 34.02600
H  23.62100 50.09600 33.26700
H  32.26900 48.10900 28.25000
H  31.25000 46.66900 28.08300
H  31.05900 47.70500 29.46200
H  32.94800 47.57800 26.07200
H  33.08000 46.72000 24.56900
H  32.16900 46.04000 25.98500
H  26.60200 49.17500 22.05600
H  25.69900 52.04800 22.08900
H  27.69900 51.67200 20.96600
H  28.18500 49.94400 20.72400
H  28.92200 50.99300 21.96800
H  24.46800 50.13500 20.88800
H  23.42400 51.09000 21.97300
H  24.26800 48.94500 23.51800
H  23.99700 48.21100 21.86700
H  22.73500 49.02300 22.79200
H  21.79300 54.64200 26.36000
H  21.01700 53.13200 25.68000
H  22.37400 53.85200 24.85100
H  23.10400 51.80300 30.97000
H  24.04500 56.07600 32.40700
H  24.83800 54.72600 33.23100
H  23.42300 55.16500 33.80800
Mg 16.18800 52.20600 26.29800
C  18.19300 51.37800 29.09300
C  13.65600 52.93000 28.57300
C  14.52300 53.28000 23.78900
C  18.79400 51.08800 24.25500
N  16.01800 52.29600 28.63200
C  16.91700 51.79300 29.49900
C  16.32600 51.93100 30.99700
C  14.75200 52.17600 30.73100
C  14.74000 52.46900 29.24300
C  13.88200 50.95800 31.17100
C  16.95200 53.23300 31.62000
C  17.53900 52.99500 33.09600
H  16.60600 52.26200 34.12700
N  14.31300 52.99300 26.13500
C  13.44500 53.23000 27.13900
C  12.28800 53.85400 26.59400
C  12.54500 54.06000 25.24400
C  13.84200 53.47700 24.99400
C  11.13500 54.45800 27.46100
C  11.75700 54.86600 24.16000
O  12.07200 54.93000 22.98300
C  10.45300 55.38600 24.50600
N  16.66200 52.12900 24.30200
C  15.76700 52.70600 23.40500
C  16.29300 52.63200 21.95500
C  17.72300 52.10100 22.20000
C  17.74200 51.74900 23.72100
C  15.33700 51.80300 20.88500
C  18.88100 53.12000 21.83900
C  20.22300 52.50000 21.47300
N  18.05500 51.29900 26.54900
C  18.98100 50.95200 25.61800
C  20.16800 50.47900 26.31200
C  19.87200 50.64500 27.66000
C  18.61300 51.20100 27.76000
C  21.29600 49.87000 25.70800
C  20.41700 50.50500 29.05100
O  21.49500 50.07400 29.48200
C  19.35100 51.01700 29.99800
C  18.98400 49.81300 30.83200
O  18.28000 48.86900 30.45200
O  19.37800 50.07100 32.10500
C  18.67400 49.20100 33.02900
H  12.75400 53.18000 29.13600
H  14.03000 53.66900 22.89500
H  19.55300 50.79300 23.52700
H  16.50100 50.98800 31.51500
H  14.34300 53.09500 31.14900
H  13.08200 50.73100 30.46700
H  13.40100 51.20900 32.11600
H  14.45400 50.03600 31.28000
H  16.21500 54.03200 31.69900
H  17.77800 53.64400 31.03900
H  17.85400 53.94700 33.52300
H  18.44900 52.39800 33.03700
H  11.14100 54.12400 28.49900
H  10.20800 54.11800 26.99900
H  11.18600 55.54400 27.53500
H  9.78400 55.65600 23.68800
H  10.50700 56.23500 25.18800
H  9.97900 54.51000 24.94700
H  16.30200 53.63100 21.51800
H  17.86100 51.21000 21.58800
H  14.64400 51.17200 21.44100
H  15.93000 51.31900 20.10900
H  14.71200 52.58500 20.45300
H  19.15200 53.79400 22.65000
H  18.58900 53.79400 21.03400
H  20.09800 51.56500 20.92600
H  20.77400 52.30900 22.39400
H  20.79900 53.17800 20.84400
H  21.02500 49.07200 25.01600
H  21.92900 49.44600 26.48800
H  21.86200 50.58200 25.10800
H  19.65700 51.80800 30.68300
H  18.89800 49.76100 33.93600
H  19.04300 48.18700 33.18400
H  17.62700 49.15300 32.72700

