158

Mg 9.33500 3.15400 27.63500
C  10.90600 1.40600 30.34300
C  7.38600 4.81600 30.09700
C  7.52300 4.40100 25.23100
C  10.79000 0.71100 25.42500
N  9.19500 3.15500 29.95400
C  10.05700 2.42900 30.83700
C  9.78800 2.80100 32.35800
C  8.68300 3.94900 32.17400
C  8.34700 3.95400 30.65100
C  7.38200 3.75300 33.07600
C  11.10100 3.24200 33.19400
C  10.97400 4.37900 34.23600
H  11.60100 4.14600 35.65400
N  7.78500 4.58100 27.65300
C  7.10500 5.11800 28.71700
C  6.17000 6.07100 28.25400
C  6.13600 6.00600 26.80600
C  7.20800 4.98400 26.52800
C  5.43800 6.99800 29.25400
C  5.29300 6.77100 25.65400
O  5.41100 6.48000 24.50300
C  4.25000 7.77800 26.08900
N  9.24800 2.76400 25.67500
C  8.47600 3.47700 24.87800
C  8.74800 3.08600 23.45200
C  9.61500 1.82300 23.47400
C  9.92300 1.73400 24.98500
C  7.50600 2.88800 22.53200
C  10.94400 1.78800 22.61000
C  10.94600 0.62100 21.56800
N  10.62600 1.44800 27.75500
C  11.11400 0.55700 26.79700
C  11.92400 -0.41900 27.52400
C  11.91600 -0.07000 28.85100
C  11.10200 1.01600 28.99500
C  12.67700 -1.57100 26.90400
C  12.39800 -0.48200 30.15000
O  13.18000 -1.40000 30.50500
C  11.78400 0.48000 31.10500
C  10.99600 -0.27900 32.20400
O  9.81800 -0.64300 32.22200
O  11.80900 -0.21600 33.29200
C  11.10500 -0.48600 34.54700
H  6.94200 5.44500 30.87100
H  6.97900 4.76200 24.35600
H  11.16900 0.00500 24.68400
H  9.39700 1.88200 32.79500
H  9.14000 4.87900 32.51300
H  7.35800 4.60500 33.75500
H  7.45200 2.89400 33.74300
H  6.39600 3.58500 32.64200
H  11.91100 3.54300 32.53000
H  11.49300 2.33700 33.65800
H  9.93000 4.57000 34.48300
H  11.52700 5.16600 33.72300
H  6.11900 7.83400 29.41100
H  5.24000 6.51900 30.21300
H  4.51700 7.36300 28.79900
H  3.46300 7.40300 26.74200
H  3.71800 8.38300 25.35400
H  4.81600 8.50200 26.67500
H  9.40400 3.84900 23.03200
H  9.03300 0.94300 23.19900
H  6.75600 2.52400 23.23400
H  7.54800 2.15400 21.72700
H  7.21600 3.78400 21.98300
H  11.87900 1.60900 23.14000
H  11.19000 2.69200 22.05400
H  11.32900 1.06500 20.64900
H  9.92500 0.25700 21.45700
H  11.62900 -0.07600 22.05400
H  12.47600 -1.73600 25.84500
H  12.42400 -2.51200 27.39200
H  13.75700 -1.52900 27.04500
H  12.52600 1.03200 31.68200
H  11.69000 -1.20100 35.12600
H  10.05200 -0.76700 34.53700
H  11.34700 0.44600 35.05800
Mg 16.52500 52.07000 26.31400
C  18.52000 50.60200 28.85400
C  14.24700 52.93700 28.69300
C  14.77000 53.39000 23.82200
C  18.96900 50.98900 24.00400
N  16.44800 51.84200 28.52300
C  17.33600 51.11800 29.34700
C  16.88000 51.31500 30.88500
C  15.42700 51.88900 30.72300
C  15.43700 52.31300 29.23800
C  14.24000 50.87400 31.00600
C  17.81100 52.42700 31.53500
C  18.19600 52.06900 32.95400
H  17.37500 52.65000 34.09200
N  14.73800 52.97400 26.24900
C  13.94200 53.31300 27.36300
C  12.77800 54.06500 26.87000
C  12.93200 54.17200 25.46400
C  14.11800 53.40900 25.14400
C  11.69200 54.52300 27.89600
C  12.07100 54.97200 24.43100
O  12.19000 54.82100 23.22700
C  11.06500 55.86400 24.82900
N  16.76500 52.16300 24.26300
C  16.00100 52.93600 23.45100
C  16.40800 52.82100 21.98500
C  17.78000 52.12600 22.07800
C  17.91600 51.83100 23.52500
C  15.37000 52.23900 20.91200
C  18.95900 52.92600 21.42200
C  18.86800 52.79900 19.83300
N  18.33800 50.91200 26.35600
C  19.23100 50.70400 25.40100
C  20.39100 50.06800 25.88800
C  20.13700 50.00600 27.25400
C  18.90700 50.54400 27.52900
C  21.62400 49.57400 25.16300
C  20.65500 49.49900 28.55800
O  21.65300 48.83400 28.69600
C  19.62000 49.99900 29.68800
C  19.08800 48.91100 30.53600
O  18.38700 47.94500 30.19900
O  19.63300 49.15900 31.72900
C  19.45100 48.08200 32.73300
H  13.44200 53.23600 29.36800
H  14.24800 53.76300 22.93900
H  19.72900 50.76000 23.25400
H  16.93200 50.36000 31.40900
H  15.34100 52.77600 31.35000
H  14.60800 49.86600 31.20000
H  13.58800 50.78000 30.13700
H  13.57200 51.17600 31.81200
H  17.35600 53.40500 31.69100
H  18.64000 52.61800 30.85300
H  19.23000 52.32200 33.18500
H  18.20300 50.98000 32.96400
H  11.63500 53.96900 28.83300
H  10.70100 54.47400 27.44400
H  11.76600 55.57900 28.15700
H  11.54500 56.63600 25.43000
H  10.45000 55.20100 25.43600
H  10.58500 56.30800 23.95700
H  16.57000 53.85300 21.67200
H  17.74600 51.13500 21.62500
H  14.46400 51.97300 21.45700
H  15.82300 51.40900 20.36900
H  15.08100 53.04300 20.23600
H  19.90900 52.49100 21.73100
H  18.84400 53.98400 21.65800
H  18.71200 53.78600 19.39700
H  17.93500 52.24200 19.74300
H  19.67400 52.24900 19.34600
H  21.34100 49.23600 24.16600
H  21.91800 48.76400 25.83100
H  22.30800 50.41700 25.06100
H  20.01100 50.79400 30.32300
H  19.86900 47.11900 32.44000
H  18.44700 47.87600 33.10400
H  20.02000 48.32900 33.63000

