158

Mg 53.55500 23.32000 44.88100
C  51.31000 25.58300 43.49600
C  52.01100 20.87600 43.20200
C  56.23800 21.47900 45.44900
C  55.40500 26.20100 46.01000
N  51.84700 23.23700 43.48500
C  51.09500 24.30300 43.10600
C  50.08100 23.83700 42.10300
C  50.10200 22.25100 42.22900
C  51.37900 22.04500 43.05300
C  48.85200 21.58400 42.94100
C  50.58900 24.17700 40.66900
C  49.42700 24.43700 39.72300
H  49.82600 24.82100 38.27300
N  53.93300 21.35700 44.56600
C  53.15700 20.46000 43.89300
C  53.64500 19.17100 44.05300
C  54.87200 19.33300 44.69700
C  55.01500 20.78300 44.98300
C  52.80500 18.00200 43.76300
C  55.76800 18.11500 45.00200
O  55.39000 17.00400 44.61100
C  57.00100 18.18800 45.95400
N  55.56200 23.82600 45.48600
C  56.46200 22.82900 45.65300
C  57.85400 23.49900 46.03800
C  57.37900 24.76600 46.67000
C  55.99700 24.98300 45.98000
C  58.83000 22.60100 46.85700
C  58.37800 25.99600 46.60200
C  58.53600 26.60400 45.26900
N  53.37300 25.47400 44.89800
C  54.15800 26.43500 45.49900
C  53.42300 27.70400 45.37300
C  52.32100 27.42400 44.55800
C  52.37900 26.09000 44.29100
C  53.82700 29.04500 45.98100
C  51.09300 27.96900 44.02100
O  50.63400 29.07700 44.07600
C  50.38400 26.82300 43.28000
C  50.10200 27.32900 41.91600
O  50.95900 27.82500 41.17200
O  48.68800 27.40600 41.66000
C  48.10300 27.97400 40.46700
H  51.42600 20.16400 42.61600
H  57.12300 20.93400 45.78300
H  55.93100 27.03400 46.47900
H  49.14100 24.35900 42.28300
H  50.12000 21.84700 41.21700
H  48.42100 20.84900 42.26100
H  48.04800 22.30800 43.07200
H  49.19400 21.05100 43.82800
H  51.29800 23.43200 40.30700
H  51.07900 25.14300 40.79600
H  48.80000 25.25200 40.08400
H  48.87600 23.49600 39.72200
H  52.90900 17.45400 44.69900
H  52.96400 17.41600 42.85800
H  51.73800 18.22000 43.70700
H  56.97400 18.68400 46.92400
H  57.86700 18.48700 45.36300
H  57.25300 17.14500 46.14900
H  58.36300 23.76700 45.11200
H  57.13700 24.54500 47.71000
H  59.09000 23.24100 47.70000
H  59.72300 22.45600 46.24900
H  58.34700 21.70200 47.23800
H  59.36100 25.63600 46.90400
H  58.18500 26.74600 47.36900
H  57.68100 26.37800 44.63200
H  59.41600 26.08800 44.88600
H  58.56100 27.68600 45.40000
H  52.99900 29.51800 46.50900
H  54.24000 29.63400 45.16300
H  54.53500 28.91400 46.79900
H  49.45300 26.64800 43.81900
H  48.81800 28.65200 40.00100
H  47.24800 28.54400 40.82900
H  47.94200 27.31200 39.61600
Mg 41.58100 41.02600 26.58800
C  41.21700 43.40100 29.06300
C  42.57000 38.74300 29.04700
C  42.79600 39.01300 24.17000
C  40.97200 43.43700 24.15900
N  41.87500 41.10300 28.82800
C  41.49400 42.15900 29.58500
C  41.50500 41.82700 31.03600
C  42.11200 40.39200 31.05000
C  42.18700 40.00500 29.53900
C  43.40600 40.27000 31.90500
C  40.23200 42.04000 31.83400
C  40.10800 41.28700 33.25200
H  39.25100 42.00500 34.36100
N  42.36300 39.13800 26.55300
C  42.62800 38.39300 27.67700
C  43.04700 37.02600 27.26800
C  43.27700 37.09900 25.79500
C  42.83700 38.46500 25.45800
C  43.38900 35.95200 28.21700
C  43.80000 36.09000 24.79100
O  43.88900 36.34600 23.55100
C  44.41000 34.72500 25.28400
N  41.76300 41.17300 24.49400
C  42.26600 40.20600 23.72700
C  42.23000 40.68600 22.20900
C  41.38900 41.92600 22.26100
C  41.41700 42.26100 23.70200
C  43.67400 40.83400 21.63200
C  39.91400 41.79000 21.81200
C  38.87700 41.34600 22.86300
N  41.21100 43.09500 26.56600
C  41.00200 43.91400 25.47800
C  40.81600 45.25300 25.99800
C  40.81500 45.13200 27.35100
C  41.06500 43.77300 27.66800
C  40.54200 46.45800 25.26400
C  40.63700 45.82900 28.68200
O  40.48900 47.04100 28.92400
C  40.89000 44.73900 29.77900
C  42.04400 45.19000 30.68200
O  43.14000 45.50000 30.38900
O  41.52200 45.32200 31.89900
C  42.50100 45.72700 32.94000
H  42.85100 38.09600 29.88100
H  43.42900 38.56500 23.40100
H  40.76900 44.19200 23.39700
H  42.22900 42.53400 31.44000
H  41.45100 39.68900 31.55800
H  44.21200 39.66500 31.48900
H  43.20800 39.85400 32.89200
H  43.83600 41.25700 32.07500
H  39.43800 41.72100 31.15700
H  40.20000 43.12900 31.86200
H  41.10700 41.09200 33.64200
H  39.51700 40.37500 33.16800
H  42.75500 35.15900 27.81900
H  43.02400 36.09500 29.23400
H  44.45600 35.73900 28.15000
H  44.90300 34.21800 24.45400
H  43.73900 34.04400 25.80700
H  45.25600 34.91900 25.94300
H  41.77700 39.83700 21.69700
H  41.81300 42.78400 21.74000
H  44.32400 40.06600 22.05100
H  44.05300 41.83300 21.84700
H  43.65600 40.75300 20.54500
H  39.93400 41.13700 20.94000
H  39.64200 42.79000 21.47200
H  39.28400 41.29300 23.87300
H  38.43300 40.39900 22.55500
H  38.06300 42.07000 22.83300
H  40.73400 46.33900 24.19700
H  41.19700 47.26600 25.59100
H  39.59900 46.95400 25.49300
H  39.98700 44.70400 30.38900
H  43.40000 45.12100 33.06000
H  42.12600 45.43300 33.92100
H  42.82100 46.76700 32.88000

