158

Mg 42.74700 41.92000 25.97000
C  41.83400 44.21300 28.43500
C  43.82700 39.82700 28.29700
C  43.43400 39.83500 23.44500
C  42.05600 44.42400 23.65400
N  42.74400 42.09200 28.15000
C  42.22900 42.99300 28.94100
C  42.37700 42.68800 30.43400
C  43.27900 41.39400 30.35200
C  43.26800 41.03000 28.86100
C  44.73400 41.64600 30.87200
C  41.01100 42.34300 31.14000
C  41.13400 41.86300 32.63000
H  40.36000 42.54900 33.76200
N  43.47100 40.06200 25.88400
C  43.86500 39.31000 26.93900
C  44.31600 38.02400 26.56600
C  44.07700 37.90000 25.13600
C  43.61500 39.29500 24.73100
C  44.73400 36.98000 27.60600
C  44.21200 36.74500 24.20900
O  44.08200 36.76000 22.95300
C  44.50100 35.37100 24.82600
N  42.77700 42.10700 23.81200
C  43.07600 41.11200 22.95600
C  42.85700 41.40200 21.44900
C  42.14800 42.80400 21.63700
C  42.36800 43.18500 23.09600
C  44.18000 41.33100 20.57700
C  40.67100 42.72200 21.17500
C  39.73600 41.71900 21.87000
N  42.25300 44.00900 25.97500
C  41.99300 44.83200 24.94000
C  41.48200 46.05400 25.39600
C  41.42800 45.89600 26.79000
C  41.80500 44.60400 27.09500
C  41.06700 47.24400 24.52500
C  41.00100 46.53800 28.06000
O  40.53700 47.60400 28.30900
C  41.24500 45.43700 29.17300
C  42.20800 45.96900 30.18600
O  43.41800 45.77600 30.29200
O  41.48600 46.67200 31.08400
C  41.80900 46.34200 32.44800
H  44.26000 39.20600 29.08400
H  43.60400 39.14300 22.61800
H  41.86700 45.12800 22.84000
H  42.76200 43.55500 30.97100
H  42.91600 40.61700 31.02500
H  44.90700 42.72200 30.89000
H  45.54100 41.26600 30.24600
H  44.83700 41.31500 31.90500
H  40.47300 41.55600 30.61100
H  40.48700 43.29700 31.17600
H  42.14800 41.74900 33.01300
H  40.71100 40.86600 32.50800
H  44.08000 36.11400 27.50500
H  44.62300 37.36200 28.62100
H  45.77800 36.66800 27.64500
H  45.20400 35.53600 25.64300
H  44.98200 34.70700 24.10700
H  43.55700 34.97300 25.19800
H  42.09300 40.72200 21.07300
H  42.66600 43.53700 21.01900
H  45.07000 41.15900 21.18100
H  44.33900 42.29200 20.08600
H  44.07600 40.68300 19.70600
H  40.71900 42.34600 20.15200
H  40.32200 43.75400 21.17100
H  38.94400 42.20600 22.44000
H  40.30000 41.03200 22.50100
H  39.30600 41.10500 21.07900
H  40.45000 46.93100 23.68400
H  42.00700 47.69300 24.20300
H  40.61700 47.98900 25.18100
H  40.28900 45.23500 29.65600
H  40.93500 45.80600 32.82000
H  41.86700 47.27600 33.00700
H  42.75700 45.81300 32.54200
Mg -5.88400 25.33100 25.52800
C  -4.13200 26.88700 28.27900
C  -7.21100 23.21300 27.67700
C  -6.73800 23.53500 22.82100
C  -3.55600 27.22500 23.42400
N  -5.61300 25.03600 27.85800
C  -5.05900 25.91600 28.73600
C  -5.55600 25.73700 30.12200
C  -6.35000 24.39200 29.95100
C  -6.42100 24.18400 28.40800
C  -5.75800 23.25700 30.85400
C  -6.38500 26.92200 30.70000
C  -6.36400 27.10900 32.22100
H  -5.76200 25.99500 33.11000
N  -7.07700 23.74300 25.26500
C  -7.39300 22.86800 26.32600
C  -8.14600 21.81700 25.72800
C  -8.09900 21.86400 24.33800
C  -7.28500 23.05400 24.04800
C  -8.83700 20.76900 26.53700
C  -8.61000 20.99600 23.24700
O  -8.59100 21.26700 22.07600
C  -9.28100 19.68800 23.70400
N  -5.25500 25.40700 23.45300
C  -5.91000 24.61300 22.54100
C  -5.33000 24.88300 21.12600
C  -4.42000 26.15800 21.26100
C  -4.43000 26.29000 22.80500
C  -4.80800 23.69700 20.30600
C  -4.81900 27.36600 20.39100
C  -4.09200 27.53400 19.05500
N  -4.27000 26.89900 25.69200
C  -3.47300 27.55800 24.77900
C  -2.57600 28.45200 25.48300
C  -2.82100 28.22700 26.84000
C  -3.79800 27.31700 26.91700
C  -1.56600 29.42200 24.94400
C  -2.39000 28.54800 28.18600
O  -1.52900 29.36000 28.50400
C  -3.27100 27.64700 29.17300
C  -2.31700 26.75400 29.93600
O  -1.61000 25.85300 29.45600
O  -2.34000 27.09900 31.30400
C  -1.48500 26.33700 32.14100
H  -7.59700 22.58300 28.48000
H  -7.04200 22.94800 21.95100
H  -2.88300 27.70700 22.71300
H  -4.71800 25.56400 30.79700
H  -7.42100 24.54500 30.07700
H  -5.50800 22.42100 30.20100
H  -6.55000 23.07100 31.57900
H  -4.82100 23.54100 31.33400
H  -7.46500 26.78300 30.64200
H  -6.11000 27.85600 30.21000
H  -7.42100 27.14500 32.48400
H  -5.88900 28.07400 32.39600
H  -9.88200 20.87500 26.24400
H  -8.97600 21.01400 27.59000
H  -8.35500 19.80100 26.40000
H  -9.42600 19.12200 22.78400
H  -10.24400 19.92600 24.15600
H  -8.65400 19.23300 24.47100
H  -6.23700 25.10900 20.56600
H  -3.41000 25.81100 21.04400
H  -4.96700 22.74000 20.80300
H  -3.76200 23.70300 20.00200
H  -5.34500 23.71600 19.35800
H  -4.62800 28.32000 20.88300
H  -5.90000 27.42200 20.26400
H  -4.81500 27.67300 18.25100
H  -3.44000 26.67700 18.88400
H  -3.51700 28.43600 19.26500
H  -2.14200 30.22400 24.48200
H  -0.86100 28.83800 24.35200
H  -1.05000 29.85900 25.79900
H  -3.77700 28.34700 29.83700
H  -0.51700 26.43900 31.65000
H  -1.71800 25.27400 32.20200
H  -1.33900 26.78300 33.12500

