158

Mg 54.88000 23.09100 44.62000
C  52.73300 25.66900 43.75700
C  52.70800 20.86900 43.55000
C  57.19700 20.65400 45.23200
C  57.24200 25.49300 45.57000
N  53.03400 23.33300 43.52100
C  52.30100 24.47200 43.32900
C  51.03900 24.12100 42.52400
C  50.89800 22.60700 42.94700
C  52.30800 22.21400 43.33700
C  49.88300 22.15700 44.01200
C  51.32000 24.31400 41.04300
C  50.38400 25.32400 40.23000
H  50.97300 26.02500 38.94900
N  54.95100 21.11100 44.25000
C  53.88300 20.31800 43.96700
C  54.24500 18.90200 43.96100
C  55.58100 18.84900 44.52000
C  55.96800 20.26300 44.69900
C  53.37600 17.80300 43.41700
C  56.33700 17.59500 44.77500
O  55.73100 16.54200 44.55100
C  57.71100 17.50100 45.18000
N  57.04900 23.09700 44.98400
C  57.75100 21.96200 45.36400
C  59.20900 22.30300 45.86100
C  59.20400 23.87700 45.82700
C  57.78600 24.20800 45.44100
C  59.66800 21.63600 47.25900
C  60.25200 24.47000 44.88200
C  61.24400 25.48900 45.53100
N  55.07100 25.12600 44.64500
C  55.99800 25.95200 45.21300
C  55.44100 27.26700 45.52800
C  54.14000 27.20400 44.96500
C  53.96500 25.87400 44.45000
C  56.18500 28.50300 46.11000
C  52.94800 27.94700 44.69200
O  52.64700 29.09700 44.89100
C  51.99800 27.01300 43.83200
C  51.63700 27.69300 42.57000
O  52.27200 27.51000 41.52600
O  50.54800 28.43100 42.79600
C  50.09200 29.26800 41.73100
H  51.87900 20.16800 43.42700
H  57.98200 20.05100 45.69400
H  57.96500 26.20300 45.97700
H  50.26800 24.78100 42.92200
H  50.66900 22.01100 42.06300
H  49.27400 21.33200 43.64200
H  49.30400 23.01100 44.36400
H  50.43000 22.03000 44.94600
H  51.22700 23.34900 40.54500
H  52.38100 24.50900 40.89100
H  50.01400 26.10000 40.90000
H  49.50000 24.76700 39.91800
H  53.87900 17.17200 42.68400
H  52.50500 18.24700 42.93500
H  52.95200 17.28500 44.27700
H  57.73800 17.91100 46.18900
H  58.23200 18.12200 44.45100
H  57.99300 16.45700 45.04100
H  59.92600 21.96800 45.11100
H  59.50400 24.07200 46.85600
H  60.30900 20.75400 47.26800
H  58.71900 21.30600 47.68400
H  60.11900 22.45000 47.82600
H  59.78200 24.94800 44.02300
H  60.86400 23.68200 44.44300
H  60.79300 26.38300 45.96100
H  62.01200 25.73100 44.79600
H  61.79200 24.95900 46.31000
H  55.44200 29.23500 46.42600
H  56.92500 28.78700 45.36100
H  56.78400 28.32100 47.00200
H  51.06600 26.83500 44.36800
H  50.12200 28.70600 40.79800
H  50.67300 30.18700 41.80400
H  49.04800 29.55500 41.86000
Mg 31.06900 58.30700 39.96200
C  28.18900 56.49500 38.95400
C  32.94200 55.60900 39.23100
C  33.77400 60.31300 40.04500
C  29.06700 61.21000 40.25600
N  30.58200 56.38900 39.08500
C  29.40200 55.82500 38.68600
C  29.54700 54.34800 38.24000
C  30.97100 54.01100 38.91000
C  31.55800 55.44900 39.05300
C  30.93300 53.07200 40.12900
C  29.54600 54.37600 36.72500
C  28.36400 53.66500 35.98400
H  27.35200 54.57500 35.24600
N  33.04300 58.01100 39.69200
C  33.65100 56.81900 39.45100
C  35.07900 57.01400 39.36700
C  35.36800 58.35900 39.70500
C  34.03700 59.01900 39.75300
C  35.99600 55.83400 39.08800
C  36.77800 58.93800 39.93800
O  37.76600 58.28500 39.63300
C  36.94700 60.33000 40.30900
N  31.41600 60.57100 39.79600
C  32.65000 61.06500 40.05500
C  32.62000 62.45900 40.58700
C  31.11600 62.70100 40.88100
C  30.44600 61.41000 40.28500
C  33.52300 62.69900 41.84700
C  30.40700 63.93000 40.23300
C  29.33600 64.73000 41.12600
N  29.00500 58.78300 39.70200
C  28.38700 60.00400 39.93600
C  26.96000 59.78700 39.84600
C  26.84000 58.39300 39.51900
C  28.12200 57.83200 39.36000
C  25.78100 60.78600 40.11100
C  25.87000 57.34600 39.37600
O  24.66100 57.38700 39.48400
C  26.73400 56.06700 38.85500
C  26.35100 54.85100 39.68000
O  27.00100 54.34300 40.53400
O  25.25200 54.23600 39.08400
C  24.79400 52.97100 39.60800
H  33.51700 54.69300 39.08500
H  34.60800 61.00700 40.16700
H  28.51200 62.07800 40.61800
H  28.73100 53.74500 38.63700
H  31.59400 53.64200 38.09400
H  29.93300 52.68000 40.31400
H  31.27000 53.69800 40.95500
H  31.63400 52.26000 39.93800
H  30.44500 53.92000 36.31000
H  29.72100 55.41300 36.43900
H  27.84100 52.99600 36.66700
H  28.83400 53.02100 35.24100
H  36.10000 55.83400 38.00300
H  35.71200 54.86100 39.48800
H  37.01800 55.82100 39.46500
H  36.47100 60.55900 41.26300
H  36.52500 60.92900 39.50200
H  38.01700 60.43000 40.49000
H  33.00900 63.10000 39.79500
H  30.96000 62.60800 41.95600
H  33.98100 61.78100 42.21400
H  32.89600 63.21600 42.57300
H  34.28300 63.38300 41.46800
H  30.08800 63.53400 39.27000
H  31.23600 64.60300 40.01200
H  28.44000 64.92200 40.53500
H  29.76400 65.66900 41.47600
H  28.99400 64.24100 42.03800
H  25.88000 61.40700 39.22100
H  25.93100 61.42200 40.98300
H  24.81300 60.28400 40.12000
H  26.45500 55.84200 37.82600
H  25.62400 52.26500 39.62500
H  23.95300 52.51900 39.08400
H  24.56300 53.09300 40.66600

