158

Mg 36.80400 49.29400 25.00700
C  36.73600 47.29300 27.84800
C  35.40100 51.85800 26.96700
C  36.13400 51.08300 22.28200
C  37.71800 46.59800 23.12100
N  36.14900 49.45300 27.13700
C  36.23700 48.56200 28.18300
C  36.01400 49.13600 29.53200
C  35.47900 50.56400 29.14000
C  35.65600 50.64100 27.61600
C  34.04600 50.95000 29.60400
C  37.29700 49.23500 30.47200
C  37.00700 48.72000 31.88000
H  35.68500 49.09400 32.54300
N  36.01000 51.27700 24.65200
C  35.54400 52.12800 25.58400
C  35.06300 53.34400 24.88500
C  35.32600 53.17300 23.48100
C  35.81500 51.82300 23.44000
C  34.42700 54.47400 25.61800
C  35.08800 54.17000 22.38200
O  35.35600 53.98600 21.18500
C  34.51500 55.58800 22.65900
N  36.75200 48.83700 22.99900
C  36.56900 49.77500 22.04900
C  37.01300 49.38900 20.67100
C  37.70800 48.00400 20.99000
C  37.37200 47.79900 22.48700
C  35.75400 49.17200 19.75800
C  39.17900 47.88600 20.59300
C  39.62900 46.59700 19.90400
N  37.07000 47.32200 25.32500
C  37.47000 46.32900 24.45700
C  37.65400 45.03800 25.27300
C  37.42800 45.46400 26.55600
C  37.08900 46.79600 26.55500
C  38.13000 43.72200 24.76600
C  37.41300 44.94300 27.91300
O  37.75800 43.88900 28.40000
C  36.93900 46.13600 28.79700
C  35.78000 45.70800 29.62900
O  34.62800 45.48800 29.28500
O  36.21000 45.46400 30.88900
C  35.19100 45.03500 31.80200
H  34.94100 52.62500 27.59400
H  36.25700 51.73400 21.41400
H  38.05900 45.70000 22.60100
H  35.24100 48.53000 30.00500
H  36.08900 51.40200 29.47700
H  34.15200 51.71200 30.37600
H  33.62800 50.03000 30.01200
H  33.45100 51.45700 28.84400
H  37.75000 50.22400 30.55400
H  38.05400 48.58200 30.03800
H  37.85400 49.05300 32.47900
H  37.11900 47.64500 31.74200
H  35.00300 55.39300 25.72900
H  34.36200 54.21400 26.67400
H  33.44200 54.65400 25.18500
H  33.51500 55.38800 23.04500
H  34.36000 56.14500 21.73500
H  35.17400 56.07800 23.37600
H  37.71500 50.15300 20.33800
H  37.13500 47.20400 20.52000
H  34.87300 49.34300 20.37600
H  35.69500 48.18800 19.29200
H  35.88400 50.01500 19.07900
H  39.83700 47.97700 21.45700
H  39.51800 48.64900 19.89300
H  39.86600 46.84500 18.87000
H  38.95400 45.74100 19.90000
H  40.54200 46.26600 20.39900
H  37.35400 43.15700 24.25000
H  38.47400 43.14500 25.62500
H  38.97100 43.80200 24.07800
H  37.76800 46.14100 29.50400
H  35.59500 44.83300 32.79400
H  34.82800 44.14300 31.29000
H  34.51000 45.87900 31.91200
Mg 27.12200 50.06900 26.83100
C  24.86900 51.15100 29.32900
C  29.29600 49.12000 29.13500
C  29.15000 49.55700 24.29300
C  24.68100 51.44200 24.52200
N  27.17400 50.19400 28.99700
C  26.07900 50.54400 29.79500
C  26.38900 50.20900 31.34200
C  27.88000 49.82000 31.24500
C  28.13900 49.59800 29.70800
C  28.82400 50.95400 31.77700
C  25.40200 49.05100 31.89700
C  24.68500 49.34300 33.27200
H  25.40200 50.36800 34.25300
N  29.01400 49.47200 26.67600
C  29.75200 49.08300 27.75900
C  31.03900 48.60200 27.23900
C  31.01800 48.82300 25.88600
C  29.71400 49.30300 25.56100
C  32.23300 48.20600 28.15500
C  32.18200 48.57100 24.78200
O  32.03100 48.82900 23.59600
C  33.48600 48.10500 25.23600
N  26.90200 50.49100 24.69700
C  27.90700 50.05200 23.90600
C  27.49300 50.19700 22.44700
C  26.15200 50.95400 22.53100
C  25.87000 50.87900 24.01600
C  28.45200 50.82800 21.45500
C  24.93600 50.48900 21.57600
C  24.92200 51.19600 20.20100
N  25.24800 51.24100 26.85500
C  24.40600 51.64200 25.84300
C  23.28800 52.30800 26.37700
C  23.38800 52.07800 27.77900
C  24.62800 51.42000 27.94600
C  22.11500 52.91500 25.61000
C  22.73900 52.30600 29.16000
O  21.75300 52.85000 29.45400
C  23.63700 51.52400 30.14000
C  23.92300 52.51800 31.26400
O  24.88100 53.24300 31.36300
O  22.86500 52.53500 32.19300
C  22.96500 53.56700 33.22300
H  30.09200 48.79000 29.80600
H  29.77500 49.34900 23.42200
H  24.12000 52.11900 23.87500
H  26.30500 51.11900 31.93700
H  28.10300 48.93000 31.83400
H  29.56800 51.30100 31.06000
H  29.32900 50.55500 32.65700
H  28.24400 51.80100 32.14200
H  25.98300 48.13000 31.94600
H  24.56300 48.95700 31.20700
H  24.54700 48.45200 33.88600
H  23.73700 49.73500 32.90500
H  32.24200 48.40600 29.22600
H  33.06300 48.86200 27.89400
H  32.51500 47.16600 27.98800
H  34.05700 47.78400 24.36500
H  33.53200 47.22600 25.88000
H  33.97000 48.93800 25.74700
H  27.29900 49.18800 22.08300
H  26.29700 52.00600 22.28600
H  29.50000 50.83000 21.75500
H  28.12800 51.84600 21.23600
H  28.52000 50.29200 20.50800
H  23.97600 50.76900 22.00800
H  24.92700 49.41100 21.41600
H  25.71900 51.92700 20.07100
H  23.92300 51.59700 20.03000
H  25.04300 50.51900 19.35600
H  21.55900 52.34400 24.86700
H  22.52000 53.73900 25.02300
H  21.31600 53.11600 26.32300
H  23.10700 50.63700 30.48900
H  21.99200 53.62100 33.71100
H  23.13600 54.58400 32.87100
H  23.65600 53.35200 34.03800

