158

Mg 50.68200 47.28400 43.70300
C  47.46900 47.57400 42.19100
C  50.90100 44.10400 42.25100
C  53.79100 47.22900 44.51800
C  50.67500 50.80700 44.10600
N  49.42000 46.09900 42.18300
C  48.06000 46.32200 41.97500
C  47.25300 45.17100 41.28100
C  48.41600 44.11200 41.38700
C  49.64100 44.78200 42.02600
C  47.94700 42.75100 42.04100
C  46.81700 45.61900 39.83700
C  45.38200 45.25500 39.42000
H  45.25200 44.13400 38.34400
N  52.23000 45.89200 43.40000
C  52.09400 44.60500 42.90800
C  53.42100 43.89400 43.05400
C  54.27800 44.86500 43.70600
C  53.48300 46.07300 43.88900
C  53.71700 42.53100 42.49700
C  55.81100 44.65700 44.00500
O  56.35900 43.61100 43.68700
C  56.65700 45.80100 44.46900
N  51.97700 48.86600 44.13100
C  53.16000 48.45800 44.66500
C  53.88700 49.62000 45.47900
C  53.01600 50.85800 45.12300
C  51.82300 50.14500 44.39700
C  53.95000 49.39100 47.01800
C  53.61000 51.93400 44.10200
C  53.09900 53.34800 44.34000
N  49.30300 48.86000 43.49200
C  49.46600 50.23400 43.61100
C  48.23000 50.86700 43.28000
C  47.44900 49.88100 42.71000
C  48.15700 48.71200 42.80500
C  48.00000 52.35900 43.38500
C  46.14900 49.65000 42.18700
O  45.20600 50.42400 42.05900
C  46.09400 48.14300 41.82100
C  44.99200 47.53200 42.60400
O  44.91900 47.42500 43.79100
O  44.00400 47.15500 41.67000
C  42.69400 46.62000 42.21600
H  51.08800 43.06600 41.97000
H  54.68800 47.24900 45.14000
H  50.67600 51.83700 44.46800
H  46.44200 44.96500 41.98000
H  48.69000 43.83800 40.36800
H  46.92800 42.41700 41.84700
H  48.14400 42.78700 43.11200
H  48.56900 41.87200 41.87200
H  47.31500 44.97300 39.11400
H  47.03300 46.64800 39.54900
H  44.87600 46.14800 39.05200
H  44.89900 44.97000 40.35500
H  54.38500 41.91300 43.09700
H  54.14500 42.66000 41.50300
H  52.82900 41.90900 42.37900
H  57.68900 45.54400 44.70800
H  56.33700 45.95100 45.50000
H  56.52200 46.65500 43.80500
H  54.90000 49.76900 45.10700
H  52.70900 51.39800 46.01900
H  54.87500 48.85200 47.22100
H  53.00800 48.90900 47.28000
H  54.05400 50.34300 47.53800
H  53.38800 51.81500 43.04200
H  54.69500 51.88500 44.19400
H  52.37700 53.46900 45.14700
H  52.74400 53.78200 43.40500
H  53.80600 54.08500 44.72100
H  46.91800 52.49300 43.41700
H  48.49500 53.04200 42.69400
H  48.35800 52.75300 44.33600
H  45.93400 48.10500 40.74400
H  42.34200 45.88700 41.49000
H  42.02000 47.46500 42.36400
H  42.74800 46.14000 43.19300
Mg 48.33400 34.65600 26.76400
C  46.23000 33.79900 29.45800
C  49.03500 37.54000 28.31000
C  49.77600 35.64600 23.91400
C  47.15500 31.74600 25.06800
N  47.81400 35.40800 28.74100
C  46.99000 34.95300 29.72400
C  47.33700 35.62600 31.03200
C  47.91900 37.03000 30.57100
C  48.30700 36.67500 29.10800
C  47.04700 38.36600 30.84000
C  48.36800 34.82800 31.87300
C  48.08800 34.63600 33.35800
H  47.05100 35.63300 34.03900
N  49.39500 36.35200 26.24900
C  49.56700 37.42100 27.02400
C  50.32700 38.44300 26.33800
C  50.65700 37.84300 25.09200
C  49.96900 36.54700 25.01200
C  50.66100 39.85500 27.05900
C  51.50900 38.37200 23.96200
O  51.61300 37.86600 22.83600
C  52.18100 39.67300 24.27600
N  48.62000 33.75300 24.73600
C  49.22400 34.40800 23.72800
C  49.26900 33.53100 22.47200
C  48.58600 32.24300 22.98400
C  48.04500 32.57100 24.39400
C  48.67000 34.20200 21.23000
C  49.79200 31.20700 23.17400
C  49.80400 30.15300 21.96200
N  46.94400 33.11100 27.09400
C  46.61500 31.97100 26.38800
C  45.62200 31.22100 27.06300
C  45.45000 31.95200 28.25300
C  46.26600 33.07200 28.27700
C  44.90600 30.07400 26.48900
C  44.70000 31.89300 29.52200
O  43.87200 31.04200 29.89100
C  45.18700 33.11700 30.37500
C  45.39900 32.71400 31.79400
O  46.31100 31.95200 32.14300
O  44.39500 33.06900 32.59000
C  44.17500 32.34700 33.86300
H  49.38500 38.38700 28.90400
H  50.24400 35.92800 22.96900
H  46.76500 30.89300 24.50900
H  46.40200 35.84600 31.54700
H  48.88300 37.31000 30.99500
H  46.18600 38.03100 31.41900
H  46.77400 38.82700 29.89100
H  47.61000 39.07900 31.44200
H  49.39200 35.19400 31.80100
H  48.32800 33.80600 31.49400
H  48.99300 34.72400 33.95900
H  47.63600 33.65400 33.50300
H  50.21300 40.67200 26.49200
H  51.74000 39.93400 26.93000
H  50.38000 39.93600 28.10900
H  52.89700 39.48800 25.07600
H  51.37600 40.38200 24.47200
H  52.78000 39.95200 23.41000
H  50.34500 33.43900 22.32700
H  47.76100 31.87900 22.37200
H  47.94900 33.57500 20.70500
H  49.54100 34.30900 20.58500
H  48.25000 35.20400 21.32600
H  49.78500 30.66100 24.11800
H  50.77400 31.66000 23.03500
H  50.67700 30.16300 21.31000
H  48.87900 30.03800 21.39700
H  49.94600 29.23400 22.53100
H  44.43600 30.41700 25.56700
H  44.15400 29.80000 27.22800
H  45.57500 29.24300 26.26200
H  44.30900 33.76200 30.39200
H  43.10600 32.16800 33.97600
H  44.39300 32.99600 34.71200
H  44.71100 31.41900 34.06200

