158

Mg 17.33200 -0.42700 27.41700
C  16.12000 1.45000 29.95100
C  19.56500 -1.99100 29.48700
C  18.52800 -2.02200 24.73100
C  15.32800 1.45400 25.21700
N  17.96000 -0.07600 29.48600
C  17.10500 0.64100 30.41900
C  17.50600 0.20900 31.85700
C  18.75700 -0.70600 31.66900
C  18.80900 -0.95100 30.11500
C  20.09800 -0.18100 32.24400
C  16.33100 -0.49800 32.71300
C  16.21800 0.05800 34.11300
H  17.40500 0.65200 34.90200
N  18.71000 -1.89700 27.19200
C  19.63400 -2.37800 28.14200
C  20.51600 -3.32100 27.52800
C  20.23100 -3.42500 26.12900
C  19.11800 -2.40300 25.98600
C  21.43800 -4.11600 28.43100
C  20.76900 -4.38600 25.02300
O  20.24500 -4.41900 23.89900
C  21.84800 -5.28600 25.25600
N  17.03200 -0.31200 25.25500
C  17.56900 -1.09500 24.37700
C  17.01500 -0.98000 22.99500
C  15.86400 -0.05000 23.21700
C  16.04700 0.41600 24.66000
C  18.09800 -0.49600 21.95500
C  14.49000 -0.67000 22.91100
C  14.16200 -0.67000 21.35600
N  16.17900 1.26400 27.44900
C  15.33200 1.87100 26.51400
C  14.55500 2.89300 27.20400
C  14.77900 2.77700 28.52900
C  15.84200 1.80000 28.61600
C  13.59000 3.86400 26.52400
C  14.49900 3.21400 29.78300
O  13.88500 4.20000 30.16400
C  15.19000 2.30700 30.79900
C  15.83800 3.21000 31.70800
O  16.82300 3.85400 31.42400
O  15.10800 3.41200 32.82400
C  15.54600 4.27800 33.90900
H  20.10300 -2.48700 30.29700
H  18.87900 -2.51800 23.82400
H  14.55300 2.03000 24.70800
H  17.72800 1.18800 32.28200
H  18.52000 -1.61200 32.22600
H  20.49200 -0.88300 32.98000
H  20.04600 0.80200 32.71100
H  20.91000 -0.07100 31.52600
H  16.35800 -1.58600 32.64700
H  15.45900 -0.05500 32.23200
H  15.85800 -0.76200 34.73400
H  15.40400 0.78300 34.09500
H  21.77100 -3.50300 29.26800
H  22.33000 -4.49900 27.93500
H  20.87400 -4.96900 28.80900
H  21.50500 -5.87000 26.11000
H  22.69800 -4.65100 25.50700
H  22.19300 -5.93000 24.44700
H  16.58100 -1.92200 22.65900
H  15.99900 0.79800 22.54600
H  17.92000 0.50600 21.56400
H  18.10300 -1.19900 21.12300
H  19.10400 -0.53800 22.37400
H  13.72100 -0.01800 23.32600
H  14.40600 -1.73200 23.14200
H  13.50600 0.11900 20.98900
H  13.68400 -1.64900 21.31200
H  15.08100 -0.75300 20.77500
H  14.13400 4.66100 26.01700
H  12.82500 4.21500 27.21600
H  12.99900 3.17600 25.91900
H  14.41500 1.79700 31.37200
H  16.06800 3.64100 34.62300
H  14.64000 4.71900 34.32400
H  16.30400 5.03400 33.70100
Mg 50.26500 35.05400 26.65600
C  47.98000 33.77100 29.09500
C  50.07900 38.04300 28.19600
C  51.66200 36.47600 23.89100
C  49.94500 31.98300 24.75200
N  49.43800 35.72300 28.54700
C  48.46800 35.08800 29.35400
C  48.19100 35.90200 30.65500
C  48.71200 37.33200 30.22400
C  49.46100 37.03500 28.90600
C  47.48300 38.34300 30.10800
C  49.00700 35.24000 31.79300
C  48.28000 34.96100 33.17000
H  47.99400 36.18700 34.06400
N  51.10200 36.98700 26.24600
C  50.90100 38.06000 27.03200
C  51.58700 39.16800 26.37900
C  52.09400 38.66200 25.08800
C  51.60300 37.28100 25.04900
C  51.91200 40.45900 27.13600
C  53.09400 39.27700 24.06500
O  53.58100 38.56000 23.15000
C  53.60500 40.67700 24.11000
N  50.69100 34.29700 24.63400
C  51.32100 35.14200 23.73800
C  51.77500 34.40300 22.39300
C  51.50800 32.92700 22.77300
C  50.65000 32.98900 24.12800
C  50.92800 34.93800 21.19100
C  52.67400 31.90000 22.86500
C  54.11800 32.38500 23.29400
N  49.26500 33.22800 26.86300
C  49.19100 32.07200 26.00800
C  48.29600 31.19700 26.59300
C  47.73800 31.83800 27.72400
C  48.43500 33.02400 27.92500
C  47.81700 29.88200 26.02000
C  46.83700 31.69000 28.76800
O  46.18000 30.70300 29.08800
C  46.98100 32.95500 29.77200
C  47.28700 32.41200 31.12300
O  48.39100 31.86300 31.41400
O  46.25400 32.47600 32.00600
C  46.48100 31.84600 33.27200
H  49.89100 39.00600 28.67500
H  52.07600 36.81900 22.94100
H  49.87700 31.07800 24.14500
H  47.13500 35.90100 30.92600
H  49.42100 37.76000 30.93300
H  47.66600 38.54100 29.05100
H  47.58900 39.24500 30.71100
H  46.49400 37.93500 30.31300
H  49.75000 35.98500 32.07600
H  49.48100 34.34500 31.38900
H  48.96800 34.26400 33.64700
H  47.34500 34.48700 32.86900
H  51.31500 40.52600 28.04500
H  51.69200 41.34700 26.54200
H  52.97200 40.23000 27.24500
H  54.15300 40.85500 25.03500
H  52.82900 41.44200 24.12000
H  54.33000 40.76100 23.30100
H  52.78100 34.70700 22.10400
H  50.87300 32.52400 21.98300
H  50.25200 34.14300 20.87600
H  51.49200 35.33700 20.34800
H  50.17800 35.58300 21.64900
H  52.71000 31.36500 21.91600
H  52.46900 31.15700 23.63500
H  54.20600 33.47100 23.27600
H  54.84100 31.84100 22.68700
H  54.29100 32.06300 24.32100
H  48.14900 29.11100 26.71500
H  48.26900 29.66600 25.05200
H  46.73600 29.84000 25.88200
H  46.05300 33.52000 29.86600
H  45.50200 31.63400 33.70100
H  47.07300 32.59400 33.79900
H  47.09100 30.95200 33.14100

