158

Mg 42.01900 41.63900 27.97300
C  40.89000 44.02200 30.47500
C  43.11800 39.67000 30.44300
C  43.25900 39.69100 25.66000
C  41.41000 44.16600 25.52900
N  41.84600 41.82500 30.15600
C  41.40600 42.83200 30.98300
C  41.54400 42.40000 32.45000
C  42.38600 41.04000 32.46600
C  42.50400 40.85800 30.90700
C  43.75400 41.31400 33.11900
C  40.06900 42.28000 33.05100
C  39.92700 43.15000 34.32700
H  39.26900 42.42300 35.54400
N  42.99800 39.82100 28.03200
C  43.35700 39.18300 29.13400
C  43.99500 37.93400 28.78300
C  43.89300 37.86900 27.33500
C  43.32800 39.14900 26.96500
C  44.49900 36.92600 29.83400
C  44.38100 36.75900 26.36100
O  44.54300 36.96000 25.19200
C  44.66100 35.39400 26.92700
N  42.50500 41.98500 25.92600
C  42.92300 40.94300 25.21500
C  42.96000 41.30100 23.71800
C  42.37600 42.70600 23.65900
C  42.12900 43.03000 25.15800
C  44.36300 41.23400 23.03000
C  41.06500 42.81300 22.87200
C  39.87700 42.11800 23.41600
N  41.26200 43.67500 27.98000
C  41.04300 44.49800 26.89100
C  40.34400 45.63100 27.33900
C  40.25900 45.53100 28.73700
C  40.92600 44.36000 29.08700
C  39.74500 46.75500 26.50100
C  39.81400 46.13700 30.02100
O  39.08800 47.08300 30.22300
C  40.30100 45.22200 31.17800
C  41.33500 45.86800 31.94500
O  42.46100 46.19900 31.54900
O  40.89800 45.97100 33.25100
C  41.69300 46.75100 34.26100
H  43.49900 39.00500 31.22100
H  43.48300 39.01200 24.83500
H  41.25200 44.93100 24.76500
H  42.12900 43.19500 32.91300
H  41.95400 40.11800 32.85700
H  43.95300 40.53000 33.85100
H  43.74200 42.25100 33.67600
H  44.50500 41.16100 32.34500
H  39.88000 41.25400 33.36700
H  39.32700 42.67600 32.35800
H  39.30500 43.99200 34.02300
H  40.90700 43.50000 34.65100
H  45.54900 36.84800 29.55400
H  43.97600 35.97100 29.78900
H  44.46400 37.25700 30.87200
H  43.77000 35.01200 27.42500
H  45.43800 35.45700 27.68800
H  44.98800 34.68600 26.16500
H  42.26100 40.58700 23.28200
H  43.02600 43.52900 23.36000
H  44.72000 42.26300 23.06200
H  44.23300 40.81500 22.03200
H  44.96400 40.55700 23.63800
H  41.17800 42.44200 21.85300
H  40.84700 43.85700 22.64300
H  39.19900 42.95300 23.59500
H  39.98700 41.45700 24.27500
H  39.44800 41.58700 22.56600
H  39.16100 46.29500 25.70300
H  40.56600 47.32100 26.06000
H  39.11000 47.34200 27.16400
H  39.46700 44.81200 31.74800
H  41.10800 47.64900 34.46200
H  42.66300 47.17200 33.99500
H  41.85600 46.07400 35.09900
Mg -11.97300 16.24000 42.76900
C  -9.03500 14.47500 42.16700
C  -10.45800 18.91400 40.92300
C  -15.01100 17.56900 42.22800
C  -13.34000 13.32500 44.04400
N  -10.02500 16.57900 41.52000
C  -8.95500 15.77200 41.55300
C  -7.77000 16.39500 40.78100
C  -8.19100 17.85200 40.54100
C  -9.58600 17.84600 41.19400
C  -7.16200 18.89300 41.12900
C  -7.53100 15.67300 39.46700
C  -6.09200 15.33100 39.03500
H  -5.52900 16.13000 37.83600
N  -12.57700 18.09100 41.98000
C  -11.84200 18.97300 41.22000
C  -12.73100 20.10600 40.80000
C  -14.07600 19.67900 41.17100
C  -13.93900 18.45300 41.88300
C  -12.32200 21.28100 39.89700
C  -15.32500 20.49000 40.80800
O  -15.25300 21.52000 40.12200
C  -16.68200 20.15200 41.27900
N  -13.94300 15.55200 43.09100
C  -14.99000 16.31200 42.83500
C  -16.24500 15.50500 43.17000
C  -15.62500 14.46700 44.13500
C  -14.21700 14.37300 43.73400
C  -17.42200 16.40600 43.71600
C  -16.41400 13.13600 44.22600
C  -16.37400 12.09700 43.09800
N  -11.32800 14.31600 43.11500
C  -11.99900 13.28900 43.71200
C  -11.13500 12.12500 43.89300
C  -9.93900 12.56000 43.30600
C  -10.07600 13.90200 42.82800
C  -11.37100 10.78200 44.50000
C  -8.62300 12.22900 43.06700
O  -7.99900 11.23900 43.42500
C  -7.95200 13.39900 42.31800
C  -6.82800 13.93900 43.14700
O  -6.95300 14.43900 44.23900
O  -5.64100 13.69700 42.44300
C  -4.35600 14.07200 43.07900
H  -9.99700 19.73900 40.37600
H  -15.97200 17.81500 41.77200
H  -13.58700 12.44700 44.64400
H  -6.86800 16.24800 41.37600
H  -8.38300 17.98000 39.47600
H  -6.62700 18.43600 41.96100
H  -7.49500 19.84200 41.55000
H  -6.40600 19.05400 40.36000
H  -8.04100 16.04300 38.57800
H  -7.93400 14.66900 39.60400
H  -6.00300 14.24700 38.96300
H  -5.48900 15.73400 39.85000
H  -13.08000 21.49100 39.14300
H  -11.38800 21.06400 39.37700
H  -12.23000 22.18700 40.49400
H  -16.74500 19.79500 42.30700
H  -17.10500 19.39000 40.62400
H  -17.29900 21.05000 41.31100
H  -16.64500 14.96500 42.31100
H  -15.67300 14.83000 45.16200
H  -17.38300 17.43500 43.35900
H  -17.55900 16.37200 44.79700
H  -18.39600 16.03000 43.40400
H  -17.44900 13.42000 44.41600
H  -16.16100 12.57600 45.12700
H  -17.27400 11.92700 42.50700
H  -16.05000 11.16500 43.56000
H  -15.54300 12.25800 42.41100
H  -12.02900 10.14700 43.90700
H  -11.76900 10.90200 45.50800
H  -10.45500 10.21000 44.64400
H  -7.42500 13.06600 41.42300
H  -4.49300 15.14900 43.17400
H  -3.53200 13.79000 42.42400
H  -4.20600 13.68300 44.08700

