158

Mg 23.76900 -5.00700 45.78000
C  26.04500 -2.76500 44.24400
C  21.32300 -3.83800 43.69500
C  22.07400 -7.65100 46.73300
C  26.67500 -6.60600 47.43200
N  23.76000 -3.53000 44.04100
C  24.77400 -2.68000 43.70500
C  24.28900 -1.55700 42.81800
C  22.81000 -1.79500 42.68200
C  22.56800 -3.14400 43.51500
C  21.84800 -0.71600 43.18000
C  24.95900 -1.59200 41.39900
C  24.96400 -0.26900 40.66900
H  24.45000 -0.20200 39.17600
N  21.87800 -5.60200 45.36400
C  20.99100 -5.03700 44.51000
C  19.79000 -5.76200 44.51300
C  20.02200 -6.95400 45.34600
C  21.38700 -6.79900 45.84700
C  18.64800 -5.26200 43.67900
C  18.96000 -7.95800 45.57800
O  17.78700 -7.81500 45.24700
C  19.25900 -9.21100 46.38900
N  24.34800 -6.92000 46.91100
C  23.35600 -7.73700 47.30800
C  23.94700 -8.97300 47.91400
C  25.38400 -8.64300 48.18100
C  25.53600 -7.29400 47.49200
C  23.15900 -9.44100 49.16400
C  26.39300 -9.69500 47.71300
C  27.49200 -10.04500 48.72200
N  25.89000 -4.71300 45.91300
C  26.85500 -5.42800 46.62200
C  28.05900 -4.71800 46.38900
C  27.82300 -3.71500 45.50000
C  26.47600 -3.74400 45.24700
C  29.38400 -5.15400 46.95200
C  28.40400 -2.60700 44.68400
O  29.62100 -2.22200 44.61900
C  27.28000 -1.96100 43.88100
C  27.21700 -0.54600 44.21000
O  27.26600 -0.04200 45.32700
O  27.18900 0.22200 42.98900
C  27.32100 1.63500 43.16300
H  20.47700 -3.36600 43.19100
H  21.66900 -8.61700 47.04200
H  27.55500 -7.06700 47.88500
H  24.52300 -0.59100 43.26700
H  22.47400 -2.12100 41.69800
H  21.10300 -1.21300 43.80200
H  21.36900 -0.36200 42.26700
H  22.27200 0.14200 43.70100
H  24.41400 -2.29300 40.76700
H  25.96300 -2.00700 41.48400
H  26.02800 -0.05100 40.57900
H  24.59000 0.56900 41.25800
H  17.73900 -5.82900 43.87800
H  18.81900 -5.31300 42.60300
H  18.35100 -4.25200 43.96300
H  19.99600 -9.81900 45.86600
H  18.35500 -9.82000 46.38000
H  19.61100 -8.93700 47.38400
H  23.92600 -9.75200 47.15300
H  25.58900 -8.52600 49.24500
H  23.00200 -10.50500 48.98900
H  22.15100 -9.04400 49.28600
H  23.78600 -9.33300 50.05000
H  26.88400 -9.15900 46.90100
H  26.06100 -10.63300 47.26800
H  27.48600 -11.13200 48.81100
H  27.33400 -9.70500 49.74500
H  28.49800 -9.72300 48.45600
H  29.65000 -6.09600 46.47000
H  29.25900 -5.33800 48.01900
H  30.08700 -4.35700 46.70900
H  27.55900 -2.01800 42.82900
H  26.50900 2.28100 42.82800
H  28.17500 2.05700 42.63500
H  27.55700 1.96900 44.17300
Mg -1.87900 34.18500 27.31400
C  -3.58300 32.14900 29.75200
C  -0.62600 36.03100 30.08600
C  -0.61800 36.45600 25.24000
C  -3.55100 32.58300 24.81600
N  -2.12200 34.08300 29.62800
C  -2.88400 33.24900 30.36800
C  -2.86400 33.51100 31.83200
C  -2.03200 34.86600 31.84800
C  -1.52400 35.04700 30.48300
C  -2.95100 36.10800 32.32900
C  -2.16900 32.33300 32.55700
C  -2.95700 31.70700 33.79400
H  -2.23500 31.77400 35.15400
N  -0.67300 35.89300 27.64800
C  -0.17200 36.39500 28.83900
C  0.77800 37.46100 28.49900
C  0.72700 37.69800 27.09500
C  -0.23700 36.70500 26.60000
C  1.61700 38.18000 29.45400
C  1.32700 38.72700 26.25200
O  1.12200 38.91300 25.06400
C  2.35400 39.61700 26.87700
N  -2.06500 34.46500 25.31900
C  -1.51900 35.55300 24.71300
C  -1.93500 35.57900 23.22900
C  -2.53800 34.19200 23.07600
C  -2.77200 33.74400 24.48200
C  -2.97600 36.76400 22.91200
C  -1.70400 33.20000 22.15400
C  -0.94300 32.08400 22.88800
N  -3.23000 32.67600 27.22000
C  -3.75700 32.10000 26.07800
C  -4.71400 31.10300 26.50900
C  -4.59500 31.07800 27.88500
C  -3.68800 32.03400 28.26500
C  -5.59100 30.25400 25.60300
C  -5.09600 30.38500 29.05800
O  -5.88000 29.44200 29.13900
C  -4.48100 31.03900 30.30400
C  -5.67500 31.53000 31.08900
O  -6.54100 32.28400 30.74200
O  -5.62900 30.90300 32.30900
C  -6.79700 30.82000 33.20500
H  -0.17500 36.70900 30.81400
H  -0.27000 37.21000 24.53000
H  -4.07900 32.25200 23.91900
H  -3.88500 33.76600 32.11600
H  -1.23700 34.78700 32.59000
H  -2.45400 36.50300 33.21500
H  -3.97600 35.76400 32.46900
H  -2.92800 36.88600 31.56600
H  -1.17800 32.70400 32.81700
H  -2.03400 31.58100 31.77900
H  -3.28500 30.69000 33.57800
H  -3.90600 32.22600 33.92900
H  1.53900 37.71300 30.43600
H  1.18100 39.17900 29.44200
H  2.61100 38.04000 29.02800
H  1.95100 40.19800 27.70700
H  2.73500 40.33800 26.15400
H  3.20100 39.06700 27.28500
H  -1.08100 35.77000 22.57900
H  -3.54200 34.31900 22.67300
H  -3.90400 36.47800 22.41800
H  -2.48100 37.60800 22.43000
H  -3.33700 37.06000 23.89700
H  -0.96900 33.69600 21.52000
H  -2.36000 32.76800 21.39800
H  -0.43600 32.53000 23.74400
H  -0.17200 31.70400 22.21900
H  -1.65200 31.30500 23.17000
H  -6.49500 30.00900 26.16100
H  -5.11300 29.33800 25.25500
H  -5.90800 30.89600 24.78200
H  -3.85500 30.32100 30.83400
H  -6.92500 29.79000 33.53900
H  -7.72300 31.04900 32.67800
H  -6.61300 31.42200 34.09500

