158

Mg 17.60900 -1.32700 27.88900
C  16.53800 0.33600 30.74500
C  19.60700 -3.33700 29.82300
C  18.78500 -2.69800 25.11200
C  15.90500 0.98000 25.92700
N  18.10700 -1.34500 30.02900
C  17.44700 -0.67000 31.06000
C  17.88200 -1.15600 32.37700
C  19.08700 -2.01700 32.00900
C  18.90200 -2.37300 30.56500
C  20.50400 -1.33400 32.33300
C  16.79100 -1.88700 33.22400
C  16.66400 -1.34500 34.64000
H  17.98100 -1.24100 35.48200
N  18.87600 -2.86600 27.54400
C  19.56100 -3.63400 28.45600
C  20.18000 -4.78600 27.82400
C  19.94900 -4.67300 26.43000
C  19.15500 -3.37500 26.29400
C  20.99500 -5.80000 28.54500
C  20.30400 -5.53100 25.28600
O  20.08100 -5.30700 24.12700
C  20.93400 -6.94200 25.55700
N  17.36300 -0.89400 25.73900
C  18.01000 -1.54300 24.81000
C  17.81900 -1.03600 23.35200
C  16.87200 0.24700 23.64300
C  16.74000 0.15700 25.20200
C  19.13100 -0.63900 22.64900
C  15.51400 0.18200 22.89700
C  15.60600 0.54600 21.42400
N  16.42000 0.39600 28.21200
C  15.82400 1.26100 27.36100
C  15.15000 2.29700 28.13600
C  15.35700 1.98700 29.45700
C  16.18200 0.87200 29.45400
C  14.37700 3.49100 27.63900
C  15.05100 2.24100 30.76800
O  14.38700 3.15600 31.26500
C  15.83000 1.28000 31.68300
C  16.68600 2.10900 32.61400
O  17.81600 2.50400 32.35100
O  15.95800 2.50600 33.71000
C  16.35800 3.82100 34.20100
H  20.34100 -3.84800 30.45000
H  19.10600 -3.26100 24.23300
H  15.29100 1.67200 25.34800
H  18.21600 -0.35900 33.04200
H  19.12400 -3.00500 32.46900
H  21.15000 -1.06400 31.49800
H  21.12500 -2.06800 32.84700
H  20.48000 -0.40700 32.90600
H  16.97400 -2.95800 33.31600
H  15.81200 -1.87600 32.74600
H  15.97200 -1.97800 35.19600
H  16.24300 -0.34000 34.59400
H  20.72600 -6.80800 28.23000
H  20.80600 -5.74200 29.61700
H  22.08300 -5.75000 28.48500
H  21.74300 -6.61400 26.20900
H  21.25400 -7.33700 24.59300
H  20.22400 -7.62100 26.03100
H  17.16700 -1.67500 22.75600
H  17.19900 1.26500 23.43100
H  19.88700 -0.22200 23.31500
H  18.91700 0.02800 21.81400
H  19.47100 -1.53800 22.13400
H  14.85500 0.94300 23.31500
H  15.10600 -0.82300 23.00800
H  15.28200 -0.28900 20.80200
H  16.58800 0.87700 21.08700
H  14.92500 1.35300 21.15600
H  13.96000 3.96700 28.52600
H  13.52500 3.09900 27.08300
H  15.06100 4.06200 27.01100
H  15.03300 0.76200 32.21500
H  15.56700 4.25700 34.81200
H  16.46300 4.60200 33.44800
H  17.15500 3.70100 34.93400
Mg 47.42600 16.34100 28.70000
C  45.19800 16.18200 31.59600
C  49.55500 18.25300 30.63400
C  49.06900 17.02700 25.98100
C  44.74400 15.01400 26.82900
N  47.43500 16.98100 30.99400
C  46.39900 16.94500 31.88100
C  46.80600 17.55400 33.27000
C  48.14900 18.35800 32.88400
C  48.44600 17.84600 31.44900
C  47.98400 19.94000 32.99600
C  47.11400 16.45700 34.28500
C  46.65000 16.64800 35.70300
H  46.51300 18.12900 36.22800
N  49.26000 17.26500 28.42000
C  49.94300 18.02600 29.29200
C  51.16000 18.47100 28.67000
C  51.00800 18.09800 27.28500
C  49.75800 17.38500 27.18700
C  52.30400 19.16300 29.41200
C  51.95200 18.28400 26.04200
O  51.73700 17.81800 24.94800
C  53.24900 19.04400 26.30900
N  46.99900 15.95500 26.74200
C  47.82000 16.45300 25.77100
C  47.10700 16.41600 24.39500
C  45.94900 15.37800 24.67000
C  45.86800 15.44800 26.17800
C  46.49300 17.79500 23.92400
C  46.22600 13.86900 24.12100
C  45.00400 13.15400 23.55400
N  45.38600 15.57400 29.07900
C  44.44900 15.06600 28.23000
C  43.37900 14.48200 28.97800
C  43.61400 14.88100 30.29900
C  44.81800 15.65500 30.28300
C  42.37900 13.52500 28.40800
C  43.10100 14.76600 31.61800
O  42.10900 14.18100 32.09700
C  44.12100 15.65700 32.52800
C  43.32800 16.67600 33.38800
O  42.86100 17.71900 32.96500
O  43.34200 16.29000 34.67100
C  42.77700 17.37500 35.60400
H  50.24200 18.89400 31.19100
H  49.59100 17.32200 25.06900
H  44.04000 14.46300 26.20100
H  46.03000 18.21100 33.66400
H  48.99600 18.00700 33.47300
H  48.36700 20.28500 32.03600
H  48.53200 20.31500 33.86100
H  46.97100 20.27600 33.21900
H  48.15400 16.14200 34.18800
H  46.56500 15.64600 33.80600
H  47.12400 15.88400 36.31900
H  45.62000 16.29100 35.71000
H  52.22800 19.08200 30.49600
H  52.19100 20.22500 29.19200
H  53.23400 18.76600 29.00400
H  53.08200 19.89700 26.96700
H  53.51200 19.46800 25.34000
H  54.08400 18.39400 26.57000
H  47.82200 16.06100 23.65300
H  45.01000 15.72500 24.24100
H  46.85700 18.48800 24.68300
H  45.41100 17.77500 23.78800
H  47.03500 18.00700 23.00300
H  46.51700 13.23800 24.96100
H  47.00400 13.99400 23.36800
H  45.19100 12.10800 23.79800
H  45.04900 13.25800 22.47000
H  44.05800 13.47200 23.99100
H  42.72400 12.49300 28.33800
H  42.12100 13.94500 27.43600
H  41.46300 13.58800 28.99700
H  44.53100 14.91800 33.21600
H  41.70800 17.18200 35.69300
H  42.88400 18.36200 35.15300
H  43.31700 17.21900 36.53800

