158

Mg 0.67100 8.09300 26.30400
C  1.47900 10.02300 29.13300
C  0.73200 5.29000 28.16100
C  0.49900 6.27300 23.42000
C  1.23900 10.93100 24.41100
N  1.15900 7.73800 28.38500
C  1.30800 8.63800 29.37700
C  1.17600 7.97300 30.73700
C  1.23000 6.46600 30.36300
C  1.05400 6.47100 28.83800
C  2.59600 5.73800 30.76700
C  -0.07100 8.40700 31.50600
C  -0.00300 8.61300 33.04000
H  1.22700 8.05200 33.80800
N  0.45700 6.10900 25.88100
C  0.52800 5.14100 26.78900
C  0.28300 3.89100 26.13000
C  0.17300 4.11400 24.74300
C  0.37900 5.57900 24.62300
C  0.19300 2.55700 26.92800
C  -0.17500 3.07500 23.62300
O  -0.31700 3.45100 22.47500
C  -0.38400 1.58000 23.96800
N  0.90500 8.53500 24.14900
C  0.63100 7.61400 23.18400
C  0.64500 8.38900 21.78100
C  1.07400 9.80300 22.12600
C  1.07900 9.77700 23.65100
C  1.50300 7.70800 20.63400
C  0.24400 10.95900 21.44200
C  -1.15000 11.20200 22.19300
N  1.06400 10.15200 26.70000
C  1.15500 11.16700 25.84000
C  1.31900 12.42900 26.50000
C  1.37500 12.05800 27.85800
C  1.29800 10.66200 27.90200
C  1.48500 13.80300 25.92100
C  1.66800 12.48300 29.21200
O  1.92100 13.61800 29.67100
C  1.51100 11.16200 30.13800
C  2.72300 11.08500 30.99100
O  3.81800 10.77200 30.66300
O  2.36000 11.53600 32.20900
C  3.46600 11.68200 33.27900
H  0.63800 4.38000 28.75800
H  0.52500 5.63900 22.53100
H  1.50300 11.86700 23.91400
H  2.06000 8.26700 31.30300
H  0.36700 5.91700 30.74000
H  3.01800 5.18800 29.92600
H  2.32800 5.00000 31.52300
H  3.26400 6.45100 31.25100
H  -0.81500 7.61800 31.39700
H  -0.46300 9.32300 31.06300
H  -0.84400 8.36400 33.68700
H  0.12600 9.69400 33.09300
H  0.42600 1.67900 26.32600
H  -0.82000 2.26400 27.20300
H  0.92600 2.52100 27.73500
H  -0.76400 1.13700 23.04800
H  -1.16900 1.63600 24.72100
H  0.56100 1.13900 24.28700
H  -0.33900 8.28900 21.32300
H  2.02100 10.03600 21.63900
H  1.87200 6.72800 20.93600
H  2.25000 8.39700 20.23900
H  0.88900 7.52600 19.75300
H  0.11000 10.63100 20.41100
H  0.85800 11.85000 21.31100
H  -1.89700 11.53400 21.47200
H  -1.02600 12.08100 22.82500
H  -1.44400 10.35400 22.81100
H  1.44200 14.58400 26.68000
H  0.71500 14.05200 25.19100
H  2.43800 13.75000 25.39400
H  0.69700 11.24800 30.85800
H  3.16500 11.20900 34.21400
H  3.36500 12.75200 33.46000
H  4.46300 11.32500 33.02000
Mg -11.66300 38.29800 42.26000
C  -9.43600 35.76800 41.18700
C  -9.74300 40.47800 40.76300
C  -14.30500 40.28300 42.41100
C  -13.69100 35.64500 43.73100
N  -9.90500 38.05000 40.91300
C  -9.14100 36.99800 40.64000
C  -7.93200 37.34100 39.72200
C  -7.90000 38.91000 39.88400
C  -9.24100 39.21700 40.59300
C  -6.69900 39.36100 40.78200
C  -8.11400 36.73100 38.24200
C  -6.96700 35.76300 37.76300
H  -5.88600 36.37000 36.76100
N  -11.96500 40.19300 41.72600
C  -10.96500 40.94500 41.24000
C  -11.47900 42.28400 40.97600
C  -12.88900 42.27800 41.27700
C  -13.15300 40.86100 41.81500
C  -10.66100 43.42300 40.53700
C  -13.82800 43.37200 41.13100
O  -13.44900 44.46600 40.77300
C  -15.26500 43.28600 41.50600
N  -13.86100 37.93700 42.84300
C  -14.66200 38.99300 42.85700
C  -16.02000 38.63200 43.62600
C  -15.83500 37.15700 44.02200
C  -14.39500 36.88500 43.57100
C  -16.37200 39.59200 44.84200
C  -16.91500 36.12900 43.54800
C  -17.22600 34.94200 44.48300
N  -11.62900 36.13300 42.42200
C  -12.39300 35.26400 43.19700
C  -11.77300 33.95200 43.19100
C  -10.60500 34.13900 42.37400
C  -10.55700 35.41300 41.97300
C  -12.16500 32.61600 43.95400
C  -9.45100 33.45600 41.83700
O  -9.09300 32.26300 42.06100
C  -8.65700 34.47400 40.98400
C  -7.25500 34.58800 41.50300
O  -6.80000 35.47800 42.19000
O  -6.56400 33.46700 40.98800
C  -5.12000 33.73900 40.98600
H  -9.07300 41.19400 40.28300
H  -15.12600 40.98800 42.55500
H  -14.27000 34.93100 44.31900
H  -7.03600 36.94200 40.19700
H  -7.83100 39.44500 38.93700
H  -6.29300 40.35400 40.59400
H  -5.85800 38.68200 40.64000
H  -7.03100 39.25500 41.81500
H  -8.03300 37.62000 37.61800
H  -9.09000 36.24700 38.20000
H  -7.36500 34.84700 37.32600
H  -6.42300 35.45900 38.65700
H  -9.61000 43.15600 40.42500
H  -10.81900 44.28000 41.19200
H  -11.00100 43.75500 39.55600
H  -15.73800 42.37500 41.14000
H  -15.80100 44.11600 41.04500
H  -15.34300 43.42100 42.58500
H  -16.79700 38.77600 42.87500
H  -15.76800 37.05100 45.10500
H  -15.39700 39.96400 45.15400
H  -16.91700 38.96000 45.54400
H  -17.03200 40.38900 44.50000
H  -16.53600 35.61700 42.66400
H  -17.85700 36.65800 43.40400
H  -17.02800 34.07200 43.85900
H  -18.26500 34.96800 44.81100
H  -16.66100 34.90700 45.41500
H  -12.93600 32.94000 44.65300
H  -11.30100 32.26800 44.52000
H  -12.53400 31.87900 43.24000
H  -8.67900 34.19800 39.93000
H  -4.80400 34.10200 40.00700
H  -4.59400 32.82000 41.24600
H  -4.86000 34.52900 41.69000

