158

Mg 7.34700 2.44500 28.31100
C  8.88100 0.95100 31.01200
C  5.32600 4.26800 30.40000
C  5.62800 3.66200 25.53500
C  9.17300 0.33800 26.11300
N  7.18500 2.59500 30.42200
C  7.89000 1.90700 31.35500
C  7.62600 2.51000 32.78200
C  6.28900 3.35200 32.53300
C  6.23900 3.40700 31.01000
C  4.92900 2.74800 33.16100
C  8.91900 3.20500 33.34200
C  8.82600 4.33200 34.42600
H  9.52100 4.15600 35.82400
N  5.68500 3.76300 27.99600
C  5.13700 4.51900 29.00300
C  4.26600 5.51300 28.38600
C  4.30500 5.37900 26.96000
C  5.21900 4.22600 26.77600
C  3.44200 6.48700 29.20400
C  3.64200 6.13700 25.89000
O  3.74100 5.94100 24.73500
C  2.79000 7.34000 26.25500
N  7.41000 2.03500 26.15800
C  6.65100 2.71700 25.29600
C  6.96400 2.28700 23.86800
C  8.25500 1.38300 24.00800
C  8.26900 1.22900 25.52700
C  5.70100 1.73500 23.29500
C  9.50700 2.11100 23.46900
C  10.63300 1.28100 22.78100
N  8.73600 0.85800 28.46100
C  9.38200 0.11900 27.51800
C  10.25600 -0.85000 28.14700
C  10.19800 -0.48200 29.53800
C  9.17400 0.53200 29.68600
C  11.20300 -1.88500 27.44000
C  10.70100 -0.65200 30.93500
O  11.60500 -1.36700 31.35700
C  9.86800 0.25900 31.90400
C  9.25900 -0.52000 33.05000
O  8.61900 -1.55200 32.99200
O  9.78900 0.09000 34.19100
C  9.54800 -0.70600 35.42700
H  4.85600 4.94500 31.11600
H  5.32800 4.16400 24.61300
H  9.68700 -0.29400 25.38600
H  7.44200 1.58900 33.33300
H  6.32600 4.36200 32.94400
H  5.00400 1.77800 33.65400
H  4.14700 2.75800 32.40200
H  4.53400 3.46600 33.87900
H  9.44300 3.38700 32.40300
H  9.56700 2.43600 33.76200
H  7.78600 4.56700 34.65400
H  9.07300 5.22400 33.84900
H  2.39900 6.18500 29.10300
H  3.61700 7.50700 28.86100
H  3.63800 6.36400 30.26900
H  2.07200 7.06700 27.02900
H  2.33600 7.75900 25.35700
H  3.33000 8.18200 26.68800
H  7.06000 3.19600 23.27500
H  8.04500 0.36700 23.67200
H  4.82600 1.87500 23.93000
H  5.80700 0.68000 23.04500
H  5.43700 2.30200 22.40300
H  10.07400 2.65700 24.22400
H  9.18800 2.79400 22.68200
H  10.89900 1.82100 21.87300
H  10.27100 0.29300 22.49700
H  11.62600 1.22300 23.22800
H  12.21300 -1.51800 27.25800
H  10.69600 -2.42500 26.64000
H  11.32900 -2.60700 28.24600
H  10.52400 1.03600 32.29800
H  10.49400 -1.05700 35.84000
H  8.87600 -1.56000 35.34500
H  9.06800 0.03500 36.06600
Mg -11.40500 38.79200 41.19200
C  -9.23600 36.20000 40.37100
C  -9.51200 41.00500 39.44100
C  -13.81600 41.15800 41.67500
C  -13.65500 36.25600 42.53100
N  -9.58400 38.61800 40.03700
C  -8.91700 37.43500 39.74800
C  -7.62700 37.67700 38.82200
C  -7.81500 39.23700 38.51400
C  -8.95300 39.68000 39.38900
C  -6.58100 40.01600 38.79700
C  -7.66500 36.69600 37.67100
C  -6.39600 35.80500 37.64000
H  -5.29500 36.21000 36.62500
N  -11.56500 40.79800 40.72300
C  -10.57900 41.57400 40.12000
C  -11.01300 42.97300 40.07800
C  -12.35000 42.96100 40.52900
C  -12.60500 41.60000 41.07300
C  -10.14000 44.07300 39.42900
C  -13.19300 44.22400 40.55100
O  -12.74700 45.29800 40.17000
C  -14.53400 44.23900 41.19500
N  -13.57700 38.64200 41.72700
C  -14.26600 39.77800 41.94500
C  -15.70400 39.47600 42.61400
C  -15.62900 37.97300 42.89300
C  -14.15500 37.55700 42.38000
C  -15.92100 40.33700 43.87000
C  -16.72900 37.07600 42.22900
C  -16.66800 36.96900 40.73600
N  -11.44700 36.69400 41.52600
C  -12.36000 35.86500 42.11200
C  -11.78500 34.57300 42.28100
C  -10.60800 34.57200 41.50700
C  -10.44400 35.96800 41.10000
C  -12.37500 33.34100 43.02000
C  -9.50600 33.81700 41.05100
O  -9.26900 32.59200 41.26500
C  -8.50000 34.85800 40.29900
C  -7.29800 34.73800 41.09700
O  -6.63000 33.66800 41.25700
O  -7.00500 35.96600 41.64200
C  -5.83400 35.97000 42.53600
H  -8.98300 41.68400 38.76900
H  -14.62500 41.85500 41.90200
H  -14.33100 35.63600 43.12500
H  -6.72900 37.49900 39.41300
H  -8.19500 39.50500 37.52800
H  -5.95600 39.92700 37.90800
H  -5.99700 39.68900 39.65800
H  -6.81100 41.06400 38.99400
H  -7.62500 37.32600 36.78200
H  -8.58800 36.11900 37.62000
H  -6.66800 34.79200 37.34200
H  -5.87800 35.78600 38.59900
H  -10.51400 44.32500 38.43700
H  -9.08800 43.80100 39.52000
H  -10.44500 44.89500 40.07700
H  -15.17300 43.43500 40.82900
H  -15.05500 45.16500 40.95000
H  -14.40400 44.27800 42.27600
H  -16.59700 39.73300 42.04300
H  -15.71300 37.89500 43.97700
H  -15.01000 40.36700 44.46700
H  -16.78500 39.92700 44.39300
H  -16.25500 41.32300 43.54700
H  -17.70200 37.52100 42.43500
H  -16.62100 36.08700 42.67500
H  -17.40300 37.54100 40.17100
H  -16.59200 35.92600 40.42900
H  -15.75600 37.45300 40.38800
H  -13.36700 33.16400 42.60400
H  -12.34900 33.46800 44.10200
H  -11.84000 32.44700 42.69900
H  -8.24500 34.56800 39.27900
H  -4.96400 35.52200 42.05800
H  -6.07400 35.47100 43.47600
H  -5.47300 36.94100 42.87600

