158

Mg 41.61200 8.47600 29.79900
C  43.54600 9.47600 32.50400
C  39.24500 7.34800 32.12800
C  39.90300 7.17500 27.25000
C  44.26700 9.18200 27.66600
N  41.55000 8.29500 32.04300
C  42.36600 8.90600 32.95000
C  41.86000 8.86500 34.38800
C  40.51500 8.01100 34.22100
C  40.40200 7.84100 32.69900
C  40.61500 6.65500 34.99100
C  41.57000 10.34100 34.87600
C  40.67700 10.49700 36.10700
H  41.19000 11.30200 37.27400
N  39.82000 7.41100 29.69700
C  38.95300 7.09300 30.76600
C  37.77100 6.48500 30.21000
C  37.84200 6.61300 28.74000
C  39.23900 7.05700 28.51300
C  36.55200 5.85100 31.07200
C  36.71200 6.42400 27.73000
O  36.98900 6.41100 26.46400
C  35.31500 6.27500 28.23100
N  42.06500 8.04400 27.75300
C  41.12900 7.57200 26.92300
C  41.51800 7.64400 25.48400
C  42.95600 8.35000 25.55100
C  43.11600 8.60800 27.07100
C  41.59900 6.20500 24.78900
C  42.98700 9.65700 24.73400
C  42.19400 10.92500 25.16000
N  43.53500 9.16800 29.99000
C  44.45500 9.50400 29.03000
C  45.63500 10.01300 29.65300
C  45.30000 10.11000 30.99800
C  44.02500 9.54600 31.12900
C  46.88700 10.34800 29.04200
C  45.78500 10.49500 32.30900
O  46.85900 11.00600 32.62300
C  44.59400 10.21400 33.31200
C  45.15200 9.41100 34.40700
O  45.79500 8.35300 34.26300
O  45.06100 10.05400 35.61200
C  45.67800 9.42000 36.75400
H  38.47900 7.14300 32.87800
H  39.34600 7.01800 26.32400
H  45.13500 9.44800 27.05900
H  42.58500 8.35300 35.02100
H  39.68700 8.61600 34.59200
H  40.72000 5.80100 34.32100
H  39.78700 6.51900 35.68600
H  41.46800 6.54600 35.66100
H  41.37900 10.92500 33.97500
H  42.48800 10.67700 35.35600
H  40.47700 9.49100 36.47400
H  39.76000 11.00200 35.80400
H  36.78900 5.94000 32.13200
H  36.30400 4.82000 30.81900
H  35.65500 6.42500 30.84100
H  34.67800 6.13900 27.35700
H  34.91700 7.06600 28.86700
H  35.41400 5.35200 28.80200
H  40.88500 8.31900 24.90800
H  43.76800 7.72300 25.18300
H  41.47100 5.33900 25.43900
H  42.47300 6.05400 24.15600
H  40.81100 6.21900 24.03600
H  42.55000 9.53200 23.74300
H  44.01400 9.89100 24.45400
H  41.40400 11.17700 24.45300
H  42.88200 11.76900 25.14900
H  41.74100 10.80500 26.14500
H  46.75800 10.97200 28.15800
H  47.44000 9.48800 28.66300
H  47.44500 10.88800 29.80700
H  44.25400 11.16100 33.73000
H  46.41900 10.09900 37.17700
H  46.31700 8.56900 36.51900
H  44.91400 9.12200 37.47100
Mg -10.33000 17.45200 41.58700
C  -6.75800 17.43100 41.63800
C  -9.94700 20.84500 40.83900
C  -13.50000 17.43000 40.61500
C  -10.25300 13.99600 41.80200
N  -8.55200 18.83700 41.18700
C  -7.23700 18.60900 41.17200
C  -6.37900 19.79900 40.80500
C  -7.47000 20.89800 41.04500
C  -8.77500 20.12200 41.08600
C  -7.25900 21.80700 42.29200
C  -5.92900 19.54000 39.33500
C  -4.48800 19.05600 39.04900
H  -4.33800 17.57000 38.60300
N  -11.56000 18.92600 40.81800
C  -11.21300 20.23400 40.68000
C  -12.44300 21.00300 40.39400
C  -13.45300 20.06000 40.14100
C  -12.87600 18.70500 40.49300
C  -12.50600 22.54900 40.16200
C  -14.82000 20.43400 39.65000
O  -15.10900 21.59400 39.36300
C  -15.88600 19.39000 39.63400
N  -11.73200 15.91200 41.21600
C  -12.97400 16.19800 40.83000
C  -13.70300 14.85700 40.53700
C  -12.72000 13.74700 41.03500
C  -11.49200 14.57600 41.37100
C  -15.16600 14.81400 41.02300
C  -12.48700 12.55100 40.06700
C  -13.26000 11.28300 40.34200
N  -8.88800 16.00100 41.93300
C  -9.03200 14.64900 42.04900
C  -7.78500 14.06000 42.29600
C  -6.85200 15.16800 42.27200
C  -7.58700 16.29200 41.95100
C  -7.43000 12.66200 42.49400
C  -5.48600 15.49100 42.40500
O  -4.49400 14.73000 42.55100
C  -5.37400 17.00100 42.09200
C  -4.92900 17.79000 43.29600
O  -5.63100 18.47200 44.07800
O  -3.54300 17.84000 43.30200
C  -2.94700 18.58700 44.43000
H  -9.86000 21.91800 40.65700
H  -14.53100 17.58900 40.29000
H  -10.14700 12.91200 41.87700
H  -5.56300 19.90700 41.51900
H  -7.47000 21.54900 40.17100
H  -8.13400 21.94000 42.92800
H  -6.94700 22.79700 41.96200
H  -6.45500 21.42600 42.92200
H  -6.15100 20.45000 38.77700
H  -6.62600 18.79200 38.95800
H  -3.94000 19.24900 39.97200
H  -4.07800 19.74900 38.31400
H  -13.50600 22.93100 40.36600
H  -12.40200 22.72900 39.09200
H  -11.81400 23.19200 40.70600
H  -16.75100 19.90500 39.21700
H  -16.00000 18.88800 40.59500
H  -15.57000 18.62300 38.92700
H  -13.71400 14.83900 39.44800
H  -13.08400 13.32600 41.97200
H  -15.71900 14.58300 40.11300
H  -15.55000 15.74100 41.44900
H  -15.23600 13.99200 41.73600
H  -11.42900 12.30200 40.14400
H  -12.65700 13.00000 39.08800
H  -12.81900 11.00900 41.30000
H  -13.02900 10.56800 39.55200
H  -14.33100 11.46900 40.42400
H  -7.01600 12.28300 41.56000
H  -8.28900 12.04800 42.76400
H  -6.74000 12.47200 43.31600
H  -4.66200 17.19700 41.29000
H  -1.86100 18.58000 44.33700
H  -3.25700 18.15100 45.37900
H  -3.21900 19.63100 44.27400

