158

Mg 44.57600 5.53200 48.44400
C  42.80100 8.51800 47.85900
C  41.69000 3.77000 47.45400
C  46.32900 2.62500 48.44600
C  47.43900 7.34600 48.46700
N  42.49500 6.10600 47.79800
C  42.00200 7.39500 47.55700
C  40.58800 7.38300 47.01100
C  40.17800 5.83400 47.14800
C  41.51200 5.17800 47.52200
C  39.06400 5.47100 48.17100
C  40.50800 8.07800 45.61500
C  39.03200 8.40200 45.21700
H  38.48400 7.86300 43.94900
N  44.04800 3.43500 48.09300
C  42.87700 2.94500 47.67000
C  42.96400 1.44500 47.71200
C  44.30900 1.15000 48.11700
C  44.98500 2.42600 48.34300
C  41.84600 0.53400 47.23600
C  44.80500 -0.24100 48.28900
O  44.17600 -1.25000 47.91100
C  46.19800 -0.51700 48.76800
N  46.53000 5.05300 48.69600
C  46.99500 3.79900 48.59500
C  48.54800 3.78900 48.39800
C  48.93000 5.30300 48.65000
C  47.57400 5.95200 48.58100
C  49.31900 2.76300 49.31600
C  49.88200 5.82300 47.50100
C  51.34300 6.07500 47.90400
N  45.09900 7.59700 48.43200
C  46.31400 8.19900 48.43000
C  46.16000 9.62800 48.34500
C  44.73700 9.83100 48.16100
C  44.19100 8.55300 48.12300
C  47.15800 10.66900 48.43400
C  43.64400 10.78100 48.03900
O  43.67300 12.01800 48.18000
C  42.38700 9.95100 47.91600
C  41.30400 10.24700 48.88500
O  41.17300 9.73400 50.02500
O  40.40000 11.11200 48.27900
C  39.20500 11.39300 48.97100
H  40.80700 3.15600 47.26900
H  46.93200 1.73000 48.28000
H  48.33000 7.97600 48.51500
H  39.94600 7.95100 47.68300
H  39.88100 5.35000 46.21800
H  38.25600 4.92000 47.69000
H  38.61400 6.40600 48.50800
H  39.30100 5.01300 49.13100
H  41.20100 7.58700 44.93100
H  40.95200 9.06900 45.52300
H  38.88100 9.48200 45.21600
H  38.42700 7.92900 45.99100
H  40.89800 1.07000 47.27300
H  41.69100 -0.35000 47.85500
H  42.07100 0.19200 46.22600
H  46.44700 -1.53500 49.06800
H  46.40000 0.10200 49.64200
H  46.81000 -0.35000 47.88200
H  48.56800 3.38300 47.38700
H  49.38200 5.45500 49.63100
H  48.66300 1.95600 49.64200
H  49.71400 3.26400 50.20000
H  50.15300 2.29300 48.79600
H  49.48700 6.68800 46.96700
H  49.86000 5.08800 46.69700
H  51.93100 5.18800 47.67000
H  51.54100 6.17000 48.97200
H  51.72300 6.95000 47.37700
H  47.86500 10.61700 47.60700
H  47.60000 10.72800 49.42900
H  46.69700 11.64200 48.26700
H  42.10800 10.29300 46.91900
H  38.48700 11.91900 48.34100
H  39.47300 12.12900 49.73000
H  38.79300 10.49200 49.42700
Mg 17.42000 51.40600 26.02300
C  19.32400 49.55700 28.16100
C  15.11200 51.98400 28.49400
C  15.33900 52.81400 23.62400
C  19.48600 50.39200 23.32500
N  17.25300 50.77600 28.11800
C  18.22300 50.12300 28.80500
C  18.08300 50.36500 30.28000
C  16.56300 50.77600 30.37700
C  16.30100 51.23700 28.94300
C  15.57300 49.63800 30.83500
C  19.10700 51.33900 30.93900
C  19.44700 51.28200 32.44200
H  18.48900 50.53000 33.34500
N  15.39800 52.22200 26.05900
C  14.70800 52.49500 27.22200
C  13.44800 53.08800 26.83000
C  13.50500 53.30700 25.37700
C  14.82700 52.72400 24.96900
C  12.39000 53.47100 27.85500
C  12.48000 53.90600 24.41100
O  12.62100 54.11100 23.21100
C  11.13500 54.35400 24.92500
N  17.43400 51.57800 23.83000
C  16.50800 52.29900 23.07100
C  16.82300 52.45300 21.62300
C  18.12200 51.62600 21.40500
C  18.41000 51.20300 22.94800
C  15.63300 51.92500 20.69500
C  19.24600 52.42500 20.67600
C  20.42100 51.61700 20.14900
N  19.11400 50.36000 25.79000
C  19.74800 49.89500 24.64900
C  20.86100 49.06100 24.98400
C  20.78700 48.93500 26.43600
C  19.66100 49.64200 26.82800
C  21.86000 48.53200 24.00400
C  21.40500 48.39300 27.61000
O  22.33400 47.61700 27.62000
C  20.60600 48.88900 28.82000
C  20.23700 47.71500 29.66100
O  19.47700 46.85000 29.42400
O  20.76800 47.92200 30.91100
C  20.35200 46.94700 31.99800
H  14.46700 52.22300 29.34300
H  14.76600 53.34500 22.86100
H  20.15200 50.10200 22.50900
H  18.18700 49.38900 30.75300
H  16.44200 51.59000 31.09200
H  15.33700 49.58700 31.89800
H  16.02600 48.67300 30.60700
H  14.66500 49.64600 30.23300
H  18.90500 52.34400 30.57000
H  20.07600 51.08300 30.51000
H  19.60200 52.26500 32.88600
H  20.44500 50.87700 32.61100
H  11.31000 53.37300 27.74800
H  12.55100 54.54100 27.98900
H  12.59600 53.03700 28.83300
H  11.23600 55.22200 25.57700
H  10.54900 53.51100 25.28900
H  10.55100 54.64900 24.05300
H  17.09300 53.50000 21.48800
H  17.99000 50.66600 20.90500
H  15.20900 51.06800 21.22000
H  16.08500 51.66400 19.73900
H  14.86200 52.64600 20.42300
H  19.63700 53.10400 21.43400
H  18.78900 52.99700 19.86800
H  21.40100 51.86000 20.55700
H  20.40500 51.66800 19.06000
H  20.38900 50.54700 20.35400
H  21.28400 48.08600 23.19400
H  22.48100 47.88400 24.62300
H  22.46200 49.36000 23.62900
H  21.19400 49.62200 29.37300
H  19.29300 46.71100 31.90200
H  20.34800 47.59600 32.87400
H  21.11600 46.18100 32.12900

