158

Mg 2.51900 -1.96500 44.54900
C  5.62100 -1.04100 43.35800
C  1.04300 0.27700 42.32700
C  -0.37000 -3.34800 45.20000
C  4.18000 -4.59400 46.38500
N  3.24500 -0.66200 42.84300
C  4.57300 -0.32800 42.71400
C  4.76400 0.78700 41.70900
C  3.29200 1.34300 41.56800
C  2.44100 0.31100 42.28400
C  3.04100 2.72300 42.12700
C  5.43200 0.28200 40.42600
C  6.76700 0.90900 40.01000
H  6.75000 1.80600 38.74800
N  0.54700 -1.50100 43.91000
C  0.18100 -0.58300 43.05000
C  -1.27500 -0.54000 43.02200
C  -1.71500 -1.58100 43.85800
C  -0.48000 -2.21100 44.39600
C  -2.05100 0.37300 42.19800
C  -3.09600 -1.89100 44.24900
O  -4.04800 -1.27300 43.77300
C  -3.50200 -2.94500 45.24800
N  2.02900 -3.74300 45.67900
C  0.70700 -4.05700 45.74200
C  0.49200 -5.37200 46.50800
C  1.98900 -5.85300 46.84400
C  2.80700 -4.67700 46.28700
C  -0.41600 -5.22100 47.79500
C  2.31700 -7.27400 46.23000
C  2.05600 -8.54500 47.01600
N  4.47900 -2.62500 44.93200
C  4.97100 -3.70200 45.65900
C  6.45900 -3.63000 45.60100
C  6.74700 -2.57200 44.76400
C  5.48700 -2.06500 44.32200
C  7.37700 -4.68300 46.23300
C  7.77000 -1.76800 44.15900
O  9.02900 -1.80800 44.27900
C  7.00100 -0.68000 43.34500
C  7.40700 0.64700 43.91500
O  6.72900 1.32000 44.66200
O  8.60500 1.03700 43.36100
C  9.10700 2.22300 44.04000
H  0.54300 1.09700 41.80600
H  -1.31400 -3.88100 45.33100
H  4.67900 -5.30500 47.04700
H  5.39600 1.59100 42.08700
H  2.87100 1.46900 40.57000
H  3.89300 3.32500 41.81200
H  3.02800 2.66500 43.21500
H  2.11100 3.05700 41.66600
H  4.82400 0.80200 39.68600
H  5.26800 -0.79500 40.39600
H  7.42400 0.04000 39.97200
H  7.11100 1.59700 40.78300
H  -1.59400 1.35600 42.08400
H  -3.00800 0.61700 42.65900
H  -2.34300 -0.07300 41.24800
H  -2.92900 -2.65000 46.12700
H  -3.35400 -3.98500 44.96100
H  -4.56000 -2.86200 45.49900
H  -0.02400 -5.96600 45.75400
H  2.08400 -6.04000 47.91300
H  -0.72300 -4.18700 47.95600
H  0.10700 -5.44400 48.72600
H  -1.23500 -5.93400 47.88600
H  3.32000 -7.29000 45.80300
H  1.56600 -7.30800 45.44100
H  1.50300 -8.15000 47.86800
H  2.96200 -9.07700 47.30700
H  1.46400 -9.24300 46.42500
H  6.98600 -4.90000 47.22700
H  8.36100 -4.22300 46.14100
H  7.29500 -5.61400 45.67200
H  7.40600 -0.75300 42.33600
H  9.22600 2.08000 45.11400
H  8.58100 3.13500 43.76100
H  10.11600 2.27800 43.63000
Mg 17.50300 -2.40600 27.89000
C  16.33300 -0.31600 30.45900
C  19.38100 -4.17300 30.11200
C  18.95300 -3.97600 25.16900
C  16.12000 -0.15900 25.64900
N  17.80100 -2.26000 30.06200
C  17.15900 -1.36000 30.91100
C  17.56500 -1.67000 32.33300
C  18.61500 -2.83500 32.22100
C  18.60900 -3.14500 30.70700
C  19.99800 -2.38300 32.72500
C  16.27300 -2.05100 33.13100
C  16.09400 -1.35500 34.52300
H  17.31700 -0.91700 35.30800
N  18.80100 -3.98600 27.68700
C  19.52000 -4.56100 28.74400
C  20.42100 -5.53100 28.25400
C  20.26300 -5.53300 26.80000
C  19.30700 -4.45600 26.49100
C  21.42400 -6.29600 29.19700
C  20.86600 -6.42000 25.75100
O  20.56900 -6.31500 24.57200
C  21.99200 -7.44000 26.14100
N  17.53200 -2.17800 25.69800
C  18.15000 -2.92500 24.81500
C  17.99100 -2.45900 23.33100
C  17.06500 -1.33800 23.59100
C  16.83200 -1.22600 25.09100
C  19.37000 -2.04300 22.61300
C  15.81700 -1.25300 22.68900
C  14.49200 -1.91300 23.16400
N  16.40400 -0.64600 28.01000
C  15.82400 0.05700 27.00700
C  14.85900 0.95500 27.53300
C  15.11100 0.91500 28.92500
C  16.03900 -0.08200 29.11800
C  13.94200 1.88500 26.85400
C  14.79300 1.58300 30.25400
O  14.14900 2.64200 30.46400
C  15.50500 0.74600 31.26100
C  16.40800 1.67800 31.99900
O  17.53800 2.06400 31.60800
O  15.74500 2.13900 33.10200
C  16.56100 3.06400 33.86000
H  20.03800 -4.70000 30.80700
H  19.34800 -4.32400 24.21200
H  15.56400 0.53100 25.01100
H  17.99600 -0.70800 32.60900
H  18.26600 -3.62500 32.88600
H  20.55700 -2.01000 31.86700
H  20.47200 -3.24700 33.19100
H  19.79400 -1.55000 33.39700
H  16.11600 -3.12700 33.21100
H  15.40900 -1.75200 32.53800
H  15.50300 -1.99000 35.18200
H  15.40000 -0.52700 34.37600
H  22.27600 -6.79700 28.73600
H  20.81200 -6.95600 29.81100
H  21.78000 -5.39800 29.70200
H  22.84400 -6.95400 26.61500
H  22.17100 -8.04000 25.24800
H  21.48900 -7.91700 26.98200
H  17.52100 -3.23800 22.73000
H  17.64600 -0.44500 23.35700
H  20.26900 -2.28100 23.18300
H  19.45700 -0.97800 22.39700
H  19.56600 -2.61500 21.70600
H  16.17100 -1.75100 21.78700
H  15.50200 -0.29000 22.28700
H  13.61200 -1.27100 23.19400
H  14.54000 -2.50000 24.08200
H  14.10200 -2.56500 22.38300
H  13.36200 2.17200 27.73100
H  13.29300 1.28200 26.21900
H  14.48500 2.75000 26.47500
H  14.75900 0.36900 31.96000
H  16.16800 3.35200 34.83500
H  16.61100 3.99200 33.29100
H  17.64300 2.92700 33.88300

