158

Mg 9.26200 4.20700 27.67600
C  10.66300 2.69100 30.64700
C  7.74000 6.51700 29.77600
C  7.93200 5.42600 24.94400
C  10.90800 1.72700 25.81000
N  9.25600 4.53300 29.92600
C  9.92500 3.85600 30.86800
C  9.61700 4.46300 32.24400
C  8.73200 5.62800 31.99000
C  8.54800 5.56100 30.46100
C  7.37400 5.79500 32.73000
C  10.83200 4.94500 33.21600
C  10.79700 4.35900 34.65900
H  11.41000 5.17800 35.85300
N  7.98500 5.74600 27.36700
C  7.45400 6.60700 28.35800
C  6.62500 7.58200 27.71800
C  6.70500 7.25100 26.32000
C  7.61000 6.13300 26.12100
C  5.84300 8.63600 28.50200
C  5.87800 7.95000 25.22000
O  5.90300 7.63100 24.04300
C  4.94000 8.96900 25.62200
N  9.42300 3.59600 25.70700
C  8.74800 4.31800 24.73200
C  9.03500 3.82200 23.34600
C  10.18400 2.81300 23.62800
C  10.12600 2.66300 25.14700
C  7.85100 3.02700 22.69700
C  11.58700 3.47100 23.37700
C  12.10100 3.20700 21.92700
N  10.35900 2.44600 28.15600
C  10.99900 1.65400 27.25800
C  11.71500 0.62100 28.01100
C  11.64900 1.04000 29.37500
C  10.83500 2.16400 29.36500
C  12.47600 -0.58500 27.40500
C  12.03700 0.71000 30.68700
O  12.57900 -0.27400 31.14000
C  11.45000 1.80000 31.59900
C  10.74200 1.17700 32.69100
O  9.52300 0.94500 32.58500
O  11.46100 0.99200 33.83400
C  10.71400 0.38900 34.94700
H  7.22700 7.20200 30.45500
H  7.60800 5.91800 24.02400
H  11.47000 0.98400 25.23900
H  9.11100 3.74400 32.88800
H  9.39900 6.48300 32.10400
H  7.21100 5.01100 33.47000
H  6.51900 5.93700 32.06900
H  7.42100 6.67500 33.37100
H  10.82400 6.02700 33.34800
H  11.72300 4.52800 32.74800
H  11.36800 3.43100 34.66700
H  9.80500 4.12200 35.04500
H  6.02700 9.60600 28.04100
H  6.25700 8.74800 29.50400
H  4.77600 8.42600 28.42500
H  5.48200 9.82600 26.02000
H  4.24900 8.41300 26.25600
H  4.33300 9.28100 24.77200
H  9.31400 4.62000 22.65600
H  10.13000 1.86800 23.08800
H  7.40200 3.64700 21.92100
H  7.06800 2.99800 23.45500
H  8.05600 2.02100 22.33000
H  12.32400 2.99900 24.02600
H  11.71200 4.52300 23.63300
H  12.98000 2.56500 21.96900
H  12.46900 4.10000 21.42200
H  11.35000 2.71200 21.31100
H  12.48200 -1.42900 28.09400
H  13.52600 -0.30700 27.32200
H  12.09300 -0.78200 26.40300
H  12.32900 2.38200 31.87400
H  10.22100 -0.54100 34.66400
H  10.06800 1.14800 35.39000
H  11.38700 0.16400 35.77400
Mg -10.63300 17.38400 43.22200
C  -7.15900 18.17900 43.35700
C  -11.17600 20.75100 42.98300
C  -13.69500 16.73000 42.47600
C  -9.72400 13.87000 42.85000
N  -9.29900 19.28600 43.06900
C  -7.96700 19.31600 43.35700
C  -7.47000 20.74700 43.32600
C  -8.77700 21.45100 43.72200
C  -9.80100 20.48900 43.25900
C  -8.91900 21.78900 45.22300
C  -6.89400 21.27900 41.94100
C  -5.38400 21.54300 41.73500
H  -4.83200 20.79000 40.48500
N  -12.13400 18.50600 42.51600
C  -12.15900 19.92300 42.51300
C  -13.44100 20.39100 42.00800
C  -14.27200 19.22000 41.82800
C  -13.36800 18.08300 42.29600
C  -13.71600 21.78300 41.63000
C  -15.66700 19.15300 41.19700
O  -16.21200 20.23700 40.89500
C  -16.37900 17.84300 40.98900
N  -11.58400 15.49100 42.36800
C  -12.87000 15.54400 42.63700
C  -13.42200 14.07900 42.92500
C  -12.16800 13.16200 42.72000
C  -11.10400 14.24700 42.59900
C  -14.28100 13.86600 44.23600
C  -12.06300 12.14500 41.48500
C  -13.28300 11.34100 41.00900
N  -8.89400 16.24100 43.13700
C  -8.72400 14.86500 43.03800
C  -7.33500 14.57900 43.29500
C  -6.68600 15.89800 43.32600
C  -7.69900 16.83000 43.29500
C  -6.70200 13.24600 43.26200
C  -5.39800 16.53100 43.46000
O  -4.33500 16.06800 43.56600
C  -5.61900 18.03400 43.50400
C  -5.17900 18.52400 44.80000
O  -5.61800 18.11700 45.87400
O  -4.36000 19.60000 44.63600
C  -4.03000 20.31400 45.81600
H  -11.34700 21.82600 43.06300
H  -14.74500 16.53400 42.70400
H  -9.44700 12.81700 42.93800
H  -6.76500 20.96800 44.12800
H  -9.01600 22.35800 43.16700
H  -8.88600 22.87800 45.24400
H  -8.10500 21.35400 45.80200
H  -9.93500 21.55200 45.53800
H  -7.48900 22.11500 41.57300
H  -7.27400 20.52000 41.25700
H  -4.87600 21.28900 42.66500
H  -5.22300 22.59200 41.48700
H  -14.24700 22.19100 42.49100
H  -14.38200 21.81100 40.76800
H  -12.84400 22.42600 41.51000
H  -15.76300 17.14500 40.42100
H  -17.21100 18.21200 40.39000
H  -16.84000 17.37700 41.86000
H  -14.00600 13.82600 42.04000
H  -11.97400 12.56100 43.60800
H  -15.27900 13.47900 44.03400
H  -14.55500 14.88100 44.52400
H  -13.80900 13.24600 44.99900
H  -11.29400 11.41200 41.73000
H  -11.92900 12.78400 40.61200
H  -14.12600 11.33700 41.70000
H  -12.97800 10.30600 40.85600
H  -13.56600 11.60400 39.99000
H  -7.00200 12.68400 42.37800
H  -6.96000 12.78800 44.21700
H  -5.61300 13.22600 43.30300
H  -5.02400 18.47000 42.70100
H  -4.82000 21.05800 45.92600
H  -3.13300 20.90500 45.62900
H  -3.93900 19.69200 46.70600

