158

Mg 25.99800 -0.38000 28.99100
C  27.82900 -0.75100 31.96500
C  23.26700 0.20400 30.82200
C  24.35800 -0.25300 26.11500
C  28.95100 -1.60400 27.22600
N  25.61800 -0.31400 31.17400
C  26.49800 -0.49500 32.25900
C  25.82400 -0.14900 33.65700
C  24.38200 0.12300 33.17600
C  24.39000 -0.02700 31.62100
C  23.42700 -0.89600 33.82100
C  26.43700 1.08300 34.39600
C  25.93600 1.34000 35.82500
H  26.52600 2.52800 36.68500
N  24.03100 -0.10900 28.54700
C  23.03200 0.11400 29.39700
C  21.82500 0.47400 28.69100
C  22.17700 0.38300 27.30200
C  23.60900 0.07100 27.22500
C  20.45300 0.71400 29.34300
C  21.30700 0.54800 26.14500
O  21.71500 0.59300 24.99600
C  19.74600 0.78400 26.22600
N  26.52600 -1.01900 26.99800
C  25.62300 -0.87200 25.94700
C  26.35100 -0.89300 24.67100
C  27.69700 -1.53900 24.97300
C  27.75300 -1.38600 26.49500
C  25.61600 -1.57000 23.48900
C  28.96000 -1.00200 24.27100
C  29.11900 0.53700 24.19800
N  28.03200 -0.93200 29.45800
C  29.13400 -1.36700 28.64800
C  30.28700 -1.44300 29.45800
C  29.85800 -1.19000 30.78800
C  28.48600 -0.96700 30.76600
C  31.65000 -1.71700 28.89700
C  30.30800 -1.12700 32.15200
O  31.43700 -1.34100 32.61600
C  28.99100 -0.69100 32.92400
C  28.74600 -1.50700 34.10200
O  28.33000 -2.67600 34.16400
O  29.05000 -0.77600 35.18500
C  28.97700 -1.46200 36.49200
H  22.41400 0.45700 31.45500
H  23.90200 0.05400 25.17200
H  29.91200 -1.81700 26.75300
H  25.94000 -1.05700 34.24700
H  24.11100 1.14000 33.45900
H  24.09900 -1.66100 34.21000
H  22.83500 -1.37600 33.04100
H  22.70700 -0.51200 34.54400
H  26.13700 1.97500 33.84600
H  27.52500 1.08700 34.46000
H  26.31900 0.47300 36.36200
H  24.85000 1.41200 35.89200
H  19.71800 1.34900 28.84700
H  20.66800 1.32700 30.21900
H  20.04700 -0.23800 29.68400
H  19.33500 0.95600 25.23100
H  19.47300 1.64100 26.84200
H  19.28300 -0.13400 26.58600
H  26.46800 0.13800 24.33500
H  27.60100 -2.62000 24.87300
H  24.56900 -1.76700 23.71700
H  26.07500 -2.53100 23.25600
H  25.68300 -1.04700 22.53500
H  28.87100 -1.28500 23.22200
H  29.79700 -1.56600 24.68200
H  28.49700 1.16300 24.83800
H  28.99300 0.76200 23.13900
H  30.15000 0.57900 24.54900
H  31.63900 -1.24000 27.91700
H  31.77200 -2.77800 28.68000
H  32.41000 -1.22500 29.50400
H  29.10900 0.35100 33.22100
H  28.51400 -0.67200 37.08400
H  29.95000 -1.62700 36.95400
H  28.30800 -2.32200 36.52000
Mg -1.79600 34.34700 26.83200
C  -3.22500 32.51300 29.57300
C  -0.31400 36.34600 29.04400
C  -0.84400 36.13600 24.13400
C  -3.54500 32.14300 24.72900
N  -1.80300 34.29700 29.06700
C  -2.38700 33.55000 29.98700
C  -2.06100 33.96300 31.46600
C  -1.10700 35.22400 31.19700
C  -1.06100 35.29700 29.63600
C  -1.47000 36.59700 31.91500
C  -1.43000 32.89400 32.29300
C  -2.23000 32.51400 33.62300
H  -1.45600 32.22600 34.88700
N  -0.66900 35.98400 26.70800
C  -0.06500 36.69300 27.70000
C  0.71500 37.68300 27.14600
C  0.53800 37.69900 25.73800
C  -0.45700 36.63100 25.45300
C  1.48300 38.69000 28.05300
C  1.13100 38.63600 24.67000
O  0.74700 38.70700 23.47200
C  2.24000 39.54200 25.00800
N  -2.19200 34.20300 24.73300
C  -1.62400 35.03700 23.78700
C  -1.94800 34.59800 22.34300
C  -2.52100 33.17900 22.63300
C  -2.73200 33.10300 24.14900
C  -3.03700 35.53300 21.71900
C  -1.59200 32.06200 22.02900
C  -0.12300 32.02100 22.59600
N  -3.06900 32.71100 27.02500
C  -3.75200 31.99400 26.05300
C  -4.63300 31.03300 26.66700
C  -4.39400 31.18900 28.02000
C  -3.45000 32.20500 28.23900
C  -5.55700 30.00500 26.13900
C  -4.78000 30.68200 29.38800
O  -5.59000 29.82500 29.70900
C  -4.04600 31.51700 30.46000
C  -5.09800 32.08500 31.33000
O  -5.68000 33.12000 31.10700
O  -5.36100 31.25800 32.43800
C  -6.48600 31.72700 33.28200
H  0.24800 36.89900 29.80000
H  -0.46600 36.66700 23.25800
H  -4.02700 31.38800 24.10400
H  -3.02700 34.27300 31.86500
H  -0.08200 35.12100 31.55200
H  -2.04300 37.18200 31.19600
H  -0.64100 37.17600 32.32200
H  -2.19500 36.45600 32.71600
H  -0.51100 33.21300 32.78500
H  -1.31300 32.02400 31.64700
H  -2.58700 31.50100 33.44100
H  -3.11600 33.11800 33.81700
H  0.79100 38.72500 28.89500
H  1.74800 39.66800 27.65100
H  2.39100 38.13800 28.29800
H  1.89200 40.21800 25.78800
H  2.48200 40.19500 24.17000
H  3.06000 39.01800 25.50000
H  -0.99400 34.62200 21.81600
H  -3.48400 32.98700 22.16100
H  -3.28400 36.26100 22.49200
H  -3.90500 34.98200 21.35500
H  -2.74800 36.04400 20.80100
H  -1.49500 32.25700 20.96100
H  -2.00900 31.07200 22.21000
H  0.03200 32.70800 23.42900
H  0.66500 32.09200 21.84700
H  0.07400 31.04000 23.02800
H  -5.36400 29.00100 26.51700
H  -5.46700 30.00600 25.05200
H  -6.54500 30.34900 26.44700
H  -3.36800 30.88200 31.03100
H  -7.21800 32.23000 32.65000
H  -6.00400 32.44300 33.94800
H  -6.88000 30.98500 33.97600

