158

Mg 43.43400 3.70900 47.11000
C  41.03400 6.19200 46.78300
C  40.91900 1.40100 47.11500
C  45.76000 1.22800 46.93900
C  45.82400 6.04600 46.42900
N  41.18200 3.79500 46.66500
C  40.42700 4.93300 46.76400
C  38.98400 4.59100 46.88800
C  39.05600 3.07300 47.42200
C  40.44100 2.69500 46.97300
C  38.84500 2.93500 48.90500
C  38.22800 4.75000 45.52900
C  37.24900 5.95100 45.43700
H  36.60000 6.14900 44.07700
N  43.40700 1.53800 47.01400
C  42.22600 0.83900 47.20200
C  42.53500 -0.54300 47.39300
C  43.96000 -0.62800 47.32600
C  44.45600 0.72000 47.07500
C  41.57000 -1.67100 47.41800
C  44.81400 -1.89300 47.43500
O  44.25700 -2.98000 47.74600
C  46.28600 -1.93900 47.16300
N  45.49300 3.75800 46.72700
C  46.22800 2.55100 46.78500
C  47.76200 2.83800 46.66600
C  47.69100 4.40900 46.36000
C  46.23300 4.73500 46.48300
C  48.53800 2.48000 48.01000
C  48.38200 4.75400 44.95900
C  47.69700 4.00400 43.76700
N  43.47800 5.69900 46.72900
C  44.50400 6.49600 46.47800
C  44.08700 7.88100 46.54800
C  42.68200 7.84000 46.71300
C  42.42400 6.48400 46.71500
C  45.00100 9.08800 46.56300
C  41.41600 8.55800 46.84600
O  41.20300 9.79300 47.01000
C  40.38800 7.50000 46.88900
C  39.51400 7.59400 48.14600
O  39.84200 7.38100 49.28200
O  38.27900 8.05400 47.75500
C  37.41600 8.32700 48.84600
H  40.17300 0.66100 47.41400
H  46.63200 0.58800 47.08400
H  46.64000 6.76900 46.37100
H  38.54800 5.32500 47.56500
H  38.29100 2.54500 46.85300
H  38.35500 3.82100 49.30700
H  39.81100 2.78000 49.38400
H  38.07800 2.18300 49.09300
H  37.68300 3.83300 45.30700
H  39.00000 4.94200 44.78400
H  37.73800 6.90100 45.65000
H  36.50000 5.85600 46.22300
H  41.68300 -2.26300 46.51000
H  40.52800 -1.36200 47.32800
H  41.69800 -2.39500 48.22300
H  46.93900 -1.42900 47.87200
H  46.42600 -1.41500 46.21800
H  46.65700 -2.96400 47.16000
H  48.08300 2.24000 45.81300
H  48.27900 4.97700 47.08100
H  47.73500 2.10200 48.64300
H  49.13400 3.30000 48.41100
H  49.25300 1.72500 47.68300
H  49.44800 4.53200 45.00200
H  48.27600 5.82400 44.78100
H  47.13900 4.74900 43.19900
H  47.04000 3.25400 44.20800
H  48.41800 3.53400 43.09800
H  45.96800 8.85600 47.01000
H  44.45300 9.80300 47.17600
H  45.16900 9.38700 45.52900
H  39.77600 7.76300 46.02700
H  36.61100 8.86200 48.34100
H  37.87100 9.01900 49.55400
H  37.07100 7.35700 49.20400
Mg 46.85200 46.48000 43.91000
C  43.51900 46.40200 43.04500
C  47.19100 43.35200 42.30600
C  50.08700 46.64700 44.43200
C  46.49500 49.96900 44.39200
N  45.60700 45.23500 42.68600
C  44.21400 45.26900 42.64000
C  43.67700 44.25700 41.62800
C  44.79100 43.19200 41.68800
C  46.00500 43.98800 42.22200
C  44.33600 41.93500 42.56100
C  43.34000 44.91400 40.20300
C  42.05500 44.48900 39.56400
H  42.22900 43.42200 38.50500
N  48.40900 45.12800 43.48200
C  48.40900 43.90600 42.78200
C  49.74100 43.35500 42.75600
C  50.61500 44.31600 43.31200
C  49.70500 45.41100 43.80900
C  50.08200 41.97100 42.02000
C  52.11100 44.17100 43.50700
O  52.66300 43.19000 43.10900
C  52.95100 45.37400 43.95000
N  48.08600 48.09400 44.27100
C  49.43900 47.87300 44.60200
C  50.12700 49.24300 45.05200
C  48.95800 50.28100 44.80200
C  47.73800 49.41000 44.45900
C  50.60500 49.27200 46.50200
C  49.25400 51.29700 43.66600
C  49.02800 50.90600 42.18600
N  45.24900 48.00500 43.92600
C  45.26900 49.36600 44.06800
C  43.89700 49.81400 44.05800
C  43.15400 48.68800 43.66500
C  44.01400 47.61900 43.56200
C  43.48900 51.24100 44.23200
C  41.88700 48.16900 43.26900
O  40.89600 48.76700 43.06600
C  42.01400 46.68900 42.95000
C  41.05800 45.88500 43.74600
O  40.03200 45.49400 43.29500
O  41.46000 45.76400 45.06400
C  40.57100 44.99200 45.93900
H  47.25400 42.37500 41.82300
H  51.08800 46.71800 44.86200
H  46.46600 51.04100 44.59500
H  42.71400 43.86600 41.95700
H  45.09900 42.75300 40.74000
H  44.43200 41.01100 41.99100
H  43.29900 41.94700 42.89700
H  44.88700 41.97900 43.50100
H  44.06500 44.56300 39.46800
H  43.43700 45.99600 40.28800
H  41.58800 45.32900 39.04900
H  41.32100 44.07200 40.25400
H  49.18500 41.44700 41.69000
H  50.62300 41.27100 42.65800
H  50.70400 42.28000 41.18000
H  52.75000 46.27100 43.36400
H  54.00300 45.09100 43.96900
H  52.65500 45.55700 44.98300
H  51.00100 49.48900 44.44900
H  48.67100 50.87100 45.67300
H  51.67500 49.47900 46.49700
H  50.42400 48.33600 47.03100
H  50.14300 50.06200 47.09400
H  50.15500 51.91000 43.69300
H  48.52100 52.09400 43.78400
H  47.97800 50.74600 41.94300
H  49.58600 49.99200 41.98400
H  49.41700 51.69200 41.53800
H  44.29900 51.96900 44.20500
H  42.88600 51.29200 45.13800
H  42.97400 51.41600 43.28700
H  41.67800 46.55000 41.92300
H  40.86400 45.34300 46.92800
H  40.77200 43.93000 46.07500
H  39.52500 45.06600 45.64400

