158

Mg 47.37100 15.13700 27.74300
C  45.50600 15.38000 30.77000
C  49.58600 17.37600 29.07900
C  49.11200 14.95600 24.81700
C  44.73200 13.55400 26.40300
N  47.38800 16.37500 29.61300
C  46.67300 16.14200 30.72600
C  47.22200 16.86700 31.90400
C  48.31600 17.82400 31.27700
C  48.46700 17.12800 29.89800
C  47.99000 19.32300 31.08900
C  47.87000 15.88700 32.99300
C  47.44200 16.13500 34.50800
H  48.39100 15.84800 35.67900
N  49.21200 16.00900 27.09900
C  49.92200 16.86700 27.80100
C  51.02900 17.26000 26.99300
C  51.01900 16.45700 25.77600
C  49.78500 15.75100 25.84400
C  52.01900 18.34200 27.36900
C  51.81900 16.51300 24.53500
O  51.84800 15.66500 23.67300
C  52.83300 17.64600 24.31100
N  46.99300 14.30500 25.95500
C  47.86200 14.33800 24.86400
C  47.18600 13.83600 23.62500
C  45.82100 13.29000 24.07600
C  45.76700 13.81600 25.54400
C  46.83700 15.00500 22.58600
C  45.74100 11.69500 24.11200
C  46.85000 10.92700 24.74700
N  45.51500 14.49200 28.42800
C  44.57800 13.74200 27.74100
C  43.46900 13.49200 28.60000
C  43.86000 13.93100 29.89200
C  45.01700 14.66900 29.67500
C  42.24800 12.74600 28.17800
C  43.50400 14.12900 31.30900
O  42.52500 13.76100 31.91700
C  44.60000 15.08500 31.90900
C  44.01200 16.32600 32.58400
O  43.69600 17.36100 32.07400
O  43.85100 16.08300 33.83900
C  43.24200 17.10400 34.70200
H  50.43300 17.96300 29.44200
H  49.75100 14.81500 23.94400
H  43.82500 13.06300 26.04600
H  46.47800 17.49600 32.39100
H  49.25700 17.92500 31.81800
H  48.70600 19.87000 31.70200
H  46.95800 19.49200 31.39700
H  48.16600 19.61700 30.05500
H  48.94700 15.87100 32.82700
H  47.48900 14.91600 32.67700
H  46.60800 15.44100 34.61600
H  47.02200 17.13800 34.58500
H  52.43400 18.93900 26.55700
H  52.78700 17.87000 27.98200
H  51.57400 19.04500 28.07300
H  53.41800 17.68300 25.23000
H  52.23100 18.54900 24.21400
H  53.53400 17.59800 23.47800
H  47.73900 13.05400 23.10500
H  44.99600 13.65000 23.46100
H  46.51000 15.89400 23.12500
H  46.23000 14.76400 21.71300
H  47.82500 15.16700 22.15500
H  45.58600 11.50500 23.05000
H  44.79200 11.33800 24.51200
H  47.71600 10.84400 24.09000
H  46.64500 9.91100 25.08400
H  47.17200 11.43500 25.65600
H  41.98000 12.88600 27.13000
H  41.41100 12.87800 28.86400
H  42.48100 11.68500 28.26400
H  45.06100 14.50200 32.70700
H  43.82000 18.02800 34.70400
H  43.08500 16.71300 35.70800
H  42.24900 17.32700 34.31400
Mg -2.73900 34.82500 26.67800
C  -3.84800 33.19400 29.57300
C  -0.96000 36.91000 28.67200
C  -1.89200 36.57700 23.86000
C  -4.62800 32.54800 24.83700
N  -2.43300 34.94800 28.95200
C  -2.92100 34.22900 29.92400
C  -2.37700 34.60900 31.31300
C  -1.48300 35.88700 30.94500
C  -1.61200 35.95300 29.41900
C  -1.82900 37.07500 31.71800
C  -1.65400 33.39900 31.96900
C  -2.39600 32.89800 33.32800
H  -1.49600 32.74600 34.54400
N  -1.59300 36.49000 26.26200
C  -0.94400 37.19700 27.26200
C  -0.14100 38.19000 26.63700
C  -0.19400 37.90900 25.26700
C  -1.20400 36.92100 25.06400
C  0.81100 39.17200 27.37500
C  0.63400 38.48100 24.05900
O  0.33700 38.29300 22.94600
C  1.92400 39.36700 24.34000
N  -3.57100 34.83700 24.70100
C  -2.94900 35.60300 23.72300
C  -3.53400 35.20300 22.38600
C  -4.06300 33.75100 22.67600
C  -4.12300 33.71800 24.19500
C  -4.51500 36.21800 21.71800
C  -3.19200 32.58300 22.15700
C  -3.29900 32.24700 20.67500
N  -3.99000 33.21900 27.07700
C  -4.67300 32.40100 26.25500
C  -5.48300 31.45000 26.92300
C  -5.17500 31.76700 28.28700
C  -4.24400 32.81800 28.25800
C  -6.50500 30.57800 26.39600
C  -5.35800 31.31800 29.67200
O  -5.98200 30.38600 30.15000
C  -4.57800 32.28000 30.54100
C  -5.54800 32.92500 31.49500
O  -6.31300 33.86600 31.23800
O  -5.52400 32.33900 32.70700
C  -6.50800 32.63700 33.69400
H  -0.33700 37.71300 29.07300
H  -1.62100 37.05800 22.91700
H  -5.11900 31.80600 24.20400
H  -3.21300 34.90700 31.94600
H  -0.47500 35.80000 31.35100
H  -0.92200 37.58800 32.03600
H  -2.47400 36.85800 32.56900
H  -2.36500 37.77800 31.08100
H  -0.60200 33.60800 32.16000
H  -1.51300 32.61200 31.22800
H  -2.73000 31.87100 33.17900
H  -3.26800 33.52500 33.51500
H  1.80300 38.74100 27.51100
H  0.45800 39.39300 28.38300
H  0.94200 40.02500 26.70900
H  2.59500 38.90800 25.06600
H  1.57400 40.36800 24.59500
H  2.46100 39.37700 23.39100
H  -2.67700 35.21000 21.71300
H  -5.03700 33.65600 22.19700
H  -5.47600 35.76700 21.47100
H  -4.24300 36.59100 20.73100
H  -4.80900 37.02300 22.39200
H  -3.46600 31.65300 22.65600
H  -2.17000 32.92300 22.32600
H  -4.14400 32.72200 20.17500
H  -3.46800 31.18200 20.52000
H  -2.39300 32.55600 20.15300
H  -6.17900 29.54700 26.54000
H  -6.66300 30.76600 25.33400
H  -7.42200 30.80700 26.93700
H  -3.98300 31.79300 31.31300
H  -6.04700 33.30500 34.42100
H  -6.78200 31.69200 34.16300
H  -7.36700 33.13500 33.24300

