158

Mg 41.15200 9.58200 29.58500
C  43.23900 10.67900 32.14400
C  38.83700 8.76000 31.88800
C  39.30100 8.49400 27.07400
C  43.81800 10.08000 27.19300
N  41.18700 9.66500 31.86500
C  41.95600 10.22900 32.73800
C  41.34200 10.31700 34.15800
C  39.93700 9.70500 33.89500
C  40.00400 9.34600 32.42100
C  39.51500 8.52700 34.84800
C  41.31300 11.79600 34.70700
C  40.54000 11.97000 35.98100
H  41.08700 12.76900 37.18700
N  39.32900 8.66400 29.48600
C  38.49600 8.41100 30.54100
C  37.29100 7.63100 30.10200
C  37.39300 7.64300 28.63600
C  38.69200 8.33500 28.35900
C  36.16800 7.18300 31.00400
C  36.49500 7.11300 27.54800
O  36.63800 7.22500 26.32700
C  35.22700 6.40500 27.96000
N  41.55700 9.04800 27.53300
C  40.58700 8.77700 26.65500
C  40.98600 8.95300 25.18800
C  42.33300 9.78300 25.27100
C  42.57900 9.52100 26.76800
C  40.96100 7.59600 24.43400
C  42.14900 11.27500 24.76100
C  41.29100 12.22100 25.61700
N  43.00400 10.35300 29.57800
C  43.95300 10.51100 28.52100
C  45.18100 11.04300 29.12600
C  44.87100 11.21500 30.52200
C  43.59600 10.68300 30.71000
C  46.42600 11.45200 28.39200
C  45.41700 11.77300 31.77700
O  46.47300 12.36800 32.02300
C  44.31500 11.41900 32.89700
C  45.07200 10.60100 33.97200
O  45.90400 9.71500 33.79500
O  44.68600 11.02700 35.21500
C  45.31100 10.39400 36.31400
H  37.97900 8.59500 32.54300
H  38.71800 8.14200 26.22000
H  44.56700 10.27800 26.42300
H  42.00900 9.70200 34.76100
H  39.21300 10.51800 33.93100
H  38.73400 8.94000 35.48500
H  40.33800 8.17900 35.47300
H  39.04200 7.70300 34.31500
H  41.10100 12.51200 33.91300
H  42.29900 12.16100 34.99600
H  40.12500 11.01600 36.30800
H  39.71100 12.58900 35.63700
H  35.18900 7.38300 30.56800
H  36.25900 7.50300 32.04200
H  36.36100 6.11800 31.13200
H  35.39500 5.68500 28.76000
H  34.89200 5.82800 27.09800
H  34.43800 7.05500 28.33800
H  40.17500 9.55800 24.78200
H  43.14500 9.35200 24.68500
H  40.57100 7.67000 23.41900
H  40.34900 6.91000 25.02100
H  41.91600 7.08300 24.32200
H  41.43300 11.27600 23.93900
H  43.09400 11.67700 24.39600
H  40.95000 11.72300 26.52500
H  40.50500 12.72400 25.05500
H  41.95500 13.03600 25.90500
H  46.64300 10.79200 27.55200
H  47.31600 11.31400 29.00600
H  46.32900 12.51000 28.14700
H  43.96000 12.36600 33.30400
H  45.58400 9.34600 36.19300
H  44.69300 10.62000 37.18300
H  46.23100 10.94500 36.50900
Mg 28.23800 57.53400 42.61700
C  25.92100 55.64400 40.82700
C  30.68100 56.26300 40.71600
C  30.04500 60.14400 43.67200
C  25.34300 59.07200 44.26000
N  28.20100 56.33600 40.77600
C  27.19400 55.53700 40.30000
C  27.66800 54.61900 39.14500
C  29.24600 54.78700 39.31400
C  29.44000 55.78000 40.45400
C  30.10900 53.51500 39.48200
C  27.08700 55.03200 37.78200
C  26.52900 53.83600 37.00200
H  27.10500 53.45100 35.64600
N  30.13800 58.04500 42.39800
C  31.07300 57.33000 41.60900
C  32.34400 57.95300 41.77400
C  32.19900 59.07800 42.59900
C  30.74600 59.19300 42.90900
C  33.63800 57.42000 41.06900
C  33.29800 60.04700 42.93900
O  34.41400 59.95100 42.44900
C  33.15500 61.24300 43.94100
N  27.70900 59.46000 43.74300
C  28.70200 60.26600 44.11400
C  28.15400 61.48700 44.85300
C  26.74700 60.99900 45.21800
C  26.54100 59.82800 44.34900
C  29.00400 61.89500 46.03600
C  25.64200 62.06400 45.25600
C  24.85700 62.22400 46.59500
N  26.09800 57.31900 42.69900
C  25.11500 57.99400 43.39900
C  23.76600 57.45000 43.12100
C  24.09200 56.60800 42.06800
C  25.51300 56.45700 41.90300
C  22.33400 57.88600 43.54300
C  23.42600 55.71600 41.09400
O  22.23500 55.46800 40.97100
C  24.57700 54.99100 40.32500
C  24.36600 53.57900 40.52200
O  24.52100 52.95100 41.56500
O  24.23000 53.06200 39.24500
C  24.28100 51.58000 39.11200
H  31.51500 55.81200 40.17500
H  30.62100 61.02600 43.96300
H  24.49200 59.52700 44.77100
H  27.38700 53.59100 39.37600
H  29.62000 55.30600 38.43200
H  30.52600 53.52400 40.48900
H  30.82500 53.49300 38.66100
H  29.46500 52.64300 39.36900
H  27.78600 55.46300 37.06500
H  26.36200 55.83300 37.92400
H  25.50800 54.13700 36.76800
H  26.58800 52.93500 37.61300
H  33.59100 56.33200 41.10600
H  34.52100 57.78300 41.59500
H  33.76700 57.69600 40.02200
H  32.57700 62.03900 43.47300
H  34.11700 61.63800 44.26800
H  32.72500 60.84300 44.86000
H  28.07500 62.25200 44.08100
H  26.77500 60.41400 46.13800
H  28.36700 62.08400 46.90000
H  29.49400 62.81900 45.72900
H  29.73700 61.14300 46.33100
H  24.88900 61.76400 44.52800
H  25.84300 63.08000 44.91500
H  24.87700 63.28700 46.83800
H  25.24000 61.70600 47.47500
H  23.85400 61.85900 46.37400
H  22.06900 58.93800 43.44700
H  22.23600 57.48900 44.55300
H  21.75300 57.37400 42.77600
H  24.52500 55.33400 39.29200
H  24.49800 51.50100 38.04700
H  23.28500 51.27500 39.43400
H  25.01200 51.22500 39.83900

