158

Mg 41.02100 7.79500 29.52100
C  42.92200 9.22400 32.08100
C  38.65000 6.80200 31.81800
C  39.54900 5.99500 27.12500
C  43.81600 8.03900 27.34700
N  40.86700 7.90700 31.74900
C  41.68500 8.73200 32.54700
C  41.03000 8.81000 33.96300
C  39.82000 7.86200 33.95300
C  39.75700 7.40000 32.43800
C  39.75300 6.64200 34.85000
C  40.72900 10.35900 34.16900
C  40.03500 10.72600 35.47400
H  40.75200 11.67200 36.45700
N  39.35800 6.61000 29.54600
C  38.41300 6.44800 30.50800
C  37.31200 5.70100 30.02700
C  37.51800 5.41500 28.66400
C  38.91100 5.93600 28.41000
C  36.09600 5.36000 30.93100
C  36.62000 4.72600 27.63300
O  36.98600 4.49600 26.45400
C  35.10300 4.44400 27.95800
N  41.58500 7.07500 27.48900
C  40.75300 6.41700 26.74500
C  41.31700 6.07000 25.39400
C  42.50100 7.05700 25.35200
C  42.72100 7.28900 26.83300
C  41.60100 4.64500 25.04900
C  42.23200 8.39600 24.58200
C  43.43500 9.38800 24.16200
N  42.95000 8.47700 29.63600
C  43.96800 8.47000 28.66400
C  45.07100 9.17300 29.17200
C  44.72500 9.45000 30.51800
C  43.45100 9.01500 30.74800
C  46.27600 9.66300 28.42600
C  45.15100 10.11100 31.77000
O  46.20100 10.65500 32.06700
C  43.98600 10.00900 32.85600
C  44.48800 9.31400 34.06400
O  44.92300 8.16300 34.04900
O  44.39700 10.08800 35.20700
C  44.38300 9.28500 36.45000
H  37.84300 6.69100 32.54600
H  39.07200 5.40800 26.33700
H  44.69300 8.13500 26.70300
H  41.76900 8.48400 34.69400
H  38.85400 8.35100 34.07500
H  39.97300 5.73800 34.28200
H  38.89700 6.59600 35.52400
H  40.54400 6.67600 35.59900
H  40.23200 10.80400 33.30800
H  41.64000 10.95500 34.22600
H  39.87400 9.77300 35.97700
H  39.15500 11.33400 35.26300
H  35.17100 5.75700 30.51400
H  36.15300 5.61200 31.99000
H  36.01200 4.27400 30.95600
H  35.07200 3.80800 28.84300
H  34.56700 3.95500 27.14400
H  34.55400 5.36900 28.13600
H  40.63300 6.44200 24.63100
H  43.31900 6.58300 24.81000
H  41.06500 3.86700 25.59300
H  42.66800 4.54900 25.24600
H  41.44900 4.51500 23.97700
H  41.64100 8.92800 25.32700
H  41.56700 8.07300 23.78100
H  43.39100 9.48900 23.07800
H  44.30900 8.85400 24.53600
H  43.33500 10.39200 24.57600
H  45.86700 9.90400 27.44500
H  47.01000 8.86500 28.31800
H  46.67100 10.62300 28.75900
H  43.79300 11.03700 33.16200
H  45.42900 9.13000 36.71700
H  43.81200 8.37000 36.29300
H  43.90200 9.78800 37.28800
Mg 15.91800 52.06100 25.02800
C  17.86400 51.20300 27.78300
C  13.36400 52.95200 27.13500
C  14.10000 52.76100 22.26200
C  18.52400 50.90300 22.89700
N  15.57500 51.86800 27.25100
C  16.59900 51.67500 28.18000
C  16.01700 51.98800 29.57400
C  14.51900 52.26000 29.37100
C  14.47400 52.36900 27.82500
C  13.51500 51.14600 29.92000
C  16.71200 53.17300 30.26300
C  16.56900 53.30100 31.83600
H  15.76300 52.18700 32.49300
N  14.00800 52.89200 24.75100
C  13.14100 53.18400 25.73100
C  11.95100 53.72900 25.09200
C  12.03800 53.56000 23.70000
C  13.41300 53.00300 23.52700
C  10.92200 54.43100 25.85600
C  11.08600 53.79900 22.58100
O  11.38500 53.71100 21.37500
C  9.72000 54.19000 22.87700
N  16.27400 51.89300 22.90100
C  15.33700 52.17300 21.98800
C  15.86700 52.02900 20.60400
C  17.30400 51.58600 20.78500
C  17.43600 51.49600 22.28800
C  15.01200 51.01800 19.84800
C  18.43900 52.52700 20.21100
C  19.72800 51.86900 19.62100
N  17.77700 51.14800 25.23300
C  18.76200 50.78800 24.28500
C  19.86300 50.25500 25.03500
C  19.53500 50.35400 26.41700
C  18.25500 50.92600 26.43200
C  21.02900 49.57900 24.46700
C  20.05000 50.11600 27.72200
O  21.14800 49.63800 28.08700
C  18.96900 50.61500 28.72900
C  18.38700 49.46500 29.44400
O  17.85800 48.46800 28.96900
O  18.76700 49.57200 30.76700
C  18.43600 48.36500 31.61600
H  12.53900 53.25000 27.78600
H  13.53500 52.85600 21.33200
H  19.25100 50.50500 22.18700
H  16.25200 51.05000 30.07900
H  14.28200 53.25700 29.74200
H  14.00800 50.21800 30.21100
H  12.88400 50.82500 29.09100
H  12.87000 51.53900 30.70500
H  16.12400 54.05500 30.01200
H  17.71800 53.41100 29.91700
H  16.21200 54.31300 32.02900
H  17.60800 53.15800 32.13300
H  10.89700 55.45700 25.48800
H  11.11900 54.47700 26.92700
H  9.90700 54.03400 25.84900
H  9.01900 54.07200 22.05100
H  9.75600 55.26700 23.04400
H  9.34400 53.53000 23.65900
H  15.88200 52.99700 20.10400
H  17.43000 50.61000 20.31700
H  15.45600 50.04500 19.63700
H  14.65400 51.36900 18.87900
H  14.04800 50.76100 20.28600
H  18.78400 53.15200 21.03600
H  18.14800 53.23100 19.43100
H  19.47600 50.92900 19.13100
H  20.30500 51.70500 20.53100
H  20.40900 52.55600 19.11800
H  21.58900 49.19700 25.32000
H  21.61400 50.33400 23.94200
H  20.68500 48.80500 23.78100
H  19.38300 51.32400 29.44700
H  18.80500 47.40700 31.25000
H  17.35300 48.32300 31.73800
H  18.84100 48.43800 32.62600

