158

Mg 26.07700 1.06500 29.61200
C  28.19100 0.63600 32.30700
C  23.43700 1.18100 31.69800
C  24.22800 1.62100 26.95900
C  28.90800 0.45100 27.44700
N  25.83300 0.64000 31.86400
C  26.86200 0.66000 32.75200
C  26.22000 0.80700 34.22000
C  24.67000 0.84000 33.96600
C  24.60700 0.76200 32.42200
C  23.91200 -0.22700 34.84500
C  26.79000 1.93100 35.12300
C  25.92800 2.31900 36.41100
H  26.74800 2.03300 37.63900
N  24.09700 1.28800 29.34900
C  23.13800 1.28900 30.34600
C  21.82600 1.49400 29.77500
C  22.03700 1.63700 28.39000
C  23.46700 1.46000 28.17500
C  20.57900 1.62200 30.62000
C  20.93800 1.77300 27.28600
O  21.22900 1.79300 26.10800
C  19.43800 1.79500 27.66000
N  26.44800 0.81900 27.46100
C  25.53100 1.28900 26.61600
C  26.08000 1.39100 25.20300
C  27.63900 1.25100 25.41600
C  27.66700 0.81300 26.88000
C  25.35100 0.42200 24.21200
C  28.41900 2.67200 25.09500
C  28.00900 3.78700 26.07600
N  28.18600 0.62900 29.78900
C  29.19100 0.43000 28.83400
C  30.38600 0.04100 29.57200
C  30.08100 0.24700 30.89400
C  28.70600 0.58100 31.04000
C  31.62400 -0.47400 28.93900
C  30.59800 0.12700 32.20400
O  31.72600 -0.25400 32.48600
C  29.42200 0.48900 33.21700
C  29.39100 -0.64100 34.19000
O  28.75700 -1.65500 34.12200
O  30.18500 -0.33500 35.25900
C  29.95600 -1.17000 36.39700
H  22.65000 1.29900 32.44600
H  23.60500 1.97200 26.13400
H  29.74800 0.45400 26.74900
H  26.37300 -0.15100 34.71600
H  24.38000 1.84300 34.27800
H  24.56600 -1.05800 35.11100
H  23.16100 -0.78600 34.28600
H  23.42400 0.22400 35.70800
H  26.81100 2.82100 34.49400
H  27.79700 1.69500 35.46700
H  24.92300 1.90500 36.49800
H  25.79000 3.39800 36.47600
H  19.99200 2.53200 30.49500
H  20.84100 1.34100 31.64000
H  19.91500 0.84100 30.25000
H  19.20900 2.31100 28.59300
H  19.17800 0.74700 27.80300
H  18.73100 2.06000 26.87400
H  25.92900 2.39800 24.81400
H  28.12800 0.47400 24.82900
H  24.77400 -0.31900 24.76400
H  25.95100 -0.15300 23.50700
H  24.66900 1.05400 23.64300
H  28.19900 2.88300 24.04800
H  29.47300 2.50700 25.32100
H  27.56300 3.47300 27.01900
H  27.35500 4.40100 25.45600
H  28.89800 4.35300 26.35400
H  32.23200 -1.08500 29.60700
H  32.16800 0.43400 28.68000
H  31.41300 -1.07300 28.05300
H  29.72500 1.43600 33.66500
H  29.09800 -0.77700 36.94200
H  30.79700 -1.08500 37.08400
H  29.98100 -2.23200 36.15300
Mg 41.27200 8.90100 29.32100
C  43.32600 10.21700 31.93100
C  39.13900 7.71200 31.63700
C  39.40500 7.64100 26.78900
C  43.66000 10.03300 27.04300
N  41.40200 8.80300 31.53100
C  42.19200 9.52500 32.40200
C  41.80200 9.44400 33.89800
C  40.49600 8.63800 33.71700
C  40.32700 8.34700 32.19000
C  40.40300 7.37300 34.68500
C  41.58700 10.91700 34.51500
C  40.85200 10.96600 35.90600
H  41.54400 11.90200 36.95900
N  39.39900 7.94800 29.21300
C  38.78300 7.43700 30.27400
C  37.56100 6.80800 29.80700
C  37.59400 6.92000 28.41000
C  38.82100 7.51100 28.05200
C  36.54000 6.24600 30.79100
C  36.59000 6.45700 27.45700
O  36.67600 6.67900 26.24400
C  35.30800 5.84100 27.93900
N  41.59800 8.75500 27.23200
C  40.64000 8.20900 26.40600
C  40.98100 8.33100 24.90200
C  42.14800 9.37900 25.00200
C  42.49000 9.46500 26.49300
C  41.34700 6.90400 24.30000
C  41.72500 10.83700 24.47600
C  41.43200 12.00200 25.44600
N  43.16700 9.84400 29.42800
C  44.00600 10.19400 28.41000
C  45.11500 10.98600 28.95300
C  44.88300 10.86300 30.27100
C  43.67500 10.25400 30.57700
C  46.14100 11.77000 28.21300
C  45.41400 11.25700 31.50100
O  46.46900 11.76200 31.78700
C  44.37000 11.01900 32.64500
C  44.97400 10.26000 33.80700
O  45.31300 9.07500 33.73900
O  45.15600 11.05500 34.91300
C  45.57800 10.39000 36.16400
H  38.49800 7.31800 32.42900
H  38.93300 7.20600 25.90600
H  44.33300 10.34200 26.24000
H  42.51500 8.79200 34.40400
H  39.77300 9.36900 34.08000
H  41.38000 7.03300 35.03000
H  39.93500 6.57800 34.10600
H  39.91000 7.68700 35.60500
H  41.00500 11.57800 33.87300
H  42.57800 11.35400 34.63700
H  40.85700 9.97400 36.35600
H  39.81300 11.29400 35.88700
H  36.19200 5.27500 30.43900
H  35.76800 7.01500 30.82100
H  36.94100 6.20500 31.80300
H  34.87300 6.42100 28.75300
H  35.60600 4.93100 28.45900
H  34.59000 5.70700 27.13000
H  40.15300 8.77800 24.35200
H  43.05200 9.00000 24.52500
H  40.97700 6.16300 25.00800
H  42.43600 6.85500 24.27400
H  41.05900 6.82500 23.25100
H  40.88700 10.82800 23.77900
H  42.55600 11.10600 23.82300
H  41.29500 11.57700 26.44000
H  40.48500 12.50100 25.24100
H  42.32200 12.63000 25.40900
H  46.04900 11.73300 27.12800
H  47.10600 11.42400 28.58500
H  46.01300 12.81400 28.49900
H  43.93400 11.98200 32.90900
H  44.98100 10.69500 37.02300
H  46.62800 10.66200 36.26300
H  45.61700 9.30100 36.12600

