158

Mg 26.27700 51.85900 25.91300
C  23.91800 52.71800 28.26600
C  28.55500 50.92700 28.35200
C  28.53600 51.33200 23.43900
C  24.03500 53.02800 23.42100
N  26.21300 51.91600 28.13900
C  25.05700 52.17000 28.86700
C  25.47900 52.05400 30.35100
C  27.01100 51.52300 30.35600
C  27.31900 51.45000 28.84700
C  28.04800 52.30100 31.20700
C  24.51000 51.06900 31.17800
C  23.93100 51.64600 32.44900
H  24.10000 50.88400 33.81400
N  28.23800 51.13900 25.93300
C  29.04500 50.78500 27.04000
C  30.29700 50.25800 26.61100
C  30.32200 50.36100 25.19800
C  28.98300 50.90000 24.77700
C  31.31100 49.76800 27.66000
C  31.44700 49.96400 24.30300
O  31.36500 50.16400 23.05000
C  32.54100 49.24200 24.83300
N  26.30100 52.20900 23.68400
C  27.40600 52.00900 22.93500
C  27.13300 52.23600 21.39600
C  25.66800 52.83000 21.41100
C  25.31800 52.72800 22.89800
C  28.22400 53.08000 20.63000
C  24.65300 52.08500 20.36700
C  24.64000 52.61800 18.92000
N  24.41900 52.64100 25.83000
C  23.64600 53.04400 24.73700
C  22.31600 53.43100 25.20600
C  22.36700 53.34900 26.58000
C  23.68400 52.94100 26.87900
C  21.13400 53.93600 24.36600
C  21.59700 53.59500 27.74100
O  20.57400 54.18700 27.92700
C  22.59300 53.13400 28.92900
C  22.74500 54.31600 29.85700
O  23.52600 55.19800 29.74200
O  21.85900 54.05200 30.91400
C  21.90500 54.86000 32.13500
H  29.26200 50.69600 29.15200
H  29.29600 51.15200 22.67500
H  23.29400 53.12300 22.62500
H  25.29700 53.06400 30.71900
H  27.17100 50.50000 30.69600
H  27.51800 53.22700 31.42800
H  28.96700 52.41100 30.63200
H  28.28700 51.72200 32.09900
H  25.09300 50.20000 31.48200
H  23.73500 50.78900 30.46500
H  22.86200 51.70000 32.24300
H  24.38700 52.62700 32.58200
H  32.32600 50.14400 27.53100
H  31.32500 48.68700 27.79500
H  31.05900 50.19400 28.63200
H  33.09300 49.90000 25.50500
H  33.24900 49.10400 24.01600
H  32.21500 48.32900 25.33200
H  27.10200 51.21500 21.01400
H  25.68800 53.86200 21.06000
H  28.76400 53.58300 21.43200
H  27.71200 53.79000 19.98000
H  28.92400 52.64700 19.91500
H  23.67300 52.07200 20.84500
H  25.14900 51.14500 20.12900
H  23.66500 53.00700 18.62500
H  24.89300 51.79300 18.25400
H  25.43800 53.34000 18.75000
H  21.03500 53.34900 23.45300
H  21.30300 54.98700 24.13300
H  20.18100 53.81900 24.88200
H  22.19300 52.29800 29.50300
H  22.50700 54.20200 32.76200
H  20.89900 54.92200 32.54900
H  22.21600 55.89000 31.96200
Mg -0.17900 43.89700 26.47900
C  2.31700 43.42700 28.84200
C  -2.33700 42.72800 28.80700
C  -2.58800 43.85500 24.08800
C  2.25500 44.20200 24.07300
N  0.02900 42.97900 28.54300
C  1.01700 43.27100 29.36600
C  0.67100 43.03800 30.84800
C  -0.70900 42.42000 30.72400
C  -1.07100 42.73100 29.25600
C  -0.80700 40.85500 31.00700
C  0.69400 44.34900 31.60000
C  1.09300 44.19200 33.13700
H  0.72200 42.91600 33.75300
N  -2.12400 43.42700 26.49800
C  -2.86100 43.07200 27.56400
C  -4.28900 42.99800 27.15400
C  -4.45200 43.24800 25.78600
C  -3.01400 43.47200 25.39700
C  -5.33200 42.83200 28.25500
C  -5.70100 43.31100 24.92600
O  -5.62800 43.45000 23.70800
C  -7.15800 43.14800 25.52800
N  -0.11700 43.73600 24.29400
C  -1.27600 44.04000 23.63100
C  -0.93000 44.58400 22.24700
C  0.61700 44.83500 22.35300
C  0.93700 44.16700 23.66100
C  -1.29500 43.80400 21.00600
C  1.18400 46.29500 22.39300
C  0.47000 47.39700 21.56100
N  1.86200 44.00200 26.41700
C  2.70100 44.12300 25.35500
C  4.09900 44.08900 25.83200
C  3.96300 43.90900 27.22800
C  2.64600 43.74300 27.49000
C  5.34400 44.17900 24.94800
C  4.64700 43.75500 28.44300
O  5.83900 43.81500 28.71500
C  3.58900 43.61100 29.56400
C  3.97000 42.36600 30.34600
O  3.81500 41.21100 29.90200
O  4.38800 42.54000 31.61500
C  4.57500 41.37900 32.49100
H  -3.05900 42.50000 29.59400
H  -3.35700 43.95600 23.31900
H  3.03000 44.32300 23.31400
H  1.46100 42.39000 31.22800
H  -1.43100 42.86300 31.41000
H  -1.66700 40.72300 31.66400
H  0.13300 40.52500 31.44900
H  -1.01300 40.29800 30.09400
H  -0.25900 44.87800 31.59800
H  1.54600 44.96200 31.30400
H  0.61100 45.03100 33.63800
H  2.17400 44.28400 33.23800
H  -6.18600 43.47500 28.04200
H  -5.02200 43.19000 29.23700
H  -5.64300 41.79100 28.34600
H  -7.50900 44.15500 25.75500
H  -7.20800 42.44700 26.36100
H  -7.73100 42.76200 24.68500
H  -1.51300 45.50200 22.17800
H  1.25600 44.34800 21.61600
H  -1.99700 43.00900 21.26000
H  -0.37900 43.45900 20.52700
H  -1.67500 44.48200 20.24200
H  2.20800 46.45200 22.05600
H  1.12000 46.64100 23.42500
H  1.24000 47.86800 20.95000
H  0.24500 48.17200 22.29300
H  -0.35000 47.07800 20.91700
H  5.79500 43.18800 24.99500
H  6.12900 44.74600 25.45000
H  5.06500 44.49700 23.94300
H  3.54500 44.44700 30.26100
H  4.17200 41.47300 33.50000
H  5.63100 41.12900 32.58500
H  4.13300 40.43300 32.17700

