158

Mg 48.10800 16.39000 28.87100
C  45.70400 16.07400 31.32100
C  49.99600 18.34800 31.29300
C  50.32000 16.91100 26.61900
C  45.86100 14.88100 26.59900
N  47.81000 17.25800 30.97200
C  46.79500 16.79800 31.77400
C  46.98300 17.22600 33.25700
C  48.09300 18.31300 33.08500
C  48.70900 17.92800 31.68800
C  47.68800 19.78700 33.21800
C  47.35200 16.10500 34.24600
C  47.11700 16.36300 35.77000
H  46.87300 17.89900 36.21300
N  49.97300 17.33900 28.96300
C  50.60400 18.14800 29.98400
C  51.89800 18.46800 29.53300
C  51.99700 18.16600 28.17000
C  50.74200 17.45900 27.85100
C  52.81800 19.23100 30.50000
C  53.21900 18.50700 27.16800
O  53.19600 18.13300 25.99200
C  54.33400 19.38000 27.53800
N  48.03400 15.98300 26.89400
C  49.12800 16.29300 26.16800
C  49.07800 15.56400 24.82600
C  47.71500 14.78200 24.83400
C  47.13800 15.28000 26.19200
C  49.24000 16.48400 23.61900
C  47.76700 13.27000 24.72900
C  47.92100 12.61900 23.32700
N  46.21900 15.57400 28.92100
C  45.40200 15.03900 27.89400
C  44.09200 14.71200 28.43400
C  44.18100 15.08000 29.79000
C  45.50300 15.55800 29.99300
C  42.99900 14.14800 27.69400
C  43.47700 15.06900 31.03300
O  42.35600 14.61100 31.36900
C  44.42400 15.67700 32.05300
C  43.62600 16.80900 32.60500
O  43.36900 17.83400 32.03400
O  43.00900 16.42900 33.80000
C  42.35100 17.49900 34.50600
H  50.54400 18.92000 32.04600
H  51.00400 16.85100 25.77000
H  45.27200 14.38200 25.82700
H  46.04900 17.66000 33.61500
H  48.92600 18.16300 33.77100
H  46.65400 20.05400 33.43500
H  48.18300 20.29100 32.38800
H  48.17200 20.21800 34.09400
H  48.40500 15.85500 34.11700
H  46.78000 15.18600 34.12200
H  47.87900 15.85300 36.35800
H  46.19200 15.81800 35.96100
H  52.78300 20.16700 29.94300
H  53.83700 18.88100 30.66700
H  52.41600 19.61800 31.43700
H  53.90500 20.36100 27.74100
H  55.02600 19.55600 26.71500
H  54.83600 18.91200 28.38500
H  49.84100 14.78700 24.87200
H  47.07500 15.02800 23.98600
H  48.73200 16.08100 22.74200
H  50.30900 16.42700 23.41800
H  48.97100 17.53200 23.75700
H  46.91900 12.73200 25.15200
H  48.66600 13.08300 25.31700
H  48.90600 12.15400 23.28800
H  48.02500 13.43700 22.61500
H  47.21200 11.84800 23.02600
H  42.39300 13.64500 28.44800
H  43.42700 13.41500 27.01000
H  42.37900 14.87100 27.16500
H  44.67500 14.92400 32.80000
H  41.50100 17.97700 34.01800
H  43.10800 18.27100 34.64000
H  42.22200 17.01400 35.47300
Mg 47.45000 35.28400 26.93500
C  45.43300 33.83500 29.39100
C  48.34700 37.78500 29.07900
C  49.14700 36.62500 24.44400
C  46.49900 32.71700 24.73600
N  46.75000 35.76600 28.85800
C  46.11000 34.98100 29.76000
C  46.44900 35.38700 31.19000
C  46.91600 36.86000 30.99300
C  47.36500 36.81200 29.52800
C  45.80900 37.97200 31.27000
C  47.48900 34.36000 31.72400
C  47.54900 34.23000 33.24500
H  46.60200 35.06300 34.09600
N  48.57700 36.97600 26.83800
C  48.87600 37.89100 27.79500
C  49.73200 38.93000 27.24700
C  49.95200 38.60900 25.91000
C  49.19600 37.35100 25.59800
C  50.11300 40.12000 28.13400
C  50.83600 39.38000 24.97100
O  50.96600 39.06100 23.80700
C  51.64300 40.54400 25.56900
N  47.69100 34.74200 24.78500
C  48.45600 35.49000 24.00000
C  48.65700 34.86100 22.60200
C  47.97200 33.48500 22.73000
C  47.38200 33.60100 24.11800
C  48.10300 35.65800 21.36700
C  48.77000 32.12500 22.47200
C  50.05900 32.20100 21.65100
N  46.24200 33.61400 27.03900
C  45.92100 32.69900 26.04500
C  45.01000 31.76800 26.58600
C  44.70600 32.17900 27.88700
C  45.48900 33.32100 28.08900
C  44.55500 30.55700 25.72900
C  43.95000 31.83700 29.02700
O  43.18900 30.89000 29.28000
C  44.33100 32.96300 30.05200
C  44.58000 32.37700 31.44200
O  45.55900 31.68500 31.76000
O  43.52000 32.75100 32.29900
C  43.44700 32.25700 33.69200
H  48.61200 38.45800 29.89700
H  49.94100 36.92500 23.75700
H  46.24300 31.86900 24.09700
H  45.57600 35.36300 31.84200
H  47.73400 37.06000 31.68500
H  45.98900 38.55600 32.17300
H  44.81100 37.57000 31.44200
H  45.78800 38.72500 30.48200
H  48.48500 34.69800 31.44100
H  47.46200 33.40200 31.20400
H  48.57900 34.41400 33.55200
H  47.37400 33.17000 33.42800
H  49.58200 40.93000 27.63400
H  51.19600 40.23100 28.19900
H  49.77400 40.19100 29.16700
H  52.16600 40.02200 26.37100
H  50.94400 41.33400 25.84500
H  52.36100 40.90400 24.83200
H  49.70300 34.61300 22.42500
H  47.04700 33.45700 22.15300
H  47.75600 34.97700 20.59000
H  48.84100 36.29000 20.87300
H  47.22400 36.25400 21.61300
H  48.10700 31.38900 22.01600
H  49.00100 31.72300 23.45800
H  49.99100 33.04000 20.95700
H  50.14900 31.29300 21.05500
H  50.96300 32.12900 22.25600
H  43.84300 29.98700 26.32600
H  45.38800 29.87900 25.54000
H  44.10500 30.98500 24.83400
H  43.33800 33.40800 30.10300
H  43.30500 33.15000 34.30000
H  44.31400 31.67700 34.00900
H  42.61600 31.55300 33.65600

