158

Mg 48.63000 33.90500 27.54000
C  46.93300 32.33100 30.05000
C  48.65500 36.80600 29.54200
C  50.21400 35.58500 25.14100
C  47.97500 31.23800 25.41900
N  47.87400 34.48400 29.59300
C  47.34200 33.60800 30.47500
C  47.11700 34.20800 31.87600
C  47.30400 35.74500 31.50900
C  47.93900 35.69000 30.09300
C  46.04700 36.58000 31.65600
C  48.23200 33.71400 32.77500
C  47.66900 33.40800 34.18700
H  47.75200 34.50100 35.31200
N  49.39300 35.92200 27.39900
C  49.34800 36.93600 28.32800
C  50.18500 38.05900 27.88700
C  50.81200 37.63600 26.65400
C  50.18100 36.37400 26.33000
C  50.38300 39.31300 28.68000
C  51.87200 38.34100 25.76900
O  52.17700 37.82700 24.70700
C  52.44500 39.72200 26.11600
N  48.91500 33.61200 25.53500
C  49.59200 34.42300 24.73100
C  49.87500 33.84900 23.34400
C  49.43500 32.40000 23.56500
C  48.69800 32.38200 24.91200
C  49.13100 34.59200 22.18400
C  50.62000 31.37200 23.63700
C  50.18300 29.93300 22.97200
N  47.63300 32.10300 27.65800
C  47.43100 31.14600 26.71000
C  46.71300 30.07000 27.31700
C  46.45500 30.42700 28.63100
C  47.03000 31.72600 28.74200
C  46.38300 28.83300 26.66600
C  45.84000 30.09800 29.95800
O  45.17200 29.07900 30.21300
C  46.07700 31.33900 30.91900
C  46.77600 30.76800 32.04600
O  47.95200 30.47000 32.09500
O  45.85800 30.67900 33.10300
C  46.31900 29.94600 34.32900
H  48.76100 37.70900 30.14700
H  50.72200 36.16000 24.36300
H  47.73100 30.44200 24.71300
H  46.08000 34.05700 32.17800
H  48.07000 36.19300 32.14200
H  46.00600 37.34900 30.88500
H  46.18200 37.08000 32.61600
H  45.10600 36.04300 31.77100
H  49.04200 34.44300 32.75400
H  48.71800 32.86100 32.30100
H  48.24900 32.53600 34.48900
H  46.61600 33.12700 34.20900
H  51.12300 39.21000 29.47400
H  49.47700 39.50200 29.25700
H  50.69100 40.15600 28.06200
H  52.55800 39.90200 27.18500
H  51.93800 40.58800 25.69000
H  53.42300 39.57800 25.65700
H  50.91500 34.11900 23.16100
H  48.60400 32.10900 22.92300
H  48.46500 35.39400 22.50400
H  48.68600 33.80300 21.57800
H  49.85300 35.17600 21.61300
H  51.00600 31.20400 24.64200
H  51.50900 31.76900 23.14700
H  49.13800 29.90000 22.66400
H  50.35400 29.15000 23.71100
H  50.83100 29.71000 22.12400
H  45.86300 28.14600 27.33200
H  47.23900 28.28500 26.27300
H  45.73800 29.21100 25.87300
H  45.11500 31.79600 31.15100
H  47.08100 29.19800 34.11300
H  45.44100 29.48000 34.77700
H  46.64900 30.66600 35.07800
Mg 9.63800 48.23300 25.60000
C  7.68300 49.01700 28.30500
C  12.31000 49.08900 27.31000
C  11.41400 47.57500 22.85000
C  6.67800 47.86300 23.56100
N  9.89100 48.83500 27.68900
C  9.01200 49.09100 28.69700
C  9.66800 49.47300 30.03300
C  11.09000 49.84600 29.50400
C  11.11800 49.22100 28.07200
C  11.23000 51.47000 29.43200
C  9.77500 48.33700 31.10700
C  9.47500 48.76100 32.55400
H  8.84800 47.59400 33.37700
N  11.65200 48.01900 25.21300
C  12.59900 48.44100 26.07200
C  13.92100 48.26000 25.47500
C  13.70900 47.76400 24.14500
C  12.22000 47.80400 24.02500
C  15.15500 48.52900 26.22800
C  14.66300 47.36000 22.93200
O  14.20900 46.90700 21.87000
C  16.20600 47.39000 23.23500
N  9.11200 47.68300 23.47800
C  10.10800 47.49200 22.55000
C  9.51200 47.15900 21.15900
C  7.98300 47.07800 21.48900
C  7.89500 47.56500 22.95900
C  9.86200 48.19800 20.04800
C  7.24100 45.72900 21.30800
C  7.74100 44.51200 22.21300
N  7.61200 48.36700 25.83900
C  6.51600 48.19800 24.96700
C  5.28700 48.33000 25.73000
C  5.64400 48.75900 27.01800
C  7.08400 48.70500 27.04800
C  3.85500 48.13200 25.24100
C  5.15300 48.98700 28.33900
O  4.03600 49.00500 28.80800
C  6.47100 49.28200 29.25400
C  6.25700 48.38900 30.45000
O  6.43100 47.18600 30.46500
O  5.54700 49.03300 31.41300
C  4.96900 48.12300 32.45200
H  13.21100 49.43000 27.82400
H  11.95100 47.24200 21.96000
H  5.75500 47.97100 22.98900
H  9.13100 50.30200 30.49500
H  11.92400 49.44600 30.08200
H  10.30600 52.04900 29.42700
H  11.77300 51.75400 28.53000
H  11.82400 51.86500 30.25600
H  10.81100 48.00000 31.14400
H  9.37500 47.40500 30.70700
H  8.76300 49.58300 32.48200
H  10.43700 49.14800 32.89100
H  15.89400 47.77900 25.94700
H  15.01300 48.50500 27.30800
H  15.54600 49.52500 26.02100
H  16.48700 46.48600 23.77500
H  16.41800 48.39100 23.61200
H  16.70000 47.37300 22.26300
H  9.95600 46.21200 20.85300
H  7.42500 47.72500 20.81200
H  10.77500 48.71400 20.34600
H  9.07700 48.91900 19.81800
H  10.17300 47.65800 19.15400
H  7.43000 45.38900 20.28900
H  6.19200 45.97100 21.47900
H  6.90100 44.14300 22.80100
H  8.64200 44.80700 22.75100
H  8.03000 43.77900 21.46000
H  3.83400 47.92700 24.17100
H  3.23000 49.00000 25.45200
H  3.55100 47.26900 25.83300
H  6.51400 50.33200 29.54400
H  4.32200 48.71100 33.10400
H  5.72100 47.75800 33.15100
H  4.48700 47.28700 31.94600

