158

Mg 1.79200 -2.35400 44.95800
C  5.05200 -1.17300 43.86600
C  0.33900 -0.31300 42.58700
C  -1.14500 -4.02700 45.40700
C  3.58200 -5.19600 46.19000
N  2.66900 -1.01300 43.33300
C  3.94600 -0.52400 43.26000
C  3.97900 0.59400 42.19500
C  2.50300 0.81600 41.80300
C  1.72100 -0.21600 42.59600
C  2.01800 2.28500 41.85600
C  4.89400 0.16300 40.94100
C  6.16700 1.04400 40.73500
H  6.11200 1.91700 39.40400
N  -0.13900 -2.09800 44.22000
C  -0.51100 -1.10600 43.25000
C  -1.97200 -1.18300 43.19000
C  -2.49700 -2.17300 43.99100
C  -1.24300 -2.83900 44.60100
C  -2.69600 -0.25400 42.22700
C  -4.01300 -2.68100 44.00600
O  -4.84400 -2.01100 43.40900
C  -4.42200 -3.97800 44.59800
N  1.31600 -4.18100 45.84200
C  0.01600 -4.63900 45.88900
C  -0.11000 -5.99600 46.51900
C  1.35600 -6.41800 46.74300
C  2.17700 -5.19100 46.26900
C  -0.99900 -6.16000 47.78000
C  1.65900 -7.76300 46.05300
C  2.81300 -8.57000 46.75500
N  3.87400 -3.04000 45.14400
C  4.41800 -4.14800 45.69300
C  5.87200 -4.18400 45.57700
C  6.14500 -3.01000 44.87900
C  4.92100 -2.27400 44.72900
C  6.76000 -5.26100 45.93100
C  7.22600 -2.34100 44.23900
O  8.39100 -2.68600 44.06400
C  6.59700 -0.99200 43.76900
C  7.11800 0.10200 44.67200
O  6.58500 0.48300 45.73400
O  8.12800 0.71700 44.05300
C  8.55000 2.08400 44.58900
H  -0.20900 0.42500 41.99700
H  -1.99900 -4.70600 45.44900
H  4.09700 -6.08900 46.54800
H  4.26800 1.49100 42.74300
H  2.29800 0.64400 40.74700
H  1.47500 2.50600 40.93700
H  2.85000 2.98700 41.89700
H  1.35900 2.40700 42.71500
H  4.33100 0.14900 40.00800
H  5.16500 -0.87900 41.11300
H  7.12300 0.52900 40.83100
H  6.17300 1.71300 41.59600
H  -3.77000 -0.17800 42.39800
H  -2.72900 -0.62500 41.20300
H  -2.18800 0.71100 42.22800
H  -5.49900 -4.03600 44.43900
H  -4.13400 -3.84600 45.64000
H  -3.84700 -4.64700 43.95800
H  -0.56000 -6.55900 45.70200
H  1.51500 -6.61800 47.80300
H  -1.15300 -5.12700 48.09100
H  -0.50700 -6.73600 48.56400
H  -2.01300 -6.50200 47.57100
H  1.90800 -7.54500 45.01500
H  0.73200 -8.33300 46.10900
H  3.55000 -8.78000 45.98000
H  2.35400 -9.51500 47.04600
H  3.24700 -8.10600 47.64100
H  7.16900 -5.52400 44.95500
H  6.22000 -6.11200 46.34400
H  7.53200 -4.86200 46.58900
H  6.87800 -0.72400 42.75100
H  9.62800 2.07400 44.42500
H  8.40600 2.20200 45.66300
H  8.10500 2.90000 44.02000
Mg 41.70700 42.12700 26.00000
C  40.98700 44.36100 28.77100
C  42.71700 39.94100 28.38800
C  42.67300 40.22600 23.52300
C  40.90500 44.67400 23.84600
N  41.94300 42.19700 28.42400
C  41.49600 43.13200 29.27500
C  41.71000 42.68300 30.76300
C  42.06200 41.19000 30.57600
C  42.17100 41.06100 29.08100
C  43.25700 40.59500 31.44400
C  40.46900 43.15100 31.63700
C  40.13500 42.41100 32.94900
H  41.16800 42.67400 34.08300
N  42.47600 40.25100 25.94000
C  42.92100 39.58000 27.04800
C  43.52700 38.33300 26.62200
C  43.41100 38.35100 25.18900
C  42.83300 39.58200 24.77500
C  44.17500 37.23800 27.52800
C  43.82300 37.32700 24.12500
O  43.56800 37.52300 22.94300
C  44.51200 36.14300 24.56000
N  41.89100 42.50100 23.98900
C  42.07200 41.44400 23.10100
C  42.04600 41.88200 21.56200
C  41.14900 43.14100 21.81800
C  41.35500 43.48000 23.25900
C  43.38200 42.18400 20.84700
C  39.65300 43.03700 21.30300
C  38.85300 41.76700 21.50800
N  41.14200 44.11600 26.24500
C  40.81200 45.03100 25.22400
C  40.34900 46.30600 25.82400
C  40.42400 46.06400 27.20000
C  40.94400 44.73600 27.39300
C  39.98400 47.56000 25.08700
C  40.12600 46.69600 28.47800
O  39.60200 47.81300 28.70100
C  40.47200 45.56700 29.52400
C  41.35700 46.10600 30.57000
O  42.58600 46.24000 30.41800
O  40.64700 46.47700 31.64600
C  41.39300 46.68900 32.86900
H  42.93300 39.11200 29.06600
H  43.03900 39.68100 22.65000
H  40.58000 45.42600 23.12500
H  42.62400 43.22400 31.00600
H  41.13000 40.66600 30.78900
H  43.92700 40.01000 30.81500
H  42.83900 39.86400 32.13600
H  43.77400 41.43000 31.91700
H  39.56000 43.02500 31.04900
H  40.43900 44.19800 31.94100
H  40.00100 41.33000 32.91900
H  39.18000 42.87000 33.20500
H  45.16100 37.12500 27.07600
H  43.71600 36.26700 27.34100
H  44.10400 37.39000 28.60500
H  44.69000 35.53400 23.67400
H  43.88100 35.64800 25.29800
H  45.45100 36.47200 25.00700
H  41.47100 41.16500 20.97700
H  41.52900 44.06800 21.38800
H  43.73700 43.14300 21.22500
H  43.37700 42.12900 19.75900
H  44.14700 41.44700 21.09200
H  39.81400 43.13100 20.22900
H  39.20400 43.97400 21.63300
H  37.85500 42.10700 21.78500
H  39.37000 41.20500 22.28500
H  38.83700 41.28500 20.53000
H  39.31300 47.19300 24.31000
H  40.93900 47.92700 24.71200
H  39.64700 48.26100 25.85100
H  39.56600 45.29000 30.06400
H  41.14200 45.80800 33.45900
H  40.93000 47.50300 33.42700
H  42.45900 46.87500 32.73800

