158

Mg 23.60300 -5.23300 45.80900
C  25.75100 -2.85900 44.36400
C  21.20000 -4.21600 43.48800
C  21.79700 -8.18400 46.21800
C  26.33300 -6.60000 47.30700
N  23.50100 -3.63700 44.23100
C  24.46400 -2.84700 43.75900
C  24.08200 -1.94000 42.56900
C  22.58900 -2.32600 42.51000
C  22.37500 -3.41700 43.49400
C  21.65600 -1.07200 42.79800
C  24.75800 -2.35700 41.26200
C  24.95200 -1.23000 40.20900
H  25.47600 -1.60100 38.72400
N  21.66800 -5.99000 45.15700
C  20.82500 -5.38700 44.25500
C  19.60900 -6.08800 44.18100
C  19.77100 -7.25700 44.95300
C  21.11400 -7.19800 45.51100
C  18.50600 -5.53300 43.29400
C  18.67800 -8.31000 45.13800
O  17.59600 -8.28700 44.52600
C  18.84500 -9.57600 45.89200
N  23.96800 -7.11300 46.52800
C  23.15300 -8.16200 46.66100
C  23.78700 -9.24800 47.47200
C  25.24400 -8.85700 47.61500
C  25.19600 -7.38900 47.16400
C  23.06600 -9.69500 48.74400
C  26.17300 -9.67400 46.66800
C  26.79100 -10.91100 47.28300
N  25.60400 -4.70300 46.12100
C  26.56300 -5.30400 46.80700
C  27.80700 -4.63700 46.71900
C  27.55500 -3.55800 45.78000
C  26.15500 -3.70800 45.45700
C  29.06100 -5.07900 47.34300
C  28.14300 -2.48200 45.02800
O  29.20900 -1.92200 45.05300
C  26.96500 -2.02100 44.05500
C  26.83700 -0.54700 44.29600
O  26.15400 -0.01700 45.18900
O  27.78000 0.18900 43.50700
C  27.85300 1.65300 43.62300
H  20.47200 -3.91400 42.73100
H  21.29300 -9.09200 46.55300
H  27.15300 -7.15600 47.76600
H  24.15600 -0.87800 42.80600
H  22.32100 -2.69500 41.52100
H  20.73500 -1.39600 43.28300
H  21.38400 -0.63900 41.83500
H  22.05800 -0.27700 43.42700
H  24.26100 -3.20500 40.79100
H  25.78600 -2.65100 41.47100
H  25.70600 -0.58500 40.66200
H  24.00900 -0.68700 40.13600
H  18.82800 -5.02300 42.38600
H  17.74000 -4.95500 43.80900
H  17.86300 -6.30600 42.87400
H  17.96900 -10.22400 45.93800
H  19.01100 -9.32500 46.93900
H  19.60100 -10.17700 45.38600
H  23.68300 -10.17000 46.90000
H  25.50100 -8.93800 48.67100
H  23.61400 -9.38900 49.63600
H  22.93000 -10.77500 48.79800
H  22.12400 -9.14700 48.73100
H  26.92800 -9.02800 46.22000
H  25.56400 -9.96300 45.81200
H  27.85300 -11.04100 47.07700
H  26.26900 -11.79600 46.91800
H  26.65200 -11.05100 48.35500
H  29.12000 -4.96900 48.42600
H  29.85600 -4.55300 46.81500
H  29.20600 -6.13600 47.11900
H  27.30800 -2.09500 43.02300
H  27.07900 2.13500 43.02600
H  28.82400 1.99800 43.26800
H  27.65700 2.02200 44.62900
Mg -1.24000 34.28000 26.40400
C  -2.86600 32.54600 28.96800
C  0.35800 36.16200 28.77400
C  -0.08400 35.98900 23.88700
C  -3.17300 32.40000 24.16600
N  -1.41400 34.39400 28.70500
C  -2.06000 33.55400 29.57700
C  -1.77700 33.90000 31.03900
C  -0.92700 35.19200 30.90800
C  -0.62500 35.27900 29.33000
C  -1.58800 36.46100 31.51500
C  -0.97400 32.80100 31.82400
C  -1.47700 32.69900 33.33100
H  -0.40700 32.68200 34.43900
N  0.03400 35.74000 26.35500
C  0.62000 36.41100 27.39400
C  1.66100 37.27000 26.82400
C  1.61800 37.15200 25.40200
C  0.45400 36.27600 25.16500
C  2.53100 38.13100 27.71500
C  2.50800 37.73200 24.24400
O  2.37200 37.52500 23.08600
C  3.67200 38.53100 24.64300
N  -1.71700 34.26000 24.33700
C  -1.04200 35.05600 23.51000
C  -1.55000 34.90700 22.12900
C  -2.10100 33.42500 22.15900
C  -2.35100 33.36600 23.60000
C  -2.65300 36.01600 21.65700
C  -1.02000 32.33000 21.77700
C  -0.81600 32.22600 20.19300
N  -2.73000 32.82600 26.51700
C  -3.39200 32.12400 25.50600
C  -4.32800 31.22700 26.09600
C  -4.09500 31.21700 27.47000
C  -3.15600 32.34600 27.65300
C  -5.34200 30.37000 25.47600
C  -4.45800 30.73200 28.76500
O  -5.11100 29.78800 29.19100
C  -3.73200 31.62400 29.82500
C  -4.67800 32.27200 30.72500
O  -5.47000 33.18500 30.45100
O  -4.50400 31.71200 31.97000
C  -5.11700 32.50600 32.97500
H  0.91800 36.70900 29.53500
H  0.27400 36.52000 23.00200
H  -3.70200 31.81600 23.41000
H  -2.75400 34.04700 31.50100
H  0.09600 35.16100 31.28300
H  -2.55000 36.07700 31.85400
H  -1.85000 37.26500 30.82700
H  -1.01400 36.88500 32.33900
H  0.07100 33.08700 31.70600
H  -1.11200 31.79900 31.41700
H  -2.02900 31.78100 33.53100
H  -2.09800 33.57700 33.50800
H  2.38400 37.92500 28.77500
H  2.24800 39.16000 27.49600
H  3.54800 37.87800 27.41400
H  4.48900 37.87500 24.94400
H  3.43000 39.35800 25.31100
H  3.83300 39.02800 23.68600
H  -0.79200 34.80600 21.35200
H  -3.05600 33.55500 21.65100
H  -3.04100 36.44200 22.58200
H  -3.46100 35.54900 21.09400
H  -2.08900 36.76300 21.09800
H  -1.43000 31.36800 22.08400
H  -0.13800 32.67400 22.31600
H  -0.83100 31.22200 19.77000
H  0.11300 32.69800 19.87200
H  -1.55600 32.85600 19.69900
H  -5.21700 29.29000 25.55800
H  -5.55800 30.69300 24.45700
H  -6.31600 30.64000 25.88500
H  -3.14400 30.96400 30.46300
H  -4.75400 33.53400 32.97500
H  -5.07800 32.04100 33.96000
H  -6.19900 32.39200 32.90000

