158

Mg 23.88100 -5.54100 46.01800
C  26.12500 -3.57400 44.19800
C  21.37400 -4.70500 43.83600
C  22.23700 -8.37400 46.98100
C  26.56900 -6.61400 48.03200
N  23.77500 -4.42900 44.20800
C  24.79600 -3.67800 43.61700
C  24.29800 -2.77000 42.50000
C  22.75800 -3.12000 42.55500
C  22.55200 -4.09600 43.59200
C  21.86100 -1.86800 42.74300
C  25.06600 -3.06600 41.13400
C  25.69600 -1.91000 40.43800
H  25.91600 -2.00200 38.90600
N  21.94000 -6.27900 45.63600
C  21.08000 -5.76200 44.77100
C  19.76200 -6.46100 44.95300
C  19.99800 -7.44000 45.95400
C  21.46300 -7.38600 46.24500
C  18.48100 -6.07800 44.21900
C  18.98800 -8.44700 46.53800
O  17.84800 -8.51500 46.09800
C  19.28800 -9.31300 47.71000
N  24.41900 -7.32200 47.22800
C  23.57600 -8.38300 47.42200
C  24.19600 -9.47900 48.37700
C  25.32800 -8.69200 48.98200
C  25.44100 -7.45700 48.09700
C  23.29500 -10.25800 49.37200
C  26.74900 -9.46300 49.12100
C  27.62600 -9.03200 50.27700
N  25.92800 -5.17100 46.17400
C  26.91700 -5.68400 47.06400
C  28.11300 -4.95100 46.89500
C  27.92000 -4.05600 45.80900
C  26.53400 -4.32500 45.33500
C  29.26500 -5.15300 47.83900
C  28.45200 -3.02300 44.93800
O  29.54200 -2.48100 44.99200
C  27.34700 -2.72800 43.85900
C  27.11300 -1.25000 43.96900
O  26.38900 -0.73700 44.80500
O  27.95000 -0.62800 43.10300
C  28.00300 0.80400 43.31100
H  20.50400 -4.38500 43.25900
H  21.76000 -9.34700 47.11200
H  27.28500 -6.85600 48.82000
H  24.43300 -1.71900 42.75400
H  22.37800 -3.53200 41.62100
H  21.14500 -1.93500 43.56200
H  21.28900 -1.74800 41.82300
H  22.39100 -0.91600 42.76200
H  24.33000 -3.49300 40.45200
H  25.78300 -3.88500 41.19500
H  26.61200 -1.87200 41.02700
H  25.25000 -0.92900 40.60100
H  18.13100 -6.79600 43.47700
H  18.58200 -5.15800 43.64400
H  17.75600 -5.86400 45.00400
H  18.36200 -9.62900 48.19000
H  19.96100 -8.69500 48.30400
H  19.68800 -10.23700 47.29500
H  24.50000 -10.27300 47.69400
H  24.95000 -8.41700 49.96700
H  22.38600 -9.70300 49.60400
H  23.78100 -10.37200 50.34100
H  23.03800 -11.23400 48.96000
H  27.27300 -9.21700 48.19800
H  26.56100 -10.53000 49.24300
H  27.90600 -9.80000 50.99800
H  27.01000 -8.31400 50.81800
H  28.48200 -8.44900 49.93800
H  30.00200 -4.50300 47.36800
H  29.45900 -6.22500 47.88500
H  29.08600 -4.89300 48.88200
H  27.62200 -2.98700 42.83600
H  26.96100 1.11600 43.37700
H  28.47300 1.31900 42.47200
H  28.60500 1.01800 44.19400
Mg 16.99700 53.46200 26.48600
C  19.26600 51.78000 28.66000
C  14.96600 54.00300 29.04900
C  15.19600 55.21800 24.37300
C  19.18100 52.52600 23.77500
N  17.14300 52.92100 28.66500
C  18.18400 52.33700 29.32000
C  17.89400 52.38600 30.80300
C  16.35900 52.92800 30.84600
C  16.09200 53.31900 29.45300
C  15.41200 51.85700 31.38400
C  18.93200 53.33800 31.57400
C  19.36700 53.04300 33.02400
H  18.31900 52.60500 33.97300
N  15.29700 54.46200 26.68200
C  14.55400 54.51500 27.80500
C  13.32400 55.10900 27.49200
C  13.29700 55.51400 26.12700
C  14.64800 55.05200 25.65200
C  12.28600 55.32500 28.54200
C  12.21900 56.12900 25.28000
O  12.27400 56.28600 24.07900
C  10.87200 56.51300 25.93500
N  17.16800 53.85800 24.39300
C  16.29700 54.70100 23.81400
C  16.60900 54.87700 22.31000
C  18.06900 54.30400 22.23500
C  18.21200 53.55900 23.57000
C  15.59400 54.22800 21.32300
C  19.22300 55.30500 21.88600
C  19.71100 55.16100 20.46500
N  18.87300 52.36900 26.24500
C  19.56100 52.00600 25.07100
C  20.75200 51.27100 25.48000
C  20.69800 51.21000 26.87800
C  19.51000 51.78400 27.29900
C  21.71600 50.77700 24.47400
C  21.38400 50.66000 28.05100
O  22.42300 50.08400 28.24100
C  20.45200 51.05100 29.26600
C  20.06300 49.83700 30.03400
O  19.32300 48.91500 29.69200
O  20.58900 49.92500 31.31200
C  19.91600 49.09000 32.30700
H  14.40700 54.23300 29.95900
H  14.52800 55.85200 23.78600
H  19.85100 52.30500 22.94100
H  18.03200 51.42200 31.29100
H  16.38100 53.74000 31.57300
H  14.75000 52.29500 32.13200
H  15.93800 50.97500 31.74900
H  14.71300 51.71500 30.56000
H  18.48800 54.32600 31.45800
H  19.82200 53.48300 30.96100
H  19.89400 53.91500 33.41000
H  20.00800 52.17000 32.90200
H  11.40600 54.75100 28.25400
H  12.05800 56.38800 28.62700
H  12.56700 54.94400 29.52300
H  10.52300 55.80300 26.68500
H  10.15700 56.33100 25.13300
H  10.91800 57.56600 26.21200
H  16.64800 55.93500 22.05400
H  17.96700 53.56100 21.44400
H  16.09100 54.30800 20.35600
H  14.85300 55.02500 21.38600
H  15.32500 53.19200 21.52900
H  19.88800 54.97800 22.68500
H  19.01600 56.36800 22.01000
H  19.09400 54.46800 19.89300
H  20.73900 54.80700 20.38700
H  19.66600 56.10800 19.92800
H  21.15100 50.45100 23.60000
H  22.34000 50.00300 24.92100
H  22.39200 51.57700 24.17000
H  20.96000 51.73300 29.94800
H  18.86000 49.24900 32.52500
H  20.31000 49.19900 33.31800
H  19.91900 48.02200 32.09200

