158

Mg 24.64200 -7.11100 48.67000
C  27.13700 -5.12300 47.05400
C  22.54100 -6.47400 45.91900
C  22.61600 -9.58500 49.69600
C  27.16400 -8.14100 50.94700
N  24.87300 -5.96900 46.72200
C  25.96500 -5.24700 46.32100
C  25.64100 -4.55100 44.96700
C  24.11700 -4.84000 44.61200
C  23.79600 -5.79400 45.84400
C  23.19100 -3.58600 44.59300
C  26.56800 -4.95200 43.80900
C  27.39200 -3.92000 43.09900
H  27.21600 -3.69000 41.64100
N  22.68400 -7.76600 48.14500
C  22.04300 -7.28600 47.03200
C  20.70000 -7.89700 47.05200
C  20.63500 -8.81200 48.19000
C  22.03900 -8.82600 48.68200
C  19.69300 -7.73900 46.00500
C  19.49800 -9.63200 48.79600
O  18.39300 -9.62700 48.30600
C  19.61500 -10.33500 50.10700
N  24.86800 -8.57100 50.17000
C  23.88700 -9.60800 50.33100
C  24.16600 -10.39000 51.63700
C  25.56000 -9.84200 52.12600
C  25.88100 -8.77700 51.06600
C  23.00000 -10.43700 52.70200
C  26.56000 -11.03700 52.31200
C  27.25300 -10.96300 53.66700
N  26.67500 -6.57900 49.11400
C  27.54600 -7.18800 49.95900
C  28.87900 -6.62800 49.83400
C  28.76800 -5.75800 48.72300
C  27.43400 -5.86700 48.27700
C  29.99600 -6.95900 50.76600
C  29.46700 -4.84000 47.86800
O  30.64200 -4.36400 47.98800
C  28.44000 -4.39300 46.73400
C  28.31200 -2.92000 46.97000
O  27.98400 -2.35500 48.03400
O  28.55200 -2.28200 45.79800
C  28.69800 -0.80400 45.88100
H  21.86300 -6.28400 45.08400
H  22.13100 -10.43800 50.17300
H  27.90800 -8.54300 51.63700
H  25.75400 -3.48700 45.17800
H  24.00100 -5.39200 43.67900
H  22.64900 -3.56100 43.64800
H  23.62400 -2.61500 44.83700
H  22.40900 -3.64700 45.35000
H  26.00400 -5.41000 42.99600
H  27.23400 -5.69700 44.24500
H  28.45400 -4.16100 43.07400
H  27.17900 -2.96800 43.58600
H  18.68700 -7.71000 46.42300
H  19.77000 -8.56300 45.29700
H  19.81800 -6.76800 45.52600
H  20.09800 -11.29600 49.92800
H  18.59900 -10.51700 50.45600
H  20.16300 -9.64700 50.75100
H  24.28000 -11.41800 51.29200
H  25.48500 -9.30700 53.07200
H  22.12400 -9.91900 52.31300
H  23.36500 -9.89100 53.57100
H  22.66800 -11.42800 53.01300
H  27.36600 -10.85100 51.60200
H  26.15100 -12.04000 52.18900
H  28.29100 -10.73300 53.42700
H  27.18400 -11.93700 54.15300
H  26.93300 -10.28800 54.46000
H  30.07900 -6.23600 51.57700
H  30.87300 -6.90500 50.12100
H  29.83500 -7.96100 51.16400
H  28.92600 -4.66500 45.79600
H  28.93600 -0.54200 44.85000
H  29.43900 -0.43700 46.59100
H  27.69100 -0.46300 46.12400
Mg 35.74300 49.32100 25.00200
C  36.01100 47.88800 28.23900
C  34.77700 52.22100 26.49500
C  35.66400 50.57900 21.96000
C  36.58800 46.13900 23.68000
N  35.52100 49.93900 27.18000
C  35.64600 49.21100 28.29900
C  35.40600 50.06600 29.58500
C  34.84200 51.38200 28.98100
C  35.03700 51.16800 27.44800
C  33.46700 51.85200 29.51300
C  36.65600 50.17600 30.52200
C  36.49300 49.74100 32.01500
H  35.16100 50.08400 32.66300
N  35.30500 51.14300 24.31200
C  34.85400 52.21700 25.06400
C  34.54600 53.32500 24.19000
C  34.88600 52.87700 22.84400
C  35.36400 51.46100 23.01200
C  34.00500 54.59400 24.61700
C  34.78000 53.64300 21.44500
O  35.20800 53.19400 20.36700
C  34.24600 55.03700 21.47600
N  35.80800 48.46700 23.06100
C  35.91500 49.20300 21.97200
C  36.27000 48.42400 20.63900
C  36.74000 47.03100 21.28300
C  36.25000 47.19300 22.76400
C  34.97500 48.24100 19.75900
C  38.27100 46.72000 21.08600
C  38.63700 45.28500 20.56000
N  36.23500 47.41000 25.72600
C  36.53000 46.24300 25.10000
C  36.64100 45.17800 26.04700
C  36.47200 45.79700 27.25700
C  36.22500 47.11200 27.04700
C  37.02000 43.73300 25.73400
C  36.49300 45.55500 28.68300
O  36.81100 44.60800 29.31700
C  36.06000 46.84100 29.33700
C  34.84000 46.85000 30.14300
O  33.75300 47.25900 29.81300
O  35.02700 46.11600 31.29900
C  33.93000 46.05700 32.23500
H  34.53500 53.15600 27.00500
H  35.73000 51.08700 20.99600
H  37.01400 45.23100 23.25000
H  34.52000 49.64700 30.06100
H  35.53000 52.13600 29.36600
H  32.83300 51.01800 29.81400
H  33.08800 52.41000 28.65700
H  33.72500 52.44400 30.39200
H  36.95500 51.22000 30.61700
H  37.51000 49.61200 30.14800
H  37.35000 50.01300 32.63000
H  36.74200 48.68000 32.03600
H  34.76900 55.33700 24.39100
H  33.80400 54.66800 25.68500
H  33.06500 54.86200 24.13400
H  33.33600 55.04900 22.07600
H  34.08400 55.44300 20.47700
H  35.04400 55.70700 21.79300
H  37.08000 48.99000 20.18000
H  36.16600 46.13200 21.05700
H  34.10800 48.26200 20.41900
H  35.11600 47.26500 19.29600
H  34.91500 49.08900 19.07600
H  38.77700 46.75500 22.05100
H  38.67000 47.43500 20.36600
H  37.74700 44.66300 20.46000
H  39.35500 44.77000 21.19800
H  39.20700 45.26700 19.63100
H  37.78000 43.67100 24.95500
H  36.19100 43.11100 25.39700
H  37.49800 43.19900 26.55500
H  36.88400 47.10000 30.00200
H  33.08200 45.66200 31.67500
H  33.66400 47.02900 32.65100
H  34.03200 45.42800 33.12000

