158

Mg 43.15400 41.31100 25.87700
C  41.97500 43.49400 28.38600
C  44.07600 39.02300 28.17200
C  43.82100 39.19300 23.31000
C  42.24600 43.71500 23.49100
N  42.89000 41.26000 28.04900
C  42.47000 42.26600 28.87500
C  42.58000 41.82900 30.35300
C  43.29600 40.42700 30.19400
C  43.44900 40.26200 28.73600
C  44.62300 40.24200 30.99600
C  41.19100 41.82800 31.02900
C  41.12200 42.50600 32.35300
H  40.36000 41.99000 33.54600
N  43.92100 39.41400 25.74000
C  44.21900 38.63000 26.78100
C  44.75500 37.37600 26.29400
C  44.69600 37.44500 24.86000
C  44.11200 38.69600 24.57900
C  45.39600 36.15500 27.04500
C  45.18100 36.44200 23.72600
O  44.86000 36.48000 22.54000
C  45.97000 35.27800 24.15300
N  43.26200 41.52900 23.64700
C  43.43900 40.46300 22.85800
C  43.06600 40.70900 21.41400
C  42.45500 42.14800 21.51700
C  42.56200 42.49100 22.94200
C  44.33600 40.53700 20.45400
C  41.06500 42.23600 20.89600
C  40.85100 43.44600 20.03500
N  42.40700 43.24200 25.87100
C  42.24000 44.14300 24.86500
C  41.72900 45.44700 25.36500
C  41.63900 45.19100 26.76000
C  42.04800 43.83800 27.06400
C  41.35100 46.58100 24.50100
C  41.29500 45.80700 28.00700
O  40.85300 46.92600 28.25600
C  41.57100 44.70700 29.16500
C  42.66600 45.19100 30.06500
O  43.81700 45.32800 29.68700
O  42.18000 45.61000 31.25900
C  43.16700 46.16400 32.15000
H  44.25700 38.19700 28.86400
H  43.89300 38.52800 22.44600
H  41.88700 44.37800 22.70100
H  43.28400 42.48200 30.87000
H  42.63000 39.60700 30.46200
H  45.52100 40.46000 30.41800
H  44.69400 39.29700 31.53400
H  44.66500 41.02400 31.75500
H  40.88800 40.78200 31.08500
H  40.46800 42.38100 30.42900
H  40.73700 43.49500 32.10200
H  42.12800 42.66200 32.74000
H  44.88900 35.26000 26.68400
H  45.19700 36.17400 28.11600
H  46.44600 36.20500 26.75800
H  46.66900 35.90400 24.70700
H  46.55900 34.90300 23.31600
H  45.41300 34.56100 24.75700
H  42.32800 39.92000 21.26900
H  43.05500 42.78700 20.87000
H  45.19900 40.13500 20.98500
H  44.54400 41.47800 19.94400
H  44.07900 39.84100 19.65500
H  40.36500 42.18500 21.73100
H  40.96900 41.27400 20.39400
H  41.07400 43.10800 19.02300
H  41.60800 44.21000 20.21300
H  39.87800 43.86800 20.28500
H  42.10500 46.86700 23.76800
H  41.29100 47.44300 25.16500
H  40.36400 46.42800 24.06400
H  40.63700 44.54500 29.70400
H  43.85500 46.76500 31.55500
H  43.85500 45.48700 32.65700
H  42.67100 46.81600 32.87000
Mg -12.14900 37.69600 42.75400
C  -9.94000 35.15700 41.82300
C  -10.01700 39.88600 41.05100
C  -14.43600 40.12900 43.32200
C  -14.38200 35.22700 43.98100
N  -10.28100 37.51700 41.51900
C  -9.53600 36.35000 41.23000
C  -8.31300 36.58600 40.43100
C  -8.18600 38.16300 40.53000
C  -9.62300 38.57200 40.95700
C  -7.11900 38.61900 41.53800
C  -8.44100 36.09800 38.93300
C  -7.36600 35.01000 38.47500
H  -6.03400 35.35600 37.80200
N  -12.27600 39.68000 42.15600
C  -11.26500 40.43200 41.55400
C  -11.66200 41.85100 41.61400
C  -12.91300 41.93800 42.25000
C  -13.24200 40.57800 42.64000
C  -10.73700 42.87100 41.13200
C  -13.68800 43.19400 42.37100
O  -13.25800 44.23800 41.89400
C  -15.00600 43.27800 43.05000
N  -14.29600 37.59100 43.35200
C  -14.93700 38.82200 43.63000
C  -16.18700 38.59900 44.42400
C  -16.20700 37.04100 44.48100
C  -14.87900 36.55300 43.89600
C  -16.23100 39.36800 45.79600
C  -17.45600 36.38500 43.91300
C  -17.76500 34.94800 44.38600
N  -12.12500 35.64500 43.03300
C  -13.09700 34.80000 43.57200
C  -12.51600 33.49600 43.64100
C  -11.30600 33.53800 42.90700
C  -11.09100 34.90600 42.58100
C  -13.25100 32.23800 44.32000
C  -10.15300 32.85200 42.41700
O  -9.90900 31.63900 42.63400
C  -9.26700 33.78000 41.58100
C  -7.86700 33.65200 42.13400
O  -7.13800 32.80400 41.67000
O  -7.61000 34.72300 43.03200
C  -6.31900 34.58000 43.75400
H  -9.29700 40.56700 40.59500
H  -15.12700 40.81100 43.82200
H  -15.20500 34.57200 44.27700
H  -7.48700 36.12600 40.97300
H  -8.02700 38.55900 39.52700
H  -6.30600 37.89600 41.59900
H  -7.41000 38.77100 42.57800
H  -6.69900 39.50900 41.06900
H  -8.51200 36.91600 38.21600
H  -9.38300 35.55000 38.93900
H  -7.85900 34.26100 37.85400
H  -6.98800 34.52400 39.37400
H  -9.67700 42.67100 41.28500
H  -10.89800 43.74300 41.76700
H  -10.98600 42.94200 40.07300
H  -15.80400 42.79500 42.48800
H  -15.24700 44.30900 43.30700
H  -14.81200 42.78100 44.00100
H  -16.86800 38.97900 43.66200
H  -16.16700 36.74000 45.52800
H  -15.22500 39.51500 46.18800
H  -16.84200 38.85500 46.53900
H  -16.73600 40.32800 45.68900
H  -17.21900 36.44900 42.85200
H  -18.22900 37.08700 44.22800
H  -18.80900 34.83500 44.67800
H  -17.06500 34.80700 45.21100
H  -17.44100 34.37900 43.51500
H  -13.26100 31.34100 43.70100
H  -14.23000 32.48300 44.73200
H  -12.61200 31.86800 45.12200
H  -9.20600 33.44500 40.54600
H  -5.64300 35.43300 43.71200
H  -5.80500 33.67400 43.43300
H  -6.54400 34.38500 44.80300

