158

Mg 8.60500 4.16500 28.03400
C  10.00200 2.46900 30.76500
C  6.87600 6.10400 30.20500
C  7.37800 5.67800 25.45100
C  10.16400 1.66900 26.01300
N  8.40900 4.17400 30.29100
C  9.15700 3.47300 31.24100
C  8.81800 3.94500 32.63300
C  7.76600 5.06000 32.38300
C  7.68700 5.14200 30.89600
C  6.35500 4.87600 33.09900
C  10.14400 4.43500 33.30700
C  9.87700 5.17700 34.61900
H  10.60200 4.82800 35.91400
N  7.32200 5.73100 27.80600
C  6.72600 6.40700 28.84500
C  5.81200 7.40800 28.24700
C  5.95800 7.32300 26.83600
C  6.91300 6.18500 26.64500
C  4.85600 8.34500 28.99800
C  5.38800 8.26700 25.75200
O  5.71200 8.15300 24.59100
C  4.44400 9.45800 26.08700
N  8.65300 3.63000 26.02900
C  8.20500 4.57300 25.15300
C  8.46400 4.11000 23.70300
C  9.29100 2.80900 23.83800
C  9.40800 2.67200 25.37800
C  7.09000 3.90300 22.85900
C  10.64700 2.66200 22.99900
C  11.05700 1.19800 22.61300
N  9.76200 2.48000 28.27500
C  10.33300 1.53500 27.35700
C  11.20800 0.63700 27.98800
C  11.10200 0.97700 29.35700
C  10.19100 2.02200 29.44700
C  12.02500 -0.50900 27.25400
C  11.63200 0.61100 30.59000
O  12.35400 -0.36600 30.82600
C  10.96600 1.58500 31.60200
C  10.24300 0.73600 32.62200
O  9.11600 0.26800 32.41400
O  10.93800 0.71200 33.84500
C  10.23900 0.07200 34.99400
H  6.24100 6.75700 30.80700
H  6.94200 6.17000 24.58000
H  10.63800 0.93400 25.35900
H  8.44000 3.09800 33.20600
H  8.18900 6.03700 32.61900
H  5.53900 4.81000 32.37900
H  6.32200 5.77900 33.71000
H  6.43500 3.97800 33.71100
H  10.58900 5.03700 32.51400
H  10.80800 3.64500 33.65900
H  8.80200 5.16700 34.79600
H  10.02100 6.24800 34.47700
H  5.10000 9.40500 28.91800
H  4.81500 7.86800 29.97700
H  3.90400 8.21400 28.48300
H  4.04600 10.03000 25.24900
H  5.02400 10.05400 26.79100
H  3.61600 9.11700 26.71000
H  9.11000 4.87700 23.27700
H  8.48300 2.12300 23.58400
H  6.17100 3.72000 23.41500
H  7.28100 3.19200 22.05500
H  6.91800 4.83000 22.31200
H  11.40300 3.18700 23.58300
H  10.44100 3.12400 22.03400
H  11.92900 0.92300 23.20500
H  11.37100 1.13100 21.57100
H  10.31600 0.41100 22.75200
H  12.29500 -1.18100 28.06900
H  12.85400 -0.15300 26.64300
H  11.36400 -0.91100 26.48600
H  11.72800 2.16400 32.12300
H  9.57900 -0.75800 34.74100
H  9.79000 0.82700 35.63900
H  11.01800 -0.43500 35.56500
Mg 48.87200 34.63700 26.67700
C  46.63300 33.29600 29.07700
C  49.36900 37.32800 28.73200
C  50.41700 36.21400 24.09000
C  47.93800 32.02200 24.49600
N  48.12400 35.24900 28.71500
C  47.25100 34.52800 29.51500
C  47.27400 35.07600 31.00300
C  47.84000 36.53900 30.67800
C  48.54700 36.38800 29.35800
C  46.85700 37.81700 30.71200
C  48.40800 34.24800 31.84200
C  48.11700 33.94000 33.30700
H  47.05000 34.81700 34.00900
N  49.84000 36.49200 26.43400
C  49.89900 37.44900 27.39100
C  50.62400 38.53800 26.90000
C  51.01000 38.21800 25.57400
C  50.39900 36.92700 25.34300
C  50.76800 39.86100 27.62500
C  51.79100 39.03100 24.54000
O  52.21800 38.60100 23.46100
C  52.14600 40.42700 24.81200
N  49.12000 34.16600 24.64400
C  49.86500 34.97300 23.78300
C  49.69500 34.46600 22.34300
C  49.24700 32.94600 22.49500
C  48.85600 32.98200 24.01900
C  48.81600 35.35700 21.49100
C  50.37200 31.92800 22.24600
C  49.93200 30.87800 21.18700
N  47.68500 32.95300 26.76400
C  47.32300 31.98500 25.77700
C  46.33300 31.07700 26.24600
C  46.02200 31.60200 27.54900
C  46.92600 32.71500 27.78300
C  45.67900 29.87500 25.60600
C  45.16600 31.38000 28.68600
O  44.22800 30.52400 28.84000
C  45.51800 32.43500 29.76100
C  45.91100 31.89300 31.08600
O  46.94000 31.24900 31.33000
O  44.84600 31.94500 31.94700
C  44.86600 31.29400 33.29100
H  49.40500 38.20100 29.38700
H  50.96200 36.61300 23.23200
H  47.59300 31.24300 23.81400
H  46.32600 35.01900 31.53600
H  48.61400 36.80800 31.39700
H  47.39600 38.61900 31.21700
H  45.95200 37.50000 31.23100
H  46.62800 38.04000 29.67000
H  49.42400 34.64500 31.82100
H  48.40200 33.27800 31.34500
H  49.09500 34.15300 33.73900
H  47.88600 32.87600 33.35000
H  51.84100 40.05000 27.66300
H  50.49700 39.74500 28.67400
H  50.25800 40.66000 27.08700
H  52.28300 40.83200 23.81000
H  53.09000 40.56000 25.34000
H  51.30200 40.94300 25.27100
H  50.72800 34.57400 22.01100
H  48.33100 32.78400 21.92800
H  49.21000 36.37200 21.44200
H  47.86300 35.55900 21.98000
H  48.73000 34.95500 20.48100
H  50.51100 31.29800 23.12500
H  51.29000 32.45400 21.98300
H  50.50400 31.13500 20.29600
H  48.89200 31.05400 20.91100
H  50.08000 29.87500 21.58600
H  44.75600 30.19100 25.11900
H  45.37600 29.32700 26.49800
H  46.30000 29.30600 24.91400
H  44.61600 33.04400 29.81700
H  45.00100 30.21300 33.26100
H  43.99400 31.54100 33.89700
H  45.76300 31.77800 33.67800

