158

Mg 8.96800 47.91800 25.65300
C  6.82300 48.16500 28.47300
C  11.42800 49.59300 27.38000
C  10.68300 48.32700 22.83500
C  6.16800 46.98700 23.83400
N  8.98900 49.07900 27.63900
C  8.08200 48.80600 28.68300
C  8.64300 49.45100 29.99900
C  10.11300 49.97300 29.55900
C  10.22600 49.50800 28.08600
C  10.30300 51.53000 29.61800
C  8.70200 48.43900 31.20700
C  7.82000 48.80600 32.40400
H  8.06500 47.87100 33.65900
N  10.90200 48.55300 25.27500
C  11.78600 49.07600 26.10800
C  13.14400 49.04100 25.49000
C  12.97700 48.68800 24.12600
C  11.46700 48.50400 24.00900
C  14.38200 49.44000 26.24900
C  13.95700 48.51500 22.97800
O  13.62700 48.11600 21.88700
C  15.36800 48.83500 23.14400
N  8.45100 47.85600 23.67700
C  9.33200 48.01800 22.66700
C  8.72200 47.67000 21.28600
C  7.52400 46.72600 21.72800
C  7.32100 47.25300 23.19600
C  8.26100 48.95200 20.50700
C  7.75600 45.20300 21.66300
C  8.68700 44.45200 22.61100
N  6.95900 47.54200 26.08400
C  5.88600 47.21000 25.21300
C  4.58500 47.00400 25.94800
C  5.00000 47.34800 27.25200
C  6.39300 47.67100 27.23000
C  3.22500 46.68800 25.43200
C  4.51600 47.58900 28.62900
O  3.40800 47.57600 29.02400
C  5.76400 47.88200 29.50100
C  5.82300 46.58000 30.33400
O  6.60100 45.63900 30.10800
O  5.04700 46.53900 31.47100
C  5.40100 45.46900 32.39500
H  12.19700 50.13900 27.93000
H  11.26400 48.42400 21.91600
H  5.34300 46.59600 23.23400
H  8.10300 50.35100 30.29300
H  10.97800 49.44700 29.96200
H  11.36100 51.61700 29.86300
H  9.62300 51.99700 30.33100
H  10.14400 51.97400 28.63500
H  9.71200 48.27300 31.58300
H  8.28400 47.48000 30.90000
H  6.75300 48.69300 32.20900
H  8.03800 49.82900 32.70900
H  14.84800 50.24300 25.67900
H  15.07400 48.60300 26.15100
H  14.31600 49.91000 27.23000
H  15.51500 49.74300 23.72900
H  15.86000 48.87000 22.17200
H  15.86500 48.04200 23.70400
H  9.48000 47.14700 20.70300
H  6.61600 47.02000 21.20200
H  8.71200 49.81400 20.99800
H  7.20200 48.92100 20.25000
H  8.77500 48.90800 19.54700
H  8.19800 45.20600 20.66700
H  6.80000 44.68000 21.68000
H  9.02900 45.13600 23.38700
H  9.54200 44.15100 22.00600
H  8.20400 43.54300 22.97000
H  2.79500 45.84500 25.97300
H  3.13500 46.58100 24.35100
H  2.72600 47.63000 25.65800
H  5.54300 48.62400 30.26700
H  4.68600 44.64700 32.42900
H  5.37900 46.00700 33.34300
H  6.44000 45.16700 32.26400
Mg 0.39700 42.51800 24.96700
C  1.31500 42.61200 28.37700
C  -2.68000 41.22300 26.02800
C  -0.26100 42.07200 21.81600
C  3.76200 43.21300 24.15700
N  -0.49200 41.87400 27.02100
C  -0.00100 42.27400 28.20800
C  -0.98600 41.99900 29.36100
C  -2.19900 41.17500 28.68300
C  -1.79500 41.44500 27.14700
C  -2.45000 39.65600 28.87700
C  -1.41300 43.47900 29.83100
C  -1.56600 43.55400 31.34700
H  -2.04400 42.39600 32.16800
N  -1.21100 41.85700 24.06700
C  -2.41100 41.40100 24.60100
C  -3.36500 41.19000 23.55800
C  -2.70000 41.42300 22.36100
C  -1.37100 41.86200 22.71100
C  -4.77500 40.51300 23.84600
C  -3.32900 41.31900 20.99500
O  -2.63800 41.53300 19.96800
C  -4.76200 40.83900 20.75700
N  1.58800 42.60200 23.19000
C  1.10900 42.33100 21.99400
C  2.14600 42.48900 20.86600
C  3.31100 43.28400 21.61600
C  2.87400 43.10100 23.12200
C  2.52600 41.13000 20.20800
C  3.46300 44.77600 21.17000
C  4.07300 45.17900 19.87700
N  2.18300 42.88200 25.99400
C  3.48000 43.09700 25.54000
C  4.38500 43.22600 26.66800
C  3.56500 43.12600 27.83300
C  2.23400 42.88900 27.33500
C  5.90600 43.50600 26.63500
C  3.55600 43.12000 29.26400
O  4.46800 43.14200 30.04400
C  2.09500 42.90500 29.67900
C  1.93600 41.73800 30.66000
O  2.49100 40.67300 30.49500
O  1.23400 42.05000 31.83900
C  1.18600 40.90300 32.77700
H  -3.72100 41.00300 26.27700
H  -0.41800 41.87200 20.75400
H  4.78400 43.42400 23.83800
H  -0.60600 41.42400 30.20600
H  -3.19700 41.60200 28.78000
H  -1.73600 39.35400 29.64400
H  -2.28000 39.14900 27.92800
H  -3.45000 39.45100 29.25800
H  -2.34100 43.81800 29.37100
H  -0.68300 44.21400 29.49300
H  -2.25300 44.39600 31.42500
H  -0.66300 44.00700 31.75600
H  -4.95800 39.99600 24.78700
H  -4.77700 39.69400 23.12700
H  -5.56300 41.23900 23.64400
H  -4.87400 39.78400 21.00700
H  -5.00000 40.90600 19.69500
H  -5.49100 41.42700 21.31400
H  1.59600 43.10100 20.15100
H  4.17800 42.73400 21.25100
H  2.03400 41.04300 19.23900
H  2.10300 40.31900 20.80100
H  3.59800 40.94600 20.14600
H  3.96400 45.22700 22.02600
H  2.49300 45.25700 21.29700
H  4.80900 45.97200 20.01000
H  3.23300 45.51100 19.26700
H  4.52800 44.35700 19.32600
H  6.27600 42.87700 27.44500
H  6.13800 44.52900 26.93300
H  6.39800 43.19400 25.71400
H  1.79200 43.78000 30.25500
H  0.48800 40.14600 32.42000
H  0.97500 41.26300 33.78400
H  2.12700 40.42600 33.05000

