158

Mg 2.22900 -1.07600 44.08000
C  5.76100 -0.80400 43.29500
C  1.89000 1.86700 42.42800
C  -1.10600 -1.66600 44.04900
C  2.84400 -4.28800 45.19700
N  3.70000 0.34000 42.81300
C  5.09000 0.25300 42.70100
C  5.61500 1.40700 41.91100
C  4.39800 2.46100 41.97700
C  3.23500 1.53700 42.52800
C  4.71000 3.57400 42.90100
C  6.06100 0.95200 40.43900
C  7.49200 1.46000 39.94400
H  7.56500 2.20100 38.67200
N  0.57200 0.04600 43.55600
C  0.71700 1.20100 42.86000
C  -0.65200 1.72700 42.63900
C  -1.59100 0.76600 43.18700
C  -0.71300 -0.29500 43.67100
C  -0.93800 3.07400 41.96900
C  -3.10400 0.80200 43.17700
O  -3.59300 1.79500 42.63400
C  -3.99200 -0.23300 43.92500
N  1.04500 -2.83000 44.43300
C  -0.28700 -2.72400 44.39800
C  -0.91000 -3.95800 45.13400
C  0.31900 -4.91900 45.22600
C  1.46400 -4.00400 44.89500
C  -1.71100 -3.73000 46.39700
C  0.28600 -6.01600 44.10800
C  0.27900 -7.49600 44.52500
N  3.92700 -2.25300 44.36600
C  4.00000 -3.57500 44.81000
C  5.41000 -3.92200 44.91500
C  6.11500 -2.82900 44.34600
C  5.17900 -1.87700 44.01200
C  6.01200 -5.29300 45.32000
C  7.44700 -2.39300 43.96500
O  8.51800 -2.94300 44.04900
C  7.24500 -1.04700 43.24800
C  7.95700 0.04000 43.96300
O  7.62100 0.63700 45.00600
O  8.97600 0.43700 43.16800
C  9.70300 1.56700 43.64800
H  1.72500 2.84700 41.97500
H  -2.13300 -2.01200 43.91300
H  3.11900 -5.26100 45.60900
H  6.49700 1.70700 42.47600
H  4.11700 2.88200 41.01200
H  5.13400 4.36900 42.28700
H  5.33800 3.16900 43.69500
H  3.83700 3.97000 43.41900
H  5.31800 1.39400 39.77500
H  6.10400 -0.13500 40.38000
H  8.06100 0.53000 39.93900
H  7.94200 2.04300 40.74800
H  -1.94700 3.13000 41.56100
H  -0.20200 3.29600 41.19600
H  -0.88300 3.77500 42.80200
H  -4.85800 0.40300 44.11100
H  -3.52000 -0.49100 44.87300
H  -4.23900 -1.08300 43.28800
H  -1.61400 -4.42600 44.44600
H  0.51000 -5.39300 46.19000
H  -2.67100 -4.24300 46.33500
H  -1.86900 -2.66100 46.54100
H  -1.27100 -4.09500 47.32500
H  1.10400 -5.88400 43.40000
H  -0.54300 -5.69200 43.47800
H  -0.67300 -7.88300 44.16200
H  0.23900 -7.57800 45.61100
H  1.14700 -7.97900 44.07600
H  5.32600 -5.99100 45.79900
H  6.90700 -5.07800 45.90400
H  6.22000 -5.79900 44.37700
H  7.59100 -1.05800 42.21400
H  10.50600 1.78100 42.94300
H  10.08300 1.48100 44.66600
H  9.05800 2.44400 43.68200
Mg 47.31800 24.59000 28.66800
C  47.98100 26.76700 31.15900
C  46.46300 22.21800 30.86000
C  46.55700 22.74200 26.00000
C  48.49600 27.04300 26.27900
N  47.37700 24.53400 30.84800
C  47.50400 25.55000 31.69600
C  47.34500 25.05200 33.19400
C  46.93300 23.59000 32.97900
C  46.89300 23.38300 31.46300
C  47.85200 22.62800 33.71700
C  46.31000 25.93500 33.93000
C  46.77500 26.47600 35.38400
H  45.70000 26.50300 36.34700
N  46.69200 22.75900 28.44500
C  46.24900 21.92500 29.47900
C  45.94000 20.67300 28.91600
C  46.00400 20.72200 27.52200
C  46.38200 22.16800 27.29000
C  45.77400 19.42100 29.85900
C  45.87000 19.63500 26.43600
O  46.22200 19.85800 25.30600
C  45.32100 18.32600 26.68100
N  47.45800 24.79900 26.44200
C  47.13200 23.90400 25.58200
C  47.35400 24.26100 24.11300
C  47.73700 25.77900 24.27500
C  47.95800 25.84000 25.78700
C  48.48900 23.35300 23.50100
C  46.66400 26.79800 23.70100
C  45.43700 27.18800 24.53600
N  48.11600 26.46700 28.69000
C  48.45600 27.35600 27.70400
C  48.87200 28.67700 28.20300
C  48.70000 28.50000 29.60300
C  48.25500 27.13900 29.83200
C  49.48500 29.88900 27.40100
C  48.79000 29.10600 30.89300
O  49.11000 30.24500 31.20200
C  48.27400 28.04700 31.87800
C  49.26800 27.89800 32.98800
O  50.20100 27.15800 32.82600
O  49.04900 28.82700 33.97000
C  49.81600 28.75300 35.22300
H  46.17100 21.49100 31.62100
H  46.17500 22.03400 25.26200
H  49.01500 27.72900 25.60700
H  48.28700 25.16300 33.73100
H  45.91900 23.41800 33.33900
H  47.23000 21.92300 34.26900
H  48.44200 23.12700 34.48700
H  48.55500 21.98000 33.19300
H  45.35500 25.47100 34.17800
H  46.09600 26.83900 33.36100
H  47.22400 27.45100 35.19700
H  47.51100 25.73900 35.70700
H  46.46600 18.62600 29.58000
H  44.76400 19.04600 29.69600
H  45.92600 19.59300 30.92500
H  44.47100 18.27700 27.36200
H  46.20900 17.80100 27.03500
H  45.15400 17.75000 25.77100
H  46.43100 24.08000 23.56300
H  48.68600 25.91700 23.75600
H  48.38300 22.35200 23.92000
H  49.44900 23.70200 23.88200
H  48.54000 23.30900 22.41300
H  46.30200 26.25500 22.82800
H  47.30900 27.59600 23.33300
H  45.50500 26.53100 25.40300
H  44.60800 26.93800 23.87300
H  45.55900 28.21000 24.89700
H  48.88800 30.12600 26.52000
H  50.46600 29.50300 27.12600
H  49.51700 30.85300 27.90900
H  47.36900 28.54300 32.22900
H  49.25500 28.26800 36.02300
H  49.95600 29.77100 35.58400
H  50.77800 28.26300 35.07500

