158

Mg 17.21000 -1.83600 28.33400
C  16.19800 0.38600 30.80700
C  19.28700 -3.38700 30.58900
C  18.44600 -3.59100 25.79600
C  15.47600 0.32400 26.00400
N  17.62300 -1.55200 30.43900
C  17.03500 -0.58500 31.24600
C  17.48800 -0.83500 32.66800
C  18.60600 -1.96900 32.61500
C  18.45000 -2.38000 31.13800
C  20.07400 -1.72500 32.97700
C  16.24900 -1.28300 33.61000
C  16.20500 -0.47000 34.88600
H  17.52100 -0.08300 35.55000
N  18.74800 -3.24400 28.23200
C  19.40400 -3.83300 29.24400
C  20.05500 -5.01600 28.83400
C  19.77400 -5.20900 27.39300
C  18.90300 -4.00500 27.06600
C  20.87700 -5.94600 29.75900
C  20.28100 -6.17800 26.41000
O  20.07500 -6.23400 25.16000
C  21.25100 -7.21400 26.89200
N  16.93400 -1.74300 26.24000
C  17.67900 -2.50400 25.39500
C  17.29400 -2.18700 23.92100
C  16.34900 -0.92800 23.98900
C  16.25000 -0.71900 25.51900
C  18.52300 -1.95800 23.01200
C  14.97100 -1.16100 23.28000
C  13.99500 -2.03500 24.03100
N  15.92800 -0.07500 28.38100
C  15.34700 0.67600 27.39000
C  14.46000 1.69600 27.97300
C  14.79900 1.67300 29.33300
C  15.72400 0.64400 29.48400
C  13.47700 2.65800 27.33500
C  14.62600 2.37100 30.65100
O  13.92600 3.32800 30.94900
C  15.49000 1.50400 31.63400
C  16.35800 2.30900 32.35200
O  17.42400 2.70700 32.01200
O  15.83300 2.71600 33.52500
C  16.47400 3.73600 34.34000
H  19.96600 -3.85700 31.30400
H  18.82700 -4.12400 24.92400
H  14.98400 0.99900 25.30100
H  18.04800 0.04500 32.98300
H  18.29800 -2.83900 33.19600
H  20.05000 -0.87500 33.65800
H  20.59000 -1.55300 32.03200
H  20.42000 -2.60400 33.52000
H  16.39500 -2.31200 33.93900
H  15.34200 -1.16600 33.01600
H  15.52900 -1.04200 35.52100
H  15.66600 0.42100 34.56200
H  20.46800 -6.94300 29.59800
H  20.83300 -5.70500 30.82100
H  21.92000 -5.84600 29.45700
H  20.73800 -7.82100 27.63900
H  22.20400 -6.80000 27.22000
H  21.58200 -7.88100 26.09600
H  16.78100 -3.08400 23.57500
H  16.71700 -0.02300 23.50700
H  18.34100 -1.31600 22.15100
H  18.75800 -2.97000 22.68200
H  19.30100 -1.45900 23.59100
H  15.08100 -1.64500 22.30900
H  14.41000 -0.22900 23.20700
H  13.08800 -1.45100 24.18900
H  14.39300 -2.40200 24.97700
H  13.67600 -2.89700 23.44500
H  13.10400 2.16000 26.44000
H  14.04800 3.51600 26.97900
H  12.61600 2.97500 27.92300
H  14.73500 1.04800 32.27400
H  17.23100 4.28500 33.78000
H  17.00500 3.37100 35.22000
H  15.62100 4.34100 34.64600
Mg 16.78600 51.47500 26.97400
C  18.82400 49.93300 29.40300
C  14.51200 52.04100 29.43400
C  14.91200 53.04000 24.61100
C  18.97800 50.30400 24.49600
N  16.69700 51.03300 29.16400
C  17.66800 50.45400 29.93000
C  17.36400 50.54100 31.44400
C  15.83300 50.99200 31.41300
C  15.63100 51.35800 29.92100
C  14.87100 49.87500 31.86200
C  18.27500 51.41500 32.31800
C  17.69200 52.06800 33.55400
H  16.78600 51.22200 34.41300
N  14.93500 52.48200 27.03100
C  14.16400 52.64600 28.16900
C  13.05800 53.49700 27.83500
C  13.11400 53.75800 26.42500
C  14.38800 53.11300 25.92300
C  12.07700 53.99200 28.88300
C  12.13400 54.46700 25.51200
O  12.26400 54.54700 24.30200
C  10.90600 54.99800 26.04900
N  16.82000 51.48800 24.79000
C  15.98400 52.35200 24.11500
C  16.39600 52.35300 22.65600
C  17.76500 51.60800 22.54700
C  17.91500 51.10100 24.01700
C  15.39000 51.68700 21.65900
C  19.04400 52.36700 22.03600
C  19.33400 53.81200 22.49200
N  18.55400 50.36800 26.91700
C  19.34800 50.03900 25.83200
C  20.59200 49.46000 26.32800
C  20.38200 49.35200 27.70500
C  19.14900 49.94100 28.01600
C  21.69600 49.02800 25.46500
C  20.98900 48.90800 28.94900
O  22.01900 48.26900 29.20600
C  20.10900 49.38100 30.03800
C  19.76700 48.22600 30.92100
O  19.18900 47.22500 30.59200
O  20.23000 48.48500 32.24300
C  19.89700 47.41500 33.29000
H  13.81100 52.28700 30.23400
H  14.26900 53.43600 23.82200
H  19.61700 50.10200 23.63400
H  17.44400 49.48400 31.69800
H  15.74200 51.88400 32.03300
H  15.41900 48.96100 32.09200
H  14.13600 49.69700 31.07700
H  14.39800 50.26100 32.76400
H  18.58000 52.24400 31.68000
H  19.25000 50.98500 32.54700
H  17.19500 52.98900 33.24800
H  18.52400 52.40300 34.17400
H  11.10900 53.49500 28.95100
H  11.81900 55.00900 28.58900
H  12.45200 53.88300 29.90000
H  10.33900 54.39300 26.75600
H  10.38300 55.15600 25.10600
H  11.14100 55.93700 26.54900
H  16.55800 53.38300 22.33900
H  17.68600 50.73100 21.90400
H  15.81600 51.35200 20.71400
H  14.75500 52.51500 21.34600
H  14.91300 50.78400 22.04100
H  18.97700 52.33600 20.94900
H  19.82700 51.64200 22.25900
H  20.36800 53.86300 22.83200
H  18.62500 54.22300 23.21000
H  19.25300 54.44600 21.60900
H  22.47200 49.79300 25.44200
H  21.47900 48.71700 24.44300
H  22.24800 48.26600 26.01500
H  20.58900 50.15400 30.63800
H  18.85300 47.39900 33.60100
H  20.45600 47.51500 34.22000
H  20.10200 46.42400 32.88300

