158

Mg 44.90700 4.77200 47.22600
C  42.82800 7.50200 47.21100
C  42.04700 2.75400 46.73100
C  46.88300 2.05500 46.55400
C  47.56300 6.84000 47.02700
N  42.62700 5.07600 47.04200
C  42.10200 6.29800 47.06200
C  40.59600 6.23300 46.78600
C  40.30400 4.69500 46.58500
C  41.76500 4.10600 46.72600
C  39.28800 3.83100 47.41800
C  39.97300 7.10000 45.62700
C  40.74300 7.04200 44.28300
H  39.98600 6.45500 43.09200
N  44.47900 2.69300 46.79800
C  43.26000 2.09800 46.71700
C  43.46100 0.70700 46.49100
C  44.85700 0.47200 46.57200
C  45.50300 1.76800 46.62000
C  42.42000 -0.36500 46.21300
C  45.42900 -0.89900 46.58400
O  44.79600 -1.95000 46.69500
C  46.84000 -1.10300 46.66500
N  46.94300 4.46700 46.80000
C  47.58100 3.28300 46.60000
C  49.10400 3.45800 46.47500
C  49.23400 4.95200 46.82800
C  47.81700 5.48000 46.82300
C  49.83700 2.50300 47.43600
C  50.25600 5.70500 45.94300
C  49.85200 5.89900 44.57200
N  45.21800 6.73700 47.22700
C  46.34800 7.49500 47.14900
C  46.05500 8.87900 47.15500
C  44.70200 8.90900 47.30200
C  44.23500 7.62000 47.27300
C  47.06200 10.01600 47.00000
C  43.56600 9.79500 47.47500
O  43.55900 11.02600 47.44100
C  42.29900 8.91100 47.36000
C  41.36500 8.97600 48.52400
O  41.45800 8.39100 49.58300
O  40.27700 9.73200 48.14400
C  39.33700 10.05900 49.20300
H  41.14200 2.14400 46.70500
H  47.54300 1.19900 46.39500
H  48.42300 7.50600 47.12600
H  40.19000 6.55100 47.74600
H  40.18800 4.48100 45.52300
H  38.47500 4.44300 47.80700
H  39.80900 3.44400 48.29400
H  38.86500 2.99400 46.86300
H  39.95000 8.12700 45.99300
H  38.90600 6.91200 45.50500
H  41.64300 6.43900 44.39900
H  41.06200 8.07400 44.13900
H  42.68500 -0.87100 45.28400
H  41.43600 0.10100 46.25700
H  42.46200 -1.03700 47.07000
H  47.23800 -0.47700 47.46400
H  47.32100 -0.72500 45.76300
H  47.10600 -2.13400 46.89800
H  49.44800 3.30700 45.45200
H  49.57700 5.19200 47.83500
H  50.76500 2.95800 47.78400
H  49.86900 1.44700 47.16800
H  49.23400 2.32100 48.32500
H  51.18700 5.16300 46.11200
H  50.25100 6.71200 46.35900
H  50.66400 5.66100 43.88500
H  49.40200 6.86500 44.34600
H  49.06000 5.20800 44.28400
H  48.05500 9.82400 47.40800
H  46.69300 10.86700 47.57200
H  47.16900 10.15500 45.92400
H  41.77700 9.20500 46.45000
H  38.59600 9.26400 49.12600
H  39.02800 11.07600 48.96100
H  39.80000 9.94700 50.18300
Mg 54.69200 24.55500 45.72000
C  51.92200 26.38100 44.66100
C  53.18900 21.70500 44.73100
C  57.52300 22.96200 46.38800
C  56.03600 27.43600 47.03100
N  52.89900 24.19000 44.49100
C  51.80600 25.08800 44.28300
C  50.62900 24.27200 43.61800
C  50.91900 22.87200 44.40600
C  52.42100 22.91900 44.65400
C  50.02400 22.53500 45.55500
C  50.73800 24.16500 42.06300
C  49.37700 24.65800 41.32900
H  48.98500 23.77800 40.10700
N  55.31800 22.64400 45.40400
C  54.56900 21.56900 45.06400
C  55.35900 20.35500 45.27000
C  56.69600 20.71900 45.50400
C  56.55200 22.19400 45.78000
C  54.75300 19.04600 45.12500
C  57.96200 19.79100 45.70100
O  57.75400 18.59200 45.70000
C  59.33800 20.30300 45.96700
N  56.48200 25.12700 46.84400
C  57.53700 24.31700 46.73200
C  58.89400 25.00000 47.09200
C  58.37700 26.41400 47.54200
C  56.91400 26.39600 47.08100
C  59.73800 24.20700 48.12200
C  59.17800 27.59400 46.92500
C  60.07600 28.20300 47.92700
N  54.22500 26.61800 45.70500
C  54.75200 27.62500 46.50400
C  53.98200 28.83100 46.34100
C  52.83400 28.45200 45.61900
C  53.00700 27.02100 45.35400
C  54.27800 30.24300 46.95100
C  51.62200 28.86200 44.97600
O  51.07700 29.95100 44.82300
C  50.93900 27.54800 44.38000
C  50.69200 27.69000 42.95900
O  51.55500 27.73900 42.05500
O  49.32800 27.82500 42.71600
C  48.98300 28.49100 41.41700
H  52.73500 20.74500 44.47800
H  58.56400 22.64000 46.31600
H  56.33600 28.45100 47.30200
H  49.71100 24.76600 43.93800
H  50.73000 22.03700 43.73100
H  50.55500 22.68800 46.49400
H  49.76700 21.47600 45.55300
H  49.13500 23.16600 45.55900
H  51.00200 23.17300 41.69600
H  51.58200 24.78700 41.76400
H  49.50200 25.70000 41.03500
H  48.49600 24.66700 41.97000
H  54.34300 19.04700 44.11500
H  53.88200 19.02400 45.78100
H  55.24100 18.08100 45.26300
H  59.47100 21.03100 45.16600
H  60.12700 19.57400 45.78300
H  59.33000 20.80200 46.93700
H  59.40200 25.24400 46.15900
H  58.30500 26.40700 48.63000
H  60.18300 24.80100 48.92000
H  60.64100 23.83400 47.64000
H  59.25900 23.28300 48.44700
H  58.48100 28.33000 46.52400
H  59.79700 27.24600 46.09900
H  60.08600 27.74400 48.91600
H  59.73000 29.19600 48.21400
H  61.07300 28.35700 47.51600
H  55.26900 30.54000 46.60700
H  54.13800 30.30300 48.03000
H  53.53600 30.97700 46.64000
H  50.00600 27.40800 44.92600
H  48.24900 27.85700 40.92000
H  49.75200 28.48200 40.64400
H  48.60700 29.49500 41.61100

