158

Mg 16.47100 -2.60400 28.36900
C  15.58100 -0.77500 31.31000
C  18.76800 -4.32900 30.32800
C  17.96500 -3.67300 25.55300
C  14.52900 -0.46400 26.51500
N  17.21500 -2.38400 30.55000
C  16.56400 -1.74600 31.56300
C  17.21700 -2.12000 32.94700
C  18.29800 -3.17200 32.55900
C  18.06400 -3.35400 31.01400
C  19.77500 -2.62300 33.02900
C  16.06200 -2.68500 33.89200
C  15.84100 -1.92100 35.28800
H  17.05100 -1.18600 35.90400
N  17.97800 -3.95900 27.99900
C  18.72900 -4.61900 28.93700
C  19.60200 -5.52500 28.23000
C  19.41900 -5.37000 26.82100
C  18.45100 -4.30300 26.70500
C  20.53900 -6.55400 28.95600
C  20.12000 -5.98900 25.66300
O  19.69400 -5.89600 24.51300
C  21.19900 -6.96300 25.83800
N  16.16400 -2.20700 26.27800
C  16.99800 -2.69500 25.38100
C  16.81200 -2.00100 23.99000
C  15.58900 -1.14100 24.20200
C  15.37200 -1.27200 25.75600
C  18.09000 -1.30800 23.55900
C  14.35100 -1.41600 23.28300
C  14.11700 -0.36800 22.25000
N  15.21100 -1.08000 28.82700
C  14.43200 -0.30400 27.91200
C  13.67600 0.64600 28.61900
C  14.09800 0.48200 29.95100
C  14.99900 -0.55000 30.04700
C  12.63300 1.51400 28.11900
C  13.90200 0.97600 31.33600
O  13.25900 1.91800 31.70300
C  14.90600 0.15900 32.30100
C  15.79600 1.12100 33.00100
O  17.01100 1.25700 32.85000
O  15.05800 1.92000 33.81400
C  15.76600 2.97800 34.49100
H  19.44900 -4.82700 31.02100
H  18.59200 -3.73500 24.66100
H  14.03000 0.19900 25.80500
H  17.60400 -1.28600 33.53200
H  18.06000 -4.07900 33.11400
H  19.84100 -1.74700 33.67400
H  20.25900 -2.36900 32.08500
H  20.28700 -3.47100 33.48400
H  16.15900 -3.73700 34.16000
H  15.10300 -2.60300 33.38100
H  15.59400 -2.72900 35.97700
H  15.07100 -1.15200 35.35300
H  21.54100 -6.24800 28.65700
H  20.34700 -7.54700 28.54800
H  20.46100 -6.56600 30.04300
H  20.85900 -7.80400 26.44200
H  22.05700 -6.50400 26.32900
H  21.46500 -7.30000 24.83600
H  16.46700 -2.68900 23.21800
H  15.98200 -0.13000 24.09800
H  18.15300 -1.06600 22.49800
H  18.94500 -1.90800 23.87100
H  18.21800 -0.36600 24.09300
H  13.44700 -1.54500 23.87800
H  14.37400 -2.29800 22.64400
H  14.06100 -0.71900 21.22000
H  14.87100 0.41900 22.23600
H  13.18300 0.17200 22.40000
H  12.39300 1.32700 27.07300
H  12.94300 2.55100 28.24900
H  11.78700 1.32500 28.78000
H  14.36300 -0.50600 32.97400
H  16.00600 3.80800 33.82700
H  16.64600 2.58200 34.99800
H  15.12500 3.33100 35.29800
Mg 49.27100 47.03500 42.15900
C  45.81400 47.52900 41.26400
C  48.94100 43.76000 41.34500
C  52.52300 46.79100 42.39100
C  49.47100 50.52700 42.49600
N  47.56800 45.80700 41.26200
C  46.25000 46.18400 40.98300
C  45.41300 45.00900 40.52300
C  46.43600 43.81900 40.72700
C  47.73100 44.47900 41.18400
C  45.86300 42.71200 41.62700
C  44.81400 45.13000 39.10900
C  43.30700 44.75500 38.91600
H  42.94300 44.94700 37.40300
N  50.63800 45.38600 42.05800
C  50.23400 44.13100 41.74700
C  51.45200 43.30600 41.86500
C  52.59700 44.17500 42.05500
C  51.97500 45.48800 42.21800
C  51.43400 41.79600 41.54300
C  54.05700 43.81100 42.07400
O  54.33500 42.60800 41.99600
C  55.18000 44.80400 42.23800
N  50.77200 48.44900 42.25500
C  52.05700 48.06800 42.41400
C  53.02000 49.30900 42.63000
C  52.07100 50.52400 42.30600
C  50.67800 49.84500 42.32700
C  53.74300 49.52900 43.99300
C  52.37900 51.02800 40.87400
C  52.03700 52.49700 40.59300
N  47.93300 48.71700 42.09100
C  48.19000 50.08200 42.25600
C  47.02000 50.81300 42.06200
C  46.01200 49.83700 41.87100
C  46.63700 48.57900 41.73800
C  46.93600 52.24600 42.15100
C  44.60600 49.63400 41.58800
O  43.63500 50.43600 41.56200
C  44.42800 48.10900 41.16300
C  43.50900 47.42800 42.08900
O  43.68400 47.43600 43.31000
O  42.49700 46.80100 41.50100
C  41.49600 46.05200 42.24000
H  48.81700 42.70100 41.10600
H  53.60500 46.91000 42.48200
H  49.52700 51.60200 42.68100
H  44.60500 44.97200 41.25300
H  46.54700 43.23200 39.81400
H  46.56300 42.44000 42.41600
H  45.71500 41.81200 41.02900
H  44.97800 43.08200 42.14500
H  45.40000 44.50900 38.43200
H  45.00600 46.06900 38.58900
H  42.57700 45.24200 39.56200
H  43.28300 43.68400 39.11300
H  51.54100 41.70800 40.46200
H  50.54300 41.30200 41.93100
H  52.18300 41.15900 42.01400
H  55.15700 45.42200 41.34000
H  56.08600 44.20400 42.31700
H  55.09700 45.37500 43.16300
H  53.81400 49.20600 41.89100
H  51.96700 51.24400 43.11700
H  53.97200 50.59400 43.97400
H  54.77600 49.18100 43.98700
H  53.21100 49.26600 44.90700
H  51.73100 50.40300 40.25900
H  53.46000 50.95300 40.76500
H  52.16500 53.03600 41.53200
H  51.08300 52.56700 40.07100
H  52.77600 52.84100 39.86900
H  45.96900 52.56200 42.54300
H  47.30500 52.79100 41.28200
H  47.57500 52.54500 42.98300
H  43.96100 47.97200 40.18800
H  40.69400 45.61800 41.64400
H  40.87600 46.77700 42.76700
H  41.97500 45.44600 43.01000

