158

Mg 44.58400 5.45300 47.88300
C  42.35700 8.06600 47.38400
C  42.12200 3.27000 46.91900
C  46.92400 2.87000 47.57400
C  47.25600 7.70600 47.75500
N  42.52500 5.67500 47.07500
C  41.77600 6.81000 47.08000
C  40.35300 6.54300 46.67900
C  40.18300 5.04300 46.62100
C  41.67500 4.61100 46.78000
C  39.13300 4.53200 47.71700
C  39.90100 7.23500 45.33000
C  38.45600 7.50900 45.27200
H  37.75400 6.97500 43.99800
N  44.51300 3.25800 47.52800
C  43.36100 2.65500 47.17400
C  43.71100 1.18300 47.08400
C  45.11700 1.08500 47.09200
C  45.57500 2.44600 47.40200
C  42.73900 0.08500 46.95400
C  45.95400 -0.25400 46.96500
O  45.35400 -1.31100 46.91600
C  47.50000 -0.30400 46.91600
N  46.78200 5.28900 47.64400
C  47.47000 4.10400 47.81100
C  49.00800 4.34600 48.11100
C  48.98800 5.89300 48.32000
C  47.59500 6.33200 47.83400
C  49.57300 3.53800 49.40000
C  50.12500 6.70000 47.67800
C  50.99800 7.51700 48.62400
N  44.80000 7.53800 47.75000
C  45.95200 8.33700 47.77900
C  45.52900 9.77000 47.68100
C  44.13500 9.65800 47.65900
C  43.74700 8.31700 47.63700
C  46.50600 10.84100 47.66200
C  42.89500 10.44600 47.72100
O  42.67500 11.62700 47.77500
C  41.65600 9.36900 47.54300
C  40.84200 9.51600 48.72200
O  41.24500 9.09300 49.80700
O  39.71900 10.13700 48.49700
C  38.91000 10.45100 49.73100
H  41.32000 2.57000 46.67300
H  47.78100 2.25600 47.28900
H  48.04800 8.45800 47.77100
H  39.77900 6.96100 47.50600
H  39.73900 4.58000 45.74000
H  38.30000 5.21700 47.87600
H  39.55800 4.38800 48.71100
H  38.58200 3.64500 47.40700
H  40.18500 6.50400 44.57400
H  40.44500 8.15400 45.11000
H  38.18400 8.55600 45.40500
H  37.92400 6.98600 46.06700
H  42.90900 -0.53100 47.83700
H  42.98000 -0.65600 46.19300
H  41.74900 0.52900 46.84400
H  47.66400 -1.36600 46.73100
H  47.89900 -0.06500 47.90200
H  47.74300 0.28900 46.03500
H  49.61000 4.07800 47.24400
H  48.83700 5.94300 49.39900
H  48.81700 2.92600 49.89100
H  50.11700 4.14600 50.12300
H  50.39100 2.96500 48.96200
H  49.71200 7.23700 46.82300
H  50.88500 6.11700 47.15800
H  50.59000 7.49800 49.63500
H  50.99100 8.58700 48.41600
H  51.99200 7.07800 48.70100
H  47.14200 10.62500 48.52000
H  46.02400 11.81100 47.78000
H  46.97900 10.71500 46.68800
H  41.00800 9.60800 46.70000
H  39.01500 9.76000 50.56800
H  37.85700 10.54900 49.46700
H  39.13500 11.46300 50.06700
Mg 35.92800 2.19700 30.30300
C  33.45300 3.22100 32.66900
C  38.27300 2.20800 32.79400
C  38.18800 1.41300 27.94600
C  33.50400 2.70600 27.74500
N  35.85000 2.69900 32.42500
C  34.74700 3.02200 33.18400
C  35.08400 3.13600 34.63500
C  36.64900 3.14200 34.64500
C  36.99400 2.64200 33.20400
C  37.26400 4.53600 35.16400
C  34.53200 1.94300 35.43900
C  33.78200 2.34700 36.72000
H  34.13900 3.70500 37.39800
N  37.94200 1.83200 30.38300
C  38.66300 1.80600 31.51300
C  40.01400 1.38900 31.21300
C  40.04700 1.08800 29.83200
C  38.70600 1.47200 29.27100
C  41.07500 1.05600 32.28400
C  41.20000 0.58400 29.06000
O  40.98700 0.39800 27.80100
C  42.55500 0.20100 29.73200
N  35.89300 2.05000 28.16500
C  36.93200 1.71800 27.44600
C  36.69800 1.79700 25.97200
C  35.15000 1.80900 25.90500
C  34.79500 2.23100 27.36400
C  37.50100 2.99700 25.31100
C  34.49500 0.46700 25.41500
C  33.57400 0.73700 24.19900
N  33.95500 2.89100 30.14600
C  33.09900 2.92700 29.02100
C  31.73700 3.26800 29.51800
C  31.88600 3.45600 30.93000
C  33.19000 3.13000 31.30900
C  30.46400 3.27100 28.71400
C  31.14000 3.83400 32.13700
O  30.00600 4.20400 32.32200
C  32.20600 3.62800 33.30100
C  32.38000 4.98500 33.97200
O  33.08200 5.94000 33.58700
O  31.44300 5.10400 34.91000
C  31.12500 6.42300 35.45100
H  38.98000 2.15700 33.62500
H  38.93400 1.35800 27.15100
H  32.77500 2.77500 26.93500
H  34.68000 4.07600 35.01000
H  37.00700 2.39300 35.35100
H  37.93100 4.89800 34.38200
H  37.76000 4.31300 36.10900
H  36.46900 5.26500 35.31800
H  35.28300 1.19000 35.67600
H  33.87100 1.42800 34.74100
H  33.91500 1.57000 37.47300
H  32.71700 2.23400 36.51600
H  41.12500 -0.03200 32.29600
H  40.66900 1.12600 33.29400
H  42.05900 1.48200 32.08700
H  43.16100 -0.12300 28.88600
H  42.43600 -0.69100 30.34700
H  43.03600 1.09800 30.12200
H  37.09400 0.85400 25.59700
H  34.94200 2.61800 25.20400
H  38.43700 3.19200 25.83500
H  36.87100 3.88600 25.32600
H  37.78800 2.64700 24.31900
H  33.88500 0.09000 26.23600
H  35.30200 -0.23800 25.21300
H  32.59700 0.39400 24.54100
H  33.85100 0.21200 23.28500
H  33.44800 1.80000 23.99200
H  30.46400 2.38500 28.08000
H  30.51200 4.09500 28.00100
H  29.59900 3.22800 29.37600
H  31.82900 2.92600 34.04500
H  32.01000 7.04200 35.59800
H  30.50300 6.32900 36.34000
H  30.61100 6.92300 34.62900

