158

Mg -2.51800 17.06000 26.80500
C  -2.60500 15.04300 29.53800
C  -3.28000 19.77300 28.84200
C  -2.59800 19.02600 24.03600
C  -2.35800 14.23500 24.73600
N  -3.02900 17.46300 28.92200
C  -2.78500 16.45600 29.89200
C  -3.00200 17.08400 31.28100
C  -3.28200 18.53900 30.96300
C  -3.30000 18.61800 29.51900
C  -4.48200 19.27100 31.73200
C  -1.85700 16.88000 32.31100
C  -2.32400 16.29800 33.63900
H  -1.20000 16.20700 34.66000
N  -2.75900 19.04600 26.53000
C  -3.10500 19.93400 27.46500
C  -3.28500 21.24400 26.82000
C  -3.07900 21.15200 25.47800
C  -2.75800 19.68700 25.28400
C  -3.58300 22.45900 27.55000
C  -3.24100 22.20400 24.40000
O  -3.10800 21.98800 23.20100
C  -3.40400 23.67000 24.79400
N  -2.51200 16.70800 24.75000
C  -2.48200 17.68300 23.74700
C  -2.62200 17.14500 22.36900
C  -2.29900 15.56100 22.54300
C  -2.36200 15.47500 24.09500
C  -4.02700 17.39100 21.64500
C  -0.86300 15.07100 22.24900
C  0.39500 15.90200 22.58400
N  -2.53800 15.02700 27.03400
C  -2.53700 14.02100 26.11200
C  -2.45800 12.74100 26.80300
C  -2.47100 13.03400 28.14200
C  -2.56000 14.43800 28.23900
C  -2.33600 11.36100 26.15500
C  -2.33100 12.51300 29.49100
O  -2.32800 11.35400 29.89700
C  -2.38700 13.73100 30.38300
C  -1.04300 13.77500 31.13600
O  -0.01800 14.16900 30.67400
O  -1.19600 13.24200 32.39600
C  0.13000 13.18600 33.15800
H  -3.39000 20.64700 29.48700
H  -2.60000 19.60600 23.11100
H  -2.19700 13.36000 24.10300
H  -3.90500 16.64300 31.70500
H  -2.40800 19.07900 31.32900
H  -4.17100 20.06700 32.40900
H  -5.03000 18.51100 32.28900
H  -5.20300 19.72600 31.05300
H  -1.22700 17.74800 32.50700
H  -1.17000 16.11600 31.94700
H  -2.41100 15.25900 33.32200
H  -3.31100 16.66400 33.92100
H  -4.56300 22.86600 27.30500
H  -2.72600 23.13200 27.49900
H  -3.65200 22.39500 28.63600
H  -3.43200 24.30000 23.90400
H  -2.55700 23.99800 25.39600
H  -4.33200 23.82400 25.34500
H  -1.79700 17.43500 21.71800
H  -3.10700 14.92100 22.18600
H  -4.63000 16.48400 21.62400
H  -4.01600 17.84200 20.65200
H  -4.51200 18.16200 22.24400
H  -0.89000 15.04700 21.16000
H  -0.62200 14.06600 22.59700
H  0.50900 16.35200 21.59800
H  1.32900 15.34300 22.64500
H  0.28500 16.71900 23.29800
H  -3.33900 11.26700 25.74000
H  -2.15500 10.58100 26.89600
H  -1.59800 11.30600 25.35500
H  -3.22200 13.66400 31.08000
H  -0.17500 12.98100 34.18400
H  0.77500 14.06300 33.10800
H  0.75800 12.32800 32.91900
Mg 6.16300 55.68500 40.37000
C  3.36600 53.50400 40.44500
C  8.03300 53.13800 39.17200
C  8.59900 57.95300 39.71800
C  3.83300 58.28300 40.91600
N  5.66200 53.62300 39.71300
C  4.55000 52.94000 39.84800
C  4.67400 51.58400 39.15400
C  6.19700 51.36500 39.15700
C  6.69100 52.79100 39.37900
C  6.72800 50.31900 40.21300
C  4.11400 51.42500 37.70800
C  3.46800 50.01300 37.47300
H  4.12700 49.33600 36.33500
N  8.13200 55.61400 39.75800
C  8.71900 54.46700 39.26600
C  10.02500 54.74700 38.95200
C  10.20900 56.12100 38.99100
C  8.96600 56.63300 39.49400
C  11.08000 53.67800 38.48600
C  11.50900 56.78800 38.57500
O  12.54000 56.18700 38.22700
C  11.56800 58.28300 38.47500
N  6.11200 57.77400 40.18100
C  7.29400 58.40800 40.03700
C  7.11300 59.93500 40.20100
C  5.63500 60.02400 40.71100
C  5.16300 58.62700 40.58700
C  8.26300 60.61300 41.05400
C  4.80000 61.23300 40.18200
C  4.02700 62.09000 41.20200
N  4.04200 55.87600 40.80400
C  3.26600 57.00500 41.04900
C  2.03100 56.62400 41.53600
C  1.94900 55.17400 41.31700
C  3.21100 54.80900 40.79700
C  0.80500 57.53800 41.94400
C  1.16200 53.95600 41.47000
O  0.03200 53.79200 41.82500
C  2.08300 52.80400 40.93700
C  1.27600 52.09300 39.91000
O  1.05300 52.54800 38.84000
O  0.77200 50.92800 40.40800
C  -0.21200 50.22300 39.53700
H  8.73800 52.38600 38.81100
H  9.42200 58.66800 39.65900
H  3.16000 59.08200 41.23200
H  4.19300 50.81500 39.75900
H  6.57900 51.03900 38.19000
H  7.42400 50.76900 40.92000
H  7.28900 49.60400 39.61000
H  5.89500 49.93800 40.80300
H  4.84700 51.65400 36.93500
H  3.36600 52.17800 37.45700
H  2.39800 50.16900 37.33100
H  3.78000 49.36900 38.29500
H  10.66500 52.70000 38.24200
H  11.85300 53.52000 39.23800
H  11.60400 53.99200 37.58300
H  10.75000 58.66300 37.86300
H  12.53400 58.48500 38.01300
H  11.62500 58.55000 39.53000
H  7.07000 60.40800 39.22000
H  5.55000 60.16600 41.78900
H  7.81900 61.41200 41.64800
H  9.00800 60.94500 40.33200
H  8.77200 59.89800 41.70100
H  3.99900 60.92600 39.51000
H  5.46600 61.89100 39.62400
H  3.00000 61.74000 41.30300
H  3.86300 63.12100 40.88600
H  4.46300 62.03500 42.19900
H  -0.02100 57.09400 42.49900
H  0.50200 57.78600 40.92600
H  1.17700 58.46500 42.38000
H  2.21100 52.02700 41.69000
H  -0.61300 50.80900 38.71000
H  -1.06000 50.04600 40.19800
H  0.29000 49.27500 39.34200

