158

Mg 41.31000 9.46800 29.67300
C  42.97900 10.69000 32.41500
C  38.82000 8.18000 31.61800
C  39.86900 8.27800 26.82900
C  43.78500 10.87900 27.71100
N  41.01300 9.30700 31.74800
C  41.81300 9.91900 32.72600
C  41.19400 9.56700 34.10700
C  40.03900 8.60900 33.79600
C  39.96800 8.64300 32.27300
C  40.07700 7.15700 34.36600
C  40.85200 10.82500 34.99000
C  41.18300 10.63700 36.48900
H  40.96400 11.85400 37.42600
N  39.62500 8.35000 29.23300
C  38.74300 7.95000 30.24100
C  37.62900 7.28700 29.62600
C  37.84100 7.31900 28.18800
C  39.15100 7.97200 28.03200
C  36.51200 6.60800 30.43900
C  36.89200 7.01100 26.99700
O  37.20600 7.33000 25.86900
C  35.56600 6.31800 27.21200
N  41.77800 9.57600 27.59000
C  41.07300 8.95500 26.62600
C  41.69200 9.26700 25.24400
C  42.64700 10.51600 25.46000
C  42.70400 10.37900 26.98100
C  42.35700 7.95300 24.65100
C  42.21600 11.90700 24.95200
C  40.87200 12.43400 25.48300
N  43.11900 10.42700 29.95000
C  44.08100 10.83800 29.05500
C  45.11400 11.48100 29.71400
C  44.78800 11.43200 31.09300
C  43.49700 10.78200 31.17000
C  46.13200 12.15300 28.95200
C  45.17700 11.76300 32.49100
O  46.20000 12.30800 32.88700
C  44.01800 11.22400 33.41800
C  44.58400 10.14300 34.30300
O  44.43500 8.93100 34.21900
O  45.42000 10.67800 35.26400
C  46.20700 9.84100 36.23500
H  38.05300 7.73300 32.25400
H  39.44400 7.95700 25.87600
H  44.52000 11.33000 27.04000
H  41.87900 9.02800 34.76100
H  39.16000 9.14700 34.15100
H  39.15600 6.97300 34.91900
H  40.86300 7.12700 35.12100
H  40.17300 6.36600 33.62200
H  39.77000 10.94900 35.03000
H  41.30800 11.75000 34.63700
H  42.15700 10.23200 36.76400
H  40.50700 9.88800 36.90100
H  35.58600 6.63700 29.86400
H  36.40500 7.08400 31.41300
H  36.85100 5.59100 30.63700
H  35.14800 6.17500 26.21600
H  34.96200 7.00900 27.79900
H  35.67900 5.38800 27.77000
H  40.91300 9.50400 24.51900
H  43.62400 10.43900 24.98300
H  43.41600 8.13900 24.47400
H  41.92000 7.49600 23.76400
H  42.22100 7.09800 25.31400
H  42.11300 11.90300 23.86700
H  42.93000 12.66200 25.28000
H  40.28200 12.97600 24.74300
H  41.26700 13.04100 26.29700
H  40.15600 11.71300 25.87800
H  45.74400 13.00800 28.39900
H  46.59900 11.45900 28.25300
H  46.93500 12.55900 29.56800
H  43.67200 12.05000 34.04000
H  45.56700 9.02300 36.56600
H  46.77400 10.47400 36.91700
H  46.89800 9.41100 35.51000
Mg 49.22200 36.53000 27.34500
C  47.17900 34.79300 29.74800
C  48.99100 39.31400 29.29500
C  50.76900 38.12100 24.91600
C  48.61500 33.76500 25.26900
N  48.18100 36.97800 29.29500
C  47.55000 36.09700 30.11700
C  47.16500 36.81300 31.43200
C  47.60700 38.29100 31.18300
C  48.32200 38.19600 29.83500
C  46.57500 39.45500 31.30100
C  47.81500 36.23100 32.80400
C  46.73900 36.04000 33.99200
H  46.50200 37.18600 35.02600
N  49.86000 38.48700 27.15100
C  49.78100 39.46000 28.09900
C  50.53700 40.63600 27.62400
C  51.12500 40.29700 26.29000
C  50.62100 38.94500 26.06900
C  50.71100 41.84300 28.59500
C  51.97100 41.16300 25.41400
O  52.32600 40.76300 24.29700
C  52.35100 42.59800 25.82900
N  49.48300 36.09600 25.43200
C  50.24800 36.86900 24.68600
C  50.56100 36.22400 23.28500
C  50.19900 34.69800 23.59000
C  49.33300 34.82300 24.81600
C  49.60600 36.86800 22.27000
C  51.40600 33.66700 23.67000
C  51.23200 32.31300 22.94100
N  48.16800 34.59200 27.46200
C  47.93700 33.63900 26.48700
C  46.98800 32.59500 27.00800
C  46.80400 32.98000 28.34100
C  47.46800 34.17800 28.52800
C  46.51200 31.39800 26.27800
C  46.09700 32.59600 29.60500
O  45.39100 31.62200 29.93300
C  46.44600 33.70900 30.58400
C  47.03700 33.01200 31.82000
O  48.16300 32.85000 32.17300
O  45.95000 32.61100 32.59600
C  46.30100 31.80000 33.74200
H  48.92700 40.12800 30.02000
H  51.20200 38.67400 24.08000
H  48.42000 32.97800 24.53800
H  46.08200 36.73100 31.51900
H  48.35800 38.60100 31.90900
H  46.57200 40.01700 30.36700
H  46.76200 40.19000 32.08300
H  45.65400 38.93000 31.55700
H  48.53100 36.99200 33.11500
H  48.35700 35.28900 32.72400
H  46.93900 35.08000 34.46900
H  45.72800 35.95300 33.59300
H  50.75700 41.44600 29.61000
H  49.91900 42.57200 28.43000
H  51.61900 42.44600 28.58200
H  52.98000 42.46600 26.70900
H  51.52800 43.25900 26.10000
H  52.90700 43.16700 25.08500
H  51.56700 36.42600 22.91600
H  49.48100 34.38900 22.83000
H  49.23600 37.75000 22.79300
H  48.86100 36.18300 21.86500
H  50.17700 37.30200 21.44900
H  51.57600 33.50500 24.73400
H  52.26300 34.27600 23.37800
H  51.42000 31.49300 23.63300
H  51.95900 32.37400 22.13200
H  50.24100 32.26900 22.48900
H  45.48700 31.60600 25.97200
H  46.60700 30.52200 26.92000
H  47.10600 31.21800 25.38100
H  45.46700 34.17500 30.69900
H  46.50700 30.77500 33.43500
H  45.43500 31.78400 34.40300
H  47.21200 32.10600 34.25600

