158

Mg 24.65400 -7.91000 48.04800
C  27.19600 -6.01500 46.98600
C  22.70100 -6.65300 45.47600
C  22.50600 -10.33200 48.62300
C  27.07600 -9.78900 50.13700
N  24.99400 -6.58100 46.31000
C  26.05800 -5.70400 46.29400
C  25.77600 -4.67500 45.16200
C  24.25600 -4.73000 44.96600
C  23.90900 -6.04600 45.66200
C  23.48000 -3.46000 45.28300
C  26.53300 -4.93500 43.79800
C  26.88300 -3.66600 42.99200
H  26.18900 -3.50200 41.64200
N  22.82200 -8.35600 47.29400
C  22.11700 -7.69600 46.21400
C  20.86100 -8.31300 46.04400
C  20.85900 -9.51600 46.80700
C  22.08600 -9.44000 47.63100
C  19.82100 -7.60600 45.15400
C  19.83000 -10.49100 46.71600
O  18.79500 -10.32600 46.08600
C  19.94200 -11.82800 47.46200
N  24.79300 -9.87800 49.30300
C  23.63500 -10.60700 49.39800
C  23.91600 -11.86400 50.20100
C  25.34500 -11.67600 50.81500
C  25.76500 -10.37100 50.07200
C  22.80700 -12.39500 51.18900
C  26.41000 -12.78900 50.56200
C  27.31600 -12.94400 51.77100
N  26.73200 -7.94000 48.54400
C  27.54900 -8.75600 49.29900
C  28.89300 -8.21100 49.30900
C  28.75600 -7.12000 48.41200
C  27.44800 -7.04300 47.92500
C  30.08200 -8.80600 50.06300
C  29.55000 -6.01400 47.81600
O  30.74100 -5.83800 47.83600
C  28.51200 -5.22200 46.84200
C  28.27700 -3.88900 47.40100
O  27.35200 -3.50400 48.16000
O  29.26100 -3.02200 46.82200
C  29.17000 -1.67300 47.13000
H  22.03000 -6.24400 44.71800
H  21.85400 -11.18800 48.80600
H  27.79800 -10.04200 50.91600
H  25.95400 -3.73500 45.68400
H  24.10200 -4.83100 43.89200
H  24.16400 -2.80400 45.82000
H  22.63600 -3.77800 45.89400
H  23.11900 -2.89500 44.42200
H  25.97300 -5.60900 43.14900
H  27.46900 -5.43000 44.05400
H  27.96900 -3.57300 42.96100
H  26.41000 -2.86900 43.56600
H  19.82500 -6.56000 45.46200
H  18.80500 -7.89500 45.42400
H  19.95000 -7.72000 44.07800
H  20.83600 -12.34200 47.10900
H  19.01100 -12.35600 47.25600
H  19.95800 -11.71800 48.54700
H  23.94300 -12.66400 49.46100
H  25.22400 -11.53400 51.88900
H  22.08400 -11.61200 51.41700
H  23.20800 -12.67900 52.16200
H  22.27200 -13.25700 50.78900
H  26.96800 -12.45700 49.68600
H  25.92200 -13.73700 50.33200
H  26.58800 -12.78400 52.56600
H  28.13400 -12.24700 51.95400
H  27.65700 -13.97900 51.76500
H  29.77600 -8.74100 51.10700
H  30.93800 -8.15100 49.90100
H  30.22600 -9.86100 49.82900
H  28.99100 -5.25500 45.86400
H  30.16600 -1.24600 47.24700
H  28.65400 -1.44300 48.06200
H  28.78700 -1.07700 46.30200
Mg 25.70000 51.46400 25.83200
C  23.29100 52.10200 28.25400
C  27.96200 50.57600 28.17600
C  27.80900 51.02400 23.36800
C  23.38100 52.90900 23.46400
N  25.70800 51.43300 28.02900
C  24.60000 51.52000 28.75700
C  24.92200 51.13200 30.18800
C  26.41800 50.81900 30.27100
C  26.76500 50.99400 28.77800
C  27.22500 51.68800 31.24600
C  23.89900 50.02300 30.76800
C  22.96200 50.46000 31.90400
H  23.30800 49.91800 33.32500
N  27.65100 50.87300 25.74700
C  28.42500 50.57900 26.81700
C  29.72600 50.15400 26.41800
C  29.77100 50.28600 24.98600
C  28.37200 50.69600 24.62600
C  30.83100 49.69400 27.37200
C  30.89900 49.99700 23.97900
O  30.74200 50.18500 22.79900
C  32.18500 49.43600 24.49800
N  25.61800 52.13100 23.71300
C  26.65100 51.76200 22.96700
C  26.39300 52.17200 21.44000
C  24.86000 52.61700 21.49800
C  24.61600 52.61700 22.98600
C  27.33700 53.28400 21.02000
C  23.86400 51.68600 20.66200
C  23.15400 52.36800 19.44600
N  23.74400 52.27600 25.80900
C  22.96500 52.79200 24.77000
C  21.68900 53.26100 25.27400
C  21.76200 53.03000 26.64000
C  23.05500 52.45100 26.92600
C  20.59900 53.93600 24.48200
C  21.08600 53.15500 27.92300
O  19.99700 53.63200 28.16800
C  22.05400 52.48400 28.99700
C  22.26300 53.52600 30.04500
O  23.15900 54.37700 29.95600
O  21.42700 53.36300 31.11400
C  21.62100 54.33300 32.22300
H  28.60100 50.15300 28.95400
H  28.45000 50.82100 22.50800
H  22.60900 53.34400 22.82600
H  24.72300 52.06000 30.72400
H  26.65400 49.78000 30.50000
H  26.65800 52.31500 31.93400
H  27.94100 52.18700 30.59200
H  27.66500 50.91000 31.87000
H  24.45600 49.12600 31.03800
H  23.25900 49.71100 29.94300
H  21.91500 50.22600 31.71700
H  23.14500 51.53400 31.95400
H  31.02700 48.62600 27.28000
H  30.57400 49.98100 28.39200
H  31.74000 50.22700 27.09300
H  31.99500 48.52200 25.06100
H  32.66400 50.15600 25.16100
H  32.84000 49.16600 23.66900
H  26.59300 51.26300 20.87400
H  24.88200 53.64000 21.12400
H  28.05900 53.57300 21.78400
H  26.76200 54.11200 20.60600
H  28.04800 52.84200 20.32300
H  23.08600 51.31200 21.32800
H  24.28100 50.73300 20.33500
H  23.42100 51.86800 18.51500
H  23.49500 53.39400 19.30800
H  22.06500 52.32200 19.48100
H  20.87300 54.23800 23.47200
H  20.32400 54.90100 24.90900
H  19.69200 53.33200 24.49700
H  21.70800 51.53000 29.39500
H  20.93900 53.95100 32.98300
H  21.40900 55.28500 31.73700
H  22.69300 54.29700 32.41800

