158

Mg 1.58900 7.61600 25.43800
C  1.68200 9.21200 28.35300
C  1.53400 4.50600 27.10300
C  1.30300 5.83000 22.41800
C  2.34800 10.33300 23.63400
N  1.52700 6.91700 27.58500
C  1.54300 7.83500 28.61900
C  1.62500 7.04800 29.97600
C  1.79500 5.56400 29.49500
C  1.59600 5.63200 27.97000
C  3.17500 4.92400 29.79800
C  0.44400 7.32200 30.86200
C  0.53300 7.05200 32.35900
H  1.96200 6.72400 33.09700
N  1.33400 5.49600 24.84600
C  1.42700 4.42500 25.70500
C  1.40500 3.21300 24.97800
C  1.27200 3.55300 23.56200
C  1.29600 4.99400 23.54200
C  1.65800 1.83700 25.60300
C  1.07500 2.67800 22.31000
O  1.10000 3.11800 21.18600
C  1.12000 1.13600 22.62500
N  1.43400 8.01200 23.34100
C  1.36000 7.17800 22.30600
C  1.60700 7.90600 20.93700
C  1.69600 9.38900 21.34200
C  1.88500 9.24200 22.85500
C  2.89000 7.36600 20.17800
C  0.52600 10.35200 20.90000
C  -0.82500 10.13700 21.71900
N  1.94400 9.37700 25.87300
C  2.31600 10.43600 25.07000
C  2.42600 11.66600 25.76500
C  2.18300 11.31500 27.13400
C  1.87800 9.87500 27.07200
C  2.73000 13.01400 25.12200
C  2.12700 11.69000 28.46600
O  2.29900 12.85200 28.88700
C  1.78500 10.36900 29.32000
C  2.87600 10.26300 30.31600
O  3.99500 9.74800 30.10500
O  2.49700 10.83400 31.54100
C  3.63900 10.79800 32.47500
H  1.35700 3.66300 27.77400
H  1.28100 5.35600 21.43400
H  2.57900 11.27500 23.13300
H  2.38100 7.53100 30.59500
H  1.08800 5.00600 30.11000
H  3.02000 3.94000 30.24200
H  3.81500 5.53200 30.43700
H  3.65300 4.97900 28.82000
H  -0.42200 6.72500 30.57500
H  0.12000 8.34800 30.69000
H  -0.22200 6.33500 32.68200
H  0.21300 7.97100 32.84900
H  2.48800 1.36500 25.07900
H  0.73200 1.26600 25.66600
H  2.02100 1.80800 26.63100
H  0.35000 0.79400 23.31700
H  2.06100 0.87400 23.10900
H  0.99100 0.66700 21.65000
H  0.72500 7.59200 20.37900
H  2.62200 9.76300 20.90600
H  3.65300 6.88700 20.79200
H  3.37100 8.18100 19.63800
H  2.58300 6.59400 19.47200
H  0.28800 10.04000 19.88400
H  0.90400 11.37000 20.80600
H  -0.68800 9.39300 22.50400
H  -1.69700 9.96300 21.08900
H  -1.02800 11.11300 22.16000
H  3.75600 13.27600 25.38000
H  1.91500 13.57000 25.58500
H  2.50800 13.14700 24.06300
H  0.83000 10.50100 29.82800
H  4.51400 11.27000 32.02700
H  3.93600 9.75900 32.61500
H  3.54200 11.12300 33.51100
Mg 26.12700 50.39000 27.39400
C  24.20500 51.48400 30.10500
C  28.57100 49.41500 29.69800
C  28.13000 49.48900 24.90500
C  23.98800 51.97200 25.23100
N  26.40900 50.59900 29.65200
C  25.39200 50.86100 30.56300
C  25.76100 50.48200 31.96200
C  27.31700 50.22000 31.83300
C  27.44700 50.02300 30.26600
C  28.25000 51.47800 32.06200
C  24.99800 49.26100 32.56500
C  24.34700 49.27700 34.01800
H  25.12300 50.08700 35.11800
N  28.04100 49.43300 27.29500
C  28.82900 49.06300 28.39000
C  30.01400 48.32900 27.89200
C  29.93800 48.47400 26.44600
C  28.67900 49.14600 26.13300
C  31.13400 47.80300 28.77000
C  30.94900 48.00000 25.37800
O  30.77900 48.20900 24.15600
C  32.21400 47.25700 25.71100
N  26.17500 50.91000 25.33300
C  26.96900 50.24100 24.48000
C  26.41700 50.25400 23.07600
C  25.13400 51.09500 23.14800
C  25.03900 51.31200 24.65100
C  27.57700 50.77100 22.12300
C  23.88200 50.42100 22.48700
C  23.13700 51.20400 21.39800
N  24.43900 51.51000 27.54300
C  23.63700 52.13600 26.58200
C  22.46400 52.69200 27.16200
C  22.64600 52.49200 28.55800
C  23.87400 51.75500 28.73000
C  21.39600 53.44600 26.63300
C  21.98500 52.71300 29.84300
O  20.91500 53.27100 30.14600
C  23.04500 52.04500 30.93300
C  23.45600 53.07500 31.93600
O  24.35600 53.87200 31.65100
O  22.75200 53.05800 33.07700
C  22.88300 54.25300 33.96400
H  29.21800 49.00100 30.47400
H  28.72500 49.00400 24.12700
H  23.22700 52.33900 24.54100
H  25.55800 51.33800 32.60600
H  27.74400 49.34600 32.32400
H  27.63200 52.31400 32.38800
H  28.72500 51.80400 31.13700
H  28.91400 51.32500 32.91300
H  25.66900 48.42300 32.37500
H  24.18300 49.11000 31.85800
H  24.26500 48.24800 34.36700
H  23.35700 49.71500 33.89000
H  32.03700 48.13800 28.26000
H  31.23000 46.74900 28.50600
H  30.98700 48.03000 29.82600
H  32.84700 47.03500 24.85200
H  32.00500 46.29600 26.18200
H  32.88600 47.86900 26.31200
H  26.32500 49.20900 22.78000
H  25.35600 52.09600 22.77800
H  28.34800 51.17200 22.78000
H  27.22500 51.57900 21.48200
H  27.98300 49.93700 21.55100
H  23.21900 50.02300 23.25600
H  24.25200 49.51100 22.01600
H  23.17200 50.69700 20.43400
H  23.68300 52.13100 21.22400
H  22.09500 51.38800 21.65800
H  21.88200 53.98600 25.82100
H  21.00500 54.13000 27.38600
H  20.49900 52.91200 26.31700
H  22.51100 51.28200 31.50000
H  23.15000 55.17800 33.45300
H  23.63300 54.15200 34.74900
H  21.87700 54.33400 34.37500

