158

Mg -1.36400 17.90000 27.03300
C  -1.76400 15.49900 29.80000
C  -1.94000 20.45000 29.30500
C  -1.31900 20.03000 24.47500
C  -0.86000 15.17200 24.90600
N  -1.84700 17.89400 29.24200
C  -1.91500 16.85000 30.18500
C  -2.20400 17.49600 31.57800
C  -2.57800 18.95200 31.27200
C  -1.99300 19.14000 29.88100
C  -4.04600 19.43000 31.50600
C  -1.09600 17.32100 32.63100
C  -1.71200 17.01800 33.98500
H  -0.75400 17.00000 35.18100
N  -1.45500 19.89700 26.93700
C  -1.65000 20.82200 27.93200
C  -1.45900 22.17500 27.43500
C  -1.27600 22.09300 26.03900
C  -1.27600 20.64100 25.75600
C  -1.77600 23.42000 28.28200
C  -1.00400 23.20000 25.00800
O  -0.74400 22.94200 23.83500
C  -1.03400 24.55700 25.43400
N  -1.27500 17.57200 25.07600
C  -1.30300 18.63100 24.20800
C  -0.99600 18.21000 22.72800
C  -0.74600 16.67000 22.86600
C  -0.99700 16.44400 24.36300
C  -2.21700 18.66100 21.86200
C  0.66500 16.31200 22.45000
C  1.82000 16.76700 23.40200
N  -1.22800 15.74800 27.31600
C  -0.97200 14.78700 26.31600
C  -1.02100 13.48000 26.93900
C  -1.35400 13.73800 28.28900
C  -1.47800 15.09100 28.47700
C  -0.77300 12.09000 26.33400
C  -1.49200 13.02300 29.56500
O  -1.32900 11.84400 29.88900
C  -1.83200 14.16800 30.67000
C  -0.77400 14.04000 31.67600
O  0.39300 14.32700 31.46900
O  -1.29000 13.57700 32.81200
C  -0.42800 13.28100 33.97600
H  -2.09100 21.28000 29.99800
H  -1.17400 20.57200 23.53800
H  -0.72100 14.39200 24.15500
H  -3.06200 16.91100 31.90800
H  -2.11100 19.62500 31.99100
H  -4.56700 18.74900 32.17900
H  -4.57600 19.46400 30.55400
H  -3.99000 20.33100 32.11600
H  -0.61400 18.28900 32.77000
H  -0.49700 16.50000 32.23900
H  -2.27200 16.08400 33.96900
H  -2.36800 17.86800 34.17500
H  -0.83500 23.81600 28.66300
H  -2.41800 23.11400 29.10700
H  -2.25200 24.10000 27.57500
H  -2.05400 24.78900 25.74000
H  -0.68800 25.12400 24.57000
H  -0.29300 24.50400 26.23200
H  -0.09300 18.78400 22.51800
H  -1.38900 15.96800 22.33400
H  -2.93000 19.24700 22.44100
H  -2.58300 17.78200 21.33000
H  -1.89700 19.30200 21.04000
H  0.90500 16.69700 21.45900
H  0.79100 15.23100 22.38200
H  2.52600 17.27100 22.74300
H  2.33000 15.91500 23.85200
H  1.45900 17.45500 24.16600
H  -0.06300 12.21400 25.51700
H  -1.66800 11.57000 25.99300
H  -0.26800 11.42300 27.03300
H  -2.84500 14.05200 31.05600
H  -0.62700 12.21700 34.10300
H  -0.82000 13.68400 34.91000
H  0.64800 13.45200 33.98600
Mg 47.00100 25.47300 27.99200
C  47.76200 27.66800 30.46900
C  46.42700 23.01600 30.31400
C  46.10600 23.41800 25.51600
C  47.74600 27.87400 25.66500
N  47.03400 25.39200 30.17900
C  47.27900 26.40800 31.02800
C  47.24000 25.95600 32.47800
C  46.73800 24.50600 32.46300
C  46.73400 24.26000 30.86600
C  47.58300 23.53700 33.32500
C  46.53300 27.04500 33.40500
C  45.72700 26.57700 34.60000
H  45.51600 27.53800 35.83800
N  46.45100 23.48200 27.92800
C  46.27900 22.60800 29.00200
C  45.80400 21.32900 28.54000
C  45.54800 21.48400 27.17200
C  46.12500 22.82200 26.78300
C  45.49400 20.19300 29.57300
C  44.85500 20.61600 26.21200
O  44.46700 20.99100 25.10900
C  44.43300 19.33200 26.64700
N  47.03300 25.61900 25.85000
C  46.51500 24.65500 25.06600
C  46.53400 25.01500 23.58700
C  47.02300 26.49200 23.64500
C  47.24400 26.74100 25.14800
C  47.47200 24.18500 22.67800
C  45.95300 27.52800 23.05300
C  46.38800 28.43300 21.91200
N  47.75200 27.30900 28.00700
C  48.07600 28.18700 26.97900
C  48.45500 29.43800 27.50200
C  48.45100 29.21000 28.88300
C  48.00600 27.96100 29.13600
C  48.76700 30.66800 26.76200
C  48.75800 29.88500 30.15200
O  49.20900 31.00700 30.27500
C  48.19500 28.91900 31.24100
C  49.26300 28.64100 32.15100
O  50.24700 27.90500 31.93000
O  49.12400 29.35100 33.29200
C  50.34500 29.39800 34.16400
H  46.23800 22.30900 31.12500
H  45.88200 22.77300 24.66400
H  47.95800 28.59500 24.87300
H  48.28300 26.04000 32.78400
H  45.69600 24.45400 32.77800
H  48.13900 24.04100 34.11500
H  48.28400 23.07400 32.63100
H  47.01600 22.74700 33.81900
H  45.78100 27.49500 32.75800
H  47.33400 27.71300 33.72300
H  46.16000 25.63100 34.92400
H  44.75900 26.20700 34.26200
H  44.89200 19.35000 29.23500
H  45.13600 20.68500 30.47700
H  46.39800 19.66300 29.87500
H  44.03400 18.75800 25.81100
H  43.69500 19.38400 27.44600
H  45.38200 18.82600 26.82000
H  45.53700 25.02000 23.14700
H  47.94700 26.62000 23.08100
H  48.18300 23.60700 23.26900
H  47.95700 24.79600 21.91700
H  46.92900 23.48400 22.04300
H  45.42700 28.19600 23.73500
H  45.14700 26.95000 22.60000
H  45.70000 28.23800 21.08900
H  47.43100 28.26600 21.64400
H  46.25700 29.48300 22.17400
H  49.16200 31.42200 27.44300
H  47.86900 31.13800 26.36200
H  49.52300 30.40200 26.02300
H  47.27800 29.37700 31.61200
H  49.99700 29.05800 35.13900
H  50.66000 30.43500 34.27900
H  51.21800 28.79200 33.92100

