158

Mg 55.30500 23.42300 45.10900
C  53.16700 25.98800 44.18600
C  53.40700 21.14500 43.61400
C  58.02000 21.31800 45.13300
C  57.50100 25.95500 46.39600
N  53.44800 23.57000 43.99100
C  52.65000 24.75700 43.79500
C  51.31800 24.29400 43.12400
C  51.29800 22.75500 43.34300
C  52.77500 22.41000 43.66600
C  50.29400 22.13100 44.40500
C  51.21000 24.74800 41.59400
C  49.74400 25.05300 41.11700
H  49.23600 24.39900 39.77300
N  55.68700 21.51000 44.42500
C  54.71200 20.76300 43.89100
C  55.26900 19.45800 43.62200
C  56.63000 19.53100 43.98700
C  56.82900 20.85200 44.49900
C  54.49300 18.40300 42.74400
C  57.52800 18.30100 43.77400
O  57.08000 17.25900 43.40700
C  58.96300 18.37500 43.93300
N  57.41000 23.49700 45.81300
C  58.34300 22.47500 45.74500
C  59.65200 22.86600 46.52800
C  59.47300 24.39600 46.78700
C  58.02100 24.69400 46.30300
C  59.81400 22.03200 47.77400
C  60.62600 25.28100 46.34500
C  60.48300 25.85500 44.94200
N  55.38900 25.53400 45.37600
C  56.30700 26.37400 45.91800
C  55.88000 27.73500 45.88600
C  54.61800 27.66700 45.21100
C  54.37400 26.27300 44.87000
C  56.74800 28.99700 46.19300
C  53.48600 28.49100 44.69100
O  53.26200 29.69900 44.60100
C  52.55700 27.43500 43.98600
C  52.50200 27.81700 42.54500
O  53.48900 27.81000 41.80100
O  51.20400 28.01700 42.13900
C  51.19400 28.43000 40.72400
H  52.75500 20.38100 43.18500
H  58.77300 20.56600 45.37700
H  58.09300 26.72600 46.89400
H  50.59400 24.86400 43.70600
H  51.03800 22.26800 42.40300
H  50.87300 21.39300 44.96000
H  49.46600 21.57200 43.96900
H  49.87800 22.87100 45.08900
H  51.53500 23.94800 40.92900
H  51.88100 25.55800 41.30600
H  49.60900 26.11800 40.93300
H  48.94100 24.80300 41.81100
H  55.16000 17.83900 42.09300
H  53.67900 18.87500 42.19400
H  54.04600 17.78500 43.52400
H  59.31300 19.34800 43.58700
H  59.43300 17.51800 43.45000
H  59.27600 18.31000 44.97500
H  60.51300 22.67900 45.88700
H  59.42800 24.64900 47.84600
H  60.78300 21.53400 47.74500
H  58.99200 21.32300 47.87200
H  59.75200 22.61200 48.69500
H  61.61700 24.82700 46.34300
H  60.60700 26.16000 46.98900
H  59.79200 25.24200 44.36300
H  61.48800 25.80900 44.52200
H  60.12000 26.88000 44.87000
H  57.61900 28.93200 45.54200
H  57.06900 28.91500 47.23200
H  56.18500 29.89600 45.94300
H  51.55900 27.67100 44.35600
H  52.13300 28.87500 40.39300
H  50.29900 29.05100 40.73200
H  50.94300 27.62200 40.03700
Mg -10.07700 40.00000 39.48800
C  -8.83100 36.92000 38.38400
C  -7.09500 41.39400 38.82400
C  -11.63800 42.91700 39.52700
C  -13.26800 38.29700 40.02900
N  -8.15000 39.24000 38.67900
C  -7.92600 37.99900 38.22500
C  -6.52200 38.02700 37.62800
C  -5.78500 39.23100 38.34700
C  -7.07800 40.00700 38.67300
C  -4.94500 38.94000 39.56600
C  -6.59800 38.11700 36.07900
C  -5.97900 36.97600 35.22300
H  -6.93200 36.33000 34.21700
N  -9.39700 41.96600 39.27500
C  -8.15600 42.30800 38.99100
C  -8.09400 43.78200 38.88900
C  -9.40400 44.27700 39.15500
C  -10.22600 43.04200 39.39700
C  -6.75800 44.54400 38.84700
C  -9.75400 45.72800 39.28000
O  -8.95500 46.60100 39.03500
C  -11.12400 46.18000 39.67300
N  -12.16900 40.54100 39.93500
C  -12.46200 41.84800 39.75400
C  -13.99600 41.97700 39.80200
C  -14.52400 40.56700 40.19400
C  -13.26900 39.74100 40.07700
C  -14.44100 43.15200 40.65300
C  -15.66700 40.07100 39.26900
C  -17.03100 40.74500 39.34400
N  -10.89800 37.93500 39.43100
C  -12.15800 37.41100 39.64700
C  -12.12000 36.04600 39.45700
C  -10.81200 35.73200 38.98700
C  -10.12700 36.95300 39.02400
C  -13.31300 35.09900 39.69300
C  -9.92900 34.73800 38.39600
O  -10.05200 33.53000 38.13100
C  -8.60800 35.48000 37.97700
C  -7.47100 34.88700 38.60900
O  -7.29900 34.76400 39.83300
O  -6.55100 34.47300 37.66700
C  -5.41700 33.75400 38.25000
H  -6.12700 41.87700 38.67600
H  -12.22400 43.83800 39.50500
H  -14.22400 37.82400 40.26200
H  -6.06500 37.07100 37.88400
H  -5.09400 39.70400 37.64900
H  -4.94000 37.85300 39.63900
H  -5.31600 39.43800 40.46200
H  -3.91300 39.26800 39.44500
H  -6.15900 39.04400 35.71100
H  -7.65200 38.05300 35.81000
H  -5.51400 36.24400 35.88200
H  -5.09900 37.28800 34.66000
H  -6.81500 45.20400 37.98100
H  -5.95800 43.82700 38.66300
H  -6.56800 45.14800 39.73400
H  -11.15700 47.21700 40.00600
H  -11.40700 45.56900 40.53000
H  -11.77000 45.90900 38.83800
H  -14.31800 42.23600 38.79400
H  -14.88300 40.60700 41.22200
H  -15.12100 42.80700 41.43200
H  -14.94500 43.82600 39.96100
H  -13.67600 43.72800 41.17500
H  -15.83100 39.01100 39.46000
H  -15.30800 40.27400 38.26000
H  -17.15300 41.47600 38.54500
H  -17.04900 41.31400 40.27300
H  -17.80000 39.99000 39.17600
H  -14.19400 35.59700 39.28900
H  -13.40100 35.01700 40.77600
H  -13.20100 34.13600 39.19300
H  -8.42300 35.42500 36.90500
H  -4.76700 34.46800 38.75600
H  -4.87100 33.20400 37.48300
H  -5.63800 33.11700 39.10700

