158

Mg 49.31600 47.27000 42.98100
C  45.97900 47.59500 42.24000
C  49.21200 44.25400 41.04200
C  52.60900 46.85100 43.36600
C  49.43300 50.61600 44.06300
N  47.71200 46.01200 41.71000
C  46.41700 46.41300 41.58800
C  45.60300 45.45500 40.57300
C  46.74300 44.42500 40.25600
C  47.96400 44.88000 41.07800
C  46.45400 42.89300 40.22700
C  44.89400 46.16200 39.35100
C  43.38500 45.90100 39.29900
H  42.80300 45.76400 37.92500
N  50.69600 45.75000 42.31400
C  50.44100 44.59800 41.66500
C  51.61300 43.78500 41.65400
C  52.66800 44.46700 42.29000
C  52.01700 45.76100 42.67900
C  51.59600 42.37600 41.14200
C  54.10300 43.96000 42.55500
O  54.43200 42.86200 42.15000
C  55.19100 44.78800 43.34900
N  50.85500 48.63700 43.42700
C  52.12500 48.18900 43.69300
C  53.00600 49.31400 44.22900
C  51.98900 50.40900 44.56100
C  50.66100 49.87400 44.03900
C  54.01100 48.93600 45.39300
C  52.42200 51.82400 43.97900
C  52.07800 52.17800 42.58200
N  48.01700 48.84500 43.25900
C  48.16300 50.18400 43.72400
C  46.90600 50.86200 43.76700
C  45.99000 49.89600 43.15600
C  46.72000 48.62700 42.96400
C  46.72400 52.25200 44.29500
C  44.61300 49.70200 42.84200
O  43.58200 50.28600 43.00000
C  44.52700 48.25100 42.25300
C  43.51700 47.41600 43.02000
O  43.75100 46.72200 44.05000
O  42.31600 47.32600 42.33500
C  41.55300 46.10000 42.71800
H  49.32300 43.41900 40.34700
H  53.65100 46.80100 43.68800
H  49.40900 51.63700 44.45100
H  44.86600 44.96000 41.20600
H  47.07400 44.70500 39.25600
H  46.39100 42.40200 39.25600
H  45.65200 42.83100 40.96200
H  47.36700 42.44200 40.61400
H  45.45400 46.08300 38.41900
H  44.99100 47.22700 39.56000
H  43.02200 46.76500 39.85700
H  43.04700 44.99000 39.79300
H  51.74200 42.48200 40.06700
H  50.67900 41.81300 41.31600
H  52.40000 41.76200 41.54800
H  55.42800 45.77000 42.93900
H  56.18300 44.35500 43.47800
H  54.76400 44.89100 44.34600
H  53.59900 49.52100 43.33800
H  51.89400 50.50500 45.64200
H  54.63500 49.81900 45.25500
H  54.62600 48.05900 45.19100
H  53.50100 49.00100 46.35400
H  53.49700 51.91400 44.13700
H  51.89800 52.54200 44.61000
H  51.57300 51.32900 42.12000
H  53.00700 52.32500 42.03200
H  51.51400 53.10600 42.48700
H  45.66100 52.48500 44.36200
H  47.13800 52.92800 43.54800
H  47.13000 52.39500 45.29700
H  43.98300 48.24800 41.30800
H  40.86400 45.75400 41.94700
H  40.94400 46.34600 43.58700
H  42.07700 45.21100 43.06800
Mg 30.18500 57.88300 41.34400
C  27.36800 56.13100 40.13800
C  32.14800 55.80200 39.53700
C  32.82700 60.02500 41.99000
C  28.00200 60.39100 42.37300
N  29.71100 56.11700 39.98200
C  28.51200 55.52500 39.67500
C  28.76000 54.46100 38.61800
C  30.28000 54.14500 38.82600
C  30.80800 55.47900 39.49600
C  30.50200 52.98000 39.88300
C  28.41200 54.84900 37.12500
C  27.46400 53.82000 36.46500
H  26.69800 54.37500 35.20900
N  32.30400 57.82200 40.96500
C  32.90500 56.92900 40.18400
C  34.30500 57.19400 40.14100
C  34.52700 58.39100 40.84400
C  33.18500 58.80900 41.34700
C  35.22600 56.41400 39.37100
C  35.82500 59.13000 40.89200
O  36.83700 58.61800 40.41700
C  36.01500 60.46000 41.70100
N  30.39000 59.88200 42.07400
C  31.58800 60.49900 42.34200
C  31.39600 61.84100 43.03200
C  29.81500 61.88900 43.30800
C  29.34900 60.65500 42.53600
C  32.20400 62.10900 44.39400
C  29.08100 63.21300 42.93200
C  27.96600 63.53700 43.97500
N  28.09200 58.16400 41.46100
C  27.38300 59.31500 41.76100
C  25.97200 59.07200 41.54500
C  25.95000 57.82400 40.93100
C  27.27600 57.35900 40.83700
C  24.75800 60.01500 42.06200
C  25.05400 56.81100 40.37500
O  23.83800 56.83200 40.29200
C  25.93100 55.80300 39.75900
C  25.52600 54.47700 40.23400
O  25.44400 54.14700 41.42200
O  24.99600 53.76600 39.15800
C  24.51400 52.43200 39.50800
H  32.75700 55.22000 38.84200
H  33.59800 60.71800 42.33300
H  27.27100 61.15100 42.65800
H  28.18100 53.56100 38.82500
H  30.78800 53.99000 37.87400
H  29.64900 52.30400 39.83100
H  30.58000 53.33900 40.90900
H  31.40800 52.43600 39.61600
H  29.34000 54.70100 36.57300
H  28.04900 55.87400 37.04200
H  26.78600 53.59300 37.28700
H  28.07800 52.93100 36.31800
H  35.24300 56.86200 38.37700
H  34.89700 55.37600 39.31900
H  36.20800 56.37300 39.84200
H  35.60200 60.34700 42.70300
H  35.49300 61.22700 41.12800
H  37.04200 60.81900 41.77800
H  31.63500 62.50500 42.20100
H  29.63100 61.61100 44.34600
H  33.01300 61.37900 44.37100
H  31.71700 62.05500 45.36800
H  32.64200 63.10500 44.34300
H  28.54000 62.97700 42.01500
H  29.73800 64.04700 42.68700
H  28.18400 64.56100 44.28100
H  28.01200 62.97000 44.90500
H  27.02500 63.44200 43.43300
H  24.04400 59.37500 42.58100
H  24.36600 60.66400 41.27900
H  25.13800 60.74100 42.78000
H  25.76600 55.77800 38.68200
H  23.45800 52.42600 39.77900
H  25.09500 51.87800 40.24500
H  24.66600 51.86400 38.59100

