158

Mg 41.35800 7.96300 28.68500
C  42.87500 9.19500 31.72200
C  39.32200 5.95600 30.68100
C  40.28900 6.40100 25.85500
C  43.80400 9.69100 26.85900
N  41.09400 7.64800 31.00400
C  41.78700 8.32700 31.97200
C  41.23300 7.85300 33.34700
C  40.38800 6.58800 33.00700
C  40.20800 6.76200 31.49200
C  40.87500 5.21400 33.51000
C  40.45600 8.99700 34.14000
C  40.95200 9.34600 35.55500
H  41.34300 10.72400 35.78100
N  39.90100 6.46200 28.25300
C  39.12100 5.85900 29.22600
C  38.10500 5.05600 28.58600
C  38.40700 5.19700 27.17300
C  39.56000 6.02100 27.02600
C  37.07300 4.30800 29.41900
C  37.53700 4.68400 26.06300
O  37.71900 4.95700 24.90000
C  36.30400 3.85900 26.38300
N  41.97700 8.04300 26.59500
C  41.31300 7.34100 25.63000
C  41.89800 7.60400 24.25200
C  42.92800 8.84800 24.56400
C  42.83500 8.99000 26.11200
C  42.56700 6.34200 23.60000
C  42.47400 10.18900 23.90400
C  41.10500 10.75700 24.23000
N  42.95100 9.17200 29.07800
C  43.90000 9.73600 28.25100
C  44.91500 10.37700 29.04100
C  44.43700 10.22700 30.36900
C  43.29700 9.45800 30.34200
C  46.12500 11.12200 28.58200
C  44.81200 10.58500 31.76700
O  45.74400 11.29800 32.14800
C  43.81200 9.91000 32.67600
C  44.58300 8.95000 33.53800
O  44.72000 7.77600 33.25600
O  45.07300 9.60800 34.63800
C  45.69200 8.71500 35.60000
H  38.75800 5.29200 31.33900
H  39.85300 6.10300 24.89900
H  44.66100 10.13000 26.34300
H  42.04700 7.59300 34.02300
H  39.40700 6.75000 33.45500
H  41.67500 5.42800 34.21800
H  41.27500 4.51800 32.77300
H  40.07400 4.72900 34.06800
H  39.41700 8.69600 34.27100
H  40.52600 9.88900 33.51800
H  41.80600 8.72000 35.81500
H  40.10400 9.01000 36.15200
H  36.11600 4.53900 28.95200
H  37.10400 4.65700 30.45100
H  37.33200 3.25000 29.46000
H  36.61400 2.96700 26.92700
H  35.86200 3.44100 25.47800
H  35.53800 4.41100 26.92800
H  41.00100 7.81400 23.67000
H  43.95500 8.62000 24.27900
H  42.61300 5.53800 24.33400
H  43.44600 6.55500 22.99100
H  41.89100 5.85100 22.90100
H  42.50300 10.06800 22.82200
H  43.19100 10.89700 24.32000
H  40.59800 11.06400 23.31500
H  41.17500 11.62000 24.89300
H  40.43700 9.98700 24.61700
H  46.28700 10.92300 27.52300
H  46.98200 10.79100 29.16800
H  46.03300 12.18900 28.78800
H  43.27000 10.70600 33.18700
H  46.27000 7.91700 35.13500
H  44.84100 8.34000 36.16800
H  46.40500 9.30400 36.17700
Mg 6.19900 56.65300 42.52800
C  4.90800 53.52300 41.73800
C  9.23400 55.69700 41.15300
C  7.09700 59.94300 42.19500
C  2.99600 57.57500 43.56400
N  6.92100 54.91300 41.36700
C  6.25100 53.70000 41.25100
C  7.15200 52.63200 40.68800
C  8.56200 53.28600 40.87900
C  8.24900 54.76500 41.15300
C  9.43200 52.67000 42.04900
C  6.88400 52.11200 39.15000
C  7.11400 50.61700 38.94700
H  6.46500 50.12600 37.77500
N  7.97600 57.67700 41.87600
C  9.08700 57.11900 41.47400
C  10.10700 58.12600 41.30200
C  9.55700 59.33000 41.69500
C  8.17400 59.00400 41.97900
C  11.52500 57.76200 40.96900
C  10.35500 60.62500 41.91300
O  11.48600 60.77000 41.56000
C  9.76300 61.72600 42.74000
N  5.22800 58.47500 42.80000
C  5.78500 59.74100 42.45400
C  4.71400 60.84800 42.57400
C  3.39400 60.05500 42.95000
C  3.85500 58.58400 43.12400
C  4.94200 62.11400 43.41900
C  2.10500 60.19000 41.98900
C  0.74800 60.62100 42.63000
N  4.34700 55.76900 42.81500
C  3.15200 56.23100 43.30500
C  2.20300 55.15600 43.46200
C  2.87500 54.02200 42.91500
C  4.12300 54.49800 42.40500
C  0.80800 55.23900 43.93900
C  2.74700 52.63100 42.61700
O  1.82600 51.81700 42.81300
C  4.11700 52.25100 41.89700
C  3.75100 51.64200 40.65100
O  3.65800 52.19600 39.60800
O  3.50100 50.28100 40.85600
C  3.11100 49.38800 39.73500
H  10.27600 55.42000 40.98200
H  7.37100 60.99500 42.08900
H  2.02700 57.91200 43.93600
H  7.06000 51.73600 41.30200
H  9.08500 53.24800 39.92300
H  8.89600 51.87600 42.57000
H  9.61200 53.50500 42.72600
H  10.34300 52.28800 41.58700
H  7.53200 52.64500 38.45400
H  5.90400 52.52600 38.91400
H  6.78000 50.08700 39.83900
H  8.20300 50.62800 38.90400
H  11.87400 58.57100 40.32800
H  11.64200 56.78600 40.49800
H  12.13600 57.72100 41.87100
H  9.08800 61.29400 43.47800
H  9.20900 62.43000 42.12000
H  10.53100 62.34200 43.20800
H  4.73300 61.24600 41.56000
H  3.14500 60.31500 43.97900
H  5.99800 62.28400 43.62800
H  4.44900 62.02900 44.38800
H  4.64900 63.02700 42.90100
H  2.05300 59.17100 41.60400
H  2.34400 60.96600 41.26200
H  -0.03000 59.85900 42.58600
H  0.33900 61.52300 42.17500
H  1.05600 60.86200 43.64800
H  0.16000 55.57000 43.12700
H  0.80100 56.02000 44.69900
H  0.46800 54.26700 44.29500
H  4.60800 51.49400 42.50900
H  3.02500 49.92000 38.78800
H  2.10800 49.02200 39.95200
H  3.89600 48.63400 39.66800

