158

Mg 24.33200 -4.79200 45.89500
C  26.64700 -2.72500 44.20800
C  22.01200 -4.00900 43.69900
C  22.74200 -7.61800 46.77500
C  27.19300 -6.13000 47.72100
N  24.37200 -3.36400 44.28700
C  25.34100 -2.67600 43.65700
C  24.89300 -2.02800 42.36600
C  23.35400 -2.29700 42.44700
C  23.21500 -3.25100 43.57800
C  22.45900 -1.05600 42.54100
C  25.67800 -2.62400 41.16000
C  26.16300 -1.72300 40.05800
H  25.34300 -1.76900 38.72400
N  22.50300 -5.55400 45.40300
C  21.70100 -5.08100 44.49800
C  20.50200 -5.90400 44.33300
C  20.70800 -7.01300 45.16100
C  22.04700 -6.78700 45.83300
C  19.44100 -5.68500 43.41800
C  19.78900 -8.19200 45.33000
O  18.69700 -8.21000 44.74700
C  19.98500 -9.38700 46.25200
N  24.95200 -6.67200 46.99400
C  24.04700 -7.62100 47.27600
C  24.58500 -8.81700 48.13400
C  25.96500 -8.26200 48.41600
C  26.06400 -6.95700 47.63100
C  23.71300 -9.20500 49.41000
C  27.05800 -9.30700 47.95300
C  28.04100 -9.84300 49.10200
N  26.38300 -4.39500 46.11900
C  27.37300 -4.92400 46.98000
C  28.61400 -4.19000 46.77400
C  28.37800 -3.43800 45.66000
C  27.06400 -3.57800 45.27400
C  29.90100 -4.46100 47.46400
C  29.03900 -2.62700 44.67600
O  30.23800 -2.29700 44.51500
C  27.91200 -2.15900 43.64300
C  27.88900 -0.68800 43.68400
O  27.28700 -0.01100 44.49800
O  28.45600 -0.15000 42.58100
C  28.65600 1.30200 42.65200
H  21.27100 -3.65900 42.97800
H  22.28300 -8.53900 47.14100
H  27.94700 -6.56100 48.38300
H  24.98400 -0.94400 42.42600
H  22.99700 -2.81000 41.55400
H  22.91600 -0.11500 42.23500
H  22.05100 -1.05000 43.55200
H  21.65200 -1.22100 41.82700
H  24.94000 -3.27800 40.69600
H  26.50700 -3.24300 41.50200
H  27.16400 -2.06900 39.80100
H  26.18100 -0.70400 40.44400
H  18.99500 -6.56900 42.96200
H  19.89800 -5.18500 42.56400
H  18.70800 -5.00400 43.85000
H  20.14700 -8.99300 47.25500
H  20.94800 -9.83000 45.99600
H  19.28400 -10.22100 46.22800
H  24.52200 -9.67000 47.45900
H  26.19300 -8.05500 49.46100
H  22.77100 -8.66700 49.30300
H  24.16300 -8.91200 50.35900
H  23.63600 -10.28300 49.55100
H  27.75300 -8.78500 47.29600
H  26.74200 -10.21000 47.43200
H  28.09800 -10.92700 49.01100
H  27.66800 -9.61800 50.10100
H  29.00700 -9.34300 49.02500
H  30.67000 -4.75100 46.74700
H  29.83800 -5.21000 48.25300
H  30.29100 -3.57600 47.96700
H  28.11500 -2.60700 42.67100
H  29.34300 1.60500 43.44200
H  27.64500 1.70900 42.65800
H  29.10600 1.66100 41.72700
Mg -9.03600 40.38200 39.20200
C  -9.01900 37.05100 38.23600
C  -5.76400 40.74100 38.11100
C  -9.49400 43.78300 39.23700
C  -12.47800 40.00200 39.89300
N  -7.63100 39.11400 38.21900
C  -7.81000 37.74800 38.07600
C  -6.44300 37.12000 37.58500
C  -5.38600 38.21100 38.01100
C  -6.28500 39.44300 38.14100
C  -4.50000 37.86300 39.27600
C  -6.36600 36.63400 36.11300
C  -6.87300 37.59500 35.01600
H  -7.85500 37.13900 33.97400
N  -7.85900 42.02800 38.74600
C  -6.53800 41.95100 38.40500
C  -6.07700 43.29500 38.25300
C  -7.09100 44.23600 38.40800
C  -8.18600 43.34400 38.83400
C  -4.70100 43.60900 37.96300
C  -7.04300 45.76500 38.31000
O  -6.06600 46.34400 37.88100
C  -8.21400 46.73000 38.58900
N  -10.76600 41.73700 39.44600
C  -10.63900 43.03500 39.52300
C  -11.92100 43.78000 39.96500
C  -12.84600 42.56800 40.25400
C  -12.04700 41.32400 39.73300
C  -11.77800 44.75400 41.19600
C  -14.35700 42.64300 39.82800
C  -15.46700 42.94300 40.95800
N  -10.44800 38.87900 39.12200
C  -11.85200 38.87500 39.48400
C  -12.34100 37.54300 39.35700
C  -11.26400 36.80100 38.85700
C  -10.17800 37.64800 38.71600
C  -13.66200 36.93500 39.73800
C  -10.80900 35.46200 38.53600
O  -11.38400 34.34600 38.51100
C  -9.27800 35.53100 38.22800
C  -8.42600 34.76600 39.24500
O  -8.42200 34.78300 40.47000
O  -7.60200 34.05800 38.48600
C  -6.49700 33.48000 39.23300
H  -4.70700 40.99100 38.00100
H  -9.62100 44.86800 39.26300
H  -13.47600 39.90200 40.32500
H  -6.47800 36.23600 38.22100
H  -4.71200 38.37800 37.17000
H  -4.70300 38.50500 40.13300
H  -3.43600 37.86300 39.03700
H  -4.74500 36.86200 39.63300
H  -6.96500 35.74300 35.92600
H  -5.32500 36.39000 35.89800
H  -5.98100 38.05000 34.58400
H  -7.40400 38.44000 35.45400
H  -4.49900 43.70900 36.89700
H  -3.98000 42.86100 38.29500
H  -4.34300 44.45200 38.55500
H  -8.66600 46.69900 39.58100
H  -8.86300 46.43900 37.76300
H  -7.94700 47.78100 38.47900
H  -12.29900 44.38300 39.14000
H  -12.86600 42.34100 41.32000
H  -12.33200 44.50100 42.10000
H  -12.11900 45.78000 41.05400
H  -10.74300 44.80600 41.53300
H  -14.59200 41.68900 39.35600
H  -14.47700 43.47200 39.13100
H  -16.22100 42.16100 41.05200
H  -15.92700 43.89800 40.70600
H  -14.88400 42.93000 41.87900
H  -14.18300 37.54300 40.47800
H  -13.50900 35.98200 40.24500
H  -14.22100 36.78200 38.81400
H  -9.03600 35.07800 37.26700
H  -5.91800 34.33000 39.59500
H  -5.86300 32.87900 38.58200
H  -6.88700 32.81600 40.00400

