158

Mg 36.53900 49.80600 24.48700
C  36.83200 48.06500 27.46400
C  35.15500 52.41200 26.40200
C  35.87900 51.37800 21.61200
C  37.34100 46.96200 22.86700
N  35.97200 50.18000 26.71100
C  36.28400 49.34600 27.66300
C  36.02200 50.03100 29.01800
C  35.25300 51.36700 28.64600
C  35.45300 51.35800 27.20600
C  33.81700 51.52300 29.03800
C  37.32600 50.29700 29.87200
C  37.34300 50.12600 31.37500
H  35.95000 49.86400 32.08100
N  35.69000 51.64800 24.12200
C  35.23200 52.62700 25.02200
C  34.98100 53.81000 24.29500
C  35.24400 53.62100 22.90100
C  35.65600 52.19700 22.79100
C  34.49600 55.02600 25.13400
C  34.95900 54.53300 21.74400
O  35.14700 54.13800 20.63000
C  34.61500 55.97000 21.87900
N  36.48100 49.23000 22.51100
C  36.19600 50.02600 21.53200
C  36.55100 49.36900 20.11700
C  36.95800 47.93300 20.56300
C  36.99100 48.06900 22.08200
C  35.31000 49.52500 19.09100
C  38.40900 47.47200 20.10500
C  39.64600 47.58600 21.01000
N  37.02100 47.92200 25.02500
C  37.35300 46.86700 24.18300
C  37.72700 45.73000 24.92900
C  37.51600 46.03800 26.25900
C  37.09600 47.45400 26.26500
C  38.41600 44.59100 24.34700
C  37.74800 45.65200 27.59000
O  38.33500 44.64800 28.03100
C  37.18100 46.94800 28.45900
C  36.02900 46.52300 29.26800
O  34.82600 46.73100 28.99800
O  36.41900 45.94300 30.40000
C  35.31900 45.53200 31.28000
H  34.92600 53.27400 27.03200
H  35.80700 51.84700 20.62900
H  37.72200 46.11900 22.28600
H  35.29800 49.49200 29.62900
H  35.73900 52.29000 28.96500
H  33.82500 52.36700 29.72800
H  33.37100 50.72100 29.62600
H  33.15500 51.77300 28.21000
H  37.51100 51.36600 29.76500
H  38.10800 49.62400 29.52200
H  37.89500 50.93600 31.85000
H  37.98600 49.30700 31.69600
H  34.48600 55.89100 24.47100
H  35.14500 55.24900 25.98000
H  33.61400 54.85600 25.75200
H  33.75300 56.04800 22.54200
H  34.34200 56.37500 20.90500
H  35.46900 56.55100 22.22700
H  37.46400 49.91000 19.87000
H  36.23100 47.19400 20.22600
H  35.74900 50.11500 18.28600
H  34.47000 50.03100 19.56700
H  34.99800 48.58600 18.63300
H  38.55000 47.97200 19.14700
H  38.17500 46.47900 19.72300
H  40.43000 47.94500 20.34400
H  40.01000 46.60700 21.32000
H  39.57700 48.29500 21.83600
H  39.07100 44.99200 23.57300
H  37.81300 43.73700 24.03700
H  39.12000 44.07400 24.99900
H  37.99500 47.21800 29.13200
H  34.79700 44.66700 30.87200
H  34.71300 46.32700 31.71500
H  35.87300 45.18800 32.15400
Mg 9.91700 47.71700 25.65200
C  7.90500 48.04400 28.44800
C  12.58200 48.84400 27.49900
C  11.60100 47.62400 22.90800
C  6.88100 47.08900 23.64300
N  10.12200 48.47700 27.64200
C  9.19600 48.40700 28.68700
C  9.81400 48.72000 30.10600
C  11.22400 49.31500 29.67000
C  11.32900 48.89400 28.15400
C  11.28000 50.84500 29.89000
C  9.86200 47.50600 31.04200
C  9.36000 47.88200 32.46100
H  9.34600 46.77100 33.47000
N  11.85600 48.08700 25.22200
C  12.83700 48.50300 26.13800
C  14.07000 48.50600 25.42900
C  13.81500 48.28000 24.03000
C  12.39900 47.99600 23.98300
C  15.38900 48.79000 25.99500
C  14.74000 48.32500 22.82200
O  14.30200 48.24700 21.70000
C  16.21200 48.56600 23.06600
N  9.25000 47.39200 23.62400
C  10.22300 47.38700 22.74100
C  9.69300 46.97000 21.38400
C  8.24800 46.45200 21.59500
C  8.08400 47.02700 23.01600
C  9.67900 48.15700 20.40500
C  8.12600 44.90100 21.57700
C  8.28200 44.14000 22.80900
N  7.83700 47.47900 25.95800
C  6.73800 47.29200 25.09300
C  5.50900 47.36800 25.81300
C  5.94400 47.52500 27.16300
C  7.33900 47.59900 27.20200
C  4.09200 47.31700 25.19100
C  5.49600 47.68500 28.53400
O  4.32400 47.68200 29.01300
C  6.77000 47.79500 29.46200
C  6.88800 46.54700 30.27700
O  7.39500 45.52600 29.80200
O  6.28000 46.57600 31.53700
C  6.25000 45.38400 32.36600
H  13.47300 49.15600 28.04800
H  12.07600 47.59200 21.92500
H  6.00200 46.93000 23.01600
H  9.24200 49.50200 30.60500
H  11.98500 48.70400 30.15600
H  10.27000 51.20900 30.07700
H  11.71000 51.35300 29.02700
H  11.92100 51.10200 30.73400
H  10.90100 47.21100 31.19500
H  9.38900 46.55800 30.78400
H  8.36900 48.32500 32.36000
H  10.02600 48.69200 32.75900
H  15.32500 48.70600 27.08000
H  15.77000 49.77600 25.73000
H  16.09000 48.04900 25.61000
H  16.70000 47.67100 23.45200
H  16.45200 49.47500 23.61800
H  16.77100 48.71400 22.14200
H  10.37900 46.22700 20.97900
H  7.53200 46.90100 20.90700
H  10.16600 49.01300 20.87200
H  8.68100 48.53300 20.17900
H  10.28000 47.94700 19.52000
H  8.92600 44.50700 20.95100
H  7.19400 44.60500 21.09500
H  9.13900 44.43000 23.41700
H  8.48000 43.10100 22.54500
H  7.36800 44.09800 23.40100
H  3.62000 46.33500 25.16000
H  4.22600 47.76200 24.20500
H  3.51700 48.00200 25.81400
H  6.73100 48.69600 30.07500
H  5.19300 45.11800 32.39800
H  6.56900 45.65900 33.37200
H  7.01900 44.62500 32.23100

