158

Mg 25.57200 0.16000 28.59700
C  27.36600 -0.03100 31.59300
C  22.68100 0.04200 30.44900
C  23.65700 0.03700 25.71100
C  28.43500 -0.32100 26.81300
N  25.12800 -0.16400 30.85200
C  26.01100 0.03800 31.87000
C  25.35800 0.14900 33.23900
C  23.89400 0.03200 32.86600
C  23.88500 -0.04700 31.28700
C  23.19700 -1.14600 33.72700
C  25.69400 1.44300 34.11200
C  25.96200 1.03700 35.63500
H  26.40100 2.13800 36.58600
N  23.49600 0.13900 28.14000
C  22.48600 0.13400 29.07800
C  21.16500 0.26800 28.44700
C  21.50100 0.15200 27.01000
C  22.92600 0.05900 26.89000
C  19.90000 0.33900 29.22200
C  20.56400 0.14700 25.79400
O  20.96900 -0.18700 24.65500
C  19.12900 0.31900 26.02800
N  25.97500 -0.06200 26.55300
C  25.04500 -0.06500 25.51600
C  25.79300 -0.01700 24.16700
C  27.23700 0.16600 24.48800
C  27.29000 -0.05400 26.02300
C  25.45300 -1.28300 23.32000
C  27.99800 1.46900 24.07400
C  27.59200 2.80200 24.76100
N  27.55300 -0.15700 29.06300
C  28.62700 -0.37400 28.20400
C  29.84000 -0.57800 28.99800
C  29.41300 -0.41700 30.34100
C  28.01200 -0.13900 30.33800
C  31.16800 -0.85000 28.44100
C  29.87000 -0.36800 31.71000
O  30.96700 -0.60300 32.20800
C  28.50500 -0.05200 32.60400
C  28.30400 -1.04100 33.65500
O  27.68100 -2.10700 33.56200
O  29.02000 -0.66600 34.79200
C  29.18900 -1.70600 35.77200
H  21.75600 0.01700 31.02800
H  23.25200 0.10700 24.69900
H  29.22200 -0.30200 26.05500
H  25.62800 -0.74300 33.80500
H  23.37400 0.94300 33.16500
H  22.32900 -0.92100 34.34600
H  23.96100 -1.62000 34.34400
H  22.76400 -1.86200 33.02900
H  24.88300 2.17100 34.12400
H  26.59100 1.89700 33.69000
H  26.65500 0.19800 35.69600
H  25.01900 0.66900 36.03900
H  20.04400 0.89200 30.15000
H  19.56400 -0.66700 29.47300
H  19.12800 0.81400 28.61700
H  18.75200 -0.32000 26.82600
H  18.54800 0.17400 25.11700
H  18.89200 1.35500 26.27300
H  25.47400 0.86000 23.60400
H  27.68000 -0.67400 23.95300
H  24.73400 -1.11700 22.51700
H  25.00200 -2.14800 23.80600
H  26.31500 -1.65000 22.76200
H  27.84700 1.66500 23.01200
H  29.04900 1.23100 24.23900
H  28.36100 2.95100 25.52000
H  26.58800 2.69800 25.17200
H  27.58900 3.65300 24.08000
H  32.03000 -0.47600 28.99300
H  31.18100 -0.40000 27.44800
H  31.13100 -1.93900 28.41800
H  28.67600 0.94200 33.01800
H  28.43900 -1.53600 36.54500
H  30.09500 -1.65000 36.37400
H  29.07000 -2.73100 35.42000
Mg 35.20400 1.68500 29.38500
C  32.90000 2.94900 31.81100
C  37.62900 1.79300 31.66300
C  37.49100 1.09900 27.01900
C  32.71000 2.17200 26.98800
N  35.27800 2.38000 31.46700
C  34.18100 2.64300 32.29100
C  34.71700 2.69900 33.70700
C  36.27500 2.61900 33.58100
C  36.43600 2.26200 32.13800
C  37.04600 3.87800 33.84600
C  34.02000 1.61200 34.56500
C  33.71100 2.10300 35.97200
H  34.70600 2.96900 36.70100
N  37.16600 1.21400 29.46600
C  38.02600 1.31600 30.45800
C  39.29300 0.73300 30.12200
C  39.18700 0.40000 28.76300
C  37.90500 0.99000 28.35500
C  40.51500 0.52700 31.04000
C  40.23200 -0.27800 27.84200
O  40.09200 -0.33600 26.63400
C  41.46700 -0.90100 28.39300
N  35.10000 1.67600 27.36200
C  36.20100 1.45900 26.55800
C  35.76900 1.47700 25.08800
C  34.22100 1.60800 25.06700
C  33.98700 1.77000 26.59400
C  36.40100 2.55300 24.25000
C  33.45300 0.42700 24.41300
C  32.40000 0.71300 23.29900
N  33.12300 2.40000 29.32500
C  32.26100 2.58000 28.31500
C  30.95800 3.09300 28.77600
C  31.17300 3.19200 30.16200
C  32.51700 2.80200 30.44100
C  29.68400 3.35000 28.02100
C  30.63900 3.71900 31.44600
O  29.51000 4.20400 31.67700
C  31.62000 3.36000 32.53400
C  31.71700 4.48400 33.50900
O  32.40400 5.45700 33.30300
O  30.77800 4.32700 34.53300
C  30.98300 5.23200 35.67500
H  38.39200 1.63800 32.42800
H  38.17500 0.73200 26.25100
H  31.98600 2.27500 26.17700
H  34.41000 3.71300 33.96600
H  36.66000 1.78000 34.16100
H  37.93100 3.89600 33.21000
H  37.50800 4.03500 34.82100
H  36.42500 4.72600 33.55600
H  34.69000 0.75400 34.62000
H  33.12300 1.35100 34.00300
H  33.56700 1.20800 36.57800
H  32.80300 2.70500 35.96900
H  40.44200 1.03500 32.00200
H  41.37200 0.96200 30.52500
H  40.62100 -0.55400 31.13300
H  41.37500 -1.68100 29.14900
H  42.14500 -0.08100 28.63100
H  41.97700 -1.33700 27.53400
H  36.01300 0.48800 24.69900
H  33.80500 2.46900 24.54400
H  36.90800 3.17000 24.99100
H  35.68700 3.22900 23.78100
H  37.06300 2.26300 23.43400
H  32.99200 -0.25400 25.12900
H  34.04300 -0.28700 23.83900
H  31.69000 1.48500 23.59500
H  31.96400 -0.27200 23.13000
H  32.82800 0.86000 22.30800
H  28.94600 2.57200 28.21500
H  29.81400 3.31200 26.93900
H  29.40500 4.32200 28.42600
H  31.22500 2.57400 33.17800
H  30.30800 6.08700 35.64900
H  31.96700 5.70000 35.64000
H  30.80000 4.69300 36.60400

