158

Mg -12.77100 38.88600 41.84700
C  -10.67200 35.97300 41.47800
C  -10.07200 40.72400 40.71600
C  -14.68100 41.65000 42.19200
C  -15.43800 36.84200 42.20900
N  -10.66700 38.35700 40.90900
C  -10.04100 37.13000 40.94600
C  -8.59700 37.24100 40.45300
C  -8.39000 38.74400 40.40500
C  -9.75900 39.33800 40.71300
C  -7.39300 39.29000 41.40700
C  -8.54600 36.59000 39.00200
C  -7.46700 35.51300 38.83500
H  -7.14000 34.85700 37.43200
N  -12.41600 40.91400 41.47100
C  -11.28300 41.47900 40.98200
C  -11.45100 42.91100 40.97300
C  -12.74400 43.23100 41.47100
C  -13.39000 41.92200 41.69400
C  -10.37700 43.83200 40.50600
C  -13.23500 44.66900 41.76700
O  -12.53800 45.64000 41.45400
C  -14.54500 44.97400 42.38700
N  -14.76100 39.21200 42.13500
C  -15.29600 40.37800 42.55500
C  -16.72300 40.19900 43.16500
C  -17.04800 38.66800 42.82600
C  -15.65900 38.18000 42.38100
C  -16.82600 40.73000 44.64200
C  -18.16000 38.52600 41.68400
C  -17.74500 38.62100 40.19400
N  -13.04900 36.83200 41.82300
C  -14.21700 36.15500 42.00200
C  -13.96700 34.70700 42.17800
C  -12.56600 34.59700 41.98600
C  -12.02200 35.91000 41.75700
C  -14.97700 33.67700 42.48600
C  -11.45200 33.69200 41.98900
O  -11.36400 32.55500 42.38200
C  -10.08700 34.54800 41.64100
C  -9.17200 34.40000 42.72000
O  -9.35300 34.61100 43.86200
O  -8.06500 33.73500 42.17400
C  -6.93300 33.66900 43.08300
H  -9.13900 41.23400 40.46600
H  -15.39500 42.45500 42.37600
H  -16.29700 36.19300 42.39100
H  -7.91700 36.68400 41.09800
H  -8.12900 39.06700 39.39700
H  -7.86600 39.77500 42.26100
H  -6.78500 40.00000 40.84700
H  -6.71100 38.52300 41.77400
H  -8.45100 37.24000 38.13200
H  -9.55000 36.17800 38.90600
H  -7.82400 34.70400 39.47300
H  -6.56100 35.90300 39.29800
H  -10.20900 44.68300 41.16700
H  -10.63100 44.19700 39.51100
H  -9.44300 43.28900 40.36500
H  -14.77000 44.45700 43.31900
H  -15.25900 44.79600 41.58300
H  -14.57900 45.99400 42.77000
H  -17.45400 40.80600 42.63100
H  -17.30900 38.08600 43.70900
H  -16.91900 39.86400 45.29700
H  -17.53800 41.52000 44.88300
H  -15.84300 41.18400 44.76400
H  -18.94700 39.27400 41.78600
H  -18.65300 37.56000 41.79100
H  -17.71800 37.59200 39.83700
H  -16.85800 39.19500 39.92700
H  -18.49600 39.11800 39.57900
H  -15.62300 33.93200 43.32600
H  -14.64500 32.69000 42.81000
H  -15.68500 33.34700 41.72500
H  -9.71100 34.16200 40.69400
H  -6.49000 32.67400 43.02800
H  -7.09800 33.87200 44.14100
H  -6.19400 34.42100 42.80500
Mg -11.15000 16.76900 42.67400
C  -7.71500 17.83800 43.19400
C  -12.15300 19.96800 42.37700
C  -14.24000 15.46700 42.34600
C  -9.83100 13.49600 42.67900
N  -9.96300 18.61900 42.51200
C  -8.65000 18.91700 42.90600
C  -8.46600 20.39900 42.63100
C  -9.85900 21.00200 42.90700
C  -10.75300 19.76200 42.59900
C  -9.99600 21.65100 44.31000
C  -7.94400 20.56600 41.14500
C  -6.49700 21.03800 41.01200
H  -5.48900 20.35900 40.06300
N  -12.93300 17.61400 42.26600
C  -13.18600 19.00300 42.13600
C  -14.54400 19.26400 41.90200
C  -15.11500 18.00100 41.86700
C  -14.14200 16.92000 42.26800
C  -15.14700 20.66700 41.89600
C  -16.59600 17.80600 41.70100
O  -17.35000 18.76000 41.57600
C  -17.25800 16.45100 41.76300
N  -11.89500 14.83200 42.50000
C  -13.20900 14.52300 42.42200
C  -13.56000 13.00800 42.47400
C  -12.12100 12.36500 42.66100
C  -11.21700 13.67400 42.54400
C  -14.65100 12.59700 43.50500
C  -11.83600 11.21300 41.62900
C  -12.34500 9.78900 41.87400
N  -9.23800 15.85800 42.94900
C  -8.91800 14.48600 42.88500
C  -7.48900 14.37600 43.07000
C  -7.00600 15.62400 43.35800
C  -8.09900 16.54700 43.11300
C  -6.55100 13.14500 42.86900
C  -5.86700 16.40600 43.65400
O  -4.67000 16.08900 43.87800
C  -6.32300 17.88500 43.59400
C  -6.03200 18.61400 44.86700
O  -6.50600 18.42700 45.99000
O  -4.92900 19.33200 44.64400
C  -4.13000 19.89100 45.73700
H  -12.69200 20.91600 42.43300
H  -15.23500 15.05000 42.17500
H  -9.52200 12.46600 42.48900
H  -7.78000 20.90100 43.31300
H  -10.10500 21.70500 42.11200
H  -10.79900 21.18700 44.88300
H  -10.34800 22.66700 44.13200
H  -9.10000 21.75000 44.92400
H  -8.47700 21.21800 40.45300
H  -7.97200 19.61400 40.61500
H  -6.01200 20.96500 41.98500
H  -6.55000 22.10200 40.77800
H  -15.93000 20.82600 42.63800
H  -15.71600 20.84300 40.98300
H  -14.53700 21.57000 41.90600
H  -18.34600 16.48700 41.80700
H  -17.04700 15.95300 42.70900
H  -16.99900 15.92500 40.84400
H  -14.00300 12.87700 41.48700
H  -12.01100 11.97300 43.67200
H  -15.12400 13.54900 43.74400
H  -14.13600 12.33700 44.43000
H  -15.41600 11.92300 43.11900
H  -10.84200 11.14000 41.18800
H  -12.34300 11.62400 40.75600
H  -12.93700 9.85300 42.78700
H  -11.62300 8.97400 41.92900
H  -13.02800 9.38200 41.12900
H  -5.50100 13.31600 42.63300
H  -6.96600 12.43100 42.15700
H  -6.55000 12.67600 43.85200
H  -5.64100 18.28900 42.84600
H  -3.18800 20.38000 45.48800
H  -3.95000 18.97200 46.29400
H  -4.66600 20.56600 46.40300

