158

Mg 24.14400 -4.15100 46.24900
C  25.96200 -1.49100 44.96800
C  21.39900 -3.11100 44.61600
C  22.75300 -7.13100 47.09600
C  27.26700 -5.45800 47.56200
N  23.84100 -2.50900 44.85600
C  24.64700 -1.49800 44.48400
C  23.92900 -0.61300 43.47200
C  22.37900 -0.94200 43.78900
C  22.55400 -2.25400 44.49000
C  21.65600 0.15900 44.61300
C  24.36500 -0.94900 41.99800
C  24.89000 0.22600 41.19700
H  24.93800 0.06100 39.66600
N  22.32700 -5.03600 45.84400
C  21.30000 -4.47200 45.13500
C  20.13000 -5.33000 45.08700
C  20.44200 -6.46200 45.91900
C  21.89100 -6.25900 46.30200
C  18.88500 -4.98900 44.31600
C  19.55500 -7.58500 46.35000
O  18.44400 -7.53200 45.95800
C  19.84500 -8.81700 47.17400
N  24.88100 -6.06200 47.31100
C  24.08100 -7.11300 47.53100
C  24.82000 -8.25500 48.27400
C  26.35200 -7.67600 48.30700
C  26.15200 -6.28500 47.75000
C  24.25200 -8.82800 49.65800
C  27.35300 -8.41400 47.36200
C  28.62700 -8.92300 48.02800
N  26.21100 -3.58800 46.44200
C  27.37700 -4.16700 46.95900
C  28.43700 -3.18300 46.88700
C  27.99200 -2.22000 46.01800
C  26.62500 -2.48500 45.75300
C  29.67100 -3.19100 47.54100
C  28.37000 -1.07200 45.29600
O  29.45500 -0.56900 45.17300
C  27.11600 -0.55000 44.45800
C  26.70400 0.79100 44.87900
O  26.47500 1.15400 46.01100
O  26.90900 1.62100 43.77000
C  26.75000 3.01400 43.96200
H  20.43700 -2.65700 44.37200
H  22.39700 -8.11900 47.39700
H  28.20300 -5.82300 47.98800
H  24.06700 0.44700 43.68800
H  21.80900 -1.03100 42.86500
H  22.22600 1.07600 44.46300
H  21.60900 -0.17200 45.65000
H  20.66900 0.48000 44.28000
H  23.62500 -1.34600 41.30300
H  25.16300 -1.68800 42.05300
H  25.89200 0.40500 41.58700
H  24.26100 1.08600 41.42600
H  18.36500 -5.77900 43.77400
H  19.11100 -4.19900 43.59900
H  18.17300 -4.60300 45.04500
H  19.18200 -9.65700 46.96800
H  20.02200 -8.47700 48.19400
H  20.82500 -9.16900 46.85100
H  25.06000 -9.10300 47.63300
H  26.74600 -7.53800 49.31400
H  24.91500 -8.53300 50.47100
H  24.22700 -9.91700 49.63300
H  23.23400 -8.50600 49.88000
H  27.68400 -7.74400 46.56800
H  26.81500 -9.19500 46.82600
H  29.41600 -8.30000 47.60600
H  28.81900 -9.96500 47.77100
H  28.51100 -8.74200 49.09600
H  29.61700 -3.42100 48.60500
H  30.14700 -2.21100 47.56700
H  30.38700 -3.87400 47.08400
H  27.12800 -0.47100 43.37100
H  26.89100 3.24800 45.01700
H  25.77700 3.30400 43.56500
H  27.62600 3.28200 43.37100
Mg 25.06400 2.20700 30.44000
C  27.17300 2.18400 33.12500
C  22.41600 2.46200 32.50100
C  22.96400 1.99600 27.80500
C  27.74400 1.72200 28.31600
N  24.85800 2.19100 32.61900
C  25.83700 2.32000 33.50700
C  25.23700 2.76800 34.83100
C  23.71600 2.66000 34.60400
C  23.65500 2.43500 33.09300
C  23.06500 1.58600 35.55500
C  25.82900 4.10300 35.48200
C  26.12600 3.89000 37.01400
H  25.41500 4.84900 37.97800
N  23.01300 2.14200 30.17600
C  22.04900 2.24600 31.17600
C  20.75900 2.16900 30.61900
C  20.92100 2.06800 29.22600
C  22.34300 2.12200 28.99600
C  19.49500 2.30100 31.46500
C  19.88900 2.05200 28.13000
O  20.14300 1.75900 26.96700
C  18.43700 1.96300 28.54400
N  25.24700 1.64600 28.39700
C  24.28300 1.83300 27.49600
C  24.89100 1.86200 26.07100
C  26.41200 1.91900 26.22300
C  26.49600 1.76000 27.73100
C  24.33500 0.82100 25.01300
C  27.06300 3.24100 25.58000
C  26.72100 4.59600 26.24800
N  27.12300 1.83200 30.66900
C  28.10100 1.63000 29.72800
C  29.35500 1.45100 30.42900
C  29.06100 1.70800 31.75800
C  27.69800 1.97400 31.80600
C  30.66900 1.12900 29.74900
C  29.62100 1.76900 33.01900
O  30.77500 1.63700 33.38800
C  28.44200 2.21800 33.95600
C  28.32900 1.30100 35.12300
O  27.70500 0.23000 35.07900
O  28.93800 1.79800 36.25800
C  28.86800 1.14800 37.48400
H  21.51200 2.58300 33.10100
H  22.28400 1.97700 26.95100
H  28.56400 1.72900 27.59500
H  25.53500 1.92100 35.44900
H  23.29100 3.63800 34.83100
H  23.77800 1.27900 36.32000
H  22.74500 0.72100 34.97400
H  22.10900 1.97900 35.90000
H  25.24300 5.01200 35.35000
H  26.71400 4.25700 34.86300
H  27.19300 4.08100 37.12800
H  25.90600 2.89400 37.39800
H  18.88200 3.15300 31.17200
H  19.54600 2.29100 32.55400
H  19.04500 1.31400 31.35900
H  18.20300 2.77100 29.23700
H  18.28400 1.05600 29.12800
H  17.74000 2.03600 27.70900
H  24.63700 2.85200 25.69100
H  26.71000 1.03200 25.66500
H  23.68900 0.07400 25.47300
H  25.15400 0.28400 24.53500
H  23.78000 1.36000 24.24500
H  26.70900 3.29500 24.55100
H  28.15000 3.15600 25.58800
H  26.57700 4.45100 27.31900
H  25.93900 5.09000 25.67200
H  27.59100 5.22800 26.06700
H  31.46000 1.59200 30.33900
H  30.72200 1.58100 28.75800
H  30.84500 0.07300 29.54500
H  28.51300 3.22400 34.37000
H  27.82100 1.34200 37.71700
H  29.56000 1.55900 38.21900
H  29.06900 0.08200 37.37200

