158

Mg 1.36900 -1.69200 43.27400
C  4.72200 -0.83400 42.73500
C  0.36800 1.12900 41.62800
C  -1.78100 -2.90200 43.34600
C  2.37400 -4.79800 44.57600
N  2.43200 -0.13400 42.21500
C  3.82000 0.05800 42.07400
C  4.13900 1.35200 41.40600
C  2.68300 1.96400 41.24100
C  1.77100 0.89900 41.82000
C  2.36400 3.39100 41.77100
C  4.94800 1.31200 40.12900
C  4.21000 0.75600 38.88200
H  4.91000 0.04400 37.80500
N  -0.47300 -0.93600 42.64100
C  -0.71900 0.29600 42.07400
C  -2.08400 0.49500 41.83800
C  -2.67600 -0.78500 42.21600
C  -1.66000 -1.61500 42.81200
C  -2.62000 1.71100 41.14500
C  -4.08100 -1.04700 41.95200
O  -4.86300 -0.17400 41.55500
C  -4.76700 -2.31100 42.32700
N  0.39800 -3.67600 43.81000
C  -0.92100 -3.77000 43.96700
C  -1.34400 -5.17600 44.45700
C  -0.02500 -5.67700 45.02900
C  1.03200 -4.69200 44.39400
C  -2.56600 -5.38800 45.37400
C  0.20100 -7.21800 44.83100
C  0.79200 -8.00900 45.97700
N  3.07100 -2.65200 43.59900
C  3.37800 -3.87500 44.26600
C  4.81100 -4.02900 44.52500
C  5.29100 -2.87000 43.88200
C  4.24500 -2.04800 43.42300
C  5.55400 -5.06400 45.22900
C  6.56200 -2.24500 43.60600
O  7.67600 -2.64300 43.98600
C  6.27300 -0.91800 42.75800
C  7.12800 0.24400 43.34400
O  7.78900 1.03900 42.71000
O  6.94000 0.30900 44.75700
C  7.80500 1.34200 45.38200
H  0.10800 2.08100 41.15900
H  -2.82100 -3.17800 43.53400
H  2.58300 -5.77000 45.03000
H  4.56200 2.02000 42.15700
H  2.46400 1.92500 40.17400
H  1.60800 3.42600 42.55500
H  2.07600 4.00500 40.91700
H  3.28200 3.85300 42.13500
H  5.82600 0.70800 40.35700
H  5.28000 2.34400 40.01400
H  3.78200 1.66800 38.46700
H  3.42300 0.03300 39.09800
H  -3.61900 2.11400 41.31500
H  -2.57200 1.55300 40.06700
H  -1.95700 2.57200 41.23500
H  -5.84300 -2.36100 42.16100
H  -4.70500 -2.42900 43.40900
H  -4.28400 -3.16600 41.85400
H  -1.63900 -5.78400 43.60200
H  0.06800 -5.48600 46.09800
H  -2.91200 -6.39000 45.12000
H  -3.31600 -4.60200 45.28400
H  -2.31600 -5.42100 46.43400
H  0.72100 -7.45100 43.90200
H  -0.76900 -7.63500 44.55800
H  1.65700 -8.53300 45.56900
H  0.06600 -8.72200 46.36800
H  1.07200 -7.38100 46.82300
H  6.24500 -4.66200 45.97000
H  6.05300 -5.73000 44.52500
H  4.75200 -5.61400 45.72000
H  6.71600 -1.08300 41.77600
H  7.91100 1.11000 46.44200
H  7.22900 2.25600 45.23300
H  8.82900 1.37300 45.01000
Mg 39.74500 9.67900 29.47200
C  41.71200 10.81700 32.24500
C  37.68700 8.06400 31.64600
C  38.23900 8.43800 26.90300
C  42.40400 10.79300 27.39200
N  39.70900 9.49000 31.70200
C  40.58300 10.06000 32.60400
C  40.16400 9.72600 34.04300
C  38.96400 8.76000 33.82800
C  38.71400 8.74800 32.28900
C  39.12800 7.32500 34.32100
C  39.61500 10.97700 34.75000
C  39.85000 10.96400 36.29700
H  40.40900 12.22500 37.06900
N  38.08200 8.56500 29.28600
C  37.36500 8.00800 30.26200
C  36.16600 7.32300 29.69200
C  36.34200 7.52100 28.29700
C  37.63600 8.21400 28.10500
C  34.98800 6.75200 30.53600
C  35.36700 7.08600 27.19300
O  35.65600 7.19700 26.00000
C  33.97200 6.59200 27.53100
N  40.11000 9.76300 27.40600
C  39.35900 9.16500 26.53000
C  39.91600 9.31000 25.05300
C  41.13600 10.21400 25.27500
C  41.19100 10.34000 26.81600
C  40.16200 7.90700 24.39700
C  41.22300 11.48200 24.49900
C  39.99500 12.43500 24.46100
N  41.74000 10.63500 29.67600
C  42.70000 10.98800 28.72800
C  43.74500 11.72900 29.35200
C  43.28100 11.73600 30.69900
C  42.11000 11.01100 30.87100
C  45.01500 12.22700 28.75800
C  43.69300 12.31600 32.06600
O  44.63500 12.97600 32.42300
C  42.71300 11.57900 33.07100
C  43.45400 10.76600 34.00500
O  43.51300 9.51800 33.97600
O  43.68100 11.58500 35.11000
C  44.15900 10.84700 36.34700
H  36.94200 7.60700 32.30200
H  37.66300 8.09300 26.04200
H  43.23300 11.12700 26.76500
H  41.00900 9.26500 34.55400
H  38.04700 9.11100 34.30200
H  39.05900 6.65600 33.46400
H  38.41300 7.09300 35.11000
H  40.15300 7.26700 34.68700
H  38.57700 11.06400 34.42800
H  40.05700 11.91000 34.39900
H  40.48500 10.11500 36.54800
H  38.88400 10.85900 36.79100
H  35.10200 6.99100 31.59400
H  34.80200 5.67800 30.50900
H  34.10700 7.28500 30.17800
H  33.86400 5.57900 27.91900
H  33.45100 6.54700 26.57500
H  33.36600 7.25700 28.14500
H  39.02400 9.77800 24.63600
H  42.01300 9.65700 24.94500
H  40.03100 7.07600 25.09000
H  41.12000 7.78200 23.89400
H  39.43000 7.87500 23.58900
H  41.54200 11.29400 23.47400
H  41.98300 12.05200 25.03500
H  40.15900 13.45900 24.79500
H  39.26400 11.96000 25.11600
H  39.43000 12.29300 23.54000
H  45.10800 11.63000 27.85100
H  45.92300 11.90400 29.26600
H  44.95400 13.31500 28.71500
H  42.10300 12.18400 33.74100
H  44.98400 11.36600 36.83700
H  44.58400 9.87600 36.09500
H  43.34800 10.62900 37.04100

