158

Mg -2.12800 17.14900 26.93900
C  -2.69000 15.06600 29.72100
C  -2.28400 19.86900 29.09300
C  -1.90800 19.19800 24.13600
C  -2.63100 14.39200 24.80500
N  -2.54800 17.33200 29.19000
C  -2.52400 16.38900 30.18600
C  -2.63800 17.00000 31.54300
C  -2.52700 18.51300 31.20400
C  -2.43000 18.59900 29.73500
C  -3.75000 19.21300 31.81000
C  -1.59600 16.39600 32.60500
C  -1.20500 17.21900 33.85100
H  -0.95400 16.53800 35.21000
N  -1.88400 19.20700 26.70300
C  -1.97800 20.19300 27.70300
C  -1.74700 21.45400 27.07400
C  -1.55200 21.25100 25.68300
C  -1.66600 19.83900 25.41600
C  -1.78600 22.71600 27.87000
C  -1.25000 22.31300 24.56400
O  -1.13100 21.96300 23.40600
C  -1.21500 23.82900 24.87000
N  -2.34700 16.84100 24.78600
C  -2.25400 17.85700 23.84800
C  -2.62500 17.36200 22.48200
C  -2.61500 15.77400 22.62600
C  -2.56000 15.62900 24.14200
C  -3.85300 18.14800 21.85100
C  -1.46900 15.05400 21.79300
C  -0.11900 15.16400 22.37600
N  -2.43700 15.11500 27.17200
C  -2.65900 14.14700 26.20000
C  -3.01900 12.98000 26.85800
C  -3.08500 13.25300 28.24100
C  -2.66900 14.58800 28.38900
C  -3.29300 11.69900 26.20500
C  -3.28800 12.61200 29.52600
O  -3.56200 11.43800 29.81800
C  -2.92900 13.85400 30.55500
C  -1.73100 13.35800 31.31700
O  -0.57400 13.61800 31.02200
O  -2.01400 12.57900 32.39700
C  -0.85900 12.15500 33.20200
H  -2.23100 20.62500 29.88000
H  -1.96200 19.84200 23.25600
H  -2.84100 13.53100 24.16800
H  -3.66600 16.75100 31.80500
H  -1.67300 18.95600 31.71600
H  -4.66900 18.73100 31.47700
H  -3.72300 20.25200 31.47900
H  -3.59500 19.13200 32.88600
H  -0.71700 16.07700 32.04500
H  -1.86100 15.38700 32.92100
H  -2.13900 17.76200 33.99600
H  -0.34900 17.79400 33.49800
H  -1.87200 22.65600 28.95500
H  -2.70700 23.21600 27.57000
H  -0.98200 23.38100 27.55300
H  -0.21200 24.24300 24.96900
H  -1.87500 24.08600 25.69800
H  -1.62600 24.28300 23.96800
H  -1.72900 17.59300 21.90700
H  -3.59500 15.33200 22.44400
H  -4.14200 19.00900 22.45300
H  -4.73000 17.51700 21.71000
H  -3.62800 18.53900 20.85900
H  -1.44600 15.56000 20.82800
H  -1.80000 14.03400 21.59700
H  -0.04700 15.75400 23.29000
H  0.60400 15.59500 21.68300
H  0.27800 14.17700 22.61200
H  -2.30800 11.23100 26.20200
H  -3.64900 11.78800 25.17800
H  -4.06600 11.24000 26.82000
H  -3.74500 13.79500 31.27400
H  -0.60800 13.03900 33.78900
H  0.05700 11.77700 32.74800
H  -1.28800 11.52000 33.97700
Mg 55.16900 25.04700 43.64200
C  52.08700 26.71700 43.14000
C  53.51700 22.08800 42.94100
C  58.14600 23.63400 43.16600
C  56.64200 28.14000 44.40500
N  53.04300 24.49700 42.81800
C  51.95000 25.33100 42.79000
C  50.68900 24.57800 42.57800
C  51.11400 23.11900 42.80500
C  52.65200 23.18200 42.84700
C  50.49200 22.28700 43.92900
C  49.88700 24.80900 41.26200
C  50.61000 24.98600 39.96800
H  50.01600 24.26700 38.73400
N  55.78600 23.11900 43.29400
C  54.93100 22.04800 43.08200
C  55.77400 20.86200 42.93000
C  57.09700 21.28200 42.83300
C  57.08800 22.71900 43.10100
C  55.09900 19.48300 42.64400
C  58.24600 20.31600 42.47200
O  58.08700 19.12800 42.27100
C  59.63100 20.71300 42.20400
N  57.16200 25.76000 43.80100
C  58.22700 24.98700 43.53100
C  59.56000 25.74600 43.92300
C  59.06300 27.18800 44.21500
C  57.55900 27.07500 44.17700
C  60.35400 25.05400 45.09400
C  59.50400 28.25600 43.12900
C  59.01800 27.78700 41.62700
N  54.57600 27.13400 43.67000
C  55.20500 28.15300 44.31000
C  54.25100 29.22300 44.54700
C  53.04300 28.72200 44.11500
C  53.25600 27.42200 43.53800
C  54.36500 30.53100 45.27100
C  51.70300 29.06400 43.94300
O  51.05500 30.09500 44.17600
C  50.96000 27.81400 43.28000
C  50.35400 28.21300 42.04900
O  51.00100 28.38300 40.99200
O  49.02900 28.48000 42.23800
C  48.31500 29.16500 41.16000
H  53.09100 21.08900 43.05300
H  59.15100 23.24100 42.99600
H  57.18100 29.05700 44.65000
H  50.08800 24.94500 43.41000
H  50.90800 22.47200 41.95200
H  49.49400 22.60200 44.23300
H  51.03700 22.36700 44.87000
H  50.49200 21.24200 43.62000
H  49.22600 25.67300 41.32500
H  49.19700 23.96800 41.19100
H  51.59600 24.56200 40.15400
H  50.74600 26.03300 39.69900
H  55.81000 18.69500 42.89200
H  54.87500 19.46200 41.57700
H  54.15500 19.33100 43.16700
H  60.22800 19.88000 41.83200
H  60.08300 21.07800 43.12600
H  59.43400 21.45500 41.43000
H  60.19700 25.83500 43.04400
H  59.38200 27.59700 45.17400
H  59.86600 24.11300 45.34900
H  60.32300 25.69600 45.97400
H  61.38900 24.86200 44.80800
H  60.57200 28.47300 43.11800
H  58.92100 29.14400 43.37200
H  59.90000 27.46200 41.07500
H  58.57100 28.57800 41.02400
H  58.18800 27.08000 41.61900
H  54.09200 31.45800 44.76700
H  55.40300 30.56200 45.59900
H  53.78800 30.43200 46.19100
H  50.11500 27.58900 43.93000
H  47.62200 28.48300 40.66800
H  48.95000 29.67800 40.43800
H  47.60000 29.79700 41.68600

