158

Mg -2.16000 17.44400 27.21800
C  -2.40600 15.41800 30.09000
C  -2.56200 20.14500 29.14400
C  -1.75700 19.17400 24.35800
C  -1.76500 14.44500 25.15700
N  -2.36900 17.73300 29.42200
C  -2.52200 16.77700 30.39700
C  -2.73100 17.37400 31.83000
C  -2.90200 18.93200 31.44900
C  -2.65400 18.97700 29.91200
C  -4.22900 19.57800 31.92400
C  -1.54200 16.99700 32.73200
C  -1.09600 18.05400 33.72900
H  -0.32000 17.51800 34.94500
N  -2.20600 19.43300 26.78000
C  -2.31200 20.44000 27.73700
C  -2.23300 21.75200 27.06600
C  -2.04500 21.47800 25.67800
C  -1.88500 19.96100 25.55400
C  -2.35700 23.10700 27.84800
C  -1.91700 22.42700 24.48000
O  -1.79100 22.08800 23.29500
C  -1.94100 23.96700 24.69400
N  -1.96900 16.93500 24.94800
C  -1.82100 17.88300 24.07100
C  -1.86000 17.31200 22.63400
C  -1.53200 15.78600 23.01600
C  -1.79500 15.61500 24.45200
C  -3.18800 17.45700 21.85000
C  -0.15900 15.43600 22.46400
C  0.95300 16.15800 23.24700
N  -2.06400 15.37800 27.50400
C  -2.00100 14.24300 26.57300
C  -2.29200 13.04800 27.34100
C  -2.41200 13.37100 28.64400
C  -2.29200 14.83900 28.75900
C  -2.36600 11.68200 26.69900
C  -2.56400 12.90100 29.94600
O  -2.82300 11.71700 30.27500
C  -2.51700 14.17700 30.93200
C  -1.25200 14.05600 31.73900
O  -0.14300 14.32800 31.40200
O  -1.60600 13.61300 33.01500
C  -0.51000 13.77500 34.02700
H  -2.54000 21.11200 29.65100
H  -1.65900 19.75300 23.43700
H  -1.43900 13.61500 24.52700
H  -3.65800 17.04300 32.29900
H  -2.14300 19.57700 31.89300
H  -4.88100 19.67900 31.05600
H  -3.97600 20.54900 32.35200
H  -4.74600 18.96100 32.65900
H  -0.71700 16.75700 32.06000
H  -1.87800 16.13800 33.31300
H  -1.97500 18.61000 34.05300
H  -0.51400 18.83600 33.24100
H  -1.53900 23.76200 27.54900
H  -2.22000 22.99300 28.92300
H  -3.22000 23.68100 27.51000
H  -1.70100 24.35200 23.70300
H  -1.17100 24.16700 25.44000
H  -2.98000 24.22100 24.90400
H  -1.11500 17.75400 21.97400
H  -2.29900 15.17000 22.54600
H  -3.78200 18.04100 22.55200
H  -3.71000 16.55200 21.54000
H  -2.99900 18.07600 20.97200
H  -0.21100 15.70600 21.41000
H  -0.04500 14.35300 22.44400
H  0.62600 16.19200 24.28600
H  1.09600 17.16800 22.86300
H  1.84200 15.54900 23.07900
H  -3.12100 11.77700 25.91900
H  -2.70500 10.93300 27.41500
H  -1.41000 11.36700 26.28000
H  -3.38500 14.12400 31.58900
H  -0.45800 14.72200 34.56400
H  0.49100 13.59400 33.63500
H  -0.62100 13.08200 34.86100
Mg 23.64300 -4.95500 45.27400
C  25.84000 -2.56500 44.01500
C  21.20300 -3.84700 43.13000
C  21.97300 -7.92000 45.76600
C  26.21700 -6.18400 47.22200
N  23.57800 -3.37000 43.78500
C  24.60100 -2.60400 43.37200
C  24.08200 -1.64200 42.24000
C  22.48200 -1.75700 42.28200
C  22.36000 -3.04100 43.12400
C  21.66900 -0.54700 42.89700
C  24.64600 -2.05900 40.79300
C  25.18700 -0.87600 39.96100
H  25.48600 -1.14900 38.49900
N  21.77100 -5.73300 44.62700
C  20.94900 -5.12100 43.76800
C  19.70600 -5.85700 43.63300
C  19.84200 -6.96900 44.46200
C  21.26300 -6.96700 45.00300
C  18.52300 -5.30800 42.85100
C  18.79900 -8.05900 44.72100
O  17.72500 -8.00500 44.16500
C  19.06200 -9.22800 45.64000
N  24.11300 -6.80700 46.28900
C  23.17600 -7.76000 46.47700
C  23.73300 -8.93600 47.36800
C  25.11800 -8.48200 47.75300
C  25.18300 -7.11800 47.06500
C  22.81000 -9.55900 48.42300
C  26.29500 -9.43900 47.31400
C  27.34600 -9.58700 48.38000
N  25.58500 -4.35600 45.70800
C  26.51800 -4.97300 46.47700
C  27.74400 -4.22300 46.47500
C  27.54100 -3.22600 45.45600
C  26.23100 -3.40500 44.99100
C  29.01000 -4.64200 47.10300
C  28.06700 -2.11000 44.66300
O  29.14200 -1.54400 44.70200
C  26.99400 -1.63600 43.61300
C  26.85700 -0.21000 43.96900
O  26.45200 0.24900 45.01500
O  27.23700 0.58500 42.86500
C  27.23700 2.00300 43.16500
H  20.37300 -3.44200 42.54800
H  21.54100 -8.92200 45.78700
H  27.10700 -6.49600 47.77300
H  24.32400 -0.59800 42.43700
H  22.12800 -1.98600 41.27600
H  20.77200 -0.44000 42.28700
H  22.12300 0.44400 42.88400
H  21.50500 -0.81500 43.94000
H  23.93700 -2.77700 40.38100
H  25.49600 -2.70500 41.01200
H  26.16800 -0.75500 40.42100
H  24.66900 0.04800 40.21600
H  18.36600 -4.25300 43.07700
H  17.56000 -5.74600 43.11200
H  18.63600 -5.33700 41.76700
H  19.76000 -9.94100 45.20200
H  18.13700 -9.75400 45.87900
H  19.50100 -8.93300 46.59300
H  23.81900 -9.77900 46.68200
H  25.19100 -8.36100 48.83400
H  23.37100 -9.45100 49.35100
H  22.60000 -10.61500 48.25200
H  21.86800 -9.01100 48.43900
H  26.75400 -8.86900 46.50700
H  25.96900 -10.44200 47.03800
H  27.57200 -10.63700 48.56400
H  27.12900 -9.02900 49.29100
H  28.27800 -9.33200 47.87600
H  29.24700 -5.55000 46.54800
H  28.93000 -4.93400 48.15100
H  29.76100 -3.86100 46.98800
H  27.35100 -1.73100 42.58700
H  28.07500 2.20400 43.83200
H  26.32700 2.39900 43.61500
H  27.37000 2.63800 42.28900

