158

Mg 26.77500 50.59900 26.65900
C  24.75200 51.58400 29.19500
C  29.17200 49.81000 28.93600
C  28.80900 49.98600 24.11500
C  24.33500 51.58300 24.38000
N  27.00800 50.72300 28.90500
C  25.94200 51.03600 29.66100
C  26.37600 50.68000 31.19300
C  27.87100 50.25100 31.07900
C  28.01300 50.22700 29.57600
C  28.87500 51.19800 31.89200
C  25.40900 49.59500 31.81600
C  24.78200 49.99900 33.18600
H  24.99900 49.28900 34.49500
N  28.65100 49.89300 26.56300
C  29.50700 49.68200 27.57100
C  30.89500 49.46500 27.12300
C  30.82100 49.53100 25.68300
C  29.36600 49.85300 25.39800
C  32.15300 49.02100 27.90500
C  31.88500 49.37500 24.62100
O  31.53000 49.46500 23.49900
C  33.31000 49.08000 24.98100
N  26.64100 50.82200 24.50300
C  27.56000 50.28200 23.68400
C  27.03500 50.11200 22.23000
C  25.53600 50.48500 22.36400
C  25.45900 51.00900 23.82600
C  27.78200 51.14100 21.18900
C  24.58300 49.25100 22.08900
C  23.28100 49.54300 21.31600
N  25.06100 51.48700 26.73300
C  24.23600 51.91500 25.71300
C  23.02800 52.57300 26.25100
C  23.28700 52.48500 27.60400
C  24.47300 51.83200 27.83900
C  21.84700 53.03000 25.47400
C  22.63000 52.71000 28.89900
O  21.55300 53.17800 29.21100
C  23.61600 52.17300 30.01400
C  24.04300 53.24300 30.95000
O  24.80900 54.12200 30.62900
O  23.46900 53.16300 32.16600
C  23.76100 54.25300 33.17400
H  30.00000 49.61200 29.62000
H  29.36400 49.52900 23.29200
H  23.53300 51.80000 23.67100
H  26.17400 51.59700 31.74900
H  27.90800 49.20300 31.37800
H  28.33200 51.78500 32.63200
H  29.47200 51.70900 31.13600
H  29.48700 50.52500 32.49300
H  25.99900 48.68500 31.92700
H  24.61700 49.31800 31.12100
H  23.72900 49.88500 32.93000
H  24.83700 51.07300 33.36200
H  32.41600 48.01100 27.59300
H  32.02400 48.99900 28.98700
H  32.99000 49.63500 27.57300
H  33.28000 48.17300 25.58500
H  33.74000 49.94500 25.48600
H  33.84300 48.77600 24.08000
H  27.14200 49.04900 22.01100
H  25.34400 51.28500 21.64900
H  28.41400 51.70900 21.87200
H  27.14700 51.80800 20.60500
H  28.40700 50.45500 20.61700
H  24.28300 48.83400 23.05000
H  25.18200 48.65300 21.40200
H  23.06400 48.94900 20.42800
H  23.34400 50.61600 21.13500
H  22.44100 49.34200 21.98000
H  21.60600 52.31400 24.68900
H  22.08800 54.02200 25.09300
H  20.97100 53.12300 26.11600
H  23.03500 51.44100 30.57500
H  24.26300 53.70500 33.97200
H  22.78600 54.57300 33.54300
H  24.39100 55.05200 32.78500
Mg -11.69900 39.05800 41.79800
C  -9.92000 36.25900 40.64500
C  -9.32700 41.06100 40.50000
C  -13.77200 41.67000 42.45400
C  -14.26300 36.78200 42.71600
N  -10.01300 38.66000 40.47100
C  -9.41100 37.48200 40.18400
C  -8.11700 37.71900 39.36800
C  -7.82800 39.21400 39.59300
C  -9.12600 39.66600 40.26500
C  -6.50100 39.61300 40.21200
C  -8.20800 37.06700 37.96200
C  -6.96700 36.13600 37.65600
H  -6.08000 36.55600 36.58000
N  -11.49100 41.10100 41.59500
C  -10.43300 41.71100 41.05200
C  -10.61900 43.14700 41.27500
C  -11.87000 43.39000 41.87000
C  -12.49900 41.99900 41.97900
C  -9.56600 44.09400 40.81500
C  -12.35000 44.71100 42.30500
O  -11.67500 45.71000 41.97500
C  -13.58600 45.02000 42.99900
N  -13.79900 39.16900 42.20100
C  -14.38300 40.39200 42.50200
C  -15.79500 40.16000 43.01000
C  -16.03400 38.62200 42.74000
C  -14.60200 38.11700 42.52000
C  -16.18400 40.64600 44.46900
C  -17.00100 38.23200 41.62000
C  -18.10100 37.32500 42.09600
N  -12.16900 36.87400 41.65900
C  -13.09100 36.16200 42.32300
C  -12.73200 34.76400 42.34300
C  -11.54000 34.70200 41.64300
C  -11.15600 36.03000 41.28700
C  -13.48700 33.62500 43.04500
C  -10.45900 33.82100 41.14000
O  -10.34500 32.63200 41.12700
C  -9.43400 34.82100 40.36000
C  -8.13600 34.56200 40.99600
O  -7.80200 34.99900 42.11700
O  -7.34700 33.78700 40.10400
C  -6.07000 33.38100 40.60800
H  -8.42400 41.62400 40.25400
H  -14.36300 42.55100 42.71500
H  -14.84000 36.03000 43.25800
H  -7.42600 37.08300 39.92200
H  -7.82400 39.83400 38.69600
H  -6.61200 40.21000 41.11700
H  -5.96500 40.27600 39.53300
H  -5.89000 38.75500 40.49400
H  -8.24300 37.77600 37.13500
H  -9.13700 36.50500 38.06100
H  -7.41300 35.14500 37.57100
H  -6.39400 35.99400 38.57200
H  -8.59100 43.72400 41.13200
H  -9.73100 45.14800 41.03900
H  -9.65500 44.17500 39.73100
H  -14.45300 44.53900 42.54700
H  -13.92500 46.05600 43.00300
H  -13.54300 44.62800 44.01600
H  -16.48100 40.64700 42.31700
H  -16.45300 38.31600 43.69900
H  -15.33700 41.13400 44.95100
H  -16.56400 39.77100 44.99700
H  -17.00400 41.36300 44.42300
H  -16.43500 37.66600 40.88000
H  -17.51000 39.13500 41.28300
H  -19.03900 37.76600 42.43500
H  -17.74500 36.70400 42.91800
H  -18.34500 36.80100 41.17200
H  -13.01300 32.64600 42.96700
H  -14.51900 33.56100 42.69900
H  -13.48900 33.85300 44.11100
H  -9.51000 34.48000 39.32700
H  -5.75600 34.03700 41.41900
H  -5.28800 33.35500 39.84900
H  -6.22700 32.37500 40.99600

