158

Mg 24.61500 -7.39100 48.21800
C  27.16100 -5.30600 47.05700
C  22.77000 -6.50000 45.56900
C  22.42100 -9.93300 48.92400
C  26.95800 -8.99500 50.22900
N  24.94000 -5.89700 46.58000
C  26.10600 -5.28700 46.15500
C  25.89900 -4.40600 44.99600
C  24.38900 -4.63900 44.60700
C  23.95000 -5.72400 45.64700
C  23.59100 -3.26100 44.56100
C  26.86400 -4.69000 43.80400
C  27.30200 -3.41700 43.02100
H  26.55000 -3.13400 41.67100
N  22.78200 -8.03900 47.45900
C  22.19700 -7.54500 46.28500
C  20.87200 -8.04500 46.07200
C  20.69300 -9.13400 47.04400
C  21.98800 -9.07200 47.90400
C  20.04400 -7.79100 44.81600
C  19.51400 -10.01300 47.26300
O  18.67800 -10.12600 46.36200
C  19.35900 -10.89600 48.44600
N  24.62800 -9.11100 49.45600
C  23.64700 -10.00100 49.56400
C  23.87500 -11.11400 50.59200
C  25.35100 -10.82300 51.01700
C  25.63000 -9.52900 50.24500
C  22.79700 -11.08000 51.77000
C  26.33500 -12.05700 50.75500
C  27.09100 -12.03900 49.40700
N  26.58900 -7.10700 48.73900
C  27.42300 -7.87900 49.53000
C  28.73200 -7.29800 49.51800
C  28.61900 -6.22700 48.59900
C  27.33900 -6.20900 48.13700
C  29.87700 -7.73100 50.33300
C  29.30200 -5.14400 48.08100
O  30.42200 -4.66700 48.27300
C  28.46700 -4.52000 47.00500
C  28.22900 -3.04500 47.20700
O  27.96100 -2.49700 48.21300
O  28.52700 -2.37700 46.01300
C  28.28200 -0.99200 45.87000
H  22.19400 -6.13700 44.71600
H  21.60600 -10.62300 49.15000
H  27.80100 -9.52000 50.68200
H  26.03300 -3.36900 45.30600
H  24.38600 -4.98200 43.57200
H  23.32900 -2.99600 43.53600
H  24.14200 -2.47600 45.07900
H  22.73000 -3.41000 45.21400
H  26.40200 -5.45000 43.17300
H  27.80000 -5.09500 44.19000
H  28.39100 -3.37600 43.01300
H  27.00600 -2.54000 43.59700
H  20.11500 -8.60800 44.09800
H  20.16000 -6.76800 44.45800
H  19.00800 -7.91500 45.13100
H  20.03400 -11.74700 48.34800
H  18.34300 -11.29000 48.42500
H  19.53900 -10.35200 49.37300
H  23.85100 -12.00200 49.96000
H  25.32100 -10.63900 52.09100
H  23.25000 -10.89500 52.74500
H  22.14100 -11.95000 51.80100
H  22.24800 -10.17300 51.52000
H  25.74200 -12.97200 50.77400
H  27.08200 -12.10300 51.54800
H  26.94200 -13.05700 49.04500
H  28.16100 -11.90100 49.56200
H  26.63800 -11.35400 48.69100
H  29.71600 -7.32800 51.33300
H  30.86400 -7.35300 50.06700
H  29.82400 -8.82000 50.32600
H  28.99800 -4.70300 46.07100
H  29.10700 -0.43600 46.31500
H  27.28100 -0.78500 46.24900
H  28.27300 -0.79400 44.79900
Mg 47.43200 45.09700 42.93800
C  44.01600 44.61600 42.52500
C  47.99700 41.83900 42.23000
C  50.70600 45.82000 42.77600
C  46.79400 48.62700 43.33800
N  46.12500 43.41900 42.46300
C  44.76300 43.40600 42.42800
C  44.16900 42.06800 42.23100
C  45.44000 41.19200 42.32700
C  46.61600 42.15400 42.26300
C  45.50700 40.29400 43.51000
C  43.32900 41.79100 41.00200
C  43.67800 42.49200 39.66900
H  43.54200 41.71000 38.39400
N  49.13100 44.02100 42.64100
C  49.11400 42.62700 42.33500
C  50.48800 42.16400 42.33300
C  51.35700 43.29800 42.45700
C  50.47100 44.48100 42.68900
C  50.79700 40.71600 42.48000
C  52.87100 43.28600 42.35700
O  53.53600 42.25700 42.07600
C  53.65400 44.55700 42.53600
N  48.54300 46.94700 43.05400
C  49.91000 46.96400 43.00900
C  50.55800 48.43300 43.00100
C  49.32700 49.28300 43.36100
C  48.12400 48.24200 43.26200
C  51.77800 48.64200 44.02900
C  49.02000 50.46200 42.43700
C  48.33900 51.70300 43.17400
N  45.82500 46.38500 42.90000
C  45.72900 47.74600 43.11300
C  44.34400 48.13600 43.04600
C  43.63500 46.90700 42.89400
C  44.57100 45.92600 42.76900
C  43.60100 49.45900 43.21800
C  42.33000 46.40300 42.77800
O  41.25600 46.99100 42.76900
C  42.49100 44.90400 42.53300
C  41.75000 44.29300 43.67500
O  40.71800 43.55200 43.50100
O  42.25700 44.64400 44.89500
C  41.64100 43.96000 46.06900
H  48.11000 40.75500 42.16300
H  51.77900 45.97300 42.63900
H  46.67400 49.68300 43.58700
H  43.54300 41.93400 43.11300
H  45.46500 40.49100 41.49300
H  45.53600 39.22000 43.32500
H  44.64400 40.45600 44.15500
H  46.39500 40.49400 44.11000
H  42.29500 42.06400 41.21400
H  43.20900 40.72000 40.84400
H  44.71500 42.82200 39.72200
H  43.11000 43.41600 39.55500
H  51.86500 40.55800 42.63400
H  50.64400 40.19200 41.53700
H  50.17700 40.26000 43.25100
H  53.72500 45.13200 41.61200
H  54.65400 44.24100 42.83200
H  53.27900 45.13400 43.38100
H  50.98300 48.66800 42.02600
H  49.37200 49.71900 44.35900
H  51.83000 47.97200 44.88700
H  51.80200 49.66000 44.41700
H  52.77700 48.55100 43.60300
H  48.44000 50.14400 41.57100
H  49.96100 50.91100 42.11700
H  48.63400 52.68200 42.79600
H  48.65800 51.77300 44.21400
H  47.25300 51.65500 43.09300
H  42.79200 49.55000 42.49400
H  44.29200 50.23500 42.88800
H  43.44500 49.59300 44.28900
H  41.98200 44.63600 41.60800
H  41.58200 42.88700 45.88600
H  40.64500 44.26400 46.38900
H  42.24700 44.07600 46.96800

