158

Mg 1.36100 8.74200 26.76300
C  1.67400 11.08900 29.47800
C  1.85900 6.20200 28.97000
C  1.56100 6.63300 24.12200
C  1.86500 11.51100 24.56300
N  1.82500 8.66500 28.93300
C  1.61400 9.73300 29.85200
C  1.42000 9.24200 31.33900
C  1.85500 7.73300 31.08300
C  1.88100 7.48200 29.59300
C  3.12100 7.21200 31.82200
C  -0.00700 9.49700 31.98800
C  -0.08700 9.32000 33.42000
H  1.10900 8.75600 34.17300
N  1.52700 6.68900 26.57300
C  1.84900 5.82900 27.58300
C  1.83800 4.47100 27.07000
C  1.57100 4.53400 25.69000
C  1.58700 6.02000 25.39900
C  1.87600 3.23900 28.01500
C  1.38500 3.49800 24.70400
O  1.11200 3.74200 23.54600
C  1.49700 2.06800 25.02200
N  1.70200 8.98000 24.63600
C  1.58400 7.98300 23.69500
C  1.68200 8.54900 22.26000
C  1.75300 10.06900 22.52800
C  1.77400 10.19400 24.01700
C  2.87700 7.91700 21.52000
C  0.59400 10.93200 21.87100
C  -0.84900 10.79100 22.49300
N  1.54700 10.93800 26.89600
C  1.80900 11.91800 25.95200
C  1.88200 13.16700 26.64100
C  1.88300 12.92100 27.92700
C  1.64100 11.49700 28.10600
C  1.98500 14.52000 25.89100
C  1.92400 13.54500 29.20400
O  2.09900 14.72100 29.49800
C  1.73200 12.36400 30.23700
C  2.90200 12.34400 31.17800
O  4.07800 12.33500 30.88300
O  2.45300 12.40600 32.47100
C  3.48000 12.31600 33.59100
H  1.97500 5.39600 29.69800
H  1.58100 6.02500 23.21500
H  2.15000 12.26800 23.83000
H  2.18000 9.90400 31.75300
H  1.03800 7.10900 31.44400
H  3.53500 7.81600 32.63000
H  3.92900 7.07200 31.10500
H  2.84200 6.29100 32.33400
H  -0.78800 8.96300 31.44800
H  -0.20900 10.52900 31.70200
H  -0.93200 8.68000 33.67700
H  -0.29400 10.27200 33.90700
H  2.39600 3.51300 28.93400
H  2.45200 2.46800 27.50400
H  0.84600 2.91700 28.16600
H  0.72400 1.86800 25.76400
H  2.49600 1.82100 25.38400
H  1.38800 1.43100 24.14400
H  0.76700 8.31100 21.71800
H  2.69800 10.43300 22.12500
H  3.52400 7.24800 22.08800
H  3.56800 8.64400 21.09400
H  2.55200 7.23500 20.73400
H  0.66500 10.52200 20.86400
H  0.91400 11.96800 21.98800
H  -1.15900 11.64200 23.10000
H  -0.96000 9.85000 23.03000
H  -1.53700 10.68900 21.65400
H  1.18300 14.41000 25.16100
H  2.96800 14.63400 25.43400
H  1.87700 15.44000 26.46500
H  0.73900 12.44500 30.67900
H  3.88500 13.32600 33.66300
H  4.25100 11.59000 33.33400
H  3.03500 12.01200 34.53800
Mg 45.24000 5.37700 48.21100
C  42.83500 7.90900 47.64900
C  42.60900 3.10000 48.12200
C  47.54100 2.90400 48.29000
C  47.74500 7.75400 48.02300
N  43.04900 5.44500 47.85200
C  42.35300 6.59900 47.57500
C  40.89500 6.27800 47.22500
C  40.73100 4.81100 47.60200
C  42.18600 4.39300 47.95200
C  39.76600 4.64600 48.83300
C  40.59200 6.68200 45.75700
C  39.19200 7.37100 45.68500
H  38.50500 6.91300 44.46900
N  45.07200 3.28400 48.19600
C  43.92000 2.51400 48.19000
C  44.31900 1.14100 48.16100
C  45.77800 1.08000 48.16500
C  46.21900 2.45600 48.22500
C  43.32000 -0.00800 48.22000
C  46.57300 -0.30100 48.10100
O  45.91900 -1.36100 47.98200
C  48.06400 -0.43800 48.26200
N  47.32300 5.35000 48.04400
C  48.01900 4.21400 48.19700
C  49.53600 4.47700 48.32500
C  49.64500 6.00000 48.27900
C  48.16600 6.43500 48.10100
C  50.41000 3.82500 49.49800
C  50.64100 6.50900 47.13400
C  52.11900 6.61700 47.55400
N  45.34000 7.43200 47.92800
C  46.42800 8.26600 47.89800
C  45.97200 9.68500 47.85700
C  44.60600 9.56600 47.80100
C  44.26400 8.19500 47.79700
C  46.70800 10.96600 47.87100
C  43.38500 10.24700 47.64000
O  43.12600 11.42800 47.50700
C  42.20500 9.19600 47.43300
C  41.30300 9.57000 48.58200
O  41.25100 9.03400 49.68900
O  40.31800 10.45700 48.02000
C  39.15200 10.69200 48.83500
H  41.87900 2.30100 47.97500
H  48.25700 2.08100 48.34400
H  48.47900 8.56100 48.08000
H  40.39300 7.05400 47.80400
H  40.34500 4.27900 46.73300
H  39.16500 5.54600 48.95700
H  40.43800 4.57300 49.68800
H  39.14400 3.76900 48.65000
H  40.74200 5.84000 45.08100
H  41.38400 7.31300 45.35400
H  39.27200 8.45200 45.57300
H  38.56600 7.10300 46.53600
H  43.71700 -0.80800 48.84400
H  43.39000 -0.48400 47.24200
H  42.29900 0.32700 48.40400
H  48.54000 0.31300 47.63100
H  48.25500 -1.48800 48.03900
H  48.38800 -0.23300 49.28300
H  49.92300 4.08800 47.38300
H  49.91000 6.36900 49.27000
H  49.77400 3.21100 50.13600
H  50.80700 4.58700 50.16900
H  51.21200 3.28700 48.99100
H  50.35800 7.54500 46.94500
H  50.54900 5.81900 46.29500
H  52.79300 6.39700 46.72700
H  52.26900 6.02600 48.45800
H  52.35000 7.64300 47.84200
H  46.94100 11.06200 48.93100
H  46.17600 11.83400 47.48000
H  47.61800 10.83300 47.28500
H  41.61000 9.27200 46.52300
H  39.15900 10.09900 49.75000
H  38.27200 10.44600 48.23900
H  39.10900 11.74400 49.11700

