158

Mg 35.79700 1.34100 29.50800
C  33.44700 2.62900 31.81700
C  38.24100 1.74600 32.01600
C  38.04400 0.57000 27.19000
C  33.33700 1.78900 27.07800
N  35.81000 2.32800 31.63500
C  34.68300 2.51700 32.39400
C  35.04100 2.52000 33.86300
C  36.66800 2.46100 33.89900
C  36.98200 2.14900 32.43200
C  37.50900 3.74400 34.27800
C  34.31900 1.35700 34.61200
C  33.92900 1.53700 36.13500
H  34.66300 2.70400 36.82200
N  37.83000 1.10900 29.60000
C  38.62300 1.20100 30.67400
C  39.93400 0.73200 30.26500
C  39.95000 0.49800 28.86600
C  38.56000 0.73800 28.50200
C  41.09500 0.73000 31.26700
C  41.07600 0.09900 27.92200
O  40.90500 0.12900 26.68800
C  42.48500 -0.29600 28.44300
N  35.71200 1.32200 27.46300
C  36.73400 0.92600 26.73600
C  36.42900 0.74400 25.22600
C  34.88800 1.17700 25.20700
C  34.57400 1.45400 26.68700
C  37.26400 1.70800 24.41500
C  33.99200 0.12000 24.56000
C  33.55500 -1.13300 25.32000
N  33.78500 1.95100 29.41300
C  32.91400 2.01400 28.38000
C  31.63100 2.54200 28.81800
C  31.80400 2.69900 30.19400
C  33.11300 2.39700 30.46000
C  30.56500 3.00800 27.94800
C  31.09100 3.13000 31.38400
O  29.94300 3.53100 31.58800
C  32.15200 3.06500 32.47400
C  32.30400 4.39200 33.15600
O  32.93400 5.30600 32.69500
O  31.69400 4.45300 34.36300
C  32.06800 5.58400 35.14600
H  38.92300 1.74800 32.86900
H  38.74200 0.22600 26.42300
H  32.56800 1.82300 26.30300
H  34.58900 3.45700 34.18800
H  36.99400 1.58200 34.45500
H  38.22000 3.52200 35.07300
H  36.70000 4.38000 34.63600
H  37.99100 4.22000 33.42400
H  34.80700 0.39600 34.77300
H  33.36900 1.18300 34.10800
H  34.05200 0.67000 36.78500
H  32.84800 1.52400 36.27300
H  41.91900 1.34200 30.89900
H  41.37100 -0.32300 31.20400
H  40.92000 0.97500 32.31400
H  42.34200 -1.07200 29.19500
H  43.01500 0.59000 28.79400
H  43.07000 -0.61700 27.58200
H  36.63000 -0.28400 24.92600
H  34.79300 2.14400 24.71200
H  38.20800 1.18300 24.27200
H  37.47200 2.64600 24.92900
H  36.72300 1.94300 23.49800
H  34.46200 -0.29000 23.66600
H  33.09300 0.64800 24.24200
H  32.53200 -0.94200 25.64400
H  34.23600 -1.30900 26.15200
H  33.59500 -2.01400 24.67900
H  31.11400 3.59200 27.20900
H  29.83000 3.67100 28.40300
H  30.15700 2.10600 27.49300
H  31.77700 2.41200 33.26200
H  31.31300 6.36300 35.03900
H  33.05700 6.01000 34.98000
H  32.05000 5.27000 36.19000
Mg 47.47300 16.34900 28.50200
C  45.13400 16.52900 31.09800
C  49.29900 18.61400 30.28700
C  49.76800 16.06100 26.13000
C  45.24600 14.61000 26.57300
N  47.19500 17.45500 30.40300
C  46.21100 17.24500 31.31800
C  46.63900 17.74300 32.72400
C  47.81000 18.69100 32.33600
C  48.10200 18.27400 30.94500
C  47.56600 20.24900 32.39300
C  47.00100 16.58100 33.74400
C  46.59400 16.84500 35.17200
H  47.59500 16.59200 36.33700
N  49.32300 17.21100 28.29000
C  49.96600 18.08900 29.11300
C  51.32700 18.31700 28.60300
C  51.40700 17.52100 27.49800
C  50.12200 16.92300 27.19600
C  52.38100 19.11300 29.28400
C  52.69500 17.30800 26.63500
O  52.75300 16.62800 25.61000
C  53.96600 17.92600 27.11100
N  47.52000 15.44700 26.64200
C  48.54400 15.49900 25.79700
C  48.31700 14.69100 24.49900
C  46.94900 14.07700 24.73500
C  46.50700 14.77500 25.94300
C  48.37700 15.63800 23.20500
C  46.96100 12.59600 24.81500
C  47.33600 11.88300 23.51700
N  45.54400 15.81200 28.67400
C  44.77100 15.05600 27.81600
C  43.49500 14.70200 28.49200
C  43.59300 15.29300 29.78400
C  44.84900 15.87100 29.81800
C  42.31500 13.99000 27.72700
C  42.96400 15.44300 31.13000
O  41.91800 15.00600 31.57500
C  44.07500 16.16800 32.06700
C  43.51500 17.37200 32.78400
O  43.62100 18.56900 32.49500
O  42.90000 16.97800 33.92600
C  42.14800 18.00000 34.63300
H  49.95600 19.27100 30.86100
H  50.55000 15.87600 25.39000
H  44.65900 14.04800 25.84300
H  45.95800 18.45000 33.19800
H  48.70000 18.37500 32.87900
H  48.33000 20.71900 33.01300
H  46.58800 20.56900 32.75400
H  47.78400 20.84800 31.50900
H  48.07700 16.43100 33.82100
H  46.54200 15.62400 33.49300
H  45.75700 16.17200 35.36000
H  46.12900 17.83100 35.18400
H  52.90500 19.85900 28.68600
H  53.17200 18.61900 29.84800
H  51.93600 19.81100 29.99300
H  53.94700 18.99700 26.90900
H  54.77800 17.50600 26.51800
H  54.18100 17.56500 28.11700
H  49.04400 13.90600 24.29200
H  46.27200 14.27500 23.90300
H  47.49500 16.27700 23.22100
H  48.32200 15.11400 22.25100
H  49.19100 16.36300 23.19200
H  46.01200 12.17700 25.14900
H  47.74600 12.34800 25.53000
H  46.73800 10.97500 23.44800
H  48.35700 11.50900 23.59400
H  47.40000 12.53500 22.64600
H  42.58700 13.47800 26.80400
H  41.55700 14.65800 27.31800
H  41.91900 13.24100 28.41400
H  44.31500 15.36200 32.76100
H  41.58700 17.46800 35.40100
H  41.36200 18.34500 33.96100
H  42.68000 18.85400 35.05200

