158

Mg 25.01700 1.27900 29.73500
C  27.11100 1.05500 32.54300
C  22.36800 1.31200 31.83600
C  23.07700 1.41300 27.01900
C  27.77700 0.81100 27.69000
N  24.80900 1.17100 31.92300
C  25.74300 1.17300 32.90500
C  25.19000 1.32700 34.30500
C  23.64400 1.24600 34.05900
C  23.56800 1.12500 32.51900
C  22.82000 0.29800 34.90100
C  25.71800 2.56600 35.02300
C  26.51900 2.41900 36.32000
H  26.24100 3.42400 37.47200
N  22.98300 1.25700 29.52100
C  22.04200 1.37800 30.47500
C  20.76500 1.62300 29.85300
C  20.96100 1.75100 28.43100
C  22.38400 1.44200 28.21100
C  19.43200 1.69800 30.55800
C  19.99200 2.15500 27.33900
O  20.39200 2.30300 26.14700
C  18.51200 2.39200 27.66800
N  25.36400 1.04600 27.67100
C  24.35500 1.14800 26.78300
C  24.85600 1.15100 25.29700
C  26.48800 1.10200 25.46600
C  26.56400 0.96700 26.98500
C  24.28400 -0.05300 24.48100
C  27.25800 2.27100 24.84400
C  27.06400 3.73500 25.42700
N  27.05400 0.92400 30.01400
C  28.03700 0.78900 29.07900
C  29.29700 0.59600 29.75500
C  29.06000 0.70600 31.14700
C  27.64500 0.93900 31.26500
C  30.64500 0.31800 29.14500
C  29.59200 0.60100 32.52500
O  30.72000 0.32000 32.92900
C  28.36300 1.01000 33.52200
C  28.24600 -0.11200 34.51500
O  27.75100 -1.21700 34.25400
O  28.76400 0.29700 35.69500
C  28.97400 -0.88300 36.57000
H  21.56400 1.45600 32.56100
H  22.47700 1.62000 26.13000
H  28.63300 0.80700 27.01300
H  25.37500 0.40600 34.85800
H  23.21100 2.22800 34.25100
H  23.43900 -0.27000 35.59500
H  22.36600 -0.42300 34.22200
H  22.02000 0.78700 35.45700
H  24.85700 3.21200 35.19400
H  26.33400 3.13800 34.32900
H  27.55000 2.59100 36.00900
H  26.60400 1.38300 36.64800
H  19.61700 1.15700 31.48600
H  18.63900 1.13500 30.06600
H  19.09600 2.72900 30.65900
H  18.36400 3.13700 28.45000
H  17.96600 1.46900 27.86100
H  18.15300 2.90200 26.77400
H  24.63200 2.14400 24.90700
H  26.87700 0.19700 24.99800
H  24.96900 -0.83500 24.15300
H  23.82800 0.33600 23.57000
H  23.51300 -0.47200 25.12700
H  26.79500 2.30400 23.85800
H  28.32700 2.06600 24.78000
H  26.53400 3.62100 26.37200
H  26.43800 4.22900 24.68400
H  27.93000 4.35500 25.65700
H  30.62900 0.85200 28.19500
H  30.61500 -0.72700 28.83800
H  31.52800 0.47400 29.76500
H  28.45200 1.98100 34.00900
H  28.03400 -1.14400 37.05700
H  29.64900 -0.68200 37.40200
H  29.49800 -1.70700 36.08500
Mg 43.13400 42.21600 26.23100
C  42.11500 44.43300 28.64500
C  44.24300 40.05000 28.55600
C  44.19100 40.20700 23.72000
C  42.04200 44.44500 23.83000
N  43.26200 42.24800 28.30900
C  42.65500 43.22800 29.15000
C  42.64500 42.75800 30.61700
C  43.46400 41.43100 30.60300
C  43.65200 41.20700 29.02000
C  44.86300 41.42900 31.35900
C  41.13800 42.54300 31.09900
C  41.02200 41.78000 32.42300
H  40.22400 42.55200 33.45600
N  44.18900 40.46600 26.14600
C  44.52000 39.69100 27.24900
C  44.99400 38.35700 26.80400
C  44.87900 38.33600 25.36800
C  44.52100 39.70500 24.98700
C  45.62300 37.31800 27.67900
C  45.20000 37.23000 24.30600
O  45.29800 37.43600 23.10300
C  45.11800 35.84400 24.81300
N  43.16100 42.35900 24.09900
C  43.63600 41.38000 23.28700
C  43.53800 41.69900 21.72800
C  42.64800 42.93400 21.79100
C  42.59300 43.29600 23.34500
C  44.96500 41.96700 21.25200
C  41.24800 42.71500 21.21600
C  40.52100 41.55100 21.88300
N  42.25400 44.14200 26.18500
C  41.91700 44.98200 25.14400
C  41.47300 46.23700 25.66800
C  41.42500 46.04800 27.06100
C  41.90300 44.74100 27.34500
C  41.01300 47.48600 24.83700
C  41.04600 46.57000 28.28600
O  40.69000 47.72900 28.51100
C  41.48900 45.50800 29.43700
C  42.55100 46.09100 30.29300
O  43.63900 46.44800 29.90600
O  42.07200 46.20400 31.62400
C  42.78900 47.08900 32.55300
H  44.48500 39.28000 29.29100
H  44.44900 39.53600 22.89800
H  41.61700 45.07100 23.04300
H  43.10500 43.55700 31.19800
H  42.91800 40.59900 31.04700
H  45.02900 42.41400 31.79500
H  45.66700 41.27000 30.64000
H  44.87600 40.58500 32.04900
H  40.63800 41.97400 30.31400
H  40.58200 43.46700 31.25600
H  42.02300 41.55900 32.79500
H  40.59800 40.80100 32.20200
H  45.94200 37.79400 28.60600
H  46.49400 36.88000 27.19100
H  44.83800 36.58700 27.87200
H  44.45700 35.68800 25.66500
H  46.14500 35.57300 25.06000
H  44.73000 35.24100 23.99200
H  42.97900 40.94100 21.17800
H  43.07700 43.83600 21.35400
H  45.10300 41.65000 20.21900
H  45.69700 41.34300 21.76500
H  45.15400 43.03100 21.39100
H  41.31300 42.46100 20.15800
H  40.72900 43.66900 21.31600
H  40.24300 40.84300 21.10200
H  39.63100 41.87400 22.42300
H  41.22700 40.96300 22.46900
H  41.90200 48.03700 24.53000
H  40.40300 48.15200 25.44700
H  40.41100 47.09700 24.01600
H  40.61000 45.19200 29.99800
H  42.63000 46.79600 33.59100
H  42.41900 48.08900 32.32700
H  43.84700 47.08100 32.29000

