158

Mg 54.81400 24.45000 45.45000
C  52.19400 26.78400 44.70000
C  52.70600 22.02400 44.10500
C  57.42400 22.33800 45.35100
C  56.91200 27.15700 46.22400
N  52.79300 24.49800 44.31900
C  51.84800 25.52600 44.32400
C  50.51000 25.06300 43.69600
C  50.63600 23.49100 43.91300
C  52.16500 23.32400 44.09800
C  49.83200 22.87700 45.09200
C  50.34300 25.64100 42.26900
C  50.28900 24.63300 41.03300
H  50.02900 25.06500 39.61100
N  55.03400 22.38400 44.85700
C  54.01200 21.54100 44.39700
C  54.57600 20.20300 44.16000
C  55.97700 20.29900 44.28300
C  56.20800 21.67300 44.85100
C  53.60400 18.97900 43.81100
C  56.96900 19.18600 44.08100
O  56.65000 18.07400 43.66800
C  58.49600 19.32100 44.36000
N  56.82900 24.71300 45.72500
C  57.66400 23.67300 45.83900
C  59.09300 24.06700 46.25100
C  58.94900 25.58500 46.37000
C  57.41900 25.87200 46.14700
C  59.75800 23.31300 47.33300
C  60.02000 26.45900 45.71600
C  60.71600 27.42700 46.57900
N  54.66400 26.49800 45.57700
C  55.58200 27.45700 45.97000
C  54.94400 28.75700 46.02300
C  53.63900 28.50900 45.55800
C  53.53400 27.11300 45.17100
C  55.56000 30.01500 46.49800
C  52.43500 29.16200 45.34900
O  52.00900 30.25900 45.61400
C  51.45600 28.11200 44.65700
C  51.09200 28.61800 43.31600
O  51.88900 29.14500 42.50000
O  49.68900 28.54000 43.15200
C  49.26800 29.22500 41.92500
H  52.04700 21.20900 43.79700
H  58.27500 21.65400 45.32500
H  57.55600 28.00200 46.47500
H  49.66800 25.33500 44.33300
H  50.48800 22.88900 43.01700
H  50.43800 22.16100 45.64800
H  48.88900 22.41300 44.80300
H  49.54800 23.65400 45.80200
H  51.11400 26.31800 41.90100
H  49.34000 26.06500 42.31100
H  49.44400 23.94500 41.06600
H  51.23500 24.09800 41.11000
H  52.82400 19.09600 44.56300
H  54.08500 18.00600 43.90800
H  53.22700 19.03900 42.79000
H  58.84400 20.26100 43.93100
H  59.08200 18.67000 43.71200
H  58.74300 19.22000 45.41700
H  59.68900 23.68700 45.42100
H  59.10100 25.75700 47.43600
H  60.72200 22.84600 47.13600
H  59.10900 22.47700 47.59700
H  59.94600 23.89100 48.23800
H  59.52100 27.03200 44.93400
H  60.64600 25.83000 45.08300
H  61.77200 27.46400 46.31400
H  60.59600 27.37500 47.66100
H  60.28700 28.38800 46.29300
H  56.22100 30.44100 45.74300
H  56.14400 29.96300 47.41800
H  54.78400 30.76900 46.63000
H  50.54200 27.96900 45.23400
H  49.68500 28.71700 41.05500
H  49.75200 30.20200 41.93000
H  48.19100 29.35000 42.03700
Mg 6.31100 54.43200 39.58600
C  6.00000 50.91100 39.51500
C  9.66700 53.99800 38.55900
C  6.46800 57.77400 39.17700
C  2.99400 54.77700 40.49600
N  7.64700 52.68200 38.87400
C  7.28600 51.33300 38.98400
C  8.44700 50.39800 38.80400
C  9.68500 51.40600 38.77900
C  8.96600 52.85100 38.76900
C  10.64700 51.29200 39.94600
C  8.34700 49.58200 37.53700
C  7.75000 50.31700 36.28500
H  6.26100 50.02000 35.85400
N  7.83600 55.69500 38.86200
C  9.18600 55.34100 38.48700
C  9.93400 56.55100 38.25100
C  9.02100 57.62900 38.43200
C  7.68800 57.08400 38.82700
C  11.47500 56.55900 37.90300
C  9.41600 59.15300 38.24700
O  10.56800 59.45400 38.02000
C  8.38700 60.23500 38.26500
N  4.76300 55.98100 39.43700
C  5.21200 57.31100 39.45400
C  4.07600 58.31700 39.79800
C  2.89900 57.32800 40.06100
C  3.57900 55.98300 40.01400
C  4.35800 59.34600 40.89100
C  1.64800 57.38000 39.03800
C  0.30000 57.83600 39.66600
N  4.78100 53.18800 39.86200
C  3.54000 53.45100 40.44600
C  2.87600 52.19800 40.80000
C  3.86800 51.22000 40.50600
C  4.91500 51.87600 39.88200
C  1.55400 51.85700 41.48800
C  4.11400 49.74400 40.62500
O  3.41200 48.76700 40.91400
C  5.50700 49.54500 40.05400
C  5.30400 48.44800 39.07400
O  4.70600 48.60600 38.02900
O  5.66100 47.25600 39.65600
C  5.05200 46.11200 38.92800
H  10.75600 54.03600 38.62400
H  6.62500 58.84200 39.33800
H  1.97300 54.92600 40.85500
H  8.35000 49.81400 39.71800
H  10.34200 51.23100 37.92700
H  10.73800 50.24500 40.23500
H  10.40000 51.94900 40.78000
H  11.61600 51.67400 39.62600
H  7.65100 48.80500 37.85500
H  9.31800 49.11600 37.36800
H  8.45900 49.98900 35.52500
H  7.92200 51.39000 36.36900
H  11.87500 55.54800 37.97900
H  12.02700 57.09600 38.67500
H  11.57000 56.87300 36.86400
H  7.59500 59.83100 37.63500
H  8.78700 61.16600 37.86300
H  8.08100 60.52200 39.27100
H  3.81600 58.90500 38.91800
H  2.52000 57.50400 41.06800
H  5.40300 59.19400 41.16100
H  3.60300 59.29500 41.67600
H  4.40500 60.34700 40.46300
H  1.45900 56.49300 38.43400
H  1.83900 58.20800 38.35500
H  -0.42700 57.02800 39.58400
H  -0.07800 58.76600 39.24200
H  0.39000 58.10400 40.71800
H  1.64500 51.62700 42.55000
H  1.02200 51.04600 40.99000
H  0.88400 52.71000 41.38500
H  6.16500 49.07200 40.78400
H  5.28900 46.31800 37.88400
H  3.97000 46.05100 39.04500
H  5.48300 45.16800 39.25900

