158

Mg 8.77000 3.33800 27.83000
C  10.11500 2.01300 30.66500
C  7.22100 5.75300 29.70200
C  7.04500 4.34100 25.05400
C  10.06300 0.65500 26.01800
N  8.79100 3.88100 29.93900
C  9.47100 3.25700 30.92400
C  9.26900 3.83400 32.35800
C  8.31900 5.01300 32.05900
C  8.10500 4.93800 30.49100
C  7.03200 5.13700 32.88700
C  10.63600 4.22400 33.07300
C  10.51100 5.26600 34.19400
H  11.22800 4.87700 35.50400
N  7.40800 4.92900 27.40200
C  6.88400 5.76200 28.34600
C  6.05400 6.74900 27.69600
C  5.98600 6.41900 26.32500
C  6.78400 5.16100 26.16000
C  5.43800 7.99800 28.28900
C  5.16700 7.03500 25.24500
O  5.34400 6.77200 24.06100
C  4.08500 8.15600 25.58000
N  8.53200 2.61300 25.84400
C  7.79900 3.21900 24.89500
C  7.89400 2.42300 23.59400
C  9.05300 1.50700 23.81700
C  9.24900 1.55700 25.34900
C  6.58300 1.62600 23.15800
C  10.36200 1.88700 23.02000
C  11.32600 0.72400 22.82500
N  10.04000 1.73800 28.17100
C  10.38300 0.71200 27.39300
C  11.16400 -0.24400 28.18400
C  11.07700 0.25900 29.43900
C  10.31200 1.41400 29.38000
C  11.75900 -1.56300 27.78100
C  11.57200 -0.02200 30.78700
O  12.40100 -0.81200 31.17400
C  10.94100 1.11600 31.60200
C  10.25900 0.51800 32.80300
O  9.21300 -0.12200 32.73200
O  11.09800 0.84200 33.89400
C  10.50000 0.23700 35.10100
H  6.80100 6.62800 30.20300
H  6.45200 4.65500 24.19200
H  10.44800 -0.24100 25.52700
H  8.74600 3.07300 32.93800
H  8.77800 5.99000 32.20900
H  6.14700 5.01200 32.26400
H  7.00600 6.13200 33.33100
H  6.87300 4.43300 33.70400
H  11.27400 4.59800 32.27100
H  11.08000 3.36300 33.57100
H  9.45500 5.33300 34.45700
H  10.78300 6.20800 33.71800
H  6.04400 8.34900 29.12400
H  4.41800 7.74900 28.58000
H  5.41900 8.90700 27.68900
H  3.62900 7.89400 26.53500
H  3.55700 8.31900 24.64000
H  4.70900 9.04300 25.68200
H  8.11200 3.19200 22.85200
H  8.88000 0.47400 23.51400
H  5.74700 2.25200 22.84500
H  6.26600 0.92900 23.93300
H  6.78100 0.96700 22.31200
H  10.92400 2.62400 23.59500
H  10.18200 2.38300 22.06600
H  12.00300 0.70800 23.67900
H  11.87700 0.95900 21.91400
H  10.73400 -0.19000 22.78600
H  11.43100 -1.97000 26.82500
H  11.58900 -2.37500 28.48900
H  12.83900 -1.42500 27.73500
H  11.73000 1.77100 31.97100
H  9.88800 -0.63300 34.86600
H  9.98300 0.98000 35.70800
H  11.26500 -0.20000 35.74400
Mg 24.89600 -6.35700 45.68200
C  27.44700 -4.31300 44.36600
C  22.71000 -4.75700 43.58000
C  22.78500 -8.99800 46.12300
C  27.36100 -8.06900 47.45100
N  25.14200 -4.85200 44.09300
C  26.23700 -4.13600 43.73700
C  26.02900 -3.17700 42.62400
C  24.47000 -3.11600 42.62700
C  24.06700 -4.36300 43.48700
C  23.93400 -1.81100 43.17800
C  26.59400 -3.55200 41.23900
C  26.77700 -2.48900 40.19200
H  25.93300 -2.62100 38.94700
N  22.98000 -6.76100 44.96100
C  22.20100 -5.88800 44.29100
C  20.87500 -6.46000 44.25900
C  20.94100 -7.72200 44.83000
C  22.23400 -7.86600 45.39200
C  19.70600 -5.80400 43.53200
C  19.73700 -8.64100 44.96400
O  18.59700 -8.35000 44.71500
C  19.92500 -10.05000 45.51200
N  25.14500 -8.34400 46.49100
C  24.07400 -9.12600 46.65000
C  24.36400 -10.34000 47.59900
C  25.83400 -10.02900 48.03600
C  26.16700 -8.70100 47.32300
C  23.28000 -10.64100 48.75300
C  26.94700 -11.16300 47.73600
C  27.99700 -11.49900 48.81000
N  27.04700 -6.18400 46.01500
C  27.85000 -6.93900 46.76600
C  29.17800 -6.33700 46.77700
C  29.05500 -5.32100 45.81200
C  27.73700 -5.25900 45.40300
C  30.40200 -6.88900 47.56600
C  29.81400 -4.32400 45.04800
O  30.98800 -4.07800 45.00400
C  28.77800 -3.64200 44.14000
C  28.75800 -2.19400 44.34000
O  29.02200 -1.40300 43.40700
O  28.43100 -1.87800 45.61000
C  28.04900 -0.46800 45.84100
H  22.02000 -4.17800 42.96200
H  22.20700 -9.88800 46.38100
H  28.12300 -8.49400 48.10700
H  26.61500 -2.29800 42.89400
H  24.10100 -3.08800 41.60200
H  23.42400 -2.07600 44.10400
H  23.25400 -1.42500 42.41800
H  24.83100 -1.21100 43.33200
H  26.01600 -4.39500 40.86000
H  27.53100 -4.05100 41.48500
H  27.84200 -2.40100 39.97900
H  26.46600 -1.49700 40.51800
H  19.59000 -6.19400 42.52100
H  19.93500 -4.74200 43.44200
H  18.66100 -5.81400 43.84400
H  20.06700 -9.99100 46.59100
H  20.74800 -10.47600 44.93700
H  19.02900 -10.63200 45.29600
H  24.39700 -11.21200 46.94700
H  25.84200 -9.80200 49.10200
H  22.77400 -11.51700 48.34900
H  22.54900 -9.84400 48.89200
H  23.78000 -10.89900 49.68700
H  27.46400 -11.08000 46.78000
H  26.32800 -12.04300 47.56300
H  28.25700 -12.55700 48.77600
H  27.73400 -11.17700 49.81700
H  28.91800 -11.02800 48.46600
H  30.92200 -7.52700 46.85100
H  30.21700 -7.45700 48.47900
H  31.09600 -6.11700 47.89600
H  29.00600 -3.90300 43.10600
H  26.96700 -0.40900 45.95900
H  28.36600 0.18200 45.02500
H  28.50600 -0.04200 46.73400

