158

Mg 30.53500 57.96700 40.51800
C  27.94000 56.28900 38.92400
C  32.56500 55.28800 39.83800
C  33.08000 60.04900 40.88700
C  28.36300 60.83700 40.53400
N  30.25900 56.02200 39.43100
C  29.09100 55.51700 38.99400
C  29.29100 54.08300 38.49000
C  30.61600 53.68400 39.21000
C  31.20800 55.07400 39.52000
C  30.55000 52.74300 40.38100
C  29.43600 53.99600 36.93000
C  28.24500 53.35400 36.16100
H  27.70300 54.10900 34.91400
N  32.63000 57.72600 40.45000
C  33.23600 56.54400 40.15000
C  34.67300 56.76700 40.16300
C  34.86700 58.14000 40.42100
C  33.48900 58.71000 40.63200
C  35.64100 55.68300 39.87500
C  36.22800 58.70400 40.51900
O  37.15900 57.93500 40.42200
C  36.51600 60.08500 40.94900
N  30.70700 60.16000 40.54600
C  31.87800 60.71400 40.87300
C  31.78600 62.24000 41.13200
C  30.28000 62.47900 40.96700
C  29.69700 61.10900 40.67300
C  32.39700 62.73500 42.48400
C  29.98100 63.46400 39.79500
C  28.70800 64.22800 40.00200
N  28.52000 58.40300 40.19000
C  27.87500 59.61000 40.22700
C  26.52600 59.43400 39.76100
C  26.49300 58.12700 39.37200
C  27.73500 57.55000 39.54200
C  25.32300 60.43000 39.73600
C  25.64800 57.10400 38.77700
O  24.42700 57.19500 38.52100
C  26.54900 55.88600 38.41200
C  25.99400 54.67100 39.21100
O  26.48200 54.11400 40.17500
O  24.82600 54.24400 38.59400
C  24.28600 52.92100 38.97900
H  33.12200 54.35100 39.77200
H  33.95000 60.68100 41.08000
H  27.73200 61.72800 40.57200
H  28.45500 53.45300 38.79500
H  31.20700 53.14800 38.46700
H  29.56800 52.43200 40.73800
H  31.05900 53.09500 41.27900
H  31.12200 51.85900 40.10100
H  30.35000 53.48900 36.62100
H  29.54600 55.03600 36.62300
H  27.42200 53.09600 36.82800
H  28.64600 52.42500 35.75600
H  36.22700 55.84600 38.97000
H  35.11000 54.73100 39.86300
H  36.30900 55.51600 40.72000
H  37.53400 60.38100 41.20300
H  35.91600 60.34400 41.82100
H  36.26300 60.62000 40.03400
H  32.40000 62.58700 40.30100
H  29.79100 62.83000 41.87500
H  33.23200 63.38800 42.22900
H  32.69300 61.84700 43.04300
H  31.69000 63.29200 43.09900
H  29.93800 62.87900 38.87700
H  30.77700 64.19600 39.66300
H  28.19000 64.04900 40.94400
H  28.06800 64.04800 39.13800
H  28.95900 65.28700 39.95200
H  25.66500 61.30000 39.17400
H  24.97500 60.70200 40.73200
H  24.48200 59.93200 39.25400
H  26.43400 55.58500 37.37100
H  24.25400 52.34900 38.05200
H  23.29700 52.94500 39.43700
H  25.01900 52.44100 39.62800
Mg 9.86700 48.61800 25.69600
C  7.94300 48.36100 28.70400
C  12.53900 49.61000 27.75400
C  11.61600 49.10100 22.96300
C  7.07100 47.79700 23.98600
N  10.07600 49.18200 27.92100
C  9.22300 48.91600 28.91600
C  9.80300 49.25800 30.31500
C  11.09100 49.98600 29.84400
C  11.29500 49.56000 28.40400
C  11.17500 51.54400 30.03800
C  10.03500 48.16000 31.41000
C  9.36900 48.28400 32.81100
H  10.03100 49.08200 33.99900
N  11.82000 49.13200 25.35200
C  12.81500 49.45700 26.35100
C  14.03000 49.50300 25.70900
C  13.76900 49.54700 24.30500
C  12.30900 49.29600 24.13500
C  15.35600 49.72900 26.38100
C  14.80900 49.49900 23.08600
O  14.37800 49.48800 21.91600
C  16.29900 49.48400 23.27300
N  9.32900 48.67300 23.71700
C  10.26100 48.83900 22.75800
C  9.64900 48.74200 21.35100
C  8.32600 48.06200 21.72600
C  8.21400 48.10000 23.21600
C  9.49400 50.05400 20.56400
C  8.17400 46.60800 21.08000
C  8.82100 45.46600 21.87800
N  7.80300 48.30300 26.15800
C  6.77600 47.98800 25.32800
C  5.61100 47.65200 26.16000
C  6.03200 47.89200 27.49700
C  7.34800 48.20100 27.44500
C  4.35900 47.08700 25.75800
C  5.61800 47.82000 28.83000
O  4.51300 47.49700 29.27200
C  6.86700 48.04100 29.73100
C  7.04400 46.79100 30.54200
O  7.68400 45.81000 30.12100
O  6.50300 46.96800 31.83400
C  6.51600 45.86800 32.77800
H  13.39300 49.83900 28.39600
H  12.16100 49.23400 22.02600
H  6.27500 47.36400 23.37700
H  9.13100 50.03500 30.67800
H  11.86300 49.64900 30.53600
H  11.52400 51.86000 29.05500
H  12.05200 51.73700 30.65600
H  10.30800 52.08400 30.41900
H  11.10200 48.08200 31.61900
H  9.64400 47.24200 30.96900
H  9.02800 47.29700 33.12400
H  8.49500 48.92800 32.71000
H  16.10200 48.93900 26.28800
H  15.25500 49.91800 27.44900
H  15.75500 50.65400 25.96500
H  16.70800 50.40400 23.69200
H  16.71100 49.45400 22.26400
H  16.47100 48.56900 23.84000
H  10.27000 48.15000 20.67900
H  7.47500 48.51600 21.21900
H  9.89200 50.93400 21.07100
H  8.43100 50.25300 20.43100
H  9.93700 49.92100 19.57700
H  8.54900 46.49300 20.06300
H  7.09500 46.45500 21.09400
H  7.98300 44.96900 22.36600
H  9.50700 45.89600 22.60700
H  9.43100 44.83900 21.22600
H  4.65600 46.21200 25.18000
H  3.85900 47.82500 25.13200
H  3.64200 46.83100 26.53800
H  6.71600 48.90500 30.37800
H  6.29500 44.84400 32.47800
H  5.79700 46.18800 33.53200
H  7.47500 45.81300 33.29400

