158

Mg 4.81300 55.01900 42.05700
C  2.87900 52.11100 41.90700
C  7.26500 53.25300 40.29600
C  6.34700 57.86600 41.16200
C  2.03100 56.72200 42.94000
N  4.96300 52.96300 41.18500
C  4.01300 51.97600 41.10800
C  4.38500 50.83300 40.20900
C  5.91400 51.05600 40.02200
C  6.08500 52.53300 40.52400
C  6.94900 50.11600 40.69400
C  3.54500 50.73700 38.85600
C  2.93000 49.33100 38.49500
H  3.48200 48.61000 37.28200
N  6.69400 55.49900 41.15400
C  7.53200 54.61400 40.52100
C  8.70400 55.34400 40.11100
C  8.46700 56.70300 40.43900
C  7.11900 56.71200 40.91700
C  9.94700 54.65600 39.46000
C  9.48000 57.84800 40.15100
O  10.54500 57.58600 39.51900
C  9.33700 59.28100 40.62200
N  4.27800 57.04300 41.89100
C  5.03300 58.04300 41.51900
C  4.25900 59.37200 41.62500
C  2.87300 59.02300 42.22000
C  3.01400 57.52400 42.36400
C  5.08000 60.47700 42.34900
C  1.54900 59.50500 41.49900
C  0.17900 59.55700 42.23700
N  2.84900 54.59000 42.52000
C  1.84000 55.32500 42.97400
C  0.75000 54.58300 43.36200
C  1.12000 53.29900 43.07800
C  2.41300 53.34000 42.47700
C  -0.45700 54.98400 44.08800
C  0.80500 51.84100 43.09300
O  -0.16700 51.21600 43.46500
C  1.86500 51.02100 42.27900
C  1.18400 50.27200 41.13400
O  0.70800 50.73300 40.10700
O  1.22500 48.90600 41.46900
C  0.48400 47.90800 40.70500
H  7.81400 52.60200 39.61300
H  6.87400 58.78200 40.88600
H  1.11200 57.19700 43.28900
H  4.23700 49.87900 40.71600
H  6.12800 50.86200 38.97100
H  6.56900 49.64600 41.60200
H  7.76900 50.67200 41.14800
H  7.31800 49.38400 39.97600
H  4.19300 51.06600 38.04400
H  2.75500 51.48400 38.78800
H  1.84500 49.27400 38.40800
H  3.06300 48.56900 39.26300
H  10.09600 53.59400 39.65500
H  10.84500 55.11900 39.86900
H  10.17500 54.79300 38.40300
H  10.28100 59.82500 40.59400
H  9.01000 59.26000 41.66200
H  8.62700 59.85100 40.02400
H  4.05600 59.64700 40.59000
H  2.90100 59.69000 43.08300
H  4.80800 60.50300 43.40400
H  4.74000 61.43800 41.96300
H  6.12600 60.48900 42.04100
H  1.38000 58.83600 40.65500
H  1.70700 60.50800 41.10200
H  -0.18300 60.58400 42.29200
H  0.21200 59.28700 43.29300
H  -0.59900 58.88700 41.87100
H  -0.49500 56.02700 44.40200
H  -0.37000 54.34500 44.96600
H  -1.26000 54.76900 43.38300
H  2.21800 50.20600 42.91100
H  -0.22000 48.51000 40.13000
H  0.24800 47.11300 41.41200
H  1.15700 47.44700 39.98200
Mg 9.44300 48.92800 25.82300
C  7.40600 48.66900 28.74400
C  12.15300 49.52600 27.60800
C  11.23300 48.81700 22.96500
C  6.51900 48.01400 23.91800
N  9.69200 49.23400 27.90700
C  8.75100 49.12800 28.96900
C  9.49400 49.43700 30.26600
C  10.85300 49.99300 29.78000
C  10.93700 49.48100 28.31800
C  10.98200 51.50400 29.79500
C  9.59400 48.21400 31.27600
C  8.81000 48.53300 32.64700
H  8.87000 47.61500 33.88700
N  11.41400 49.27300 25.34600
C  12.40000 49.42600 26.27500
C  13.66700 49.48700 25.58800
C  13.39900 49.37700 24.22500
C  11.97800 49.09900 24.11400
C  15.06100 49.72500 26.33900
C  14.28600 49.37800 23.02500
O  13.93600 49.21900 21.87800
C  15.80000 49.54300 23.16200
N  8.90000 48.51100 23.78600
C  9.88000 48.53100 22.81700
C  9.40400 47.89100 21.52300
C  8.03300 47.43800 21.93400
C  7.76800 48.04800 23.27800
C  9.46100 48.73300 20.20500
C  7.89900 45.82500 21.95100
C  7.83200 44.96300 23.21300
N  7.31300 48.48900 26.21600
C  6.23900 48.19300 25.28100
C  5.07100 47.89600 26.08000
C  5.44600 48.08300 27.40000
C  6.84500 48.42000 27.43600
C  3.78200 47.47900 25.59500
C  4.99900 47.98300 28.79300
O  3.88200 47.63900 29.21900
C  6.21300 48.30400 29.77800
C  6.35500 47.07800 30.51700
O  6.95300 46.11600 30.11200
O  5.67700 47.26400 31.70700
C  5.80700 46.35400 32.79700
H  12.94800 49.98200 28.20100
H  11.74900 48.83500 22.00300
H  5.76600 47.49600 23.32000
H  9.04700 50.25900 30.82500
H  11.66100 49.67900 30.44000
H  10.03400 51.92200 30.13300
H  11.16400 51.98100 28.83200
H  11.75900 51.79200 30.50300
H  10.62800 47.96900 31.51800
H  9.20600 47.36200 30.71700
H  7.79600 48.61300 32.25600
H  9.10400 49.53100 32.97000
H  15.77500 48.99800 25.95300
H  14.87600 49.64000 27.41000
H  15.47800 50.71400 26.14900
H  16.18600 49.71700 22.15800
H  16.24000 48.58600 23.44400
H  16.17100 50.37100 23.76600
H  10.17800 47.13800 21.37700
H  7.36800 47.87500 21.18900
H  9.22100 49.74500 20.53400
H  8.71800 48.40500 19.47900
H  10.44400 48.82800 19.74500
H  8.74100 45.32500 21.47300
H  7.04700 45.54400 21.33200
H  7.84600 45.67500 24.03800
H  8.67600 44.28100 23.30900
H  6.92600 44.35700 23.21200
H  3.74800 46.39100 25.52800
H  3.58800 47.98500 24.64900
H  3.03000 47.64900 26.36600
H  6.08900 49.10500 30.50700
H  5.07100 45.59800 32.52400
H  5.56800 46.77800 33.77200
H  6.79000 45.88700 32.74000

