158

Mg 26.15000 1.73500 29.70600
C  28.20200 1.21300 32.64200
C  23.38700 2.31500 31.95800
C  24.14100 1.76900 27.14400
C  28.95500 0.78100 27.84800
N  25.88700 1.82400 32.01700
C  26.89700 1.65000 33.00000
C  26.40900 1.95900 34.44700
C  24.81600 2.10800 34.14600
C  24.64300 2.13400 32.61500
C  23.99500 1.04200 34.85300
C  26.99600 3.40000 34.93800
C  27.68400 3.33100 36.30900
H  27.19700 4.29000 37.42600
N  24.04600 2.10200 29.53400
C  23.12200 2.29700 30.51500
C  21.81100 2.56500 29.86500
C  21.96400 2.24300 28.44100
C  23.38400 1.98900 28.28400
C  20.57800 2.94700 30.55000
C  20.85400 2.12800 27.36100
O  21.19200 1.79000 26.23800
C  19.34400 2.34000 27.69900
N  26.44100 1.05600 27.77400
C  25.49700 1.46900 26.93400
C  26.07500 1.32400 25.50000
C  27.61100 1.51500 25.75700
C  27.70600 1.05200 27.19300
C  25.72400 -0.01400 24.75100
C  28.08100 3.03800 25.52700
C  29.18100 3.09800 24.42900
N  28.08300 0.96400 30.12700
C  29.13000 0.65700 29.23000
C  30.35200 0.25500 29.97100
C  29.95700 0.50300 31.30700
C  28.62900 1.00800 31.36600
C  31.69200 -0.21600 29.40900
C  30.42400 0.31800 32.64500
O  31.50800 -0.14600 33.07600
C  29.41200 0.91200 33.56800
C  29.14700 0.06800 34.77500
O  28.30900 -0.84500 34.85900
O  30.01100 0.51200 35.82400
C  29.75200 -0.16000 37.11800
H  22.53500 2.58000 32.58800
H  23.56100 1.92000 26.23100
H  29.85500 0.93600 27.24900
H  26.63400 1.22400 35.22100
H  24.48000 3.11600 34.38900
H  24.68500 0.39500 35.39600
H  23.50100 0.38600 34.13600
H  23.36900 1.61600 35.53700
H  26.24200 4.18600 34.97800
H  27.64800 3.86200 34.19700
H  28.75100 3.50800 36.17600
H  27.61900 2.30800 36.68000
H  19.88200 2.10800 30.56900
H  20.09300 3.80200 30.08100
H  20.85200 3.15400 31.58500
H  18.89000 1.52300 28.26000
H  18.80800 2.36200 26.75000
H  19.25100 3.30700 28.19500
H  25.68900 2.17000 24.93200
H  28.07800 0.84100 25.03900
H  26.53300 -0.66700 24.42600
H  25.20700 0.27900 23.83800
H  25.06600 -0.58700 25.40400
H  28.37000 3.44800 26.49500
H  27.22700 3.59000 25.13400
H  28.83400 3.73900 23.61800
H  29.45700 2.17400 23.92200
H  30.07200 3.56500 24.85000
H  32.34400 0.62000 29.15600
H  31.59700 -0.82700 28.51100
H  32.10800 -0.85800 30.18500
H  29.89000 1.86000 33.81300
H  29.65900 -1.23700 36.97300
H  28.81000 0.06300 37.61800
H  30.58500 0.10400 37.77000
Mg -12.20800 16.22100 42.20000
C  -9.01500 14.93800 41.29200
C  -11.29400 19.13600 40.77800
C  -15.46200 17.19000 42.41000
C  -13.12400 12.92000 42.83100
N  -10.43400 16.82500 40.99100
C  -9.20500 16.20200 40.76100
C  -8.16400 17.10300 40.14000
C  -8.86000 18.49000 40.09600
C  -10.31200 18.13200 40.57600
C  -8.18000 19.57900 41.00700
C  -7.64200 16.49800 38.81200
C  -6.13300 16.56300 38.62900
H  -5.54300 17.44500 37.43900
N  -13.27100 17.90200 41.72300
C  -12.67100 18.98900 41.26900
C  -13.63800 20.07200 41.13100
C  -14.88500 19.50700 41.49400
C  -14.60500 18.16100 41.92800
C  -13.30700 21.42300 40.55600
C  -16.31000 20.16700 41.34400
O  -16.45700 21.36400 41.03700
C  -17.55600 19.38000 41.68200
N  -14.05600 15.25500 42.47200
C  -15.25100 15.81100 42.62800
C  -16.34900 14.85200 43.24800
C  -15.62600 13.44300 43.06400
C  -14.11100 13.90800 42.84000
C  -16.57800 15.16600 44.82400
C  -16.06300 12.78200 41.74300
C  -17.03300 11.59000 41.76200
N  -11.22100 14.34200 42.35600
C  -11.74500 13.09900 42.61000
C  -10.73000 12.06300 42.60900
C  -9.61500 12.78500 42.15700
C  -9.97000 14.13500 42.00100
C  -10.95200 10.61600 42.84200
C  -8.23500 12.65400 41.77100
O  -7.49700 11.69200 41.78900
C  -7.74100 14.05400 41.24500
C  -6.58900 14.55000 42.01400
O  -6.64200 15.03000 43.15300
O  -5.41400 14.47900 41.31800
C  -4.23400 14.99000 42.03900
H  -10.93300 20.04600 40.29300
H  -16.48300 17.44900 42.70000
H  -13.38700 11.89300 43.09400
H  -7.37000 17.06400 40.88600
H  -9.08900 18.90300 39.11400
H  -7.16700 19.36400 41.34700
H  -8.90600 19.64400 41.81800
H  -8.03900 20.45000 40.36700
H  -8.00500 17.07400 37.96100
H  -7.95800 15.45500 38.77300
H  -5.92400 15.56200 38.25200
H  -5.63900 16.76700 39.57800
H  -13.22200 21.33700 39.47300
H  -12.34300 21.86100 40.81400
H  -14.10800 22.11300 40.81900
H  -18.36900 20.09200 41.54200
H  -17.42600 19.24400 42.75600
H  -17.65700 18.42200 41.17100
H  -17.26000 14.94200 42.65800
H  -15.79500 12.88800 43.98700
H  -15.78200 15.73200 45.30700
H  -16.87500 14.25800 45.35100
H  -17.48100 15.77700 44.81600
H  -15.21100 12.41100 41.17300
H  -16.56400 13.54100 41.14300
H  -17.84800 11.81700 41.07500
H  -17.44700 11.45800 42.76200
H  -16.43900 10.75900 41.38100
H  -11.59600 10.46600 43.70900
H  -10.07700 9.99600 43.03800
H  -11.47500 10.21600 41.97400
H  -7.43700 13.86300 40.21600
H  -3.37500 14.71200 41.42800
H  -4.14800 14.47900 42.99800
H  -4.13600 16.07300 42.10300

