158

Mg -2.28900 16.64500 25.66100
C  -2.52300 14.50500 28.39800
C  -4.07500 18.92500 27.49500
C  -2.23600 18.68100 23.03000
C  -1.40700 13.89300 23.57800
N  -3.06300 16.71600 27.76600
C  -2.96500 15.74300 28.75000
C  -3.54500 16.23000 30.11300
C  -4.30700 17.49800 29.70700
C  -3.78100 17.75200 28.23300
C  -5.83200 17.15500 29.54500
C  -2.39900 16.50000 31.14700
C  -2.41400 15.69000 32.46400
H  -2.52500 16.42000 33.80200
N  -2.82600 18.65400 25.42800
C  -3.60000 19.40100 26.24900
C  -3.73100 20.72000 25.70500
C  -3.15400 20.70600 24.35700
C  -2.67700 19.29100 24.23500
C  -4.39600 21.85700 26.46000
C  -3.11000 21.78600 23.35900
O  -2.55500 21.62300 22.26100
C  -3.65200 23.29800 23.58300
N  -1.88600 16.26800 23.57900
C  -1.84900 17.36900 22.73400
C  -1.28000 16.98900 21.35600
C  -1.00000 15.45600 21.53600
C  -1.35700 15.15400 23.03900
C  -2.27700 17.11100 20.16500
C  0.43900 15.22800 21.15600
C  1.49600 15.71200 22.28500
N  -2.07700 14.60700 25.87200
C  -1.81000 13.57900 24.91900
C  -1.94700 12.29300 25.57200
C  -2.12500 12.59700 26.94500
C  -2.26100 13.99900 27.06900
C  -1.88200 10.96100 24.95000
C  -2.30000 12.06700 28.30700
O  -2.31400 10.91800 28.65900
C  -2.49800 13.28700 29.26600
C  -1.38700 13.23300 30.17000
O  -0.30400 13.77000 30.05300
O  -1.71600 12.38900 31.16200
C  -0.84000 12.21000 32.32500
H  -4.80200 19.49900 28.07400
H  -2.14800 19.39200 22.20600
H  -1.21500 13.11300 22.83900
H  -4.30800 15.52200 30.43800
H  -4.20300 18.36100 30.36500
H  -6.01200 16.46100 28.72400
H  -6.42100 18.06100 29.40800
H  -6.24300 16.91200 30.52500
H  -2.42000 17.55000 31.43900
H  -1.37800 16.30700 30.81800
H  -1.45200 15.19000 32.57400
H  -3.18900 14.92800 32.54200
H  -5.48600 21.85200 26.42800
H  -4.03100 22.88200 26.38500
H  -4.06500 21.78700 27.49600
H  -3.44700 24.04400 22.81500
H  -3.09100 23.68600 24.43300
H  -4.71000 23.43800 23.80200
H  -0.40000 17.62500 21.25400
H  -1.67900 14.84800 20.93700
H  -3.23500 17.36600 20.62000
H  -2.42900 16.25300 19.51000
H  -1.84000 17.96100 19.64100
H  0.82700 15.76600 20.29200
H  0.44700 14.16600 20.91100
H  0.98400 15.91500 23.22500
H  1.99000 16.60600 21.90400
H  2.27200 14.95900 22.41900
H  -0.82700 10.71300 24.83300
H  -2.33500 11.03300 23.96100
H  -2.29500 10.30700 25.71700
H  -3.39800 13.26300 29.88000
H  0.02800 11.60500 32.06400
H  -1.26400 11.69600 33.18800
H  -0.47400 13.20200 32.58900
Mg 26.19300 0.02700 29.34200
C  28.09900 -0.33600 32.22200
C  23.39400 0.65800 31.36900
C  24.24000 0.20800 26.66200
C  28.86000 -1.28100 27.45800
N  25.80100 0.10300 31.54500
C  26.72900 -0.01600 32.57300
C  26.15900 0.12100 33.95200
C  24.59400 0.12000 33.58200
C  24.57100 0.29700 32.10000
C  23.79200 -1.14800 34.12600
C  26.78900 1.35700 34.59300
C  26.01000 1.85900 35.88900
H  26.79700 2.06800 37.15400
N  24.19900 0.46300 29.05600
C  23.20300 0.69400 29.96400
C  21.92000 0.90200 29.31800
C  22.10200 0.86300 27.96100
C  23.56100 0.53900 27.83300
C  20.65300 1.19700 30.07100
C  21.20000 1.11200 26.75900
O  21.54100 1.02000 25.59800
C  19.86000 1.61100 27.01800
N  26.56700 -0.41200 27.36400
C  25.56400 -0.22200 26.44300
C  26.14000 -0.69300 25.07900
C  27.69200 -0.73400 25.28700
C  27.72800 -0.87300 26.80400
C  25.53300 -2.02300 24.47100
C  28.55900 0.49300 24.82800
C  30.03000 0.19900 24.50700
N  28.06600 -0.62900 29.68300
C  29.10000 -1.11400 28.85300
C  30.26900 -1.35500 29.53900
C  30.00000 -1.06200 30.85800
C  28.61400 -0.59900 30.91300
C  31.44800 -2.05600 28.86500
C  30.48900 -1.04500 32.24000
O  31.57800 -1.26700 32.69700
C  29.28300 -0.63200 33.14000
C  29.03000 -1.84200 34.04300
O  28.54800 -2.88600 33.68800
O  29.29900 -1.52800 35.35500
C  29.17200 -2.60800 36.33000
H  22.46300 0.80300 31.92100
H  23.79700 0.29300 25.66800
H  29.66400 -1.60300 26.79300
H  26.34000 -0.78200 34.53400
H  24.19800 1.03500 34.02100
H  24.46500 -1.84000 34.63300
H  23.38700 -1.73300 33.30100
H  23.02600 -0.81000 34.82300
H  26.79100 2.26200 33.98500
H  27.80800 1.15100 34.92000
H  25.07700 1.32000 36.05600
H  25.60500 2.85700 35.72500
H  20.08800 1.99900 29.59700
H  20.69800 1.48900 31.12100
H  19.93300 0.39400 29.91000
H  19.96600 2.56000 27.54500
H  19.29700 0.84300 27.54900
H  19.31800 1.81800 26.09600
H  25.94700 0.11300 24.37100
H  28.07900 -1.63200 24.80500
H  26.22200 -2.86300 24.55700
H  25.17200 -1.80900 23.46500
H  24.66600 -2.30000 25.07100
H  28.58000 1.10700 25.72800
H  28.22400 1.06300 23.96200
H  30.27100 0.72100 23.58100
H  30.17400 -0.88100 24.47700
H  30.68500 0.60600 25.27700
H  32.24000 -2.33600 29.55900
H  31.90100 -1.38600 28.13400
H  31.07100 -2.97800 28.42200
H  29.47000 0.19300 33.82700
H  29.95800 -3.36300 36.34300
H  28.19400 -3.02400 36.08800
H  29.00000 -2.15700 37.30700

