158

Mg 2.13500 -1.41800 43.99900
C  5.38200 -0.23500 43.78100
C  1.04500 1.42700 42.62300
C  -0.78700 -2.97700 43.24000
C  3.49600 -4.59800 44.74800
N  3.10600 0.40900 43.33700
C  4.46900 0.66700 43.33300
C  4.72600 2.11400 42.98600
C  3.20600 2.73600 43.18000
C  2.38400 1.50000 42.97900
C  2.93900 3.45500 44.59200
C  5.32300 2.29000 41.60000
C  6.70900 2.90700 41.48200
H  7.76600 2.32900 40.47800
N  0.36200 -0.80700 43.10900
C  0.12200 0.39800 42.56200
C  -1.25300 0.51600 42.18200
C  -1.85600 -0.66400 42.41200
C  -0.80200 -1.60400 42.99400
C  -1.85600 1.85400 41.69300
C  -3.33300 -1.02400 42.19000
O  -4.05400 -0.18700 41.66700
C  -3.83000 -2.25300 42.66900
N  1.43100 -3.46100 44.06400
C  0.15400 -3.82600 43.81700
C  -0.04600 -5.31600 43.97200
C  1.27500 -5.81900 44.57600
C  2.16800 -4.57300 44.48200
C  -1.25400 -5.77000 44.81400
C  1.90500 -7.16100 43.93900
C  1.80900 -8.37700 44.95800
N  4.00300 -2.28800 44.37900
C  4.42400 -3.56100 44.67000
C  5.85600 -3.56300 44.93900
C  6.27500 -2.30700 44.51700
C  5.06800 -1.59700 44.18200
C  6.75700 -4.65600 45.53700
C  7.43500 -1.44400 44.41100
O  8.57200 -1.67300 44.66100
C  6.90800 -0.10200 43.96200
C  7.31800 0.91800 44.92600
O  6.59200 1.19900 45.88400
O  8.43400 1.64500 44.50300
C  8.83200 2.91300 45.15500
H  0.63200 2.37700 42.27900
H  -1.73200 -3.52200 43.18900
H  3.96000 -5.54800 45.02200
H  5.34100 2.57200 43.76100
H  2.98100 3.47000 42.40600
H  3.08800 4.53500 44.58000
H  3.57400 3.08800 45.39800
H  1.86700 3.33900 44.75300
H  4.61000 2.85300 40.99800
H  5.32100 1.35400 41.04000
H  7.17300 2.80800 42.46400
H  6.53200 3.95800 41.25600
H  -2.59500 1.73800 40.90000
H  -1.09000 2.48600 41.24400
H  -2.26500 2.32800 42.58500
H  -3.54000 -2.27000 43.72000
H  -3.39700 -3.07400 42.09900
H  -4.89900 -2.20800 42.45900
H  -0.17800 -5.66400 42.94800
H  1.19400 -5.95200 45.65500
H  -0.89200 -6.42400 45.60700
H  -1.88000 -6.43200 44.21600
H  -1.81200 -4.93800 45.24400
H  2.98900 -7.05300 43.90100
H  1.45500 -7.45000 42.98900
H  2.78700 -8.53500 45.41100
H  1.43000 -9.26900 44.45800
H  1.10700 -8.19300 45.77200
H  6.70100 -5.46000 44.80300
H  6.48800 -5.10500 46.49300
H  7.78400 -4.30500 45.43800
H  7.41100 0.05900 43.00900
H  7.99500 3.36000 45.69100
H  9.32700 3.59200 44.46000
H  9.44700 2.63800 46.01100
Mg 35.48500 2.83200 30.51500
C  33.09200 3.83700 32.85100
C  37.85700 2.77300 32.97800
C  37.72000 1.97700 28.24200
C  33.08800 3.36900 27.93400
N  35.41300 3.20800 32.70900
C  34.31100 3.47700 33.44800
C  34.63100 3.12900 34.97000
C  36.24300 3.33900 34.94100
C  36.54300 3.05800 33.50300
C  36.76800 4.74700 35.39100
C  34.06600 1.73100 35.34700
C  33.99900 1.40000 36.83200
H  34.74400 2.17200 37.81700
N  37.51900 2.38700 30.59500
C  38.33900 2.41300 31.70200
C  39.65300 2.03100 31.34000
C  39.59700 1.75400 29.95400
C  38.27300 2.07000 29.50800
C  40.74000 1.94000 32.35700
C  40.73200 1.22800 29.00800
O  40.66900 1.09200 27.80000
C  41.92300 0.71100 29.58800
N  35.34000 2.52400 28.44300
C  36.44400 2.22200 27.71100
C  36.16400 2.23800 26.18700
C  34.62200 2.46600 26.19800
C  34.35000 2.89300 27.60300
C  37.02000 3.33800 25.43700
C  33.67900 1.26400 25.81500
C  32.55500 1.52100 24.75700
N  33.51000 3.56700 30.37200
C  32.68100 3.70700 29.26900
C  31.35900 4.25600 29.70900
C  31.51000 4.31800 31.11600
C  32.79600 3.81800 31.48900
C  30.18300 4.67900 28.90900
C  30.85600 4.68400 32.28900
O  29.76600 5.22500 32.49900
C  31.73600 4.12900 33.47000
C  31.95900 5.20000 34.45100
O  32.56600 6.25400 34.32700
O  31.08800 4.82900 35.49800
C  31.00800 5.77500 36.55900
H  38.64500 2.90300 33.72400
H  38.51600 1.86500 27.50200
H  32.42200 3.53300 27.08400
H  34.13700 3.86100 35.60900
H  36.70100 2.55000 35.53700
H  35.90000 5.17400 35.89300
H  37.11400 5.20800 34.46600
H  37.67000 4.61300 35.98900
H  34.59400 0.90000 34.87800
H  33.07000 1.78000 34.90700
H  34.13000 0.32700 36.97300
H  32.96300 1.59000 37.11400
H  40.57200 0.98200 32.85000
H  40.79700 2.73900 33.09600
H  41.71300 1.98000 31.86900
H  42.44800 0.07200 28.87900
H  41.69500 0.19400 30.52000
H  42.55800 1.55000 29.87300
H  36.30600 1.20400 25.87200
H  34.45800 3.31600 25.53500
H  36.40900 4.06900 24.90800
H  37.58600 2.91900 24.60500
H  37.59800 3.92300 26.15300
H  33.27100 0.68000 26.64000
H  34.24400 0.46500 25.33500
H  32.86400 1.19800 23.76300
H  32.35700 2.59300 24.77100
H  31.65700 0.99600 25.08200
H  29.55600 5.33400 29.51300
H  29.64500 3.75800 28.68600
H  30.49800 5.20200 28.00600
H  31.30400 3.25300 33.95500
H  30.45900 5.36200 37.40600
H  30.56400 6.74100 36.31900
H  32.04800 5.92700 36.84700

