158

Mg 41.97600 40.79500 26.45000
C  41.59400 43.37200 28.80600
C  42.88000 38.70600 28.97300
C  42.82000 38.32200 24.06200
C  41.64800 43.05900 23.86600
N  42.25200 41.06200 28.67700
C  41.93800 42.17300 29.40300
C  41.83500 41.86900 30.91100
C  42.35600 40.38700 30.82900
C  42.60700 39.99600 29.40400
C  43.51300 40.09200 31.83500
C  40.37900 42.19100 31.57200
C  39.93600 41.50900 32.90400
H  39.75900 42.45000 34.12600
N  42.72100 38.83000 26.55700
C  43.06800 38.17500 27.68300
C  43.55400 36.89200 27.40600
C  43.40300 36.73200 26.01300
C  42.95500 37.98400 25.45300
C  44.13500 35.92400 28.45200
C  43.74600 35.49300 25.17500
O  43.59100 35.49800 23.92600
C  43.96500 34.12300 25.77000
N  42.36800 40.77500 24.27400
C  42.54800 39.59300 23.58200
C  42.46100 39.85700 22.02600
C  42.08600 41.36100 22.00100
C  42.06800 41.83000 23.42300
C  43.62100 39.47300 21.05700
C  40.72900 41.71400 21.32000
C  39.38800 41.63800 22.06100
N  41.64800 42.77700 26.34000
C  41.53300 43.59800 25.22000
C  41.22600 44.97300 25.65100
C  41.27600 44.94200 27.03700
C  41.49000 43.58700 27.45600
C  41.09500 46.13500 24.78300
C  41.19600 45.81100 28.18900
O  40.86500 46.97800 28.31400
C  41.20200 44.75300 29.45200
C  42.25000 45.16400 30.37700
O  43.40200 44.75100 30.46000
O  41.69400 45.97800 31.35800
C  42.51300 46.36200 32.51700
H  43.15600 38.03100 29.78500
H  42.93100 37.63100 23.22400
H  41.41300 43.75900 23.06100
H  42.57800 42.48700 31.41400
H  41.53100 39.77700 31.19700
H  43.20900 39.33000 32.55300
H  43.74500 40.87000 32.56100
H  44.46900 39.90700 31.34400
H  39.65700 41.82800 30.84000
H  40.28200 43.25000 31.81300
H  40.61700 40.69200 33.14100
H  38.95100 41.08700 32.70400
H  43.58200 34.99500 28.58900
H  44.29800 36.39800 29.42000
H  45.14700 35.70300 28.11200
H  44.94100 34.16300 26.25300
H  44.10000 33.40100 24.96400
H  43.15100 33.86800 26.44800
H  41.61900 39.21800 21.75900
H  42.81700 41.95600 21.45400
H  43.22000 39.04900 20.13700
H  44.18200 38.69800 21.58000
H  44.25200 40.31700 20.78000
H  40.76700 41.22600 20.34700
H  40.87500 42.77900 21.13700
H  39.44800 41.27700 23.08800
H  38.71700 41.04800 21.43700
H  39.00200 42.65600 22.10200
H  40.51500 45.88400 23.89500
H  42.12700 46.41100 24.56200
H  40.67500 47.02100 25.26000
H  40.19100 44.79700 29.85800
H  42.52000 45.66500 33.35500
H  42.05500 47.26300 32.92400
H  43.44700 46.77100 32.13300
Mg 8.68700 47.73000 26.91100
C  6.69200 47.48900 29.79800
C  11.48000 47.89700 28.92900
C  10.70100 48.31900 24.30200
C  5.93800 47.66500 24.97400
N  8.98100 47.76000 29.05600
C  8.06300 47.50600 30.08800
C  8.75600 47.57100 31.47000
C  10.27600 47.81600 31.11100
C  10.25600 47.83800 29.59200
C  10.95900 49.09400 31.71400
C  8.50200 46.32600 32.37000
C  9.53600 45.98700 33.46300
H  9.03100 45.44600 34.79600
N  10.80800 47.83400 26.69600
C  11.78000 47.86700 27.63000
C  13.07900 48.01000 27.05600
C  12.92100 48.19200 25.65400
C  11.43400 48.15100 25.49600
C  14.30400 47.98000 27.92100
C  13.97300 48.44600 24.54200
O  13.66500 48.52900 23.38700
C  15.38300 48.40600 24.79000
N  8.34400 48.21100 24.89800
C  9.31100 48.43500 23.99700
C  8.76300 48.45500 22.55000
C  7.25000 48.06500 22.76000
C  7.14600 47.96100 24.31700
C  8.88400 49.90200 21.84000
C  6.90600 46.65700 22.15700
C  5.90300 46.63100 20.99700
N  6.63700 47.75700 27.30000
C  5.66200 47.63900 26.38900
C  4.32400 47.50800 27.10100
C  4.67100 47.54700 28.45600
C  6.12600 47.57900 28.51400
C  3.00500 47.27900 26.51300
C  4.17700 47.40900 29.79300
O  3.04900 47.36900 30.20200
C  5.49000 47.42300 30.71600
C  5.34100 46.01500 31.31800
O  5.92900 45.01000 31.01600
O  4.65300 46.14500 32.48100
C  4.60300 44.96700 33.36800
H  12.36400 47.90400 29.57000
H  11.36100 48.41500 23.43700
H  5.03100 47.73600 24.37100
H  8.31000 48.49100 31.84600
H  10.83000 46.89900 31.30600
H  11.94400 48.76800 32.04900
H  10.36400 49.70700 32.39200
H  11.14000 49.72800 30.84600
H  8.29300 45.50900 31.68000
H  7.58000 46.50000 32.92400
H  10.19000 46.84200 33.63100
H  10.25100 45.39200 32.89400
H  14.14400 47.42200 28.84400
H  14.51900 49.01800 28.17800
H  15.10200 47.50800 27.34900
H  16.00900 48.69400 23.94600
H  15.81200 47.44200 25.06400
H  15.61600 49.01800 25.66200
H  9.37000 47.77900 21.94900
H  6.61800 48.84600 22.33800
H  9.52600 50.62900 22.33700
H  7.97100 50.47900 21.69300
H  9.34200 49.61900 20.89200
H  6.60600 45.97600 22.95400
H  7.84400 46.15900 21.91200
H  6.58400 46.68500 20.14700
H  5.20400 47.46400 21.06600
H  5.36700 45.68300 20.96100
H  2.29600 48.05000 26.81800
H  2.57000 46.36000 26.90600
H  2.93400 47.17700 25.43000
H  5.42300 48.17700 31.50100
H  4.83300 45.37100 34.35300
H  5.24800 44.13500 33.08700
H  3.62800 44.48200 33.40800

