158

Mg 16.88700 -2.29500 28.78600
C  15.68000 -0.13700 31.15800
C  18.45500 -4.01600 31.36700
C  18.56100 -3.98300 26.45700
C  15.43300 -0.24400 26.24600
N  17.07100 -2.03000 31.10400
C  16.44000 -1.08800 31.82500
C  16.55100 -1.40100 33.33400
C  17.64700 -2.54200 33.37700
C  17.72700 -2.93700 31.87400
C  18.94700 -2.10400 34.17400
C  15.15400 -1.63300 33.98600
C  15.10000 -2.43400 35.33400
H  16.14200 -2.00900 36.41200
N  18.35100 -3.72200 28.86200
C  18.70100 -4.38000 30.04100
C  19.47200 -5.55300 29.58600
C  19.55100 -5.54300 28.15600
C  18.85100 -4.38900 27.77500
C  19.92700 -6.53500 30.57700
C  20.30100 -6.50200 27.22800
O  20.29500 -6.38000 26.02900
C  21.16500 -7.59100 27.70800
N  17.16300 -2.00800 26.60000
C  17.82400 -2.95500 25.91700
C  17.60400 -2.71900 24.31300
C  16.62100 -1.56800 24.30400
C  16.37100 -1.29200 25.73700
C  18.89100 -2.44500 23.62800
C  15.31900 -1.81500 23.49800
C  15.03700 -0.76700 22.38000
N  15.65500 -0.63300 28.66800
C  15.14700 0.08700 27.56900
C  14.30800 1.13600 28.12400
C  14.49200 1.06400 29.51600
C  15.35500 0.00300 29.80600
C  13.45800 2.14300 27.47600
C  14.07500 1.69000 30.75400
O  13.26200 2.58300 31.02400
C  14.86800 0.93300 31.85400
C  15.53500 1.93200 32.82500
O  16.58200 2.51800 32.62500
O  14.67000 2.16800 33.86800
C  15.35300 2.85500 34.99500
H  19.09300 -4.43800 32.14700
H  18.99800 -4.55700 25.63700
H  14.84300 0.33100 25.53000
H  16.92400 -0.54600 33.89800
H  17.37200 -3.40500 33.98300
H  18.72500 -2.08000 35.24100
H  19.28100 -1.11500 33.86000
H  19.77400 -2.78300 33.96700
H  14.44600 -1.93300 33.21400
H  14.86300 -0.64800 34.35100
H  15.00500 -3.49600 35.10600
H  14.17400 -2.11800 35.81300
H  19.12900 -6.78100 31.27800
H  20.72500 -6.17000 31.22400
H  20.21400 -7.51100 30.18500
H  21.53100 -8.21800 26.89500
H  20.57700 -8.26000 28.33500
H  22.01000 -7.12900 28.21900
H  17.25500 -3.60600 23.78500
H  17.16100 -0.75700 23.81600
H  18.81700 -1.86800 22.70600
H  19.40400 -3.38900 23.44400
H  19.48100 -1.83700 24.31300
H  14.48600 -1.92300 24.19200
H  15.42200 -2.73900 22.92900
H  14.04600 -0.32000 22.46000
H  15.01300 -1.31000 21.43500
H  15.79300 0.00900 22.25200
H  13.49900 2.01800 26.39400
H  13.76200 3.15500 27.74300
H  12.44300 1.95100 27.82200
H  14.16200 0.38700 32.48100
H  15.40600 2.12100 35.79900
H  14.81400 3.74100 35.33100
H  16.37700 3.16900 34.79200
Mg -5.34500 24.87400 25.94400
C  -3.65100 26.45500 28.61500
C  -6.96600 23.01100 28.13300
C  -6.51900 23.39700 23.23800
C  -3.06900 26.66100 23.77000
N  -5.23600 24.64400 28.10700
C  -4.64500 25.53600 28.98700
C  -5.03400 25.18300 30.44500
C  -5.61800 23.77000 30.26200
C  -5.98500 23.76800 28.77700
C  -4.70500 22.61700 30.64400
C  -6.12300 26.13200 30.91400
C  -6.03300 26.61000 32.40900
H  -6.03100 25.61900 33.56800
N  -6.71600 23.58000 25.74000
C  -7.38900 22.95400 26.72700
C  -8.34200 21.97800 26.18100
C  -8.26200 22.19100 24.71700
C  -7.17700 23.19200 24.48100
C  -9.23200 21.14500 26.95200
C  -9.18900 21.61500 23.60000
O  -9.22300 22.09100 22.41900
C  -10.18400 20.51200 23.94900
N  -4.84900 24.99400 23.78400
C  -5.56100 24.26500 22.83300
C  -4.96000 24.41600 21.42900
C  -4.10200 25.74800 21.64800
C  -4.03600 25.86300 23.16100
C  -4.11800 23.21400 20.91200
C  -4.52000 27.00100 20.85800
C  -3.61900 27.53000 19.72900
N  -3.64000 26.29400 26.09400
C  -2.90700 26.93600 25.14300
C  -2.06900 27.92600 25.83000
C  -2.42700 27.80600 27.17400
C  -3.28200 26.76500 27.33400
C  -1.33000 29.08200 25.14600
C  -2.28300 28.40600 28.52500
O  -1.61700 29.37800 28.96700
C  -3.00900 27.48900 29.46600
C  -2.17300 27.07800 30.54400
O  -1.19500 26.34100 30.41600
O  -2.69200 27.48100 31.77400
C  -1.90700 27.08200 32.93000
H  -7.46500 22.34000 28.83600
H  -6.83100 22.60900 22.54900
H  -2.36000 27.18800 23.12800
H  -4.18700 25.04600 31.11600
H  -6.51200 23.58800 30.86000
H  -3.69700 22.96000 30.87800
H  -4.57100 21.91100 29.82600
H  -5.00600 22.24400 31.62300
H  -7.12100 25.77500 30.66200
H  -6.05600 26.97300 30.22400
H  -6.68700 27.48200 32.42400
H  -5.13400 27.21100 32.54200
H  -10.24400 21.54400 26.87600
H  -8.90200 21.18900 27.99000
H  -9.27200 20.07300 26.76100
H  -9.64500 19.73200 24.48700
H  -10.62100 19.94500 23.12600
H  -11.02600 20.93300 24.49800
H  -5.79400 24.59700 20.75100
H  -3.07300 25.57000 21.33800
H  -4.35000 22.30200 21.46300
H  -3.05000 23.40200 21.01500
H  -4.32500 23.03400 19.85700
H  -4.66700 27.87000 21.49900
H  -5.50500 26.81500 20.42900
H  -3.22100 26.65700 19.21000
H  -2.74900 28.08900 20.07300
H  -4.07600 28.23800 19.03700
H  -0.25300 28.94100 25.04900
H  -1.59700 29.98100 25.70100
H  -1.75100 29.20800 24.14900
H  -3.80200 28.11500 29.87400
H  -1.03800 26.43600 32.80400
H  -2.63100 26.59300 33.58300
H  -1.47100 27.95000 33.42400

