158

Mg 17.45900 51.72200 26.38000
C  19.41100 50.23400 28.98300
C  15.00500 52.31500 28.65600
C  15.44300 52.50600 23.86200
C  19.93000 50.72600 24.11200
N  17.33300 51.34300 28.63100
C  18.15000 50.71100 29.49000
C  17.68300 50.99800 30.91000
C  16.16300 51.29100 30.75200
C  16.18000 51.76700 29.28300
C  15.17600 50.20200 31.14200
C  18.56400 52.11600 31.48800
C  18.94200 52.00700 33.04600
H  17.94300 51.26800 33.92900
N  15.57900 52.32700 26.29500
C  14.72000 52.55400 27.31400
C  13.44600 53.02100 26.86200
C  13.55800 53.17000 25.49300
C  14.95900 52.67300 25.15300
C  12.14800 53.22900 27.76200
C  12.47900 53.68000 24.50100
O  12.87700 54.00200 23.39200
C  11.07500 53.93400 24.84300
N  17.63600 51.60600 24.32100
C  16.68400 52.03000 23.43700
C  17.19200 51.95300 22.00200
C  18.68100 51.57500 22.12500
C  18.78300 51.33700 23.64000
C  16.35500 51.06200 21.04000
C  19.55600 52.79700 21.68700
C  20.88300 52.47500 21.10500
N  19.20100 50.59400 26.47500
C  20.09100 50.26300 25.44400
C  21.27500 49.62300 25.98200
C  21.04200 49.59600 27.32600
C  19.78900 50.25800 27.57400
C  22.46800 49.15700 25.17700
C  21.53700 49.10500 28.60700
O  22.62300 48.61600 28.86700
C  20.57900 49.65500 29.70600
C  20.07100 48.57600 30.57500
O  19.23500 47.74100 30.29900
O  20.57800 48.71100 31.86100
C  20.03400 47.83500 32.97400
H  14.23700 52.40400 29.42700
H  14.77900 52.81700 23.05300
H  20.80000 50.70700 23.45200
H  17.87000 50.12100 31.53000
H  15.79500 52.14300 31.32300
H  14.43400 49.96200 30.38100
H  14.83500 50.47800 32.14000
H  15.76300 49.30800 31.35100
H  17.98700 52.99100 31.18900
H  19.50100 52.02500 30.93900
H  19.01300 53.02400 33.43100
H  19.87400 51.44400 33.09400
H  11.42200 52.47400 27.46200
H  11.80500 54.26400 27.76000
H  12.38500 53.11900 28.82000
H  10.58800 53.01300 25.16600
H  10.72100 54.23900 23.85900
H  10.84100 54.59500 25.67700
H  17.14100 52.93700 21.53600
H  19.11900 50.70200 21.64100
H  15.45400 50.71300 21.54500
H  16.95600 50.23900 20.65300
H  15.88600 51.61800 20.22800
H  19.80700 53.28900 22.62700
H  19.00300 53.56500 21.14700
H  21.59600 52.80000 21.86400
H  20.97800 53.15100 20.25600
H  21.06300 51.48700 20.68100
H  22.18300 48.76900 24.19900
H  22.87000 48.37600 25.82200
H  23.17400 49.91200 24.83100
H  21.14600 50.30800 30.36900
H  20.00000 48.41300 33.89700
H  20.76700 47.04800 33.15100
H  19.10200 47.36300 32.66200
Mg -11.75200 38.54800 41.97900
C  -10.09000 35.72000 40.74800
C  -9.37000 40.55400 40.67500
C  -13.75100 41.07600 42.60900
C  -14.27800 36.35100 43.29300
N  -9.99800 38.17600 40.72000
C  -9.43500 36.95500 40.42500
C  -8.13400 37.19900 39.59700
C  -7.83500 38.69900 39.88000
C  -9.12500 39.18700 40.47400
C  -6.52400 39.10300 40.71200
C  -8.27200 36.70600 38.08800
C  -7.37600 35.60600 37.56000
H  -6.18600 36.04700 36.65400
N  -11.59300 40.58800 41.64000
C  -10.53800 41.17900 41.10100
C  -10.87900 42.61200 40.90300
C  -12.18100 42.74400 41.29800
C  -12.60500 41.40000 41.78500
C  -9.99400 43.65300 40.32300
C  -12.89800 44.05500 41.23900
O  -12.35900 45.12000 40.94600
C  -14.39900 44.01900 41.61500
N  -13.77500 38.70600 42.84900
C  -14.38700 39.90600 42.92900
C  -15.69500 39.80700 43.78600
C  -15.89400 38.26000 43.92800
C  -14.56900 37.71400 43.33600
C  -15.59500 40.56500 45.09800
C  -17.16000 37.64900 43.28100
C  -17.81400 36.53100 44.24100
N  -12.11600 36.45900 42.05200
C  -13.17800 35.69200 42.65700
C  -12.88500 34.30700 42.55300
C  -11.71800 34.24000 41.82700
C  -11.28900 35.56800 41.49900
C  -13.64200 33.06900 43.03400
C  -10.74200 33.36200 41.21500
O  -10.66400 32.16200 41.36000
C  -9.64800 34.30200 40.43500
C  -8.32500 33.99000 40.95900
O  -7.42700 33.45400 40.29400
O  -8.12600 34.46000 42.20400
C  -6.75300 34.39800 42.71800
H  -8.57500 41.21600 40.32500
H  -14.47500 41.84600 42.88300
H  -15.06400 35.82200 43.83500
H  -7.32100 36.62700 40.04400
H  -7.67200 39.16400 38.90800
H  -5.74400 38.39600 40.42900
H  -6.70100 39.05100 41.78600
H  -6.17600 40.08900 40.40500
H  -8.23400 37.60400 37.47200
H  -9.28700 36.33000 37.95800
H  -7.93700 34.77300 37.13600
H  -6.87900 35.22500 38.45200
H  -9.80900 44.42600 41.06900
H  -10.32700 44.22800 39.45800
H  -9.01500 43.27100 40.03400
H  -14.87600 43.28100 40.97000
H  -14.89900 44.93400 41.29700
H  -14.63200 43.79600 42.65600
H  -16.51600 40.21500 43.19600
H  -15.82900 37.89300 44.95200
H  -14.65200 41.09600 45.22500
H  -15.64600 40.02200 46.04200
H  -16.35800 41.34300 45.12700
H  -17.04500 37.19400 42.29800
H  -17.96300 38.38600 43.28100
H  -17.64100 35.55200 43.79400
H  -18.89100 36.64300 44.36400
H  -17.29100 36.46600 45.19500
H  -14.63600 33.12900 42.59000
H  -13.77100 33.10600 44.11600
H  -13.12100 32.12800 42.85800
H  -9.63900 34.02600 39.38100
H  -6.15200 33.56500 42.35200
H  -6.74100 34.24400 43.79700
H  -6.21900 35.30700 42.44000

