158

Mg 45.71300 4.96800 47.11500
C  43.64100 7.72300 46.66300
C  43.07800 2.90100 46.35200
C  47.98600 2.35000 46.95500
C  48.45800 7.16800 47.34000
N  43.75600 5.30600 46.33700
C  43.09100 6.51800 46.29900
C  41.58800 6.28600 45.80900
C  41.32900 4.79300 46.06600
C  42.81700 4.25400 46.34000
C  40.34400 4.55500 47.20300
C  41.33400 6.74900 44.34200
C  39.84200 7.21200 43.96900
H  39.53800 7.72900 42.57100
N  45.48200 2.90000 46.77500
C  44.31800 2.19700 46.59100
C  44.55500 0.78300 46.38700
C  45.98700 0.59000 46.48200
C  46.62500 1.97000 46.72100
C  43.53400 -0.27000 45.98600
C  46.70800 -0.66700 46.17900
O  46.20700 -1.75100 46.21700
C  48.15200 -0.69300 45.73300
N  47.94000 4.76400 47.24100
C  48.55900 3.56500 47.24200
C  50.07000 3.70100 47.32600
C  50.17600 5.32000 47.33400
C  48.77600 5.79600 47.35400
C  50.65000 2.94800 48.51600
C  50.87500 5.94300 46.10800
C  52.18900 6.73200 46.35200
N  46.01400 7.00700 47.11200
C  47.13200 7.74600 47.31100
C  46.84400 9.15000 47.29100
C  45.40800 9.18800 47.11600
C  45.02600 7.85900 46.97100
C  47.78200 10.32900 47.42000
C  44.24200 10.04900 46.93600
O  44.16100 11.23300 47.10100
C  43.08600 9.19300 46.55000
C  41.99600 9.29800 47.59800
O  41.94400 8.66200 48.66400
O  41.01200 10.18700 47.13700
C  39.90500 10.59900 48.04700
H  42.14400 2.37500 46.14600
H  48.66300 1.50200 46.83700
H  49.20900 7.95100 47.21400
H  41.06200 6.94800 46.49600
H  40.82000 4.25400 45.26800
H  39.62600 5.37600 47.20900
H  40.75500 4.44600 48.20600
H  39.75100 3.69500 46.89100
H  41.63500 5.90700 43.71800
H  41.95900 7.63300 44.21700
H  39.68500 8.10200 44.57800
H  39.10200 6.46100 44.24500
H  43.58600 -1.22500 46.50900
H  43.53300 -0.38400 44.90200
H  42.55500 0.17000 46.17700
H  48.34800 -1.61300 45.18200
H  48.60500 -0.59600 46.72000
H  48.50100 0.17300 45.17100
H  50.62300 3.27700 46.48700
H  50.62700 5.53700 48.30300
H  49.88800 2.51200 49.16100
H  51.41600 3.45000 49.10600
H  51.21100 2.10100 48.12000
H  50.22000 6.70500 45.68500
H  50.99600 5.20700 45.31400
H  52.31700 6.62000 47.42900
H  52.05200 7.80300 46.20200
H  53.02900 6.37700 45.75400
H  47.34100 11.26900 47.08700
H  48.66100 10.24800 46.78100
H  48.16500 10.25700 48.43800
H  42.60800 9.26000 45.57300
H  38.98000 10.11100 47.74100
H  39.72300 11.65900 47.87300
H  40.14300 10.38700 49.08900
Mg 5.91400 53.18100 41.10900
C  5.77500 49.75300 40.31300
C  9.19700 53.17700 39.64800
C  5.75900 56.52700 40.90600
C  2.56700 52.94700 41.98500
N  7.32600 51.62100 40.20200
C  7.08500 50.31000 40.06900
C  8.43600 49.58500 39.64000
C  9.50100 50.72400 39.83200
C  8.62200 51.94300 39.85500
C  10.28300 50.58900 41.16600
C  8.28600 49.08800 38.20100
C  7.56300 49.99300 37.10900
H  8.13100 49.88400 35.68800
N  7.29200 54.67200 40.37000
C  8.52800 54.44500 39.79000
C  9.14800 55.73300 39.61000
C  8.18300 56.75700 39.93300
C  7.01900 55.99300 40.46900
C  10.44200 55.96800 38.96600
C  8.37400 58.27400 39.74200
O  9.35600 58.68400 39.16400
C  7.42100 59.31500 40.32200
N  4.36000 54.49400 41.48900
C  4.56800 55.85500 41.31200
C  3.35500 56.57500 41.74900
C  2.29100 55.40600 41.97200
C  3.09500 54.20900 41.83900
C  3.71700 57.39300 43.00500
C  1.02000 55.44600 40.98400
C  -0.26700 55.56600 41.73900
N  4.52500 51.68900 41.25000
C  3.22200 51.75900 41.66200
C  2.61700 50.48300 41.72300
C  3.58400 49.64700 41.19300
C  4.73700 50.46000 40.88300
C  1.34800 50.00000 42.24600
C  3.94500 48.29400 40.84400
O  3.28400 47.29200 40.94600
C  5.39600 48.29200 40.21400
C  5.23600 47.86100 38.82200
O  4.43400 48.26200 38.01100
O  6.00800 46.77700 38.70300
C  5.85000 46.20000 37.33300
H  10.24000 53.17600 39.32600
H  5.75200 57.61100 41.03600
H  1.49600 53.00000 42.19000
H  8.60600 48.69200 40.24100
H  10.14400 50.88600 38.96700
H  11.31900 50.46000 40.85500
H  9.97300 49.71700 41.74300
H  10.11000 51.41500 41.85600
H  8.03100 48.04100 38.36500
H  9.35600 48.93000 38.06400
H  7.68700 51.00900 37.48200
H  6.51100 49.71000 37.15200
H  10.38200 56.32100 37.93600
H  11.07200 55.08000 38.92400
H  10.91100 56.77600 39.52700
H  7.80000 60.27400 39.96800
H  7.43100 59.27900 41.41100
H  6.41800 59.16200 39.92400
H  3.04400 57.23700 40.94100
H  1.94100 55.45800 43.00300
H  3.06900 57.02100 43.79900
H  3.55000 58.46400 42.88900
H  4.76100 57.19200 43.24500
H  0.92200 54.51400 40.42600
H  1.15000 56.17700 40.18600
H  -0.11700 55.62600 42.81700
H  -0.93000 54.77500 41.39100
H  -0.81100 56.46000 41.43100
H  0.59700 50.38800 41.55800
H  1.15100 50.34400 43.26200
H  1.22400 48.91900 42.18100
H  6.01500 47.58300 40.76500
H  6.76500 45.71000 37.00100
H  5.75500 46.96300 36.56100
H  5.05500 45.46700 37.19600

