158

Mg -0.04900 7.81500 26.75700
C  0.96900 9.61900 29.49500
C  -0.25100 4.99000 28.75400
C  -0.91400 5.91100 24.10700
C  0.61500 10.42900 24.67000
N  0.29600 7.40900 28.92300
C  0.64100 8.35400 29.80300
C  0.35300 7.83800 31.24800
C  0.38800 6.25400 30.96400
C  0.11400 6.19800 29.41300
C  1.68300 5.43100 31.38000
C  -0.97700 8.41700 31.80800
C  -1.05000 8.26300 33.39000
H  0.08700 7.66200 34.22300
N  -0.59000 5.78600 26.48700
C  -0.68700 4.86000 27.44700
C  -1.33500 3.71800 26.92300
C  -1.66500 3.94300 25.57200
C  -1.03500 5.23600 25.31400
C  -1.69800 2.52100 27.72500
C  -2.43300 3.10300 24.55900
O  -2.58300 3.41700 23.41300
C  -2.96800 1.71800 24.88400
N  -0.00100 8.04900 24.64900
C  -0.36700 7.14700 23.77500
C  -0.16800 7.61000 22.34300
C  -0.09600 9.15800 22.56200
C  0.27900 9.22700 24.04300
C  1.19200 7.00300 21.73800
C  -1.52000 9.96100 22.43100
C  -1.69000 10.81400 21.23900
N  0.81400 9.59500 27.00400
C  0.87000 10.63700 26.01600
C  1.12100 11.89400 26.71700
C  1.32300 11.48300 28.08200
C  1.03800 10.12100 28.17200
C  1.35300 13.24800 26.18800
C  1.59100 12.00400 29.40200
O  1.83300 13.17100 29.73100
C  1.32100 10.79700 30.35300
C  2.51700 10.53300 31.28100
O  3.25800 9.54600 31.34900
O  2.62400 11.57900 32.17300
C  3.77600 11.40300 33.07300
H  -0.27200 4.09000 29.37200
H  -1.17800 5.34500 23.21200
H  0.67400 11.33600 24.06400
H  1.19700 8.03300 31.90900
H  -0.40100 5.77200 31.54100
H  2.23200 5.04700 30.52100
H  1.36800 4.57400 31.97500
H  2.34000 6.17000 31.84000
H  -1.89000 7.98400 31.40100
H  -1.03500 9.49500 31.65400
H  -2.02400 7.86200 33.67300
H  -0.96800 9.28300 33.76600
H  -2.68200 2.70600 28.15500
H  -0.96400 2.28900 28.49700
H  -1.87200 1.63000 27.12200
H  -2.29700 0.86500 24.78700
H  -3.85300 1.47400 24.29600
H  -3.34300 1.78400 25.90500
H  -1.02700 7.34500 21.72600
H  0.60800 9.72000 21.94900
H  1.04600 6.24800 20.96500
H  1.73600 6.50400 22.54000
H  1.73600 7.77500 21.19400
H  -1.84700 10.45500 23.34600
H  -2.35200 9.26100 22.35600
H  -1.08700 10.53200 20.37600
H  -1.45900 11.85100 21.48200
H  -2.69900 10.75600 20.83200
H  0.40700 13.74400 25.97000
H  1.97800 13.34700 25.30100
H  1.68200 13.88800 27.00700
H  0.44600 11.02700 30.96100
H  3.79600 10.44400 33.59100
H  3.76500 12.25400 33.75400
H  4.70400 11.39600 32.50200
Mg -5.62100 24.32500 26.24900
C  -4.20600 25.95400 28.91400
C  -7.58100 22.47700 28.23000
C  -6.73300 22.52900 23.49400
C  -3.48000 26.12400 24.16400
N  -5.73700 24.24100 28.34800
C  -5.08200 25.03400 29.31800
C  -5.61000 24.65500 30.73900
C  -6.42800 23.31900 30.43500
C  -6.61300 23.33900 28.91700
C  -5.62800 22.01900 30.88600
C  -6.46700 25.81300 31.41400
C  -6.38400 26.02700 33.01300
H  -5.67500 24.94800 33.80500
N  -6.98700 22.71200 25.89300
C  -7.74000 22.19700 26.85300
C  -8.72600 21.31500 26.22100
C  -8.58200 21.36700 24.82000
C  -7.40000 22.21700 24.69200
C  -9.75700 20.47700 27.01700
C  -9.32700 20.64500 23.63500
O  -9.05300 20.76100 22.49900
C  -10.50100 19.67000 23.90000
N  -5.07400 24.24400 24.18300
C  -5.68100 23.39700 23.27600
C  -4.92800 23.33800 21.98700
C  -4.12200 24.66600 22.11800
C  -4.24800 25.10500 23.55200
C  -4.08400 22.09300 21.90100
C  -4.47800 25.78100 21.08700
C  -3.37400 26.62300 20.38800
N  -4.10500 25.76800 26.37900
C  -3.29500 26.39400 25.49600
C  -2.42300 27.33000 26.19700
C  -2.79200 27.20900 27.50900
C  -3.80300 26.22200 27.56500
C  -1.38400 28.10100 25.54800
C  -2.50700 27.71000 28.81600
O  -1.78300 28.63300 29.22400
C  -3.41900 26.87900 29.76800
C  -2.53100 26.08700 30.70600
O  -2.11800 24.96800 30.51300
O  -2.52000 26.77400 31.88200
C  -1.70400 26.09200 32.94300
H  -8.12100 21.83300 28.92600
H  -6.98200 21.95100 22.60100
H  -2.84400 26.70200 23.49100
H  -4.76700 24.35000 31.35900
H  -7.43200 23.18200 30.83600
H  -5.19500 21.57300 29.99100
H  -6.17700 21.27800 31.46800
H  -4.74500 22.28100 31.46800
H  -7.51900 25.62100 31.20400
H  -6.17600 26.77400 30.98900
H  -7.39100 26.20200 33.39400
H  -5.84400 26.95100 33.21700
H  -9.55200 19.41100 26.92100
H  -10.71400 20.65500 26.52600
H  -9.77700 20.60100 28.10000
H  -11.06300 19.34200 23.02500
H  -11.20500 20.12300 24.59800
H  -10.15900 18.75600 24.38400
H  -5.58900 23.31500 21.12100
H  -3.08300 24.37100 21.97500
H  -3.17200 22.44000 21.41500
H  -4.46900 21.26500 21.30500
H  -3.74200 21.74700 22.87600
H  -5.15200 26.50400 21.54700
H  -4.97600 25.32400 20.23300
H  -3.69400 26.89200 19.38200
H  -2.42400 26.09800 20.29600
H  -3.27000 27.55600 20.94200
H  -1.54100 29.17900 25.51900
H  -1.24700 27.76900 24.51800
H  -0.45700 27.80600 26.04000
H  -4.04400 27.59600 30.30100
H  -0.75700 26.63000 32.97200
H  -1.55200 25.02400 32.79200
H  -2.19900 26.11100 33.91400

