158

Mg 16.90900 -1.88100 28.05100
C  16.18000 0.35300 30.54700
C  19.00600 -3.66300 30.13800
C  18.37000 -3.56100 25.46200
C  15.29700 0.30800 25.81800
N  17.64700 -1.62400 30.03300
C  17.08200 -0.71400 30.93900
C  17.58700 -1.06300 32.32300
C  18.69100 -2.18700 32.09800
C  18.35600 -2.56800 30.64600
C  20.17000 -1.69100 32.17600
C  16.40900 -1.44900 33.22800
C  16.47500 -0.99900 34.69400
H  17.64800 -0.11100 35.21900
N  18.31800 -3.61900 27.84600
C  19.04400 -4.15300 28.80800
C  19.80100 -5.25900 28.31000
C  19.56200 -5.27200 26.89700
C  18.68100 -4.16200 26.69000
C  20.52900 -6.28900 29.21900
C  20.17300 -6.13000 25.78100
O  19.85100 -6.00300 24.60900
C  21.20500 -7.22700 26.15600
N  16.72900 -1.75200 25.99700
C  17.60800 -2.42600 25.17600
C  17.42100 -1.97100 23.73000
C  16.21700 -0.96300 23.76300
C  15.98400 -0.83600 25.25500
C  18.71200 -1.37800 23.17800
C  14.96900 -1.47900 22.99900
C  13.96100 -0.45400 22.56800
N  15.80200 -0.13300 28.14800
C  15.20100 0.59000 27.16000
C  14.44700 1.65500 27.77700
C  14.75800 1.60500 29.12800
C  15.70700 0.55500 29.23800
C  13.45100 2.58300 27.08400
C  14.50400 2.22100 30.41300
O  13.88800 3.22000 30.74700
C  15.57300 1.47400 31.38900
C  16.56800 2.41000 32.16500
O  17.83500 2.30200 32.09900
O  15.87900 3.28300 33.04000
C  16.79000 3.76900 34.12400
H  19.63600 -4.22600 30.83000
H  18.84200 -3.95800 24.56100
H  14.78800 0.93800 25.08500
H  18.01900 -0.17000 32.77400
H  18.54000 -2.99800 32.81000
H  20.46000 -1.69500 33.22600
H  20.28400 -0.64500 31.89100
H  20.87500 -2.26300 31.57400
H  16.39000 -2.53900 33.24700
H  15.45300 -1.16900 32.78600
H  16.55200 -1.90700 35.29100
H  15.46500 -0.67500 34.94100
H  21.60900 -6.14200 29.22800
H  20.28100 -7.31700 28.95500
H  20.22500 -6.17300 30.26000
H  21.27100 -7.85700 25.26900
H  20.80200 -7.88500 26.92600
H  22.17300 -6.83600 26.46800
H  17.19800 -2.92600 23.25500
H  16.59200 -0.08000 23.24400
H  19.35400 -1.16800 24.03400
H  18.56000 -0.38400 22.75900
H  19.17400 -2.13400 22.54400
H  14.42700 -2.15400 23.66200
H  15.33000 -2.05900 22.15000
H  14.34100 0.52900 22.84600
H  12.98900 -0.67500 23.01000
H  13.90900 -0.43900 21.47900
H  13.31500 2.41100 26.01600
H  13.86900 3.58800 27.15500
H  12.54200 2.61400 27.68400
H  15.01000 1.11800 32.25100
H  16.38400 4.74100 34.40400
H  17.86000 3.82600 33.92500
H  16.66200 3.15100 35.01300
Mg 6.20000 54.00600 40.34600
C  5.95500 50.45300 40.29900
C  9.53500 53.60500 39.32300
C  6.29200 57.23700 39.64100
C  2.75500 54.16900 40.96800
N  7.56300 52.21600 39.90800
C  7.22000 50.91000 39.99100
C  8.44200 50.06400 39.59100
C  9.61600 51.05900 39.55700
C  8.86400 52.39600 39.61300
C  10.80200 50.93900 40.59600
C  8.32300 49.15100 38.35800
C  7.81900 49.78400 37.07000
H  6.69300 49.02800 36.35800
N  7.72500 55.29200 39.64100
C  8.99500 54.92400 39.41100
C  9.79400 56.11400 39.12500
C  8.96400 57.23100 39.29300
C  7.60000 56.63900 39.48400
C  11.28900 56.12900 38.87000
C  9.41300 58.76400 39.17700
O  10.55600 59.02900 38.92800
C  8.38400 59.81700 39.34500
N  4.74300 55.43300 40.10800
C  5.02100 56.74300 39.91900
C  3.86000 57.64400 40.23200
C  2.66100 56.68200 40.43600
C  3.42900 55.35400 40.54600
C  4.13100 58.41800 41.53100
C  1.50900 56.82900 39.38400
C  0.11700 57.13900 39.84700
N  4.59800 52.64200 40.62800
C  3.26200 52.88700 41.01000
C  2.66900 51.60700 41.25200
C  3.64400 50.64500 41.06100
C  4.79400 51.31400 40.58300
C  1.33600 51.44100 41.82300
C  3.94000 49.31500 41.25500
O  3.36100 48.42600 41.84600
C  5.32900 49.07800 40.66800
C  5.09100 48.23100 39.50500
O  4.27700 48.37700 38.60500
O  5.86500 47.11000 39.61100
C  5.55100 45.92100 38.89100
H  10.61400 53.52700 39.17800
H  6.39600 58.30300 39.42800
H  1.72600 54.40900 41.24500
H  8.57400 49.38600 40.43400
H  9.99900 51.05600 38.53700
H  11.77400 50.95200 40.10400
H  10.69900 50.08900 41.27100
H  10.77900 51.76100 41.31000
H  7.96900 48.15700 38.63100
H  9.36900 48.97900 38.10300
H  8.54400 49.75000 36.25600
H  7.49700 50.80200 37.29200
H  11.47400 56.58200 37.89500
H  11.66700 55.10800 38.90400
H  11.74000 56.72600 39.66300
H  8.00600 59.77200 40.36600
H  7.56400 59.75800 38.63000
H  8.85400 60.78700 39.18500
H  3.72000 58.34200 39.40600
H  2.16000 56.87200 41.38500
H  3.48000 58.26100 42.39100
H  4.03300 59.47900 41.30000
H  5.17400 58.24500 41.79500
H  1.41900 55.81300 39.00000
H  1.77000 57.47000 38.54200
H  -0.59400 56.39800 39.48300
H  -0.20400 58.09900 39.44200
H  -0.10100 57.07600 40.91300
H  0.72100 51.15300 40.97100
H  1.12600 52.34100 42.40100
H  1.26100 50.61400 42.52900
H  5.86900 48.48700 41.40700
H  5.76500 45.91100 37.82200
H  4.50000 45.63400 38.91700
H  5.98600 45.09600 39.45500

