158

Mg 49.76500 35.33800 25.73700
C  47.55500 34.43500 28.20800
C  50.26200 38.41200 27.41100
C  51.75400 36.39400 23.14700
C  49.38500 32.24500 24.36200
N  48.79600 36.42700 27.47900
C  48.08400 35.68300 28.44000
C  48.04200 36.43800 29.78000
C  48.49100 37.88300 29.34400
C  49.22700 37.59600 27.99400
C  47.45000 39.02300 29.07000
C  48.94600 35.80300 31.00000
C  48.35300 35.63200 32.39500
H  47.09600 36.40800 32.86100
N  50.79200 37.15800 25.30000
C  50.99500 38.15900 26.17400
C  52.08100 39.05800 25.67300
C  52.33100 38.63300 24.37400
C  51.62100 37.37900 24.20300
C  52.67400 40.20800 26.46500
C  53.16300 39.32100 23.32000
O  53.26700 38.85400 22.19900
C  54.01400 40.41500 23.75800
N  50.52200 34.43500 24.06800
C  51.15200 35.08100 23.00000
C  51.21900 34.21900 21.70600
C  50.69400 32.84400 22.21400
C  50.19300 33.15100 23.68300
C  50.55200 34.83400 20.48700
C  51.61400 31.56800 22.15800
C  51.70500 30.80300 20.81600
N  48.60500 33.67100 26.07800
C  48.61200 32.44500 25.45700
C  47.59800 31.63200 26.04500
C  47.09400 32.32800 27.12600
C  47.80700 33.59800 27.08200
C  46.99800 30.44200 25.40500
C  46.27100 32.34500 28.25900
O  45.49500 31.50300 28.64500
C  46.59200 33.66500 29.04100
C  47.09300 33.10000 30.33500
O  48.15100 32.57300 30.47100
O  46.09700 33.10200 31.31800
C  46.37500 32.23700 32.48800
H  50.29000 39.32500 28.01000
H  52.50000 36.61500 22.38100
H  49.27300 31.29600 23.83500
H  47.01200 36.52700 30.12500
H  49.27500 38.16700 30.04600
H  47.62100 39.86200 29.74500
H  46.44400 38.60800 29.13100
H  47.53100 39.44000 28.06600
H  49.91200 36.26300 31.21100
H  49.25500 34.78900 30.74600
H  49.08200 35.83400 33.17900
H  48.30500 34.55500 32.55500
H  53.67000 39.97100 26.84000
H  52.13400 40.29000 27.40900
H  52.70900 41.19000 25.99300
H  54.70100 40.68800 22.95700
H  54.62900 40.06600 24.58700
H  53.44700 41.31700 23.98800
H  52.27100 34.13100 21.43500
H  49.84200 32.64500 21.56300
H  49.80600 35.54200 20.84900
H  49.95100 34.15300 19.88400
H  51.27600 35.34500 19.85300
H  51.31900 30.81800 22.89100
H  52.58000 32.00500 22.41200
H  52.74600 31.00500 20.56400
H  51.09000 31.12000 19.97300
H  51.54600 29.74600 21.03000
H  46.69700 29.64000 26.07900
H  47.72700 29.94600 24.76400
H  46.20000 30.79700 24.75200
H  45.70500 34.28500 29.16800
H  45.47600 32.13400 33.09600
H  47.16600 32.70800 33.07300
H  46.62000 31.22100 32.18000
Mg -12.51300 16.60100 41.71400
C  -9.41200 14.94100 41.20700
C  -10.98300 19.44600 40.49500
C  -15.46300 17.91200 41.47000
C  -13.83400 13.50800 42.52100
N  -10.42700 17.05200 40.79600
C  -9.28300 16.29200 40.79900
C  -7.98000 17.15600 40.57700
C  -8.58800 18.56300 40.54900
C  -10.12700 18.34800 40.58400
C  -8.00900 19.53100 41.64300
C  -7.06800 16.82000 39.33500
C  -5.57700 16.53400 39.30400
H  -5.20900 15.29000 38.51500
N  -13.13100 18.42100 41.08300
C  -12.37400 19.48300 40.58600
C  -13.27900 20.68500 40.35100
C  -14.59400 20.18000 40.63200
C  -14.41800 18.79000 41.07300
C  -12.72300 21.95100 39.87500
C  -15.88800 21.04200 40.59700
O  -15.79500 22.15600 40.14500
C  -17.23100 20.50200 40.93100
N  -14.43700 15.70400 41.74400
C  -15.45600 16.59800 41.86900
C  -16.72400 15.83900 42.16700
C  -16.23700 14.41200 42.62400
C  -14.73200 14.55000 42.41600
C  -17.88000 16.47400 42.96800
C  -16.83600 13.08800 41.87200
C  -17.43700 11.99600 42.75200
N  -11.78200 14.62200 41.94500
C  -12.47200 13.45100 42.25800
C  -11.56300 12.32100 42.28900
C  -10.33800 12.87300 41.91600
C  -10.52800 14.22500 41.67900
C  -12.00000 10.87700 42.60200
C  -8.93000 12.58900 41.69000
O  -8.28600 11.54900 41.68800
C  -8.21200 13.91000 41.27300
C  -7.15900 14.30000 42.21200
O  -7.30800 14.90200 43.25500
O  -5.95700 13.96300 41.58600
C  -4.73800 14.25500 42.39800
H  -10.37700 20.33200 40.29200
H  -16.51100 18.22100 41.45100
H  -14.23400 12.56100 42.88900
H  -7.42700 17.07300 41.51300
H  -8.39700 19.03100 39.58400
H  -7.78000 20.46100 41.12100
H  -7.09800 19.17700 42.12400
H  -8.70300 19.77400 42.44700
H  -7.08700 17.73300 38.73900
H  -7.52700 16.04800 38.71800
H  -5.10600 16.48700 40.28500
H  -5.07600 17.34900 38.78100
H  -13.16200 22.81900 40.36600
H  -12.99200 22.01800 38.82100
H  -11.63900 21.98500 39.99200
H  -17.23600 20.24100 41.98900
H  -17.43700 19.67700 40.24900
H  -17.91400 21.30400 40.65000
H  -17.18600 15.64300 41.20000
H  -16.41000 14.29800 43.69400
H  -18.22100 15.88800 43.82200
H  -18.75900 16.61500 42.33900
H  -17.63300 17.48400 43.29800
H  -16.19000 12.78100 41.05000
H  -17.68900 13.44900 41.29800
H  -17.09400 11.07600 42.27900
H  -18.52400 12.04000 42.81900
H  -17.11000 12.22900 43.76600
H  -12.05500 10.41400 41.61600
H  -12.95600 10.78000 43.11700
H  -11.26900 10.27400 43.14000
H  -7.75200 13.77900 40.29400
H  -4.85900 15.24400 42.84100
H  -3.87700 14.29200 41.73100
H  -4.51800 13.41300 43.05500

