158

Mg -2.12500 18.09600 26.79900
C  -2.36400 15.86100 29.57100
C  -2.38800 20.73200 28.73900
C  -2.62200 19.89800 24.04100
C  -2.24400 15.04300 24.73800
N  -2.45600 18.17800 28.88300
C  -2.40900 17.23300 29.88100
C  -2.65600 17.93100 31.28300
C  -2.69300 19.43100 30.98600
C  -2.51300 19.47000 29.42100
C  -4.02700 20.05500 31.46700
C  -1.77900 17.50300 32.43800
C  -1.42100 18.52000 33.63600
H  -1.44700 17.85900 35.06700
N  -2.44400 20.10600 26.45900
C  -2.45100 21.03800 27.38000
C  -2.61600 22.37100 26.76300
C  -2.64500 22.20700 25.33300
C  -2.60400 20.66900 25.19400
C  -2.65000 23.63800 27.52900
C  -2.65400 23.12100 24.16500
O  -2.72800 22.75100 22.99500
C  -2.64500 24.67000 24.39700
N  -2.49800 17.51200 24.76300
C  -2.46200 18.55700 23.79500
C  -2.39100 18.05800 22.35000
C  -2.12700 16.49400 22.59200
C  -2.32700 16.30000 24.09400
C  -3.74300 18.37300 21.54700
C  -0.85200 15.90000 21.92300
C  0.57900 16.31200 22.45400
N  -2.13900 15.93300 27.02100
C  -2.21800 14.87100 26.14700
C  -2.23200 13.60500 26.82800
C  -2.35100 14.00500 28.17100
C  -2.26500 15.38900 28.21600
C  -2.33600 12.26600 26.19000
C  -2.47700 13.44900 29.50100
O  -2.54700 12.25600 29.89000
C  -2.41800 14.65900 30.51100
C  -1.18000 14.41500 31.38000
O  -0.05000 14.61100 31.00000
O  -1.50700 14.10400 32.69600
C  -0.34700 13.99400 33.67800
H  -2.43600 21.54800 29.46300
H  -2.75800 20.48200 23.12900
H  -2.17900 14.17400 24.07900
H  -3.63000 17.56300 31.60500
H  -1.96800 20.11800 31.42300
H  -4.47500 20.63500 30.66100
H  -3.77900 20.86500 32.15400
H  -4.73500 19.42500 32.00500
H  -0.87000 17.00000 32.10600
H  -2.19900 16.63700 32.95000
H  -2.23500 19.24500 33.66600
H  -0.54100 19.11600 33.39600
H  -3.50400 24.29600 27.37100
H  -1.76100 24.23200 27.31700
H  -2.43900 23.50900 28.59100
H  -2.91000 24.93800 25.42000
H  -3.20600 25.17600 23.61100
H  -1.60100 24.97400 24.31300
H  -1.52400 18.45400 21.82200
H  -2.92600 15.89700 22.15200
H  -3.49100 18.99100 20.68500
H  -4.47900 18.85500 22.19100
H  -4.14800 17.42100 21.20300
H  -0.94600 15.99800 20.84100
H  -0.96200 14.84100 22.15600
H  0.81200 15.65200 23.29000
H  0.48100 17.33600 22.81700
H  1.35600 16.30800 21.69000
H  -1.82300 12.40800 25.23900
H  -3.38400 12.03600 25.99900
H  -1.82800 11.55800 26.84500
H  -3.31300 14.78300 31.12200
H  -0.22900 13.06800 34.24000
H  -0.19900 14.83300 34.35800
H  0.60500 14.02900 33.14800
Mg 6.47200 54.34800 41.59300
C  5.92000 51.04100 41.04200
C  9.74000 53.89600 40.56500
C  6.68500 57.65100 41.20300
C  2.93600 54.83500 41.97300
N  7.57300 52.62700 40.52900
C  7.19000 51.39100 40.61800
C  8.34600 50.39600 40.25500
C  9.68100 51.24000 40.43700
C  8.97900 52.71300 40.54400
C  10.65400 50.98400 41.63200
C  8.21400 49.71500 38.90400
C  7.92800 50.55400 37.60800
H  6.95600 50.04200 36.54800
N  8.03700 55.58100 41.17700
C  9.29400 55.19200 40.74800
C  10.14100 56.34900 40.59400
C  9.31800 57.47000 40.75900
C  7.91600 56.92200 41.05100
C  11.58300 56.26000 40.24000
C  9.73400 58.97000 40.55300
O  10.90200 59.24100 40.26100
C  8.85100 60.09200 40.97100
N  5.02200 56.02100 41.55400
C  5.37400 57.28400 41.47300
C  4.18100 58.29700 41.61500
C  2.97300 57.35300 41.88100
C  3.73200 56.00400 41.95500
C  4.35000 59.22500 42.86800
C  1.82200 57.48900 40.84300
C  0.68200 58.51800 41.11800
N  4.76500 53.19000 41.68800
C  3.43400 53.49500 41.88000
C  2.76500 52.26800 41.98500
C  3.68200 51.24900 41.62100
C  4.86400 51.89800 41.43900
C  1.34500 52.16500 42.32200
C  3.82400 49.87100 41.53000
O  3.01700 48.96700 41.86400
C  5.29900 49.62400 41.05000
C  5.14000 48.92600 39.71900
O  4.82900 49.45700 38.64400
O  5.45500 47.62000 39.97900
C  5.16600 46.69400 38.95200
H  10.77700 53.64900 40.32700
H  6.70800 58.70200 40.90700
H  1.86900 54.86000 42.20300
H  8.21900 49.64800 41.03900
H  10.31900 51.11100 39.56300
H  10.44000 51.83100 42.28300
H  11.66000 50.97500 41.21300
H  10.51500 50.01800 42.11600
H  7.55700 48.85200 39.02100
H  9.20800 49.33900 38.66000
H  8.87200 50.61600 37.06600
H  7.54300 51.54200 37.86000
H  12.09300 57.16800 40.56300
H  11.68600 56.07900 39.17000
H  12.01000 55.47300 40.86100
H  8.29700 60.37200 40.07500
H  9.51800 60.93300 41.15800
H  8.26800 59.89000 41.86900
H  4.23900 58.96600 40.75600
H  2.51200 57.52400 42.85300
H  5.27400 59.79800 42.78900
H  4.38200 58.60700 43.76500
H  3.52100 59.93200 42.86200
H  1.36700 56.55200 40.52100
H  2.24100 57.79900 39.88500
H  -0.28900 58.04300 40.97400
H  0.86400 59.45900 40.59800
H  0.82500 58.86300 42.14200
H  0.69100 52.47000 41.50500
H  1.26800 52.79300 43.20900
H  1.00300 51.16200 42.57700
H  5.74400 48.86500 41.69300
H  5.89700 45.89200 39.05400
H  5.24400 47.06200 37.92900
H  4.28900 46.10800 39.22700

