158

Mg 23.69600 -7.14600 45.21600
C  26.05700 -4.78800 44.32200
C  21.52600 -5.77600 42.78000
C  21.53900 -9.79700 45.57000
C  26.29600 -9.14900 46.65200
N  23.81500 -5.43000 43.86200
C  24.91300 -4.71500 43.59000
C  24.69600 -3.78300 42.28400
C  23.18200 -3.86100 42.18200
C  22.75100 -5.11300 43.02600
C  22.40900 -2.46700 42.53400
C  25.54100 -4.23500 41.09900
C  26.08600 -3.12900 40.14700
H  25.77100 -3.34800 38.70800
N  21.61900 -7.61100 44.46100
C  20.99500 -6.91900 43.47300
C  19.69900 -7.60500 43.21600
C  19.67900 -8.67900 44.13900
C  20.97900 -8.74800 44.78100
C  18.58900 -7.22900 42.16600
C  18.38200 -9.56500 44.39000
O  17.30200 -9.24600 43.96900
C  18.42200 -10.80700 45.25900
N  23.83700 -9.05600 46.21700
C  22.80300 -9.94200 46.13800
C  23.21600 -11.28200 46.71700
C  24.74000 -11.11300 47.13400
C  24.98800 -9.65800 46.65900
C  22.18600 -11.93900 47.66800
C  25.66600 -12.17000 46.54000
C  26.76800 -12.74600 47.48300
N  25.71800 -6.98200 45.46400
C  26.59400 -7.88200 46.16100
C  27.84800 -7.18400 46.24300
C  27.74300 -5.92900 45.59200
C  26.47800 -5.89400 45.08400
C  29.08700 -7.81200 46.83100
C  28.39000 -4.69300 45.20000
O  29.48000 -4.18200 45.52500
C  27.37400 -3.99100 44.23700
C  27.17100 -2.52800 44.55800
O  26.21100 -1.99300 45.09400
O  28.22900 -1.76600 44.07200
C  28.18500 -0.27400 44.23500
H  20.88800 -5.50900 41.93400
H  20.93300 -10.70600 45.55400
H  27.06100 -9.78600 47.10200
H  24.97500 -2.77000 42.57500
H  22.92500 -4.14600 41.16200
H  22.29100 -1.99300 41.56000
H  23.02400 -1.85900 43.19700
H  21.40900 -2.68100 42.91000
H  24.87000 -4.86900 40.52000
H  26.35100 -4.85900 41.47600
H  27.17600 -3.15700 40.12500
H  25.78100 -2.11300 40.40000
H  18.17400 -8.17900 41.82900
H  18.99300 -6.72600 41.28800
H  17.75300 -6.65000 42.55900
H  18.58300 -10.57000 46.31100
H  19.18700 -11.44000 44.80900
H  17.51300 -11.40700 45.22000
H  23.18100 -11.81700 45.76900
H  24.84800 -11.04600 48.21600
H  21.47400 -12.57200 47.13900
H  21.88700 -11.14700 48.35500
H  22.65300 -12.73900 48.24200
H  26.07900 -11.68500 45.65600
H  25.16300 -13.05500 46.14900
H  26.85000 -12.07200 48.33600
H  27.73000 -12.68700 46.97500
H  26.52500 -13.73600 47.86800
H  28.94800 -8.21400 47.83500
H  29.86800 -7.05300 46.87100
H  29.30900 -8.59600 46.10700
H  27.65700 -4.00900 43.18500
H  28.68700 -0.13800 45.19300
H  27.17400 0.13100 44.18000
H  28.84300 0.11900 43.46000
Mg 42.14000 41.87200 26.66500
C  41.36300 44.27500 29.07000
C  43.18600 39.79500 29.18100
C  42.59300 39.44800 24.37400
C  40.93500 44.05300 24.22700
N  42.39400 42.10100 28.87600
C  41.87200 43.11000 29.65100
C  41.64900 42.70700 31.04500
C  42.39700 41.35600 31.19200
C  42.72800 41.04700 29.70100
C  43.64000 41.47500 32.16200
C  40.14500 42.50500 31.41300
C  39.53800 43.48400 32.46400
H  39.17000 43.00100 33.88800
N  42.84900 39.87200 26.81200
C  43.18900 39.21800 27.90700
C  43.68900 37.88600 27.59800
C  43.42400 37.68900 26.21200
C  42.93700 39.04700 25.69600
C  44.28800 36.96700 28.64100
C  43.57900 36.49800 25.46800
O  43.34400 36.50000 24.28200
C  43.93600 35.13200 26.05400
N  41.89300 41.85800 24.64500
C  42.11300 40.74800 23.86700
C  41.83800 40.98800 22.39500
C  41.17800 42.37900 22.37100
C  41.31400 42.81700 23.89200
C  43.13700 40.90100 21.51900
C  39.65500 42.28500 22.02200
C  38.71900 41.73200 23.00600
N  41.57100 43.89100 26.55000
C  41.00400 44.56800 25.51200
C  40.59900 45.86400 25.96600
C  40.67000 45.81400 27.38500
C  41.26300 44.57000 27.68900
C  40.22500 46.97300 25.13300
C  40.48000 46.52500 28.60500
O  40.19700 47.70600 28.79100
C  40.81600 45.55900 29.77300
C  41.73700 46.22500 30.69200
O  42.93400 46.24500 30.55100
O  41.02000 46.81300 31.75200
C  41.71400 47.22800 32.87900
H  43.38700 39.16400 30.04900
H  42.85700 38.70600 23.61800
H  40.48000 44.68700 23.46400
H  42.03900 43.31000 31.86500
H  41.78300 40.56500 31.62300
H  43.60200 42.32900 32.83700
H  44.54500 41.53500 31.55800
H  43.79800 40.53000 32.68200
H  39.84600 41.55000 31.84400
H  39.62300 42.45200 30.45700
H  38.62300 43.84200 31.99100
H  40.16700 44.33800 32.71400
H  45.28400 36.60000 28.39600
H  43.64000 36.12400 28.88200
H  44.41900 37.50300 29.58100
H  43.99700 34.46200 25.19700
H  43.28100 34.68100 26.79900
H  44.91800 35.29100 26.49800
H  41.19800 40.13100 22.18600
H  41.73900 43.03000 21.70000
H  43.75600 41.52000 22.16900
H  42.95100 41.33300 20.53600
H  43.35700 39.83300 21.50500
H  39.52000 41.70200 21.11100
H  39.31000 43.27800 21.73000
H  38.22500 42.42300 23.68900
H  39.19300 40.99500 23.65500
H  37.90100 41.15300 22.57700
H  39.23500 47.42300 25.21200
H  40.37200 46.82100 24.06400
H  41.03500 47.69600 25.22900
H  39.86500 45.26500 30.21700
H  42.79900 47.21100 32.78700
H  41.49400 46.59900 33.74200
H  41.33000 48.23600 33.03900

