158

Mg 9.29700 3.70000 27.37300
C  10.54200 2.11800 30.22000
C  7.32500 5.62000 29.33600
C  7.60800 4.66300 24.52600
C  10.88900 1.09600 25.50200
N  8.96700 3.83000 29.51900
C  9.64100 3.14800 30.51200
C  9.39700 3.77400 31.88700
C  8.25800 4.86500 31.56400
C  8.09800 4.75600 30.02800
C  6.89600 4.85500 32.34900
C  10.68700 4.50600 32.47600
C  11.47800 3.90400 33.59100
H  11.34200 4.60700 34.93300
N  7.81700 5.04700 26.96000
C  7.15700 5.79500 27.92800
C  6.32000 6.72300 27.21400
C  6.26900 6.33800 25.89700
C  7.24700 5.26600 25.73200
C  5.58800 7.86300 27.91500
C  5.34900 6.91300 24.82600
O  5.39400 6.49700 23.66800
C  4.42200 8.03800 25.02400
N  9.11700 2.89300 25.31200
C  8.46800 3.55600 24.30500
C  8.74600 2.96900 22.91900
C  9.85800 1.92600 23.29400
C  10.01200 2.02000 24.82700
C  7.49900 2.31000 22.14400
C  11.18900 2.16100 22.46600
C  11.64000 0.85800 21.73300
N  10.51500 1.95400 27.75500
C  11.09400 1.03900 26.87900
C  11.89400 0.11300 27.59100
C  11.73200 0.54900 28.95100
C  10.85700 1.59600 28.96900
C  12.70800 -0.97000 26.97400
C  12.13500 0.28400 30.27600
O  12.93500 -0.56200 30.67400
C  11.33100 1.28200 31.20900
C  10.58100 0.38900 32.16000
O  9.69200 -0.39500 31.87800
O  11.28200 0.51700 33.37700
C  10.46900 0.17700 34.61500
H  6.67700 6.31100 29.87900
H  7.12100 5.01700 23.61500
H  11.25500 0.43900 24.71000
H  9.05800 2.97400 32.54600
H  8.60300 5.88700 31.71800
H  6.12700 4.48200 31.67300
H  6.51100 5.84400 32.59500
H  6.92900 4.23800 33.24600
H  10.46300 5.55000 32.69300
H  11.39400 4.52600 31.64600
H  12.53300 4.02500 33.34400
H  11.26100 2.86500 33.84000
H  4.52300 7.63200 27.88200
H  5.67000 8.79900 27.36200
H  5.85800 8.03600 28.95700
H  3.86800 8.10100 24.08800
H  5.00100 8.91000 25.32700
H  3.65200 7.72100 25.72900
H  9.13900 3.75300 22.27100
H  9.50700 0.94100 22.98700
H  6.53400 2.32700 22.65100
H  7.65400 1.24700 21.96100
H  7.49300 2.98100 21.28500
H  12.02000 2.27600 23.16200
H  11.21000 3.02400 21.80100
H  12.44700 1.19200 21.08200
H  10.92000 0.49700 20.99800
H  12.04300 0.08700 22.38900
H  12.64000 -0.92600 25.88700
H  12.12700 -1.87900 27.12800
H  13.75500 -1.01900 27.27000
H  12.07300 1.88500 31.73100
H  11.10000 -0.48100 35.21300
H  9.45800 -0.22100 34.52500
H  10.49100 1.03900 35.28200
Mg 41.73900 41.11300 26.74600
C  40.91200 43.61200 29.09200
C  42.67800 39.05400 29.27700
C  42.78700 38.83400 24.33900
C  41.22500 43.43500 24.21700
N  41.89000 41.41700 28.90700
C  41.28100 42.44100 29.69100
C  41.34200 42.09900 31.18100
C  41.95100 40.66600 31.15200
C  42.25000 40.38700 29.71500
C  43.13700 40.45200 32.11300
C  39.84000 42.16000 31.79900
C  39.91200 41.65300 33.27200
H  39.21300 42.49800 34.34900
N  42.60100 39.20100 26.77500
C  42.87200 38.55400 27.94000
C  43.37200 37.25800 27.62100
C  43.53800 37.20800 26.15300
C  42.93600 38.44300 25.66700
C  43.78400 36.18600 28.63400
C  44.15200 36.14000 25.23800
O  44.27800 36.29800 24.03000
C  44.75800 34.95100 25.83100
N  41.93200 41.17100 24.68600
C  42.37000 40.08900 23.86600
C  42.44900 40.46700 22.31800
C  41.53700 41.79300 22.33400
C  41.56100 42.17700 23.85900
C  43.91100 40.55100 21.70100
C  40.24300 41.65300 21.57400
C  39.25000 40.63600 22.19500
N  41.12400 43.14200 26.59400
C  41.08700 43.97400 25.55500
C  40.73600 45.33600 25.96500
C  40.57100 45.20400 27.31800
C  40.89000 43.85900 27.72700
C  40.60400 46.60500 25.13700
C  40.22900 45.86300 28.60900
O  40.00200 47.09500 28.68000
C  40.22400 44.81000 29.69800
C  40.83400 45.46800 30.86600
O  41.92700 46.06100 30.87600
O  39.97000 45.58800 31.93900
C  40.23300 46.41800 33.11200
H  42.91700 38.35500 30.08200
H  43.17800 38.21100 23.53200
H  40.93400 44.19000 23.48300
H  41.97300 42.76200 31.77300
H  41.19900 39.97200 31.52800
H  43.30800 41.40300 32.61700
H  43.96300 40.05200 31.52500
H  42.71000 39.69500 32.77100
H  39.14200 41.53000 31.24900
H  39.48600 43.18900 31.74300
H  40.92800 41.35000 33.52400
H  39.32000 40.73800 33.24500
H  44.83900 36.12000 28.90000
H  43.41700 35.22300 28.28100
H  43.23700 36.46000 29.53700
H  45.35600 34.32400 25.17000
H  43.99900 34.30000 26.26300
H  45.44100 35.27900 26.61400
H  41.84200 39.69100 21.85200
H  42.04400 42.61100 21.82200
H  44.20200 41.57300 21.45900
H  43.93200 39.87000 20.85000
H  44.59200 40.25700 22.50000
H  40.46500 41.40900 20.53500
H  39.71300 42.60500 21.53100
H  38.97400 39.90000 21.43900
H  38.32500 41.10100 22.53700
H  39.73800 40.10400 23.01100
H  40.58300 46.27000 24.10000
H  41.46800 47.23200 25.35800
H  39.70000 47.16800 25.36700
H  39.15900 44.64900 29.86300
H  40.56800 45.90000 34.01100
H  39.23800 46.83500 33.26400
H  40.98800 47.18400 32.93500

