158

Mg 47.42100 24.16100 28.31400
C  48.20100 26.34700 30.83600
C  46.50400 21.72700 30.65300
C  46.99600 22.11100 25.74300
C  48.66300 26.52900 25.94500
N  47.53300 23.95900 30.45400
C  47.63000 25.12400 31.25800
C  47.37200 24.70800 32.71700
C  47.20200 23.19200 32.74400
C  47.04900 22.89700 31.23100
C  48.41300 22.34000 33.23600
C  46.27500 25.59200 33.52200
C  46.78100 26.47700 34.64300
H  45.71900 26.96800 35.64900
N  46.82400 22.23100 28.14900
C  46.47000 21.36000 29.23200
C  45.99700 20.06700 28.66200
C  46.12700 20.14500 27.27000
C  46.67500 21.52800 26.99300
C  45.54300 18.92200 29.55600
C  45.88200 18.99000 26.26000
O  46.07400 19.12000 25.00500
C  45.55800 17.60600 26.76200
N  47.77500 24.30400 26.17400
C  47.45300 23.31900 25.32400
C  47.54000 23.64100 23.80400
C  47.95700 25.12400 23.91900
C  48.10300 25.34500 25.44400
C  48.65100 22.82300 23.03400
C  47.07000 26.14500 23.09200
C  45.77000 26.64900 23.72100
N  48.31500 26.06000 28.35600
C  48.72000 26.88800 27.35100
C  49.17200 28.12700 27.93600
C  49.02500 27.99200 29.29200
C  48.37100 26.72400 29.51700
C  49.86700 29.34900 27.26400
C  49.21800 28.71700 30.60400
O  49.66400 29.80000 30.99500
C  48.77400 27.59400 31.57700
C  50.01900 27.26500 32.31900
O  50.89100 26.52400 31.94700
O  49.96900 27.70000 33.61500
C  51.08800 27.31000 34.51800
H  46.20000 20.99900 31.40700
H  46.76500 21.47400 24.88700
H  49.17500 27.17000 25.22300
H  48.31200 24.91900 33.22800
H  46.40100 22.88700 33.41700
H  48.70300 21.54300 32.55100
H  48.17600 21.91800 34.21200
H  49.30300 22.96800 33.19900
H  45.44600 25.04800 33.97700
H  45.83300 26.27100 32.79300
H  47.10500 27.40700 34.17600
H  47.65900 26.06700 35.14400
H  45.28700 19.17200 30.58500
H  46.22900 18.07500 29.54900
H  44.59400 18.60900 29.11900
H  45.81900 16.85200 26.02000
H  44.52500 17.49300 27.09300
H  46.22100 17.38500 27.59800
H  46.71500 23.51300 23.10300
H  48.97600 25.19100 23.53700
H  49.45200 22.61300 23.74200
H  49.04000 23.38200 22.18300
H  48.15800 21.90800 22.70400
H  46.91100 25.70800 22.10600
H  47.69500 27.01600 22.89700
H  45.49800 26.14000 24.64600
H  44.91400 26.71700 23.05000
H  46.00700 27.67300 24.00800
H  50.95000 29.26700 27.35300
H  49.54500 30.19600 27.86900
H  49.61700 29.46600 26.20900
H  47.96200 27.85700 32.25500
H  52.05100 27.69100 34.17900
H  51.15000 26.22800 34.40700
H  51.02000 27.58600 35.57000
Mg 26.29700 50.93200 25.56600
C  24.20700 52.02800 28.18000
C  28.70800 50.19800 27.90300
C  28.53000 50.46200 22.99800
C  24.00100 52.01900 23.26600
N  26.43500 51.20100 27.87800
C  25.41600 51.53700 28.69000
C  25.74200 51.19800 30.12900
C  27.31900 50.88400 30.08800
C  27.50800 50.69200 28.54200
C  28.33500 51.95300 30.67900
C  24.94300 50.07500 30.91300
C  24.19800 50.43900 32.18000
H  25.03500 50.96300 33.28800
N  28.29500 50.29500 25.40600
C  29.08600 50.08800 26.52000
C  30.41000 49.64100 26.06100
C  30.43800 49.70900 24.65700
C  29.09200 50.19300 24.28100
C  31.39000 49.19600 27.11300
C  31.46800 49.34600 23.67400
O  31.36800 49.52500 22.47900
C  32.74300 48.75500 24.10100
N  26.25200 51.09200 23.43800
C  27.26800 50.91100 22.59700
C  26.81500 50.88300 21.10300
C  25.38900 51.49100 21.22300
C  25.18100 51.49000 22.75200
C  27.80800 51.72100 20.31600
C  24.37000 50.58900 20.43800
C  23.09700 51.24500 19.91500
N  24.49200 51.91400 25.63100
C  23.65600 52.26000 24.65200
C  22.45000 52.90700 25.28300
C  22.61100 52.81000 26.62100
C  23.91600 52.24300 26.80200
C  21.32100 53.49400 24.39700
C  21.97600 53.13700 27.86800
O  20.94800 53.66800 28.12400
C  22.97900 52.60100 28.94000
C  23.32800 53.73400 29.83000
O  24.08400 54.69400 29.67300
O  22.49900 53.61800 30.93500
C  22.91500 54.30900 32.11700
H  29.36400 49.91600 28.72900
H  29.17700 50.32100 22.13000
H  23.30600 52.32500 22.48200
H  25.53100 52.08700 30.72300
H  27.40700 49.99900 30.71900
H  28.35000 51.80000 31.75800
H  27.84100 52.89700 30.44900
H  29.23000 52.05100 30.06500
H  25.51200 49.19100 31.20100
H  24.19200 49.77500 30.18200
H  23.88700 49.46700 32.56400
H  23.32500 51.06800 32.00400
H  31.52400 49.72800 28.05500
H  32.39600 49.17600 26.69500
H  31.15600 48.14700 27.29600
H  33.38300 48.59900 23.23300
H  32.53000 47.84000 24.65400
H  33.26400 49.46300 24.74500
H  26.79700 49.85000 20.75700
H  25.33800 52.48300 20.77600
H  28.27100 52.58900 20.78500
H  27.32200 51.99100 19.37900
H  28.63800 51.06600 20.04900
H  24.18200 49.78500 21.14900
H  24.89000 50.17200 19.57600
H  23.06000 51.00600 18.85200
H  22.94000 52.31900 20.00700
H  22.25500 50.76100 20.40900
H  20.33100 53.34700 24.83000
H  21.50800 53.05100 23.41800
H  21.58400 54.52800 24.17500
H  22.48300 51.76600 29.43400
H  22.42300 53.77200 32.92800
H  22.61100 55.35600 32.15000
H  23.99900 54.20900 32.17800

