158

Mg 2.00400 -0.52900 44.32600
C  5.36800 -0.29300 43.32200
C  1.30700 2.09000 42.23900
C  -1.26600 -1.11300 44.69300
C  2.79700 -3.46000 46.03700
N  3.22000 0.78300 43.09400
C  4.54000 0.65700 42.77200
C  5.01800 1.68100 41.72400
C  3.69900 2.61700 41.55600
C  2.65400 1.81000 42.37800
C  3.86600 4.12400 41.85400
C  5.57800 1.12000 40.36100
C  6.84200 1.88500 39.79000
H  6.70800 2.56400 38.37700
N  0.21700 0.41200 43.62200
C  0.19600 1.51900 42.78900
C  -1.18100 1.79500 42.52100
C  -1.96900 0.88400 43.25500
C  -1.01300 -0.01800 43.91500
C  -1.65200 2.89200 41.69300
C  -3.50700 0.80500 43.20700
O  -4.18100 1.59800 42.60600
C  -4.19600 -0.43800 43.72300
N  0.99100 -2.13700 45.11400
C  -0.35200 -2.06200 45.24100
C  -0.98500 -3.18700 46.18800
C  0.33200 -4.08200 46.43100
C  1.44900 -3.15700 45.88200
C  -1.68000 -2.76000 47.50500
C  0.25400 -5.56500 45.89200
C  0.52600 -6.71700 46.91100
N  3.77300 -1.65300 44.82400
C  3.94700 -2.75300 45.55300
C  5.41200 -3.07500 45.53100
C  6.00600 -2.21500 44.65500
C  4.96100 -1.30200 44.26500
C  6.06200 -4.14600 46.27000
C  7.27500 -1.78900 44.13700
O  8.36400 -2.29300 44.17400
C  6.83400 -0.48800 43.16000
C  7.58800 0.64500 43.74200
O  7.34100 1.23200 44.75200
O  8.70800 0.95600 43.01900
C  9.19400 2.34800 43.14600
H  1.21000 2.90800 41.52200
H  -2.25500 -1.35500 45.08800
H  2.91500 -4.28800 46.74000
H  5.72900 2.29000 42.28100
H  3.26800 2.63000 40.55500
H  4.82600 4.60000 41.65500
H  3.51200 4.32400 42.86600
H  3.17000 4.59300 41.15900
H  4.77100 1.14500 39.62800
H  5.76900 0.04700 40.40000
H  7.75500 1.29100 39.83200
H  7.02400 2.70300 40.48700
H  -0.94800 3.13100 40.89700
H  -1.72100 3.84000 42.22800
H  -2.55900 2.69500 41.12200
H  -5.17200 -0.57600 43.25700
H  -4.32800 -0.26100 44.79000
H  -3.69900 -1.40000 43.60300
H  -1.67800 -3.76300 45.57500
H  0.55400 -4.10600 47.49800
H  -1.99700 -1.74100 47.28300
H  -1.04900 -2.72900 48.39400
H  -2.45600 -3.48900 47.74000
H  0.91000 -5.61500 45.02300
H  -0.75400 -5.77200 45.53100
H  1.28500 -7.37900 46.49400
H  -0.31600 -7.32700 47.23600
H  0.82100 -6.17600 47.81100
H  6.25500 -5.03100 45.66400
H  5.71700 -4.48700 47.24600
H  7.00400 -3.68300 46.56500
H  7.19700 -0.71000 42.15600
H  8.43500 3.00900 43.56400
H  9.57700 2.65800 42.17400
H  10.00200 2.28200 43.87400
Mg 35.22500 49.17000 25.19800
C  35.31400 47.79500 28.40900
C  33.89800 52.04100 26.63300
C  34.51500 50.21600 22.03600
C  36.29300 46.11500 23.88900
N  34.61500 49.73400 27.27600
C  34.80800 49.09100 28.45500
C  34.29800 49.89700 29.69000
C  33.89600 51.31800 29.09300
C  34.17500 51.04400 27.58300
C  32.51200 51.89100 29.50300
C  35.28300 49.94600 30.85500
C  34.78500 49.67900 32.31000
H  34.88400 50.74000 33.42600
N  34.33600 50.98200 24.45600
C  33.89600 52.05300 25.17200
C  33.41700 53.03600 24.27900
C  33.67400 52.55100 22.91500
C  34.18300 51.18500 23.09000
C  32.90400 54.37100 24.83900
C  33.55700 53.27500 21.61100
O  33.89800 52.78700 20.50500
C  33.01100 54.57000 21.56700
N  35.58400 48.39700 23.28700
C  35.15100 48.99800 22.20100
C  35.60100 48.19100 20.97100
C  36.28300 46.93600 21.51100
C  36.10300 47.15800 22.98100
C  34.43000 47.83900 20.00500
C  37.75000 46.82800 21.14200
C  38.68500 47.93400 21.72500
N  35.81300 47.31000 25.90200
C  36.17100 46.18100 25.30900
C  36.38000 45.11500 26.29000
C  36.20500 45.74800 27.46600
C  35.69600 47.07900 27.24500
C  36.74500 43.62700 26.01400
C  36.31300 45.57100 28.93400
O  36.76100 44.68000 29.65500
C  35.58100 46.83700 29.55200
C  34.34600 46.39500 30.23900
O  33.21700 46.32600 29.78600
O  34.64700 45.95300 31.48900
C  33.57200 45.24600 32.28600
H  33.51000 52.97100 27.05300
H  34.39000 50.45800 20.97800
H  36.61200 45.14800 23.49300
H  33.38200 49.39300 29.99600
H  34.72700 51.96700 29.36800
H  31.97100 51.03100 29.89800
H  32.06300 52.36700 28.63200
H  32.63500 52.62800 30.29700
H  35.80100 50.89200 31.00800
H  36.05600 49.24000 30.54900
H  35.61500 49.05100 32.63400
H  33.83300 49.16700 32.44200
H  32.79300 54.34800 25.92400
H  31.90100 54.51600 24.43800
H  33.50500 55.18000 24.42300
H  33.73800 55.18800 22.09400
H  32.08800 54.52000 22.14400
H  32.73400 54.88500 20.56100
H  36.34400 48.67600 20.33800
H  35.59600 46.11100 21.32200
H  33.47300 48.32500 20.19200
H  34.29600 46.76000 19.91700
H  34.73100 48.30700 19.06800
H  37.98600 46.80600 20.07800
H  38.08000 45.84200 21.47000
H  39.38500 47.62500 22.50100
H  38.26600 48.88300 22.06200
H  39.34800 48.22200 20.90900
H  37.79200 43.46200 26.26700
H  36.58900 43.32600 24.97800
H  36.17700 42.88000 26.56900
H  36.27300 47.19300 30.31600
H  33.28900 44.32500 31.77700
H  32.63100 45.79500 32.25400
H  33.85100 45.17100 33.33700

