158

Mg 43.27900 3.88700 47.09900
C  41.36000 6.84900 47.09400
C  40.29000 2.11600 46.74700
C  45.01600 1.20800 46.25400
C  46.08400 6.00600 46.50100
N  41.09000 4.49800 46.94500
C  40.51400 5.72300 47.06200
C  38.96800 5.66400 47.08200
C  38.79900 4.10500 47.11800
C  40.15700 3.47400 46.88300
C  38.15300 3.58800 48.43200
C  38.26200 6.36800 45.86300
C  39.19600 6.92100 44.76000
H  38.80600 6.38900 43.36100
N  42.75300 1.87000 46.85600
C  41.49000 1.31400 46.69700
C  41.54600 -0.04300 46.42700
C  42.95200 -0.39800 46.32500
C  43.63800 0.86800 46.53400
C  40.34200 -0.89300 46.22500
C  43.44100 -1.89200 46.07400
O  42.63500 -2.82800 45.86200
C  44.85500 -2.29600 46.03300
N  45.21600 3.65600 46.36100
C  45.71800 2.39400 46.16400
C  47.15400 2.49400 45.68000
C  47.54700 3.97800 45.98200
C  46.18400 4.64600 46.29800
C  48.02500 1.46500 46.39800
C  48.53500 4.71300 44.99000
C  49.87800 4.95600 45.62300
N  43.70400 6.04600 46.75800
C  44.94500 6.72300 46.65300
C  44.65300 8.18700 46.75000
C  43.26800 8.26400 46.97000
C  42.74300 6.94700 46.97300
C  45.75600 9.23800 46.65800
C  42.19700 9.17100 47.29600
O  42.22400 10.39100 47.34900
C  40.91600 8.28900 47.31200
C  40.08900 8.54100 48.49600
O  40.10800 7.81700 49.46000
O  39.28000 9.59700 48.33200
C  38.28800 10.07800 49.27000
H  39.28800 1.70900 46.59900
H  45.53400 0.30400 45.92900
H  47.03300 6.53400 46.61600
H  38.65800 6.13000 48.01800
H  38.21500 3.64000 46.32400
H  37.72500 4.40900 49.00600
H  38.93200 3.14500 49.05300
H  37.39100 2.85400 48.17100
H  37.72200 7.23800 46.23700
H  37.52700 5.73500 45.36600
H  40.23600 6.60600 44.84300
H  39.06500 8.00300 44.77700
H  39.85000 -0.80100 45.25700
H  39.55800 -0.62800 46.93500
H  40.46400 -1.94800 46.46800
H  45.44600 -1.88200 46.85000
H  45.16400 -1.94400 45.04900
H  44.99100 -3.37700 46.03700
H  47.16700 2.30400 44.60700
H  48.02600 3.81400 46.94700
H  48.90400 1.91400 46.86000
H  48.26900 0.79300 45.57500
H  47.51000 0.99800 47.23700
H  48.16800 5.71100 44.75000
H  48.52700 4.20900 44.02300
H  50.62000 4.47900 44.98200
H  49.95400 4.49100 46.60500
H  49.98000 6.03300 45.75500
H  46.13200 9.48600 47.65000
H  45.39900 10.20500 46.30400
H  46.58600 8.89600 46.04000
H  40.30000 8.64100 46.48400
H  38.28200 9.43100 50.14700
H  37.38300 10.03500 48.66400
H  38.58200 11.10000 49.51200
Mg -11.69900 39.05800 41.79800
C  -9.92000 36.25900 40.64500
C  -9.32700 41.06100 40.50000
C  -13.77200 41.67000 42.45400
C  -14.26300 36.78200 42.71600
N  -10.01300 38.66000 40.47100
C  -9.41100 37.48200 40.18400
C  -8.11700 37.71900 39.36800
C  -7.82800 39.21400 39.59300
C  -9.12600 39.66600 40.26500
C  -6.50100 39.61300 40.21200
C  -8.20800 37.06700 37.96200
C  -6.96700 36.13600 37.65600
H  -6.08000 36.55600 36.58000
N  -11.49100 41.10100 41.59500
C  -10.43300 41.71100 41.05200
C  -10.61900 43.14700 41.27500
C  -11.87000 43.39000 41.87000
C  -12.49900 41.99900 41.97900
C  -9.56600 44.09400 40.81500
C  -12.35000 44.71100 42.30500
O  -11.67500 45.71000 41.97500
C  -13.58600 45.02000 42.99900
N  -13.79900 39.16900 42.20100
C  -14.38300 40.39200 42.50200
C  -15.79500 40.16000 43.01000
C  -16.03400 38.62200 42.74000
C  -14.60200 38.11700 42.52000
C  -16.18400 40.64600 44.46900
C  -17.00100 38.23200 41.62000
C  -18.10100 37.32500 42.09600
N  -12.16900 36.87400 41.65900
C  -13.09100 36.16200 42.32300
C  -12.73200 34.76400 42.34300
C  -11.54000 34.70200 41.64300
C  -11.15600 36.03000 41.28700
C  -13.48700 33.62500 43.04500
C  -10.45900 33.82100 41.14000
O  -10.34500 32.63200 41.12700
C  -9.43400 34.82100 40.36000
C  -8.13600 34.56200 40.99600
O  -7.80200 34.99900 42.11700
O  -7.34700 33.78700 40.10400
C  -6.07000 33.38100 40.60800
H  -8.42400 41.62400 40.25400
H  -14.36300 42.55100 42.71500
H  -14.84000 36.03000 43.25800
H  -7.42600 37.08300 39.92200
H  -7.82400 39.83400 38.69600
H  -6.61200 40.21000 41.11700
H  -5.96500 40.27600 39.53300
H  -5.89000 38.75500 40.49400
H  -8.24300 37.77600 37.13500
H  -9.13700 36.50500 38.06100
H  -7.41300 35.14500 37.57100
H  -6.39400 35.99400 38.57200
H  -8.59100 43.72400 41.13200
H  -9.73100 45.14800 41.03900
H  -9.65500 44.17500 39.73100
H  -14.45300 44.53900 42.54700
H  -13.92500 46.05600 43.00300
H  -13.54300 44.62800 44.01600
H  -16.48100 40.64700 42.31700
H  -16.45300 38.31600 43.69900
H  -15.33700 41.13400 44.95100
H  -16.56400 39.77100 44.99700
H  -17.00400 41.36300 44.42300
H  -16.43500 37.66600 40.88000
H  -17.51000 39.13500 41.28300
H  -19.03900 37.76600 42.43500
H  -17.74500 36.70400 42.91800
H  -18.34500 36.80100 41.17200
H  -13.01300 32.64600 42.96700
H  -14.51900 33.56100 42.69900
H  -13.48900 33.85300 44.11100
H  -9.51000 34.48000 39.32700
H  -5.75600 34.03700 41.41900
H  -5.28800 33.35500 39.84900
H  -6.22700 32.37500 40.99600

