158

Mg 35.16800 2.81700 30.41200
C  32.73400 3.81200 32.74700
C  37.51700 3.29100 32.91400
C  37.63800 2.48400 28.12600
C  32.87900 3.10000 27.88800
N  35.13200 3.49900 32.53900
C  33.99200 3.62600 33.30600
C  34.34900 3.78100 34.77000
C  35.94800 3.98200 34.85700
C  36.22600 3.51000 33.35500
C  36.56900 5.39900 35.20500
C  33.79600 2.69000 35.66100
C  33.88600 2.79700 37.19600
H  34.19300 4.10700 37.92600
N  37.27300 2.78400 30.54800
C  38.02200 2.95000 31.68300
C  39.43600 2.77900 31.30700
C  39.49800 2.39500 29.95700
C  38.07100 2.56100 29.46000
C  40.52400 2.89900 32.38500
C  40.65000 1.91800 29.08400
O  40.46700 1.42300 28.00800
C  42.05400 2.09400 29.60500
N  35.27000 2.74200 28.26900
C  36.35500 2.62700 27.56800
C  36.08200 2.38800 26.05700
C  34.54400 2.50400 26.04400
C  34.22100 2.87500 27.46700
C  36.76600 3.39000 25.08200
C  33.93600 1.14900 25.59500
C  32.58500 1.30600 24.88600
N  33.16300 3.30100 30.34200
C  32.41000 3.40600 29.17000
C  31.07500 3.81700 29.56900
C  31.09300 4.02100 30.96100
C  32.44000 3.77100 31.36900
C  29.84700 3.91300 28.71200
C  30.33400 4.37500 32.23100
O  29.26400 4.90200 32.37700
C  31.34100 4.13000 33.43000
C  31.40700 5.38200 34.13500
O  32.13000 6.34900 33.84000
O  30.60500 5.37300 35.24600
C  30.61200 6.46600 36.13600
H  38.28000 3.44500 33.68000
H  38.37900 2.35900 27.33400
H  32.06700 3.16700 27.16100
H  33.91900 4.72800 35.09500
H  36.38400 3.30500 35.59100
H  35.89700 5.85400 35.93200
H  36.53000 6.07700 34.35200
H  37.58700 5.27600 35.57500
H  34.32300 1.74900 35.50300
H  32.77000 2.54700 35.32100
H  34.51400 2.02500 37.64000
H  32.85700 2.55400 37.46100
H  40.31900 2.50500 33.38100
H  40.55400 3.97300 32.56900
H  41.58100 2.78600 32.14200
H  42.65300 1.96700 28.70400
H  42.32000 1.30000 30.30200
H  42.18700 3.06600 30.08000
H  36.46400 1.42300 25.72300
H  34.12500 3.29800 25.42500
H  36.80100 4.42700 25.41800
H  36.46900 3.40100 24.03300
H  37.80700 3.06700 25.09800
H  33.80200 0.49000 26.45300
H  34.55200 0.65900 24.84100
H  32.36800 2.31700 24.54200
H  31.74900 0.99100 25.51100
H  32.55700 0.56200 24.08900
H  29.05300 3.52800 29.35200
H  29.98700 3.23600 27.86900
H  29.64600 4.89400 28.28300
H  30.94600 3.32700 34.05200
H  30.24000 7.35900 35.63300
H  31.59500 6.64700 36.57200
H  29.99500 6.10000 36.95600
Mg -5.48900 24.51800 27.04300
C  -4.18900 26.12900 29.88400
C  -7.33200 22.44500 29.07500
C  -6.67700 23.03500 24.23900
C  -3.46500 26.56600 24.97200
N  -5.74000 24.37900 29.16800
C  -5.13700 25.15700 30.17100
C  -5.78700 24.77900 31.52900
C  -6.44900 23.43900 31.31800
C  -6.54400 23.34300 29.77000
C  -5.81100 22.20000 31.92700
C  -6.76800 25.93400 32.01800
C  -6.99200 26.22100 33.58800
H  -6.60400 25.21500 34.66900
N  -6.96900 23.06000 26.68800
C  -7.64400 22.38000 27.63500
C  -8.57500 21.49100 26.99200
C  -8.48500 21.72100 25.62000
C  -7.31600 22.61100 25.43100
C  -9.48200 20.55600 27.81700
C  -9.31900 21.05700 24.43600
O  -9.09700 21.31700 23.27800
C  -10.31800 19.99000 24.91500
N  -5.01400 24.64500 24.91200
C  -5.69400 23.89100 23.94000
C  -5.10600 24.20900 22.54700
C  -4.07900 25.42500 22.89100
C  -4.22100 25.61800 24.35600
C  -4.45000 23.01700 21.84600
C  -4.27600 26.69200 21.97500
C  -2.98200 27.26700 21.39500
N  -3.88600 25.91500 27.32600
C  -3.37300 26.82000 26.38800
C  -2.58700 27.82000 27.12100
C  -2.85800 27.56000 28.51000
C  -3.70900 26.39300 28.60700
C  -1.71300 28.94300 26.50900
C  -2.53800 28.06900 29.81800
O  -1.82100 28.95900 30.21900
C  -3.44400 27.16000 30.76800
C  -2.58700 26.50600 31.79600
O  -1.56200 25.90300 31.55900
O  -3.22800 26.68600 33.00000
C  -2.48700 26.11200 34.13700
H  -7.76700 21.63400 29.66400
H  -7.13400 22.56400 23.36700
H  -3.00800 27.40400 24.44200
H  -4.98100 24.68100 32.25700
H  -7.50100 23.39200 31.60000
H  -5.31300 22.54900 32.83200
H  -5.09100 21.86500 31.18100
H  -6.43600 21.33400 32.14600
H  -7.74500 25.62700 31.64500
H  -6.53000 26.94200 31.67900
H  -8.04600 26.48700 33.66700
H  -6.53500 27.19900 33.74000
H  -10.52300 20.52000 27.49500
H  -9.52400 20.80900 28.87700
H  -9.13200 19.52400 27.83800
H  -11.09700 20.49200 25.49000
H  -9.77200 19.20500 25.43900
H  -10.73000 19.56600 24.00000
H  -5.91800 24.64500 21.96500
H  -3.05100 25.07100 22.80300
H  -3.45900 23.33300 21.52000
H  -5.11800 22.65400 21.06500
H  -4.15900 22.22600 22.53700
H  -4.79100 27.47500 22.53200
H  -5.02300 26.56700 21.19100
H  -3.05300 27.58600 20.35500
H  -2.25200 26.45800 21.39600
H  -2.51800 28.04500 22.00100
H  -0.83500 28.60100 25.96100
H  -1.61600 29.65300 27.33000
H  -2.36800 29.42800 25.78500
H  -4.18500 27.72600 31.33300
H  -1.44300 26.42400 34.17700
H  -2.43300 25.03200 34.00300
H  -3.01600 26.30600 35.07100

