158

Mg 36.31900 48.54800 26.09700
C  36.23500 46.36400 28.91600
C  34.90400 50.98400 28.10700
C  35.76800 50.33500 23.36000
C  37.04600 45.69800 24.18300
N  35.69600 48.66500 28.21100
C  35.96800 47.77300 29.17900
C  35.87300 48.34500 30.57400
C  35.28400 49.78000 30.35500
C  35.34100 49.86600 28.78100
C  33.80400 50.00300 30.88600
C  37.23800 48.40400 31.30500
C  37.16300 48.72100 32.86800
H  35.93900 49.02300 33.65600
N  35.57300 50.50900 25.84700
C  34.98200 51.34600 26.75700
C  34.68900 52.59100 26.07300
C  34.92700 52.44800 24.70800
C  35.42800 51.04600 24.57900
C  34.14400 53.77100 26.83200
C  34.67600 53.40600 23.52400
O  35.01100 53.19700 22.32200
C  34.17700 54.84700 23.85200
N  36.54900 48.16300 24.09500
C  36.27100 49.08500 23.14800
C  36.37900 48.42200 21.77100
C  37.13000 47.02400 22.00600
C  36.96900 46.95200 23.54800
C  35.05400 48.27900 21.00000
C  38.63200 47.21800 21.53900
C  39.69200 47.57700 22.57500
N  36.66300 46.39900 26.41800
C  36.97700 45.45200 25.52600
C  37.13300 44.28500 26.15900
C  36.97000 44.51300 27.57300
C  36.56100 45.86500 27.60500
C  37.50800 42.97700 25.48800
C  36.97000 43.88500 28.89400
O  37.03900 42.77800 29.36300
C  36.56700 45.10200 29.78400
C  35.45300 44.69600 30.70400
O  34.35500 44.34300 30.41100
O  35.90800 44.94100 31.97300
C  34.88000 44.79900 33.06900
H  34.47700 51.70700 28.80400
H  35.47500 50.81600 22.42400
H  37.24500 44.90300 23.46100
H  35.20500 47.76200 31.20900
H  36.00500 50.41000 30.87700
H  33.45500 49.11100 31.40700
H  33.16100 50.14300 30.01700
H  33.73400 50.91600 31.47700
H  37.83000 49.16500 30.79700
H  37.66100 47.40200 31.22600
H  37.92600 49.47700 33.05100
H  37.34700 47.72400 33.26800
H  34.26100 53.62400 27.90500
H  33.07200 53.68000 26.65100
H  34.51000 54.78400 26.66400
H  34.15700 55.29400 22.85800
H  34.82300 55.37400 24.55400
H  33.19100 54.72300 24.29900
H  37.01800 49.09200 21.19700
H  36.61700 46.16000 21.58400
H  34.18300 48.45200 21.63200
H  34.90400 47.25100 20.67000
H  35.01300 48.91400 20.11500
H  38.70300 47.88200 20.67800
H  38.77800 46.20600 21.16300
H  40.46400 48.21100 22.13900
H  40.13100 46.61800 22.85100
H  39.27200 47.84500 23.54500
H  38.24300 43.08700 24.69200
H  36.51800 42.64400 25.17500
H  37.87000 42.28600 26.25000
H  37.52500 45.29600 30.26700
H  35.06100 45.38200 33.97200
H  34.90800 43.74000 33.32400
H  33.88000 45.01900 32.69500
Mg 6.73400 53.66100 40.55600
C  6.20300 50.19800 40.35700
C  10.03800 53.12100 39.75100
C  7.10500 57.02700 40.04700
C  3.22600 54.03100 40.81800
N  7.89600 51.86400 39.94200
C  7.45600 50.58700 40.01500
C  8.60600 49.63700 39.62000
C  9.86800 50.55300 39.89700
C  9.26400 51.99500 39.92300
C  10.80500 50.15900 41.09100
C  8.67700 49.10700 38.16300
C  8.07900 50.02800 36.97600
H  7.13700 49.43800 35.92800
N  8.42400 54.90500 40.00200
C  9.71600 54.51100 39.79800
C  10.51600 55.67100 39.62800
C  9.63600 56.83100 39.63300
C  8.28700 56.28600 39.89900
C  12.04500 55.60600 39.30000
C  10.09200 58.18900 39.36400
O  11.28100 58.48600 39.11300
C  9.16800 59.44700 39.53400
N  5.29700 55.30500 40.09900
C  5.83100 56.59400 40.27500
C  4.66000 57.57100 40.48700
C  3.40800 56.66200 40.57300
C  4.01000 55.22100 40.53300
C  4.85600 58.48200 41.77000
C  2.44400 56.91900 39.41500
C  1.47100 58.08300 39.63500
N  4.97600 52.42300 40.63500
C  3.66200 52.68500 40.77900
C  2.97000 51.51400 40.92500
C  3.86700 50.48500 40.82000
C  5.08800 51.08200 40.48600
C  1.50400 51.39000 41.19200
C  4.00100 49.06900 40.92000
O  3.18400 48.19400 41.19000
C  5.58300 48.80000 40.65400
C  5.59300 47.75900 39.58300
O  5.24800 47.94300 38.44600
O  5.80100 46.47700 40.10800
C  5.70300 45.43100 39.18500
H  11.10400 52.88700 39.72300
H  7.25800 58.10000 39.91600
H  2.18400 54.27700 41.02800
H  8.53200 48.82200 40.33900
H  10.46500 50.56500 38.98500
H  11.52300 49.36100 40.89900
H  10.08200 49.76500 41.80400
H  11.40300 51.00200 41.43900
H  8.33900 48.07200 38.21500
H  9.73400 49.10800 37.89700
H  8.91600 50.40500 36.38900
H  7.52800 50.89000 37.35200
H  12.17900 56.03100 38.30500
H  12.30200 54.55800 39.14800
H  12.72800 56.01600 40.04300
H  9.71400 60.37200 39.35000
H  8.86000 59.41600 40.57900
H  8.37200 59.41700 38.78900
H  4.60900 58.17200 39.58000
H  2.92000 56.76200 41.54300
H  5.83100 58.96700 41.73800
H  4.70500 57.89400 42.67600
H  4.14400 59.30400 41.69800
H  1.85400 56.00200 39.42800
H  3.03800 57.13800 38.52800
H  0.46600 57.66200 39.66500
H  1.68100 58.76800 38.81400
H  1.47600 58.59100 40.60000
H  1.12800 52.36700 41.49600
H  1.25000 50.73800 42.02800
H  0.98700 51.06200 40.29100
H  5.84300 48.35700 41.61500
H  6.11200 45.71700 38.21600
H  4.67700 45.08100 39.07400
H  6.30700 44.54700 39.39300

