158

Mg 30.32100 58.21000 40.02100
C  27.54900 56.08900 39.28800
C  32.37300 55.62900 38.93500
C  32.68900 60.33500 40.15800
C  27.87000 60.74600 40.50000
N  30.02300 56.18400 39.03100
C  28.79400 55.52400 38.87200
C  29.05500 54.07500 38.47700
C  30.57100 53.88200 38.56600
C  31.01300 55.32000 38.89400
C  31.08000 52.83500 39.68000
C  28.44300 53.53100 37.08400
C  28.05200 54.55700 36.02200
H  28.30700 54.21100 34.56300
N  32.37700 57.96300 39.82200
C  33.03300 56.84500 39.37000
C  34.46600 57.07000 39.30000
C  34.67000 58.51600 39.55700
C  33.27100 59.00600 39.86100
C  35.43400 56.00200 38.66900
C  35.97700 59.27300 39.54900
O  37.02500 58.63300 39.35200
C  36.09700 60.68800 39.87300
N  30.27100 60.31000 40.18700
C  31.46100 60.96500 40.32500
C  31.30100 62.44500 40.69000
C  29.74400 62.52700 41.12900
C  29.25400 61.11600 40.55500
C  32.24300 63.00400 41.76300
C  29.10700 63.79400 40.59000
C  28.50300 64.70300 41.73700
N  28.12500 58.42100 40.03200
C  27.31800 59.46200 40.21500
C  25.88200 59.06100 40.15800
C  25.94200 57.74000 39.73500
C  27.31400 57.39800 39.66400
C  24.68500 60.00900 40.30300
C  25.17700 56.53200 39.45300
O  23.92900 56.38900 39.46700
C  26.17400 55.43800 39.08200
C  25.95900 54.33200 40.05000
O  26.17600 54.45700 41.25400
O  25.53400 53.19900 39.36400
C  25.09000 52.13900 40.26500
H  33.03900 54.80200 38.68100
H  33.45900 61.10300 40.25400
H  27.12700 61.52200 40.69400
H  28.47000 53.50700 39.20100
H  30.97300 53.59000 37.59500
H  30.23300 52.38800 40.20000
H  31.68900 53.22700 40.49400
H  31.74300 52.06500 39.28600
H  27.44800 53.14800 37.30900
H  28.94400 52.63900 36.70700
H  28.58400 55.48600 36.22500
H  26.99700 54.82900 36.00100
H  35.36400 56.25600 37.61100
H  34.96800 55.03000 38.83000
H  36.45400 56.07700 39.04800
H  37.07600 61.15400 39.75600
H  35.85700 60.72800 40.93600
H  35.39300 61.34600 39.36300
H  31.46000 63.09500 39.82900
H  29.67900 62.40200 42.21000
H  32.56100 62.18700 42.41000
H  31.80700 63.81400 42.34700
H  33.01900 63.41600 41.11800
H  28.27700 63.46900 39.96300
H  29.81400 64.42600 40.05200
H  28.98300 65.66600 41.56000
H  28.85900 64.34400 42.70200
H  27.42700 64.87500 41.68400
H  24.59600 60.45800 39.31300
H  24.99000 60.75500 41.03700
H  23.82300 59.40200 40.58000
H  26.12100 55.12100 38.04000
H  24.28400 52.40900 40.94700
H  25.91400 51.60600 40.74000
H  24.66400 51.45800 39.52900
Mg 27.37800 49.89900 26.33800
C  25.56700 51.23700 29.04000
C  29.50600 48.53200 28.62100
C  29.37300 49.25700 23.71000
C  25.18200 51.55300 24.16000
N  27.52400 49.94800 28.62200
C  26.66500 50.58500 29.49300
C  26.98600 50.25800 31.03600
C  28.42500 49.65500 30.81300
C  28.50900 49.27000 29.22900
C  29.66500 50.62700 31.26400
C  25.96300 49.24700 31.69000
C  25.23600 49.72700 32.94600
H  26.09000 50.25300 34.12200
N  29.15600 48.91400 26.17200
C  29.92600 48.39000 27.25300
C  31.02400 47.65400 26.71700
C  31.00100 47.82900 25.32600
C  29.84800 48.72400 25.00100
C  31.85300 46.72700 27.58600
C  31.90300 47.30200 24.17800
O  31.75300 47.62200 23.01600
C  32.96300 46.33400 24.59300
N  27.31600 50.33800 24.23000
C  28.26900 50.02900 23.34500
C  27.87600 50.39600 21.86900
C  26.44500 51.01100 22.08100
C  26.31300 50.99600 23.61400
C  28.86500 51.30100 21.02700
C  25.24100 50.28200 21.44300
C  24.24300 51.24700 20.81100
N  25.78400 51.11400 26.53700
C  24.91800 51.68300 25.53500
C  23.81000 52.42800 26.19700
C  24.10800 52.17900 27.51400
C  25.21900 51.37500 27.69800
C  22.76600 53.01700 25.51800
C  23.55900 52.49900 28.81900
O  22.59900 53.14600 29.05800
C  24.52100 51.85100 29.90300
C  25.01200 52.94300 30.80500
O  25.78800 53.80900 30.48100
O  24.34900 53.03000 32.01500
C  24.78200 54.12700 32.86600
H  30.30900 48.18700 29.27600
H  30.01100 49.12000 22.83400
H  24.39700 51.95200 23.51500
H  26.97700 51.19900 31.58600
H  28.46800 48.66000 31.25800
H  30.31500 50.72900 30.39500
H  30.11300 50.21200 32.16700
H  29.35300 51.60500 31.63200
H  26.45600 48.31400 31.96300
H  25.16000 49.13400 30.96200
H  24.61200 48.92400 33.33900
H  24.57000 50.50600 32.57600
H  31.65500 46.79200 28.65600
H  32.91400 46.92700 27.43300
H  31.52100 45.73100 27.29500
H  33.80200 46.80900 25.10100
H  33.38300 45.85500 23.70800
H  32.57300 45.42200 25.04500
H  27.84400 49.50600 21.24200
H  26.52800 52.05800 21.78800
H  29.80000 51.45100 21.56700
H  28.54000 52.26200 20.62700
H  28.98000 50.75800 20.08900
H  24.81100 49.56800 22.14500
H  25.71600 49.61800 20.72000
H  23.53500 51.58600 21.56700
H  23.74800 50.74500 19.98000
H  24.64600 52.17100 20.39700
H  22.34500 52.38000 24.74000
H  23.12900 53.92300 25.03200
H  21.92300 53.40400 26.09000
H  23.91600 51.12000 30.43900
H  24.74400 55.05200 32.29000
H  25.73800 53.90300 33.33900
H  24.03000 54.19900 33.65200

