158

Mg 23.93900 -7.07800 44.99700
C  26.31900 -4.59400 43.79500
C  21.58100 -5.37600 43.16400
C  22.00300 -9.87200 45.41600
C  26.71900 -8.85600 46.30500
N  23.95700 -5.06300 43.83900
C  25.00800 -4.30500 43.40100
C  24.52400 -3.24000 42.42100
C  22.98200 -3.29600 42.42300
C  22.81700 -4.70500 43.17700
C  22.27600 -2.19700 43.23900
C  25.06600 -3.50500 40.98000
C  25.53300 -2.32000 40.23400
H  25.02100 -2.07000 38.85800
N  22.04800 -7.52300 44.46600
C  21.27100 -6.67500 43.70800
C  19.95500 -7.31400 43.60500
C  19.97900 -8.59200 44.25300
C  21.35400 -8.72500 44.76300
C  18.74400 -6.57000 43.09800
C  18.89500 -9.61200 44.45400
O  17.81500 -9.49400 44.00200
C  19.00300 -10.80500 45.26000
N  24.30700 -9.17300 45.75600
C  23.34300 -10.09700 45.86500
C  23.94900 -11.40000 46.49900
C  25.29100 -10.93800 47.16300
C  25.48900 -9.58700 46.37100
C  22.98700 -12.10600 47.62000
C  26.43100 -11.97000 47.10600
C  27.47900 -11.81000 48.18800
N  26.03200 -6.80900 45.18100
C  26.97400 -7.60800 45.76600
C  28.26200 -6.91700 45.67700
C  28.04100 -5.74900 44.84000
C  26.68200 -5.75600 44.61200
C  29.60300 -7.32400 46.16500
C  28.71100 -4.63400 44.17300
O  29.91500 -4.35600 44.19300
C  27.57200 -3.89100 43.36800
C  27.61000 -2.44000 43.78100
O  27.48000 -1.52900 42.95400
O  27.89900 -2.27900 45.07300
C  27.82400 -0.97100 45.70700
H  20.76400 -4.87700 42.63900
H  21.31000 -10.67000 45.69100
H  27.52300 -9.37900 46.82800
H  24.92800 -2.30600 42.81400
H  22.51600 -3.34300 41.43900
H  21.35000 -1.90000 42.74800
H  22.90200 -1.30500 43.26000
H  22.05000 -2.56000 44.24200
H  24.27400 -3.95600 40.38100
H  25.82700 -4.28500 41.02800
H  26.60500 -2.48900 40.12600
H  25.34100 -1.40900 40.80000
H  17.94200 -7.12900 42.61600
H  19.05000 -5.79700 42.39300
H  18.21700 -6.14000 43.95000
H  19.31200 -10.40400 46.22500
H  19.66900 -11.56200 44.84600
H  18.01200 -11.22900 45.42200
H  24.14900 -11.98900 45.60400
H  25.13900 -10.64200 48.20100
H  23.37000 -12.13400 48.64100
H  22.87700 -13.14900 47.32600
H  21.97700 -11.69600 47.60600
H  26.80800 -11.95400 46.08400
H  26.03000 -12.97700 47.22700
H  28.43600 -11.82500 47.66800
H  27.51100 -12.68100 48.84300
H  27.42800 -10.87300 48.74200
H  30.43800 -7.11300 45.49700
H  29.60400 -8.39200 46.38100
H  29.71200 -6.85900 47.14600
H  27.72900 -3.99800 42.29500
H  26.91400 -0.43400 45.43800
H  28.77400 -0.46200 45.54500
H  28.00200 -1.13700 46.76900
Mg 15.87000 51.63000 24.75000
C  17.92200 50.56900 27.42300
C  13.52900 52.50700 26.98400
C  14.19900 52.62600 22.24300
C  18.46400 50.28200 22.59400
N  15.64600 51.31800 26.86500
C  16.69000 51.11200 27.75000
C  16.28000 51.49100 29.18000
C  14.72400 51.68000 29.07000
C  14.64200 51.91400 27.56000
C  13.90000 50.50600 29.53000
C  17.03500 52.67700 29.62800
C  16.90200 53.08500 31.15400
H  15.83600 52.26000 31.97800
N  14.01000 52.50300 24.59700
C  13.26700 52.80900 25.65800
C  12.05300 53.43900 25.15300
C  12.20200 53.47400 23.69600
C  13.52300 52.87100 23.47600
C  10.91100 53.98400 25.91200
C  11.27400 54.01700 22.60800
O  11.55000 54.05300 21.41600
C  9.93800 54.71600 22.97100
N  16.28500 51.43500 22.76700
C  15.40800 51.96700 21.87500
C  15.89800 52.01500 20.47300
C  17.15900 51.12200 20.52800
C  17.32600 50.89900 22.06300
C  14.81100 51.51500 19.43600
C  18.37300 51.75900 19.89200
C  19.31100 50.89000 18.94400
N  17.87500 50.66600 24.92700
C  18.78800 50.12500 23.97000
C  19.92900 49.60900 24.58400
C  19.61300 49.76500 26.02700
C  18.39100 50.39600 26.12200
C  21.06800 49.00500 23.80100
C  20.08400 49.42100 27.34800
O  21.10900 48.83200 27.76500
C  19.03300 50.05400 28.36100
C  18.61000 48.90900 29.29400
O  17.68800 48.14800 29.15500
O  19.44600 48.93000 30.34000
C  18.89100 48.39200 31.57900
H  12.67200 52.77800 27.60400
H  13.64300 52.98800 21.37600
H  19.16200 49.90200 21.84500
H  16.43200 50.69000 29.90300
H  14.27900 52.55600 29.54200
H  12.98100 50.93600 29.92800
H  14.34400 49.79000 30.22100
H  13.69900 49.84400 28.68800
H  16.76600 53.60200 29.11800
H  18.11800 52.56100 29.61500
H  16.62500 54.13900 31.19700
H  17.89500 53.01900 31.59800
H  10.86100 55.07200 25.87200
H  11.02500 53.71900 26.96300
H  9.98700 53.49700 25.59800
H  10.21800 55.60100 23.54200
H  9.27600 54.07500 23.55300
H  9.47700 54.97000 22.01600
H  16.09900 53.07700 20.33000
H  16.88700 50.14200 20.13600
H  14.10300 50.91100 20.00300
H  15.26200 51.02000 18.57600
H  14.37000 52.44200 19.06900
H  19.03500 51.98400 20.72800
H  18.05800 52.60000 19.27300
H  19.29500 51.16800 17.89000
H  18.96200 49.85700 18.92600
H  20.35100 50.92300 19.26900
H  20.92000 48.71900 22.76000
H  21.33400 48.15000 24.42300
H  21.86100 49.75300 23.79900
H  19.59300 50.76800 28.96400
H  18.27500 47.51600 31.37500
H  18.27600 49.15900 32.05000
H  19.74400 48.10200 32.19200

