158

Mg -1.24300 17.94700 27.35300
C  -2.21800 15.80400 30.08100
C  -1.53800 20.63200 29.31900
C  -0.95500 19.70500 24.56300
C  -1.46400 14.85000 25.34200
N  -1.85400 18.15300 29.41400
C  -2.05800 17.21200 30.40300
C  -2.37800 17.80600 31.76900
C  -2.31800 19.32900 31.39800
C  -1.82500 19.39700 29.99200
C  -3.68300 20.16100 31.74700
C  -1.27600 17.53700 32.87300
C  -1.71800 17.10000 34.20400
H  -0.61400 16.48100 35.14300
N  -1.16200 19.85800 27.01800
C  -1.27100 20.88000 27.96700
C  -1.04000 22.19600 27.31300
C  -0.91600 21.94300 25.93100
C  -0.97500 20.47600 25.76800
C  -1.20500 23.57700 27.98500
C  -0.82200 22.90000 24.68700
O  -0.87900 22.44500 23.52000
C  -0.67900 24.37800 24.89300
N  -1.53700 17.35100 25.23300
C  -1.17500 18.29500 24.33200
C  -0.90300 17.62300 22.91500
C  -0.88400 16.11600 23.27500
C  -1.33200 16.06500 24.74300
C  -1.80500 18.05700 21.75600
C  0.41800 15.34600 23.01100
C  1.68600 15.82900 23.77500
N  -1.79100 15.78200 27.59200
C  -1.68500 14.69800 26.73500
C  -2.00100 13.46000 27.40600
C  -2.26200 13.89100 28.73800
C  -2.15500 15.25300 28.80700
C  -2.07400 11.96800 26.81800
C  -2.70500 13.31600 30.03300
O  -3.00700 12.14900 30.34900
C  -2.67000 14.61600 30.91700
C  -1.66300 14.32700 32.01700
O  -0.46000 14.43700 31.82800
O  -2.22200 13.72000 33.10800
C  -1.27100 13.06000 34.08000
H  -1.71300 21.45100 30.02000
H  -0.82000 20.20700 23.60200
H  -1.63300 13.97400 24.71300
H  -3.33800 17.39100 32.07600
H  -1.64700 19.86400 32.07000
H  -3.90800 20.82000 30.90900
H  -3.44000 20.80500 32.59200
H  -4.48500 19.45100 31.95000
H  -0.78600 18.46200 33.17600
H  -0.42900 16.90900 32.59600
H  -2.40700 16.26800 34.05900
H  -2.29400 17.86100 34.73100
H  -1.86600 23.52400 28.85000
H  -1.72100 24.28200 27.33400
H  -0.25600 24.03100 28.27200
H  0.11800 24.38700 25.63600
H  -1.62200 24.77800 25.26500
H  -0.44300 24.84400 23.93600
H  0.07300 18.01000 22.62200
H  -1.64200 15.52400 22.76100
H  -2.86900 17.86400 21.88900
H  -1.61900 17.39100 20.91300
H  -1.57300 19.07900 21.45700
H  0.59600 15.43100 21.93900
H  0.22900 14.27900 23.12000
H  2.12300 14.84700 23.95800
H  1.44700 16.38900 24.67900
H  2.29800 16.35000 23.03800
H  -1.31200 11.35000 27.29300
H  -1.87500 11.99900 25.74700
H  -3.02600 11.53900 27.13000
H  -3.58300 14.77900 31.48900
H  -1.91300 13.07800 34.96100
H  -0.29200 13.49800 34.27600
H  -1.15100 12.02100 33.77500
Mg -0.21800 7.52400 26.92500
C  0.73400 9.48600 29.75000
C  -0.84500 4.96100 28.98900
C  -0.65700 5.56900 24.15700
C  0.69800 10.17700 24.83200
N  0.01000 7.26600 29.15200
C  0.26500 8.21400 30.10200
C  -0.09900 7.73300 31.54600
C  -0.41000 6.21000 31.27900
C  -0.37700 6.05700 29.69800
C  0.71800 5.24200 31.82900
C  -1.30600 8.41600 32.31400
C  -1.19800 8.61100 33.83000
H  -0.40900 7.61300 34.72100
N  -0.73800 5.49100 26.64200
C  -1.06000 4.57500 27.64000
C  -1.52500 3.33000 27.05000
C  -1.46700 3.47800 25.63800
C  -0.92000 4.87100 25.43000
C  -1.75700 2.12400 27.94400
C  -1.92700 2.51900 24.61700
O  -1.79700 2.79300 23.38900
C  -2.42400 1.10400 24.89700
N  -0.00000 7.85400 24.77900
C  -0.25000 6.88800 23.86500
C  -0.04700 7.52400 22.38200
C  -0.07600 9.09200 22.63300
C  0.22200 9.06700 24.17900
C  1.19200 6.93700 21.75600
C  -1.41100 9.80100 22.34300
C  -1.39100 11.22200 21.75500
N  0.69800 9.42800 27.15700
C  0.92600 10.43800 26.19000
C  1.42300 11.59500 26.95500
C  1.37300 11.34200 28.33900
C  0.92800 9.96400 28.40800
C  1.85600 12.86200 26.26000
C  1.61700 11.81800 29.76400
O  2.01700 12.84000 30.25800
C  0.95400 10.69100 30.67800
C  1.87400 10.51100 31.81300
O  2.87300 9.80700 31.83100
O  1.54300 11.42800 32.80200
C  2.28600 11.18400 34.05500
H  -1.02200 4.05200 29.56900
H  -0.83900 4.99200 23.24900
H  0.90500 11.08900 24.26800
H  0.87400 7.71900 32.03600
H  -1.34200 5.94600 31.77900
H  1.53500 5.82100 32.25900
H  1.09500 4.67800 30.97600
H  0.28600 4.55800 32.55900
H  -2.19600 7.81500 32.12500
H  -1.46700 9.35900 31.79100
H  -2.19700 8.67400 34.26100
H  -0.70800 9.56300 34.03200
H  -2.73400 1.78100 27.60400
H  -1.92000 2.31800 29.00400
H  -1.06300 1.28900 27.84800
H  -2.78700 0.57700 24.01400
H  -3.29000 1.27200 25.53900
H  -1.67400 0.53500 25.44600
H  -0.99900 7.19100 21.96700
H  0.73500 9.52400 22.04700
H  1.05500 6.38000 20.82900
H  1.65500 6.17600 22.38500
H  1.92300 7.68500 21.45200
H  -1.87800 9.95900 23.31500
H  -2.08100 9.10400 21.83900
H  -1.64200 11.28300 20.69600
H  -0.43200 11.73100 21.85500
H  -1.94200 11.87600 22.43100
H  2.42500 12.55800 25.38200
H  2.54500 13.32900 26.96300
H  0.98100 13.48800 26.08200
H  0.02700 11.15600 31.01200
H  3.00400 10.36400 34.09700
H  1.68300 11.18500 34.96300
H  2.72600 12.18100 34.02000

