158

Mg 9.51500 4.57700 28.17300
C  10.85800 3.20200 31.07800
C  7.54600 6.64400 30.08500
C  8.25800 5.81600 25.40100
C  11.22200 2.05000 26.38600
N  9.25200 4.85400 30.34200
C  9.96100 4.25700 31.33500
C  9.61200 4.85300 32.69000
C  8.44300 5.92300 32.37400
C  8.39500 5.85500 30.85100
C  7.07400 5.58100 33.00400
C  10.91400 5.43500 33.38400
C  11.52700 4.70900 34.60300
H  11.86200 5.59700 35.80900
N  8.03900 6.07100 27.76900
C  7.48200 6.82800 28.68900
C  6.81100 7.97500 27.99900
C  6.94900 7.73400 26.58900
C  7.80100 6.49800 26.53300
C  5.89600 8.96800 28.68200
C  6.35200 8.35300 25.38800
O  6.48100 7.88400 24.25500
C  5.62100 9.63400 25.50100
N  9.72500 4.00300 26.19100
C  9.06000 4.71600 25.24400
C  9.47100 4.21500 23.81800
C  10.27100 2.87700 24.10300
C  10.44100 2.99500 25.63400
C  8.38000 3.97900 22.77600
C  11.58700 2.75400 23.29000
C  11.69100 1.68300 22.24300
N  10.66900 2.92300 28.60300
C  11.29400 1.98100 27.79800
C  12.09100 1.08800 28.61000
C  11.95100 1.51400 29.94000
C  11.07300 2.62300 29.81500
C  12.88300 -0.02700 28.07300
C  12.29500 1.30800 31.25400
O  12.98800 0.40300 31.68900
C  11.52700 2.30700 32.09300
C  10.55800 1.59600 32.98500
O  9.36500 1.38200 32.75500
O  11.18400 1.20000 34.16400
C  10.36900 0.47600 35.12200
H  6.90700 7.25900 30.72100
H  8.06200 6.36100 24.47500
H  11.72000 1.29300 25.77600
H  9.34900 3.99900 33.31300
H  8.80000 6.84900 32.82400
H  6.83800 6.37200 33.71600
H  7.13200 4.64800 33.56400
H  6.34600 5.51200 32.19500
H  10.54700 6.34900 33.85200
H  11.67300 5.69000 32.64400
H  12.42500 4.17200 34.29900
H  10.86400 3.91100 34.93700
H  6.27600 9.98400 28.58200
H  5.83600 8.66400 29.72700
H  4.90700 8.98000 28.22400
H  4.70000 9.33400 26.00200
H  5.46400 10.07300 24.51600
H  6.32900 10.21100 26.09500
H  10.13300 4.96100 23.37900
H  9.60800 2.01500 24.02700
H  7.47500 4.42200 23.19000
H  8.29600 2.91600 22.55100
H  8.64600 4.51000 21.86200
H  12.48200 2.65400 23.90400
H  11.81000 3.71600 22.82800
H  10.67700 1.42100 21.94300
H  12.18900 0.84700 22.73300
H  12.24000 2.16600 21.43500
H  13.39100 0.48300 27.25500
H  12.21100 -0.85300 27.84200
H  13.57100 -0.33800 28.85800
H  12.20900 2.80800 32.78000
H  10.36500 1.03300 36.05900
H  10.81200 -0.43500 35.52600
H  9.36500 0.17600 34.82200
Mg 47.29900 24.67600 27.67000
C  48.01000 26.97900 30.26800
C  46.58000 22.34300 30.14500
C  46.96800 22.20700 25.31300
C  48.42900 26.89300 25.45600
N  47.32600 24.69900 29.95600
C  47.48000 25.76200 30.78600
C  47.10400 25.50300 32.27000
C  46.99000 23.91900 32.21800
C  46.97000 23.62200 30.69900
C  47.90000 23.12100 33.08300
C  45.79300 26.21100 32.78800
C  45.97700 27.39300 33.78600
H  46.80400 26.97500 34.99900
N  46.71900 22.60300 27.76600
C  46.52500 21.85300 28.88800
C  46.19500 20.55000 28.53200
C  46.20500 20.42800 27.15800
C  46.58300 21.81500 26.66600
C  45.91000 19.45600 29.59400
C  45.86100 19.21100 26.28000
O  45.99200 19.22900 25.07000
C  45.23800 17.94000 26.88500
N  47.70000 24.48400 25.62200
C  47.41100 23.41300 24.87700
C  47.67800 23.80100 23.40100
C  47.97900 25.36400 23.47900
C  48.07100 25.57400 24.91000
C  48.77200 23.00800 22.59700
C  46.92100 26.35000 22.73500
C  45.62000 26.69500 23.55300
N  48.18700 26.49200 27.78400
C  48.55800 27.28900 26.77300
C  49.07700 28.54500 27.21500
C  48.87200 28.46100 28.55800
C  48.30500 27.21500 28.90700
C  49.70400 29.55700 26.29000
C  49.08500 29.19000 29.79600
O  49.62300 30.29200 29.96000
C  48.40100 28.31800 30.95000
C  49.46400 28.24600 32.02300
O  50.29400 27.35800 32.08300
O  49.25500 29.22400 32.86000
C  50.13000 29.25000 34.04100
H  46.35400 21.70800 31.00500
H  46.93000 21.39700 24.58100
H  48.78200 27.67100 24.77500
H  47.99500 25.88300 32.76900
H  45.93200 23.71100 32.37700
H  48.60700 22.47800 32.55900
H  47.33000 22.50300 33.77700
H  48.46200 23.87100 33.64000
H  45.13200 25.51300 33.30300
H  45.19100 26.56900 31.95300
H  45.01800 27.72100 34.18700
H  46.39000 28.24600 33.24700
H  46.36700 18.51100 29.30200
H  44.89400 19.32500 29.96600
H  46.38800 19.73400 30.53300
H  45.96700 17.44700 27.52800
H  45.00300 17.20600 26.11400
H  44.36000 18.27200 27.44000
H  46.78100 23.73200 22.78500
H  48.95500 25.72300 23.15100
H  49.64000 23.64900 22.43900
H  48.45300 22.77100 21.58200
H  49.06200 22.12100 23.16100
H  46.63700 25.85200 21.80700
H  47.36700 27.32800 22.55500
H  45.70300 27.76100 23.76100
H  45.55200 25.98000 24.37300
H  44.77500 26.57600 22.87400
H  50.39900 30.15100 26.88400
H  49.03400 30.17700 25.69400
H  50.39000 29.15100 25.54600
H  47.52100 28.84900 31.31300
H  51.04900 29.65400 33.61600
H  50.46500 28.31300 34.48600
H  49.61400 29.83600 34.80200

