158

Mg 15.86300 52.52800 25.36600
C  17.86200 51.24300 28.10100
C  13.57900 53.50000 27.56500
C  14.15800 53.47800 22.75000
C  18.38100 51.07000 23.23300
N  15.79200 52.41800 27.66200
C  16.73300 51.90600 28.60800
C  16.31200 52.11900 30.01000
C  14.84300 52.70700 29.79600
C  14.70600 52.92100 28.23700
C  13.71000 51.82500 30.38400
C  17.30000 53.16600 30.60700
C  16.84300 53.77900 31.96100
H  15.92700 53.01400 32.91700
N  14.10500 53.36200 25.21000
C  13.26200 53.74400 26.22000
C  12.07400 54.40200 25.66400
C  12.23900 54.40600 24.19600
C  13.52700 53.73600 23.98800
C  11.06700 55.05400 26.59200
C  11.37900 54.92300 23.11900
O  11.66800 54.78700 21.95100
C  10.07500 55.59800 23.52800
N  16.26900 52.31400 23.23900
C  15.35000 52.80600 22.41600
C  15.77300 52.61100 20.89000
C  17.29400 52.15700 21.09400
C  17.35600 51.75800 22.56200
C  14.97500 51.72700 20.06800
C  18.27700 53.36100 20.95600
C  19.13500 53.25900 19.64200
N  17.70700 51.40200 25.57700
C  18.57200 50.93600 24.60400
C  19.66800 50.33900 25.23200
C  19.44100 50.48300 26.60200
C  18.25800 51.15400 26.73700
C  20.94800 49.66400 24.62000
C  19.97500 50.07300 27.88400
O  20.91900 49.30800 28.16000
C  19.03600 50.76100 28.92800
C  18.53300 49.72100 29.89100
O  17.85600 48.74500 29.69300
O  18.98600 49.92500 31.16400
C  18.20300 49.12000 32.15800
H  12.79700 53.79900 28.26600
H  13.67500 53.73200 21.80400
H  19.14900 50.71900 22.54000
H  16.20200 51.15000 30.49700
H  14.63900 53.69100 30.21900
H  14.01100 50.98100 31.00400
H  13.04900 51.37000 29.64600
H  12.99200 52.43100 30.93800
H  17.33500 54.00600 29.91300
H  18.28800 52.77800 30.85200
H  16.38600 54.75300 31.78700
H  17.70100 53.93000 32.61600
H  10.05800 54.71900 26.35300
H  11.04600 56.13800 26.48400
H  11.21700 54.95100 27.66700
H  9.35000 54.85700 23.86500
H  9.59500 56.14400 22.71600
H  10.24600 56.30700 24.33800
H  15.82300 53.59500 20.42300
H  17.59000 51.28300 20.51400
H  14.41200 51.03600 20.69600
H  15.63400 51.19600 19.38100
H  14.34400 52.28100 19.37200
H  19.01700 53.39000 21.75500
H  17.85300 54.36500 20.96200
H  18.60900 52.59000 18.96100
H  20.17000 52.93000 19.73500
H  19.10000 54.26900 19.23300
H  21.71600 49.56200 25.38700
H  21.34600 50.31100 23.83700
H  20.70500 48.66600 24.25600
H  19.53800 51.52700 29.51900
H  18.66800 49.32400 33.12300
H  18.25000 48.08800 31.81000
H  17.17600 49.47900 32.22000
Mg -0.27900 44.05600 24.99200
C  1.74200 43.81000 27.73800
C  -3.03600 43.26400 27.02000
C  -2.30200 43.94900 22.24400
C  2.49100 44.46800 22.94900
N  -0.58300 43.63000 27.14500
C  0.38900 43.60900 28.14700
C  -0.22200 43.34800 29.50500
C  -1.72800 42.96300 29.13800
C  -1.74200 43.33900 27.66500
C  -2.23000 41.48100 29.47200
C  0.05600 44.47200 30.52500
C  0.36500 44.01500 31.98000
H  -0.18400 42.72600 32.46800
N  -2.37900 43.76700 24.69200
C  -3.34500 43.46400 25.64100
C  -4.69100 43.47300 24.98100
C  -4.48800 43.74400 23.57300
C  -2.98400 43.84100 23.43200
C  -5.96100 43.23200 25.80300
C  -5.50500 43.95300 22.54800
O  -5.23900 44.19000 21.37700
C  -7.04200 43.88700 22.92700
N  0.02500 44.35000 22.86200
C  -0.94800 44.06300 21.97800
C  -0.37000 43.94500 20.59300
C  1.12400 44.42600 20.78200
C  1.29100 44.48300 22.29500
C  -0.51900 42.43000 20.17100
C  1.41500 45.75800 20.04400
C  0.95200 46.99500 20.88500
N  1.66800 44.08400 25.21000
C  2.68100 44.27200 24.30500
C  3.97000 44.10200 24.99800
C  3.63200 43.91100 26.32200
C  2.20500 43.98800 26.39800
C  5.31500 44.04200 24.36500
C  4.23100 43.71600 27.59300
O  5.38900 43.54500 28.02400
C  3.01700 43.71600 28.54200
C  3.14900 42.51900 29.37400
O  2.82900 41.36700 29.07000
O  3.57500 42.89300 30.63000
C  3.70200 41.97500 31.74900
H  -3.80700 42.97800 27.73900
H  -2.91500 43.90400 21.34200
H  3.33000 44.55700 22.25600
H  0.31100 42.47500 29.88200
H  -2.46100 43.53300 29.71000
H  -2.73600 41.09800 28.58600
H  -2.82000 41.40300 30.38600
H  -1.40400 40.85300 29.80300
H  -0.82900 45.10800 30.56600
H  0.87900 45.11100 30.20500
H  0.05900 44.88500 32.56100
H  1.45400 44.04200 32.01200
H  -6.36200 42.27600 25.46800
H  -6.60200 44.10000 25.65500
H  -5.77500 43.21300 26.87700
H  -7.27800 44.72300 23.58600
H  -7.35100 42.96600 23.42000
H  -7.67900 44.02800 22.05400
H  -0.86700 44.56400 19.84600
H  1.84000 43.75900 20.30200
H  0.46800 41.97600 20.07800
H  -0.94900 42.23200 19.18900
H  -1.16500 41.83000 20.81100
H  0.87100 45.74700 19.10000
H  2.47700 45.81800 19.80400
H  0.37700 46.72600 21.77100
H  0.30100 47.60000 20.25300
H  1.71100 47.74900 21.09200
H  5.27900 43.51000 23.41500
H  6.01400 43.52600 25.02200
H  5.72900 45.04900 24.31400
H  3.11800 44.61000 29.15700
H  4.72200 41.92900 32.12900
H  3.23600 41.03700 31.44400
H  3.15600 42.38700 32.59800

