158

Mg 16.70000 -1.67400 28.30300
C  15.63300 0.20300 30.96200
C  18.86400 -3.46600 30.39400
C  18.04600 -3.24200 25.66000
C  14.89300 0.34600 26.13800
N  17.13600 -1.60200 30.46300
C  16.59900 -0.78500 31.40900
C  17.16400 -1.05100 32.83600
C  18.32300 -2.16500 32.56900
C  18.14700 -2.42600 31.04400
C  19.78700 -1.76600 32.98600
C  16.10600 -1.52400 33.83200
C  16.44600 -1.36100 35.28800
H  17.52400 -0.33700 35.69100
N  18.26100 -3.14400 28.07500
C  18.97300 -3.80100 29.04000
C  19.72900 -4.90000 28.48100
C  19.51900 -4.84900 27.10200
C  18.62300 -3.67600 26.87400
C  20.50400 -5.88000 29.25400
C  20.05400 -5.72600 25.91100
O  19.61200 -5.71100 24.77600
C  20.94200 -6.75800 26.27800
N  16.45900 -1.45700 26.17900
C  17.16500 -2.21500 25.34200
C  16.81800 -1.81800 23.87500
C  15.73700 -0.69200 23.99700
C  15.72200 -0.58800 25.47800
C  18.00400 -1.42600 22.90200
C  14.35500 -1.24000 23.47900
C  13.58500 -0.26700 22.57700
N  15.47300 -0.10500 28.47900
C  14.80800 0.64000 27.49500
C  14.05000 1.66600 28.17500
C  14.36700 1.58000 29.55700
C  15.21700 0.48200 29.66800
C  13.15600 2.65300 27.46200
C  14.10500 2.14000 30.87700
O  13.40000 3.07500 31.19000
C  14.97300 1.22400 31.87900
C  15.80500 2.13500 32.69400
O  16.95500 2.43800 32.53100
O  15.01600 2.69000 33.70400
C  15.67100 3.60100 34.65300
H  19.61700 -3.91800 31.04200
H  18.50400 -3.61100 24.73900
H  14.29200 1.01900 25.52300
H  17.64400 -0.09100 33.02900
H  18.08400 -3.15200 32.96500
H  19.68100 -0.83600 33.54500
H  20.44900 -1.50800 32.16000
H  20.35500 -2.46400 33.60300
H  15.94500 -2.58200 33.62700
H  15.21900 -0.93600 33.59800
H  16.61000 -2.33500 35.74900
H  15.56900 -1.07400 35.86800
H  20.41900 -5.74900 30.33200
H  21.54600 -5.99600 28.95700
H  20.11800 -6.89800 29.20500
H  21.85500 -6.45900 26.79400
H  21.16100 -7.31600 25.36800
H  20.44600 -7.41500 26.99200
H  16.38700 -2.70600 23.41200
H  16.09700 0.26400 23.61800
H  18.20300 -2.31300 22.30000
H  18.84800 -1.14500 23.53200
H  17.67900 -0.59000 22.28300
H  13.79900 -1.71100 24.28900
H  14.48900 -2.07400 22.79000
H  14.23600 0.57900 22.35600
H  12.72400 0.22200 23.03400
H  13.29000 -0.77900 21.66100
H  12.72300 2.05800 26.65800
H  13.71300 3.58100 27.33500
H  12.41400 2.91600 28.21600
H  14.20800 0.75700 32.50000
H  15.67100 4.61700 34.25800
H  16.65400 3.31100 35.02200
H  15.00000 3.51900 35.50800
Mg 43.96400 5.11900 47.06700
C  42.04100 8.08200 46.78200
C  41.02200 3.38700 46.56100
C  45.88700 2.39100 46.56100
C  46.90100 7.06700 46.74800
N  41.77200 5.65800 46.77400
C  41.25200 6.90700 46.63500
C  39.75000 6.81500 46.42200
C  39.43100 5.36100 46.83900
C  40.81000 4.74300 46.72100
C  38.79000 5.09700 48.23900
C  39.42700 7.09300 44.93200
C  38.75900 8.42200 44.58300
H  39.29600 9.30100 43.41400
N  43.49100 3.17300 46.77200
C  42.27900 2.63000 46.61700
C  42.38600 1.18400 46.40700
C  43.73300 0.88100 46.68300
C  44.51000 2.19300 46.58800
C  41.28000 0.29900 46.16100
C  44.30100 -0.53100 47.11800
O  43.61600 -1.53800 47.13500
C  45.70800 -0.58000 47.36900
N  46.11500 4.81400 46.52900
C  46.63300 3.52700 46.49800
C  48.21400 3.58000 46.44500
C  48.50000 5.11700 46.45400
C  47.06600 5.67800 46.55800
C  48.92300 2.89500 47.60700
C  49.36200 5.57700 45.24900
C  50.61300 6.33800 45.50400
N  44.49000 7.19400 46.84700
C  45.71400 7.83800 46.86900
C  45.46700 9.28100 46.92300
C  44.02100 9.44800 46.99400
C  43.49800 8.13000 46.90800
C  46.52200 10.37900 46.77300
C  42.91100 10.38200 47.03500
O  42.83500 11.59400 47.14800
C  41.63600 9.54100 46.76200
C  40.71800 9.84200 47.90900
O  40.79400 9.51700 49.12100
O  39.94100 10.78500 47.49800
C  39.09300 11.38300 48.51900
H  40.19000 2.71000 46.35300
H  46.48300 1.48400 46.43900
H  47.88700 7.53600 46.76900
H  39.17200 7.48000 47.06400
H  38.79200 4.85000 46.12000
H  39.36500 4.52900 48.97000
H  37.83700 4.61500 48.02300
H  38.74800 6.10200 48.66000
H  38.84100 6.29300 44.48000
H  40.37800 7.14200 44.40200
H  38.71000 9.05700 45.46800
H  37.74700 8.06600 44.39200
H  40.56900 0.48200 46.96700
H  41.54300 -0.75700 46.09200
H  40.75300 0.63300 45.26700
H  46.26600 -0.65800 46.43600
H  45.98000 -1.46500 47.94400
H  45.99500 0.27700 47.97800
H  48.43000 3.17100 45.45800
H  48.92000 5.44600 47.40400
H  49.31100 1.90300 47.37800
H  48.34600 2.84800 48.53100
H  49.81400 3.47200 47.85500
H  48.74100 6.28100 44.69500
H  49.67800 4.70700 44.67300
H  51.41500 6.08700 44.81100
H  50.89400 6.20700 46.54900
H  50.40600 7.39400 45.32900
H  46.17600 11.28800 46.28000
H  47.33900 9.90200 46.23200
H  46.95200 10.48000 47.76900
H  41.28700 9.96700 45.82200
H  38.83800 12.41500 48.27700
H  39.71200 11.46900 49.41200
H  38.21400 10.76200 48.68900

