158

Mg 55.81600 24.94900 44.52600
C  53.25200 26.83800 43.09200
C  54.67900 22.08800 42.88000
C  58.72900 23.45000 45.24200
C  57.16600 27.90900 45.82000
N  54.20400 24.50500 43.06800
C  53.24300 25.45100 42.61400
C  52.30100 24.75500 41.60700
C  52.61900 23.24200 41.90000
C  53.89800 23.24100 42.62600
C  51.52600 22.50900 42.82900
C  52.60100 25.20500 40.12500
C  51.52900 24.84300 39.11200
H  51.94300 24.02900 37.85700
N  56.54300 23.01400 44.25700
C  55.84100 21.94400 43.67000
C  56.69000 20.76600 43.85200
C  57.81200 21.19900 44.57700
C  57.77800 22.63100 44.67600
C  56.24600 19.32800 43.45300
C  58.92300 20.31600 45.18900
O  58.88700 19.09400 45.02300
C  60.03500 20.80500 45.93300
N  57.76100 25.62500 45.30500
C  58.77500 24.74600 45.53400
C  59.91600 25.39000 46.32500
C  59.45100 26.88900 46.32100
C  58.02800 26.82800 45.79500
C  60.24800 24.73200 47.61600
C  60.36200 27.87000 45.44100
C  60.60000 29.19200 46.11000
N  55.37700 27.04000 44.53000
C  55.88400 28.06700 45.23400
C  55.00700 29.19400 45.11500
C  53.99200 28.81900 44.25200
C  54.28100 27.50000 43.88100
C  55.23700 30.45900 45.88600
C  52.76700 29.24200 43.68500
O  52.20300 30.31900 43.89700
C  52.15300 27.96500 42.94100
C  51.96800 28.34000 41.56200
O  52.73200 29.04600 40.94900
O  50.80300 27.79200 40.98300
C  50.34900 28.27600 39.68700
H  54.23100 21.21300 42.40500
H  59.74800 23.08100 45.37900
H  57.61000 28.75200 46.35300
H  51.26100 24.92000 41.88900
H  52.69800 22.60700 41.01700
H  50.64400 23.14500 42.76200
H  51.81200 22.49700 43.88100
H  51.41100 21.45500 42.57600
H  53.54200 24.74600 39.82500
H  52.69800 26.27000 39.91600
H  51.15300 25.79800 38.74600
H  50.66400 24.33800 39.54100
H  57.09300 18.77700 43.04400
H  55.57600 19.51600 42.61400
H  55.93200 18.73300 44.31000
H  60.32100 20.06900 46.68400
H  59.76100 21.63300 46.58600
H  60.83800 21.13600 45.27400
H  60.85000 25.37300 45.76400
H  59.38800 27.28600 47.33400
H  60.67200 25.48500 48.28100
H  61.07000 24.04600 47.41500
H  59.33000 24.31500 48.02900
H  59.74600 28.18500 44.59900
H  61.24700 27.37700 45.03800
H  61.67700 29.30800 46.22500
H  60.08600 29.31000 47.06400
H  60.13400 29.96700 45.50100
H  55.86100 30.18800 46.73700
H  54.29500 30.95000 46.13000
H  55.77000 31.07900 45.16500
H  51.13400 27.75900 43.26800
H  51.12800 28.52000 38.96500
H  49.64400 29.06600 39.94500
H  49.78300 27.45900 39.24000
Mg 9.94800 47.97500 25.63700
C  7.85400 48.43000 28.51300
C  12.46100 49.22600 27.37400
C  11.73300 47.58200 22.86400
C  6.88300 47.93000 23.67700
N  10.03200 48.82900 27.63800
C  9.20700 48.72300 28.71800
C  9.90700 49.05600 30.03200
C  11.27300 49.69800 29.59900
C  11.25900 49.25900 28.08300
C  11.27400 51.22900 29.62100
C  10.09500 47.88000 30.97800
C  10.45700 48.16400 32.46100
H  9.81600 47.33000 33.68900
N  11.94700 48.22100 25.21100
C  12.83200 48.81400 26.04700
C  14.12500 48.65500 25.51000
C  13.97800 48.18400 24.19400
C  12.52100 47.98600 24.01200
C  15.34700 48.83300 26.29900
C  14.96200 47.83400 23.13600
O  14.58000 47.54500 22.01200
C  16.41800 47.92400 23.33500
N  9.35900 47.84300 23.56900
C  10.29500 47.49700 22.61900
C  9.57900 46.97400 21.38100
C  8.15100 47.60400 21.50700
C  8.09900 47.78000 23.00900
C  10.14900 47.33800 19.97200
C  7.06100 46.69400 20.92200
C  6.02100 47.49900 20.08000
N  7.77000 48.13200 25.97800
C  6.71500 48.04100 25.09500
C  5.43300 47.95900 25.85700
C  5.88100 48.09700 27.16500
C  7.26400 48.17100 27.20300
C  4.04300 47.77200 25.30100
C  5.39300 48.16500 28.52000
O  4.22700 48.05500 28.89000
C  6.65100 48.42600 29.42800
C  6.52400 47.36400 30.40600
O  7.06400 46.28100 30.40600
O  5.77400 47.84400 31.46700
C  5.56100 47.00100 32.67800
H  13.31000 49.61800 27.93800
H  12.27000 47.28300 21.96100
H  5.99100 47.91800 23.04800
H  9.28200 49.79700 30.53100
H  12.12400 49.25300 30.11300
H  10.62200 51.47000 30.46000
H  10.81500 51.57300 28.69400
H  12.28300 51.62600 29.72700
H  10.76200 47.18300 30.47000
H  9.23700 47.21700 31.08500
H  10.10100 49.16900 32.69000
H  11.54000 48.04700 32.51700
H  15.15800 49.11400 27.33500
H  15.96500 49.61600 25.86000
H  15.94500 47.93400 26.44300
H  16.67800 48.50300 24.22100
H  16.94800 48.41100 22.51600
H  16.79600 46.90400 23.39100
H  9.47100 45.89200 21.45000
H  8.19600 48.58900 21.04300
H  10.89900 48.11100 20.14300
H  9.52200 47.85100 19.24200
H  10.71900 46.54700 19.48400
H  6.65000 46.08900 21.73000
H  7.45700 45.88100 20.31500
H  6.41500 48.48400 19.82900
H  5.12100 47.50200 20.69600
H  5.84200 47.01600 19.12000
H  3.33400 48.32700 25.91600
H  3.93900 46.68900 25.36800
H  3.76000 48.18100 24.33100
H  6.53800 49.36600 29.96800
H  4.89800 46.13700 32.62800
H  5.22200 47.72500 33.41900
H  6.53100 46.57000 32.92800

