158

Mg 47.12900 25.58700 28.04700
C  48.20500 27.42000 30.81100
C  46.15300 23.02000 30.20500
C  45.98900 23.90600 25.42300
C  48.48900 28.08000 25.98200
N  47.18000 25.30700 30.25000
C  47.67000 26.15900 31.16000
C  47.43900 25.71800 32.59800
C  47.02300 24.23800 32.37500
C  46.73600 24.16800 30.87600
C  48.03300 23.22200 32.93200
C  46.42100 26.60700 33.36600
C  46.93800 27.32600 34.62800
H  46.02100 27.38800 35.87300
N  46.29100 23.65600 27.83100
C  45.93600 22.75800 28.81900
C  45.19700 21.66600 28.16600
C  45.25100 21.84900 26.76000
C  45.93000 23.18000 26.59800
C  44.64200 20.58700 28.95000
C  44.69800 20.94400 25.60000
O  44.96000 21.21600 24.44900
C  43.81600 19.79900 25.92300
N  47.42600 25.82400 26.01500
C  46.82700 24.97100 25.10700
C  46.99200 25.49100 23.69000
C  47.70900 26.78600 23.89000
C  47.82000 26.96400 25.42500
C  47.53400 24.65700 22.55600
C  47.06200 27.95000 23.10000
C  48.03700 28.71200 22.19100
N  48.04900 27.43200 28.29600
C  48.62400 28.38800 27.31900
C  49.25200 29.47300 28.07000
C  49.11500 29.07100 29.38900
C  48.32900 27.90300 29.46800
C  49.91800 30.54600 27.38800
C  49.46000 29.44600 30.69600
O  50.05100 30.45700 31.14300
C  48.80100 28.52000 31.65200
C  49.86300 27.98200 32.43700
O  50.58300 27.06800 32.16500
O  49.94600 28.61000 33.67800
C  51.01400 28.14400 34.53200
H  45.68200 22.30000 30.87800
H  45.47300 23.44500 24.57800
H  48.83900 28.90700 25.36000
H  48.42100 25.82400 33.05900
H  46.09100 24.13200 32.93100
H  48.59700 22.76700 32.11800
H  47.61300 22.40600 33.52100
H  48.74200 23.60900 33.66400
H  45.45500 26.16400 33.61000
H  46.14900 27.43300 32.71000
H  47.13900 28.36600 34.37200
H  47.85000 26.84100 34.97500
H  45.13600 19.69100 28.57400
H  43.56800 20.45300 28.82200
H  44.93100 20.68200 29.99700
H  44.34800 19.00900 26.45300
H  43.53800 19.31900 24.98500
H  42.86900 20.05500 26.39900
H  45.94400 25.64400 23.43500
H  48.73000 26.75500 23.51100
H  47.80700 23.66600 22.91800
H  48.46200 25.10800 22.20500
H  46.84400 24.66200 21.71200
H  46.60300 28.74900 23.68200
H  46.23000 27.58900 22.49500
H  47.52000 29.04700 21.29300
H  48.80600 28.08600 21.73800
H  48.50300 29.55700 22.69800
H  49.42400 30.74300 26.43700
H  50.95900 30.28000 27.20800
H  49.76200 31.47600 27.93600
H  48.13700 29.14400 32.25100
H  52.00100 28.35300 34.12000
H  50.87800 27.06900 34.65000
H  50.93500 28.54000 35.54400
Mg 29.92900 57.74100 41.07500
C  27.09500 55.77300 40.14300
C  31.89000 55.26600 39.55200
C  32.46100 59.84700 41.38000
C  27.66300 60.34500 41.93100
N  29.57000 55.69400 40.05500
C  28.31200 55.09100 39.81400
C  28.45500 53.71400 39.21300
C  29.96800 53.63100 38.93300
C  30.52700 54.87200 39.60300
C  30.60400 52.21900 39.23200
C  27.53200 53.52900 37.90100
C  27.40900 54.79200 36.95200
H  27.73700 54.68300 35.47600
N  31.88300 57.52500 40.70200
C  32.50500 56.47600 40.07100
C  33.97300 56.75600 40.03300
C  34.14700 58.01000 40.59800
C  32.76500 58.55200 40.87900
C  34.91700 55.68800 39.60300
C  35.48700 58.68700 40.83100
O  36.51900 58.06800 40.57600
C  35.68800 60.13700 41.23800
N  30.03900 59.81800 41.56800
C  31.20600 60.40100 41.70700
C  31.04000 61.89700 41.82900
C  29.57300 62.05500 42.26100
C  29.02100 60.64300 41.87400
C  32.02100 62.70200 42.69800
C  28.88000 63.36700 41.63600
C  27.97600 64.22100 42.58800
N  27.82700 58.01600 41.07700
C  27.06100 59.12200 41.49900
C  25.66600 58.80900 41.25400
C  25.66500 57.45900 40.89000
C  26.98800 57.06000 40.72700
C  24.47900 59.71200 41.36700
C  24.76200 56.46600 40.46100
O  23.52100 56.45000 40.44400
C  25.64900 55.25900 39.94400
C  25.38200 54.15700 40.84600
O  25.73000 54.15500 42.03900
O  24.82000 53.08800 40.23300
C  24.57900 51.88100 41.07800
H  32.59800 54.57700 39.08600
H  33.30800 60.53600 41.34900
H  27.00700 61.20200 42.09700
H  28.19200 53.02000 40.01100
H  30.07000 53.71200 37.85100
H  30.19800 51.56600 38.45900
H  30.22800 51.80400 40.16800
H  31.68900 52.30100 39.18000
H  26.52000 53.29200 38.22700
H  27.87000 52.72400 37.24900
H  28.22300 55.42500 37.30400
H  26.49200 55.38200 36.93700
H  35.96900 55.97500 39.58500
H  34.66800 55.25800 38.63200
H  34.81800 54.87600 40.32300
H  35.36700 60.73600 40.38600
H  36.75200 60.37000 41.27800
H  35.17200 60.35600 42.17200
H  31.21600 62.31000 40.83600
H  29.67600 62.07800 43.34600
H  32.29100 63.65800 42.24900
H  32.97100 62.18100 42.81400
H  31.72600 62.86000 43.73500
H  28.21500 63.12200 40.80800
H  29.69200 63.97300 41.23400
H  27.02100 64.42800 42.10400
H  28.51200 65.14300 42.81000
H  27.70900 63.69500 43.50400
H  24.23500 60.13300 40.39200
H  24.66100 60.48300 42.11600
H  23.65700 59.05100 41.64200
H  25.46400 55.07700 38.88500
H  25.29200 51.07100 40.92300
H  23.58800 51.47000 40.88500
H  24.61900 52.01600 42.15900

