158

Mg 2.08200 -1.04700 43.98800
C  5.49800 -0.45400 43.71000
C  1.41600 1.94300 42.75000
C  -1.25000 -2.07200 43.69300
C  2.75700 -4.37300 44.95400
N  3.29600 0.50100 43.21900
C  4.68200 0.56600 43.17100
C  5.17900 1.84500 42.60000
C  3.86300 2.69600 42.61500
C  2.80400 1.67000 42.82700
C  3.87900 3.87700 43.65000
C  5.85600 1.53500 41.21800
C  7.09700 2.39500 40.83400
H  7.11000 2.73000 39.30800
N  0.29300 -0.11500 43.43600
C  0.25300 1.11400 42.88000
C  -1.07300 1.47800 42.69500
C  -1.90800 0.38500 43.04500
C  -0.97200 -0.74000 43.38300
C  -1.54100 2.84600 42.32700
C  -3.44600 0.40600 43.06600
O  -4.05000 1.44100 42.80500
C  -4.19900 -0.74500 43.55300
N  0.93200 -3.00500 44.14300
C  -0.41900 -3.05100 44.17500
C  -0.92200 -4.46900 44.54400
C  0.35900 -5.13900 45.10500
C  1.45100 -4.12400 44.72000
C  -2.22900 -4.58900 45.39800
C  0.64800 -6.61000 44.54200
C  0.81600 -7.69900 45.63800
N  3.77100 -2.17000 44.34400
C  3.88500 -3.53100 44.68000
C  5.28100 -3.83300 44.89200
C  5.95600 -2.69900 44.44300
C  4.99400 -1.67300 44.13700
C  5.69700 -5.21100 45.25100
C  7.25600 -2.17900 44.18500
O  8.39600 -2.63400 44.27200
C  7.04300 -0.64100 43.64800
C  7.65800 0.29900 44.54500
O  7.33800 0.62400 45.70900
O  8.49200 1.07300 43.84400
C  9.23900 2.15300 44.39800
H  1.16300 2.96000 42.44500
H  -2.31000 -2.33000 43.65200
H  2.90600 -5.33000 45.45900
H  5.99000 2.31600 43.15400
H  3.84000 3.20900 41.65400
H  4.86400 3.92900 44.11200
H  3.23000 3.53900 44.45800
H  3.51200 4.69200 43.02600
H  5.08100 1.45000 40.45700
H  6.25000 0.52000 41.25700
H  8.02200 1.87700 41.08900
H  7.13200 3.32700 41.39800
H  -2.52700 2.98000 41.88100
H  -0.83800 3.26800 41.60900
H  -1.45100 3.47800 43.21000
H  -5.24800 -0.45000 43.57700
H  -3.79100 -1.21500 44.44800
H  -4.17200 -1.49600 42.76400
H  -1.14500 -4.86100 43.55200
H  0.33100 -5.10200 46.19400
H  -2.08700 -5.24900 46.25300
H  -2.98200 -5.16000 44.85400
H  -2.60400 -3.60200 45.67000
H  1.61600 -6.60800 44.04100
H  -0.10800 -6.93000 43.82400
H  0.50700 -7.31200 46.60900
H  1.81600 -8.11800 45.74900
H  0.18900 -8.57000 45.44900
H  5.31800 -5.93800 44.53200
H  5.30800 -5.44200 46.24300
H  6.78600 -5.24200 45.24400
H  7.45800 -0.70900 42.64200
H  10.04900 2.37900 43.70400
H  9.65500 1.88600 45.36900
H  8.67400 3.07600 44.52500
Mg 47.02700 25.08100 28.32000
C  47.98700 27.38000 30.81000
C  46.53500 22.73300 30.64100
C  46.57200 22.87800 25.75000
C  48.35600 27.35400 25.88000
N  47.37000 25.03500 30.55400
C  47.46700 26.20000 31.26700
C  47.16500 25.80000 32.72400
C  46.80600 24.22800 32.68300
C  46.95000 23.97400 31.19700
C  47.69700 23.25800 33.50200
C  45.98700 26.74400 33.36300
C  45.20100 26.40300 34.58000
H  45.37300 27.32600 35.82900
N  46.52200 23.04900 28.27000
C  46.33700 22.26000 29.34700
C  45.97300 20.96100 28.94900
C  45.96900 21.04100 27.51600
C  46.35100 22.35100 27.06700
C  45.64600 19.86100 29.90100
C  45.68000 19.98700 26.49100
O  45.79700 20.12300 25.27600
C  45.31900 18.68400 27.06000
N  47.53600 25.13300 26.16200
C  47.09300 24.11400 25.37300
C  47.03900 24.54000 23.86500
C  47.28300 26.12500 23.88200
C  47.76700 26.23000 25.39500
C  48.16900 23.79000 23.12800
C  45.95600 26.99300 23.63200
C  46.19600 28.32200 22.78800
N  48.02600 26.93200 28.31500
C  48.51500 27.67500 27.23600
C  49.06400 28.88900 27.81300
C  48.85900 28.84200 29.16800
C  48.14800 27.63800 29.43000
C  49.61900 30.02500 27.14400
C  49.07200 29.59200 30.35900
O  49.67400 30.63000 30.58700
C  48.43500 28.65000 31.54100
C  49.40500 28.51100 32.63300
O  50.25200 27.66600 32.82400
O  49.00500 29.41600 33.55400
C  49.47100 29.29600 34.87500
H  46.32900 22.05300 31.46900
H  46.24500 22.21900 24.94200
H  48.73400 28.09900 25.17700
H  48.12300 25.91000 33.23200
H  45.76600 24.05600 32.95900
H  48.52300 22.88800 32.89400
H  47.05600 22.45500 33.86500
H  48.18100 23.90200 34.23700
H  45.23500 26.87600 32.58500
H  46.62400 27.58700 33.62800
H  45.63100 25.42800 34.81100
H  44.13700 26.26800 34.38800
H  46.52300 19.21500 29.87100
H  44.68600 19.45400 29.58200
H  45.38400 20.12100 30.92700
H  45.04600 17.89500 26.36000
H  44.42800 18.92300 27.64100
H  46.09300 18.25400 27.69600
H  46.04300 24.32200 23.48000
H  48.06500 26.49500 23.21900
H  47.77200 22.78000 23.02200
H  49.06800 23.91300 23.73100
H  48.24800 24.26300 22.14900
H  45.58300 27.32700 24.60000
H  45.17000 26.33600 23.26100
H  45.94000 28.07600 21.75700
H  47.23100 28.65200 22.69800
H  45.61700 29.13000 23.23600
H  49.52900 30.02600 26.05800
H  50.70100 29.91400 27.21800
H  49.26700 30.95300 27.59500
H  47.49100 29.06900 31.89000
H  48.80000 28.75500 35.54300
H  49.49600 30.31000 35.27400
H  50.39700 28.74400 35.03800

