158

Mg 25.80300 1.53900 29.38100
C  27.98700 1.17500 32.12400
C  23.17100 2.05700 31.45500
C  23.95500 1.80400 26.67500
C  28.60300 0.46900 27.39500
N  25.63500 1.59200 31.58800
C  26.63700 1.45200 32.50800
C  26.11700 1.81700 33.90000
C  24.51400 1.94300 33.63300
C  24.40400 1.86100 32.11300
C  23.55200 0.90600 34.36200
C  26.90100 2.99000 34.55600
C  27.52000 2.88800 35.98300
H  26.88500 3.72200 37.03500
N  23.85600 1.79500 29.13300
C  22.92400 1.96200 30.07100
C  21.57500 2.09300 29.45300
C  21.78400 2.11100 28.02500
C  23.21100 1.88500 27.86500
C  20.32000 2.32000 30.33400
C  20.69700 2.30700 26.99000
O  20.91100 2.02900 25.84000
C  19.28400 2.81100 27.33700
N  26.16800 1.04600 27.32300
C  25.28500 1.46700 26.40300
C  25.89100 1.59400 24.98100
C  27.29000 0.88200 25.26600
C  27.38900 0.78200 26.74900
C  25.12200 0.95300 23.80900
C  28.51200 1.67900 24.59900
C  29.77000 0.86500 24.09900
N  27.87200 0.94500 29.63900
C  28.83700 0.50000 28.79200
C  30.03600 0.20100 29.47300
C  29.75900 0.54900 30.84700
C  28.43300 0.91000 30.83800
C  31.31000 -0.26200 28.82500
C  30.28500 0.67000 32.17600
O  31.46600 0.45400 32.49300
C  29.19200 1.14100 33.11100
C  29.02100 -0.03800 34.09200
O  28.19700 -0.92600 33.85300
O  29.85700 0.02800 35.22300
C  29.45600 -0.88000 36.23400
H  22.37500 2.33300 32.14900
H  23.46400 2.07400 25.73700
H  29.38000 0.19400 26.67900
H  26.35500 0.93900 34.50100
H  23.99900 2.87100 33.88200
H  22.78500 1.53700 34.81300
H  24.13600 0.33400 35.08300
H  23.09200 0.25300 33.62100
H  26.11400 3.73100 34.70100
H  27.50800 3.53400 33.83300
H  28.57700 3.12300 35.86400
H  27.42100 1.83000 36.22700
H  19.44800 1.89000 29.84000
H  20.08800 3.38500 30.36900
H  20.42300 1.85700 31.31500
H  18.67900 1.94000 27.59000
H  18.85800 3.41200 26.53300
H  19.29300 3.36000 28.27800
H  26.09400 2.62900 24.70700
H  27.30900 -0.16200 24.95500
H  25.81700 0.30500 23.27400
H  24.76900 1.72800 23.12800
H  24.29900 0.31500 24.13000
H  28.70500 2.43400 25.36200
H  28.13100 2.19800 23.72000
H  29.50800 -0.19200 24.05300
H  30.74900 1.06100 24.53500
H  29.85700 1.04600 23.02800
H  32.18300 -0.39500 29.46300
H  31.67000 0.22700 27.91900
H  31.02900 -1.25700 28.48100
H  29.25900 2.11300 33.59900
H  30.31400 -1.04600 36.88600
H  29.23400 -1.89500 35.90600
H  28.67000 -0.47500 36.87100
Mg 42.07900 40.71300 26.39100
C  41.57600 43.26900 28.80900
C  42.98300 38.61600 28.80500
C  42.71400 38.51300 23.92900
C  41.48500 43.20900 23.81700
N  42.49100 41.03200 28.60800
C  41.99300 42.03600 29.35900
C  42.11000 41.69600 30.86200
C  42.90300 40.34900 30.79000
C  42.75700 39.91800 29.29700
C  44.41000 40.55600 31.27600
C  40.66400 41.43500 31.59500
C  40.60800 42.14000 32.92300
H  39.87200 41.38500 34.02900
N  42.79000 38.76000 26.42100
C  43.12100 37.99700 27.46500
C  43.36900 36.63400 27.04700
C  43.23600 36.63200 25.61900
C  42.91300 38.02100 25.24800
C  43.66100 35.46500 28.03200
C  43.40500 35.44500 24.73100
O  43.16700 35.48500 23.56000
C  43.78100 34.11400 25.23300
N  42.20500 40.82000 24.17100
C  42.39400 39.76100 23.37500
C  42.28200 40.03200 21.89000
C  41.97700 41.55400 21.89200
C  41.79900 41.88800 23.34700
C  43.46500 39.49300 20.99200
C  40.75100 41.89700 20.94500
C  40.78500 41.52400 19.38400
N  41.49300 42.73500 26.26300
C  41.32100 43.56200 25.17400
C  40.97800 44.91600 25.63300
C  40.95200 44.78400 27.08500
C  41.36800 43.47700 27.39800
C  40.52300 46.12600 24.81000
C  40.77400 45.49100 28.37000
O  40.42900 46.70300 28.63500
C  41.01900 44.44000 29.54300
C  41.98100 45.12300 30.45900
O  43.16300 45.23400 30.25400
O  41.35400 45.77700 31.50300
C  42.20100 46.31500 32.55700
H  43.13100 37.97400 29.67700
H  42.91100 37.89100 23.05400
H  41.23000 43.94300 23.05000
H  42.63900 42.49500 31.38100
H  42.55800 39.55600 31.45400
H  44.64900 41.61700 31.35200
H  45.07400 40.03100 30.58800
H  44.49900 40.15500 32.28500
H  40.64700 40.35700 31.75000
H  39.87100 41.81400 30.95100
H  40.16300 43.13400 32.88900
H  41.62900 42.23600 33.29300
H  43.01100 34.62800 27.77700
H  43.67500 35.71700 29.09200
H  44.66000 35.12300 27.75900
H  43.92300 33.46800 24.36700
H  43.01900 33.60200 25.82100
H  44.74600 34.23100 25.72500
H  41.38900 39.50000 21.56300
H  42.92600 41.97100 21.55400
H  44.17700 39.08800 21.71100
H  43.95600 40.31500 20.47200
H  43.11300 38.69900 20.33400
H  40.59700 42.97600 20.91000
H  39.82700 41.45500 21.31900
H  40.24400 40.59900 19.18600
H  41.80600 41.49900 19.00200
H  40.30100 42.32600 18.82600
H  40.74400 46.95500 25.48100
H  39.46500 46.00800 24.57400
H  41.10000 46.11500 23.88500
H  40.08300 44.29200 30.08200
H  42.87700 47.00700 32.05400
H  42.68400 45.48100 33.06500
H  41.66700 47.01000 33.20400

