158

Mg 53.79900 24.69400 44.65300
C  50.89100 26.42300 43.82800
C  52.62100 21.86500 43.13000
C  56.87300 23.24900 44.88300
C  55.15100 27.79400 45.67600
N  52.09600 24.25800 43.38800
C  50.97900 25.14600 43.28100
C  49.87500 24.51700 42.34700
C  50.21400 23.01400 42.49300
C  51.72700 22.96600 43.02900
C  49.24700 22.20100 43.44600
C  49.98200 25.03400 40.91400
C  48.57400 25.36000 40.20600
H  48.17900 24.46700 39.02300
N  54.69200 22.81300 44.12600
C  53.99500 21.75300 43.64900
C  54.78500 20.55900 43.60800
C  56.00300 20.86600 44.12300
C  55.93400 22.37300 44.37900
C  54.26100 19.17200 43.16900
C  57.25900 19.94500 44.35900
O  57.18300 18.71100 44.11100
C  58.66900 20.45800 44.77500
N  55.70900 25.42100 44.96400
C  56.82000 24.58800 45.07900
C  58.10400 25.37200 45.48100
C  57.58000 26.89200 45.63800
C  56.03800 26.73500 45.44800
C  58.93600 24.94100 46.70600
C  58.12200 27.83200 44.53600
C  59.13700 28.85400 44.95900
N  53.15600 26.77800 44.82100
C  53.77300 27.85000 45.37700
C  52.84800 28.95700 45.43200
C  51.61700 28.42200 44.90700
C  51.88200 27.14500 44.48900
C  53.17300 30.22100 46.03800
C  50.29100 28.73700 44.59400
O  49.65000 29.80000 44.70500
C  49.73600 27.46200 43.88100
C  49.29400 27.98100 42.59700
O  50.03200 28.36200 41.65300
O  47.89500 28.09600 42.57000
C  47.30800 28.68900 41.39000
H  52.13700 20.95000 42.78200
H  57.89400 22.86800 44.95900
H  55.68600 28.70300 45.96000
H  48.88100 24.71800 42.74800
H  50.20600 22.50700 41.52800
H  48.64100 21.55700 42.81000
H  48.63300 22.96600 43.92300
H  49.70000 21.50800 44.15500
H  50.50200 24.24000 40.37700
H  50.57300 25.94000 40.78000
H  48.85000 26.27600 39.68400
H  47.77400 25.47300 40.93800
H  54.74800 18.98000 42.21400
H  53.17200 19.21800 43.14200
H  54.56700 18.47300 43.94700
H  59.19600 21.05000 44.02700
H  59.26300 19.54700 44.85500
H  58.60100 20.94700 45.74700
H  58.85400 25.24500 44.70000
H  57.72600 27.29300 46.64100
H  59.80100 24.30000 46.53700
H  58.30500 24.32000 47.34100
H  59.35900 25.78800 47.24600
H  57.28000 28.48500 44.30500
H  58.43400 27.33700 43.61700
H  59.25800 29.55200 44.13100
H  60.12300 28.39400 45.01600
H  58.94400 29.32200 45.92400
H  54.06100 30.06400 46.65000
H  52.31000 30.56100 46.61000
H  53.33300 31.03000 45.32500
H  48.88900 27.13100 44.48100
H  47.06000 27.88800 40.69300
H  47.85000 29.55400 41.00900
H  46.38800 29.17600 41.71500
Mg 29.35200 57.84200 38.84100
C  26.34300 56.09900 38.06900
C  31.21300 55.07700 37.89700
C  32.11200 59.68300 38.68200
C  27.36600 60.75500 39.01300
N  28.79800 55.83500 38.09200
C  27.54300 55.34900 37.84800
C  27.63400 53.94300 37.25900
C  29.07500 53.47800 37.75200
C  29.78900 54.89300 37.92000
C  29.00200 52.54300 39.04000
C  27.48700 53.99900 35.73900
C  26.24500 53.47600 34.99000
H  25.51800 54.37900 33.97100
N  31.45000 57.39800 38.36900
C  31.98900 56.24900 37.99200
C  33.43200 56.45900 37.82900
C  33.76600 57.77000 38.20800
C  32.45700 58.36200 38.41300
C  34.45500 55.36800 37.55900
C  35.11500 58.37200 38.55900
O  36.12000 57.62600 38.46300
C  35.34300 59.81900 39.08700
N  29.66600 59.89500 38.86200
C  30.91400 60.37700 38.92400
C  30.90100 61.96000 38.97500
C  29.43100 62.27600 39.22100
C  28.76400 60.89600 39.00500
C  31.86600 62.68300 40.05100
C  28.96300 63.48200 38.36500
C  28.21100 64.64600 39.06800
N  27.25300 58.36600 38.80700
C  26.65700 59.56600 38.92500
C  25.21200 59.35600 38.96800
C  25.00800 57.97200 38.57100
C  26.33200 57.44100 38.48600
C  24.14300 60.42000 39.05200
C  24.07500 56.93700 38.10100
O  22.87100 57.03000 37.82500
C  24.89500 55.67600 37.81500
C  24.42000 54.73100 38.85200
O  24.46900 54.93000 40.06500
O  23.95100 53.62100 38.28900
C  23.38400 52.65900 39.25300
H  31.81800 54.21300 37.61700
H  32.92100 60.41600 38.67400
H  26.84700 61.71600 39.00300
H  26.87200 53.26300 37.64000
H  29.58700 52.87100 37.00600
H  27.99100 52.24900 39.32200
H  29.30200 53.19000 39.86500
H  29.69500 51.70200 39.03300
H  28.24700 53.39400 35.24500
H  27.46900 55.00700 35.32300
H  25.54500 53.22400 35.78600
H  26.57200 52.55700 34.50200
H  34.10500 54.49000 37.01500
H  34.84600 55.08300 38.53500
H  35.24100 55.66500 36.86500
H  36.30700 59.73700 39.58900
H  34.64100 59.87300 39.92000
H  35.26800 60.69400 38.44200
H  31.22500 62.33800 38.00500
H  29.19800 62.57000 40.24400
H  32.23600 61.83700 40.63100
H  31.35800 63.42900 40.66200
H  32.77600 63.05500 39.58000
H  28.30600 63.14900 37.56200
H  29.76500 64.00900 37.85000
H  27.54500 65.22800 38.43100
H  28.88600 65.42600 39.41900
H  27.45900 64.24500 39.74800
H  23.19700 59.88200 38.99000
H  24.11800 61.15600 38.24800
H  24.20800 61.02300 39.95700
H  24.55700 55.26200 36.86500
H  23.60300 51.66800 38.85700
H  22.35800 52.84300 39.57200
H  24.05500 52.49900 40.09700

