158

Mg 0.96200 7.31700 27.06800
C  1.31000 9.78800 29.49600
C  1.29300 5.02100 29.49900
C  0.79400 4.95500 24.55200
C  1.18400 9.74700 24.56700
N  1.31600 7.39000 29.29000
C  1.24700 8.50400 30.05400
C  1.11400 8.10300 31.61200
C  1.43600 6.61000 31.56300
C  1.33800 6.30300 30.03400
C  2.67900 6.00800 32.27200
C  -0.38000 8.44900 32.03500
C  -0.68800 8.58900 33.54000
H  0.39600 8.57600 34.59100
N  1.10700 5.30300 26.97700
C  1.17600 4.56900 28.13100
C  1.14300 3.23100 27.72600
C  1.16600 3.07700 26.33900
C  1.02800 4.47400 25.90700
C  1.30800 2.18200 28.73000
C  1.22100 1.90200 25.37000
O  1.31400 2.06600 24.16500
C  1.26500 0.46700 25.85600
N  1.08300 7.36300 24.83000
C  0.84300 6.25100 24.03700
C  0.41500 6.66700 22.63800
C  0.63100 8.21800 22.56900
C  0.97300 8.47000 24.03100
C  1.09800 5.82300 21.56000
C  -0.56300 9.02200 22.00200
C  -0.26000 10.46300 21.53100
N  1.18900 9.31100 27.00200
C  1.34800 10.13400 25.90700
C  1.55100 11.46500 26.38000
C  1.61100 11.36400 27.80800
C  1.38800 10.04300 28.09100
C  1.83000 12.64800 25.48700
C  1.85200 12.14900 28.97300
O  2.03100 13.34500 29.13100
C  1.57200 11.12700 30.13900
C  2.76700 11.14000 31.02100
O  3.92900 10.88400 30.69400
O  2.30700 11.38500 32.31800
C  3.31300 11.62600 33.43000
H  1.28500 4.26400 30.28600
H  0.70400 4.30500 23.68000
H  1.21500 10.52100 23.79600
H  1.84400 8.61000 32.24300
H  0.67000 6.04900 32.09800
H  2.48100 5.25200 33.03200
H  3.31900 6.76500 32.72600
H  3.28800 5.62500 31.45300
H  -0.92700 7.60300 31.62000
H  -0.67300 9.31900 31.44800
H  -1.40600 7.79400 33.74300
H  -1.22200 9.54000 33.56100
H  1.82700 1.31200 28.32700
H  0.40000 1.95400 29.28800
H  2.01800 2.48400 29.49900
H  2.29900 0.39700 26.19400
H  1.04200 -0.21700 25.03800
H  0.53200 0.46300 26.66300
H  -0.64700 6.42100 22.64000
H  1.35200 8.54000 21.81700
H  0.39400 5.12600 21.10600
H  1.88900 5.19500 21.97100
H  1.45900 6.56000 20.84300
H  -1.19100 9.19300 22.87600
H  -1.18000 8.40400 21.35000
H  -0.77700 10.64200 20.58800
H  0.80300 10.62200 21.34900
H  -0.65300 11.22200 22.20800
H  0.87300 12.87400 25.01800
H  2.50800 12.35900 24.68400
H  2.19200 13.54400 25.99100
H  0.70400 11.49900 30.68300
H  3.21200 10.74900 34.06900
H  3.14200 12.48500 34.07900
H  4.32500 11.65900 33.02500
Mg 8.87500 4.33000 27.20000
C  10.01100 2.47600 29.91700
C  6.81200 6.11000 29.54700
C  7.79200 6.06100 24.68500
C  10.51900 2.15900 24.98700
N  8.52800 4.28300 29.47800
C  9.20900 3.52900 30.33600
C  8.89800 3.92500 31.73900
C  7.80800 4.99400 31.61500
C  7.69500 5.14800 30.14100
C  6.45700 4.60800 32.31600
C  10.24700 4.50000 32.40400
C  10.83000 3.82200 33.64600
H  11.28800 4.53100 34.95900
N  7.50400 5.80500 27.11300
C  6.76500 6.41100 28.14700
C  6.02200 7.45900 27.55100
C  6.36100 7.58800 26.16600
C  7.25900 6.50600 25.96500
C  5.09100 8.39400 28.33100
C  5.93100 8.53600 25.09900
O  6.42700 8.65100 24.00000
C  4.93400 9.60400 25.40900
N  9.08200 4.03900 25.10900
C  8.55500 5.02100 24.28600
C  8.68700 4.62000 22.85500
C  9.74900 3.44400 22.95100
C  9.85200 3.23000 24.42900
C  7.45900 4.35900 21.91000
C  11.12900 3.77100 22.30700
C  11.97200 4.75300 23.13200
N  10.09900 2.64400 27.36800
C  10.71300 1.87900 26.37400
C  11.48500 0.87800 27.06100
C  11.27700 1.05800 28.45400
C  10.38100 2.12700 28.60700
C  12.13800 -0.33300 26.55500
C  11.68300 0.52800 29.77400
O  12.49200 -0.30700 30.14700
C  10.85900 1.48800 30.77400
C  10.12800 0.74400 31.78300
O  9.01000 0.35900 31.59100
O  10.78300 0.52000 32.94100
C  10.00600 -0.00500 34.08600
H  6.22600 6.70100 30.25300
H  7.45100 6.59900 23.79900
H  11.04500 1.55300 24.24600
H  8.49500 3.08900 32.31000
H  8.03900 5.95100 32.08300
H  6.09600 5.53000 32.77300
H  6.52200 3.87800 33.12200
H  5.70200 4.16700 31.66500
H  10.14300 5.50900 32.80400
H  10.99700 4.52200 31.61300
H  11.73900 3.37800 33.24100
H  10.14200 3.02700 33.93500
H  5.12400 8.22600 29.40800
H  4.05200 8.39700 28.00000
H  5.31900 9.45700 28.25100
H  4.01100 9.09600 25.69000
H  4.59600 10.12800 24.51500
H  5.23300 10.32600 26.16800
H  9.21700 5.39000 22.29500
H  9.29500 2.52800 22.57500
H  6.50400 4.53800 22.40400
H  7.52100 3.32800 21.56300
H  7.43200 5.06200 21.07700
H  10.91300 4.04500 21.27400
H  11.67800 2.83600 22.19600
H  12.43300 5.43700 22.42000
H  12.82300 4.25200 23.59400
H  11.46000 5.44500 23.80000
H  13.20800 -0.41400 26.74600
H  11.98600 -0.48100 25.48600
H  11.63000 -1.14400 27.07600
H  11.63300 1.91100 31.41500
H  9.72500 -1.04800 33.93800
H  9.18700 0.71000 34.17000
H  10.67800 0.03900 34.94300

