158

Mg 47.18000 14.59900 27.65500
C  44.94000 14.74700 30.43700
C  49.08400 16.85300 29.00300
C  48.93300 14.67600 24.67400
C  44.56600 13.06300 25.81300
N  46.90500 15.77500 29.47500
C  46.04400 15.60900 30.50100
C  46.56000 16.27300 31.78800
C  47.72200 17.20400 31.29100
C  47.99700 16.48200 29.88500
C  47.33800 18.71300 31.10400
C  47.12600 15.29500 32.96600
C  46.94800 15.79100 34.46700
H  47.98100 15.58800 35.56000
N  48.83900 15.67200 26.96600
C  49.62200 16.48900 27.76300
C  50.74700 16.98700 27.04200
C  50.67600 16.36600 25.69900
C  49.42500 15.49300 25.72600
C  51.76800 17.88500 27.63300
C  51.58700 16.56900 24.53400
O  51.44500 15.92100 23.55800
C  52.63200 17.60800 24.58800
N  46.74700 14.07800 25.54300
C  47.71700 14.08600 24.54800
C  47.19900 13.57200 23.24500
C  45.92100 12.81900 23.68200
C  45.73700 13.34800 25.14300
C  47.03000 14.78100 22.22700
C  45.95100 11.22800 23.60600
C  46.89700 10.47300 24.55100
N  45.22900 13.90400 28.06200
C  44.30700 13.34300 27.18900
C  43.13900 12.99300 27.92500
C  43.33400 13.48900 29.29500
C  44.58600 14.06700 29.27100
C  41.93600 12.30000 27.39900
C  42.84700 13.62500 30.68200
O  41.78900 13.22700 31.07300
C  43.94300 14.38400 31.52400
C  43.26800 15.58400 32.04100
O  42.74700 16.39400 31.31800
O  43.48900 15.65000 33.35400
C  42.97300 16.91200 34.05700
H  49.82400 17.57000 29.36500
H  49.62300 14.55400 23.83700
H  43.88800 12.43400 25.23200
H  45.86900 16.99200 32.22800
H  48.62800 17.20200 31.89800
H  46.45900 19.08000 31.63400
H  47.18600 18.93900 30.04900
H  48.14700 19.36100 31.44200
H  48.18100 15.15300 32.73100
H  46.62100 14.32900 32.97900
H  46.14200 15.18600 34.88300
H  46.59800 16.82300 34.47300
H  51.68100 17.95500 28.71700
H  51.67100 18.89700 27.24000
H  52.77900 17.52600 27.44200
H  53.38100 17.53000 25.37500
H  52.15400 18.56300 24.80800
H  53.14100 17.54900 23.62600
H  47.92500 12.81800 22.94100
H  44.97100 13.00500 23.18100
H  47.13800 15.78200 22.64500
H  46.07400 14.62000 21.73000
H  47.83000 14.76100 21.48800
H  46.39100 11.01200 22.63200
H  44.92100 10.88100 23.52200
H  47.55900 9.80000 24.00500
H  46.43800 9.92600 25.37300
H  47.63600 11.10800 25.04100
H  42.22100 11.75700 26.49700
H  41.12500 12.97400 27.12500
H  41.51900 11.61400 28.13600
H  44.25200 13.71100 32.32500
H  42.27800 17.53400 33.49300
H  43.90300 17.40700 34.33500
H  42.43100 16.53200 34.92400
Mg 0.59200 42.72600 26.10100
C  2.87000 42.69500 28.77100
C  -1.80400 41.61700 28.26200
C  -1.31500 42.04100 23.52100
C  3.42800 43.02200 23.90800
N  0.60000 42.08600 28.27900
C  1.56500 42.32200 29.16400
C  0.98800 42.29700 30.59500
C  -0.52900 41.90700 30.43700
C  -0.54800 41.82400 28.87700
C  -0.88000 40.50300 31.17000
C  1.15600 43.69500 31.41600
C  1.58900 43.64000 32.89800
H  1.29600 42.34300 33.66100
N  -1.39100 42.04900 25.96600
C  -2.22900 41.70300 26.93400
C  -3.43200 41.19500 26.40800
C  -3.29200 41.28700 24.98400
C  -1.97900 41.78100 24.74700
C  -4.64400 40.72300 27.17900
C  -4.34100 40.92100 23.86500
O  -3.97900 41.15200 22.68000
C  -5.73900 40.32900 24.24000
N  0.99100 42.79800 23.97700
C  0.02100 42.38400 23.18800
C  0.45900 42.36400 21.69600
C  1.90900 42.83200 21.73200
C  2.16300 42.85700 23.25200
C  0.29700 40.89500 21.08500
C  2.20200 44.07900 20.90300
C  2.15600 45.37900 21.63200
N  2.69600 42.95400 26.28100
C  3.70600 43.09900 25.29600
C  4.95100 43.32300 25.92600
C  4.71100 43.17800 27.38100
C  3.33900 42.95000 27.44900
C  6.22800 43.72000 25.30300
C  5.27100 43.15800 28.67800
O  6.40900 43.37300 29.10800
C  4.16200 42.84500 29.64800
C  4.61500 41.61900 30.34500
O  4.38500 40.49500 29.90000
O  5.19100 41.88400 31.55900
C  5.48600 40.83500 32.49000
H  -2.66600 41.45300 28.91100
H  -1.87900 41.81400 22.61400
H  4.23100 43.29500 23.22000
H  1.49800 41.44300 31.04200
H  -1.29900 42.63500 30.69200
H  -1.91500 40.66100 31.47200
H  -0.25500 40.34600 32.05000
H  -0.84000 39.71200 30.42100
H  0.18900 44.18200 31.29200
H  1.75300 44.42200 30.86400
H  0.85700 44.37000 33.24400
H  2.57100 44.02800 33.16800
H  -5.48300 41.41500 27.10700
H  -4.52300 40.64100 28.25900
H  -4.94000 39.77000 26.73800
H  -6.11200 40.79200 25.15400
H  -5.70700 39.29500 24.58200
H  -6.40700 40.54100 23.40600
H  -0.22700 43.04000 21.18600
H  2.58100 42.09200 21.29700
H  1.20700 40.29700 21.13800
H  0.15000 41.14800 20.03500
H  -0.50600 40.33600 21.56600
H  1.70500 44.04100 19.93400
H  3.27000 44.01900 20.69300
H  3.08100 45.69800 22.11400
H  1.29300 45.39500 22.29700
H  1.87600 46.13400 20.89700
H  7.06700 43.05900 25.52000
H  6.43100 44.66100 25.81500
H  6.10800 43.91200 24.23700
H  4.11200 43.60600 30.42600
H  6.56900 40.73300 32.56000
H  5.01600 39.91000 32.15400
H  5.08200 41.18900 33.43900

