158

Mg 53.97300 24.69500 44.43100
C  51.24200 26.81800 44.17900
C  51.96400 22.19000 43.39600
C  56.77600 22.96800 43.99200
C  55.91800 27.43300 45.37300
N  51.85100 24.53600 43.59600
C  50.95700 25.52400 43.73900
C  49.57200 24.98400 43.50700
C  49.74300 23.46300 43.72800
C  51.27500 23.37100 43.49000
C  49.18300 23.01600 45.09600
C  49.07700 25.50900 42.17500
C  48.52800 24.48600 41.14500
H  48.15200 24.82800 39.70300
N  54.32300 22.82300 43.70500
C  53.36400 21.87800 43.44200
C  54.06400 20.55900 43.05900
C  55.47800 20.83700 43.35300
C  55.59500 22.27700 43.68600
C  53.38800 19.33300 42.62500
C  56.51600 19.73700 43.36300
O  56.19800 18.65200 42.93300
C  57.87800 19.85400 43.86000
N  56.04600 25.26100 44.26700
C  57.04300 24.33400 44.22500
C  58.45400 24.88700 44.50400
C  58.12900 26.36700 44.75300
C  56.56500 26.40200 44.71800
C  59.19800 24.15600 45.63500
C  58.70700 27.38500 43.80500
C  59.45500 28.54900 44.41600
N  53.71700 26.76000 44.80000
C  54.57400 27.71100 45.32100
C  53.78400 28.83900 45.66500
C  52.53600 28.52800 45.16000
C  52.50300 27.28700 44.63500
C  54.26400 30.09000 46.34000
C  51.28300 29.13000 44.90900
O  50.98500 30.34100 45.11800
C  50.30000 28.06100 44.23300
C  49.68600 28.53800 42.88200
O  50.39300 28.85600 41.92500
O  48.27800 28.69200 42.88300
C  47.77600 29.14800 41.61900
H  51.34700 21.35800 43.05100
H  57.69100 22.38900 43.85400
H  56.55900 28.18700 45.83600
H  49.02300 25.44100 44.33000
H  49.18100 22.84500 43.02700
H  48.88500 23.82000 45.76900
H  50.00600 22.43500 45.51200
H  48.28700 22.42500 44.90600
H  49.81000 26.08500 41.61000
H  48.21400 26.13000 42.41500
H  47.72100 23.92900 41.62100
H  49.33800 23.78900 40.93100
H  53.77900 19.02200 41.65700
H  52.32200 19.54300 42.53500
H  53.48500 18.50100 43.32200
H  58.44400 20.42300 43.12300
H  58.37100 18.88500 43.94400
H  57.92200 20.28300 44.86100
H  59.13100 24.76600 43.65800
H  58.36200 26.69400 45.76600
H  60.20500 24.01000 45.24300
H  58.75800 23.16800 45.76800
H  59.17800 24.65900 46.60100
H  57.97800 27.78100 43.09800
H  59.46300 26.95500 43.14700
H  59.46200 28.44900 45.50200
H  58.98600 29.47100 44.07300
H  60.43400 28.61000 43.93900
H  53.99000 30.87200 45.63100
H  55.35200 30.10700 46.40500
H  53.77100 30.26100 47.29600
H  49.46500 27.91200 44.91700
H  47.98900 28.41300 40.84300
H  48.15000 30.14800 41.39900
H  46.71500 29.39400 41.66000
Mg 48.09100 16.81100 27.86400
C  46.09700 16.68600 30.79300
C  50.47100 18.40400 29.54000
C  49.79100 17.25200 24.86200
C  45.50400 15.31800 26.08700
N  48.28100 17.43200 29.94000
C  47.34300 17.36900 30.96100
C  47.98100 17.82600 32.24100
C  49.27500 18.64500 31.77900
C  49.39300 18.07800 30.35500
C  49.19300 20.16800 31.81000
C  48.19300 16.62900 33.24000
C  48.08100 16.92800 34.79400
H  47.48900 18.22600 35.26700
N  49.96000 17.68200 27.28700
C  50.81500 18.14500 28.20600
C  52.09000 18.33300 27.59800
C  51.86100 18.25100 26.18000
C  50.46300 17.74400 26.03600
C  53.31000 18.62100 28.40200
C  52.74800 18.56400 25.03800
O  52.31600 18.63400 23.87900
C  54.20100 18.96300 25.27600
N  47.64500 16.41000 25.69100
C  48.48600 16.77700 24.70800
C  47.66400 16.62000 23.35400
C  46.47500 15.71100 23.82000
C  46.50700 15.79600 25.26000
C  47.18500 17.92500 22.71400
C  46.57700 14.17000 23.38400
C  45.59200 13.73100 22.26100
N  46.21100 15.93400 28.30300
C  45.29500 15.33000 27.47900
C  44.01400 15.16400 28.17100
C  44.28900 15.64600 29.48600
C  45.61300 16.14700 29.52800
C  42.70700 14.57600 27.68900
C  43.75400 15.83500 30.82300
O  42.59100 15.65700 31.18200
C  44.94300 16.43800 31.74300
C  44.48200 17.62600 32.55700
O  44.80900 18.80900 32.31700
O  43.72400 17.13400 33.54400
C  42.94100 18.14000 34.26800
H  51.19600 19.01000 30.08800
H  50.23400 17.66300 23.95300
H  44.62400 14.96000 25.54900
H  47.35900 18.61700 32.65900
H  50.13900 18.28400 32.33700
H  48.77200 20.47900 30.85400
H  50.21300 20.51400 31.97300
H  48.60200 20.50700 32.66100
H  49.22200 16.30800 33.07400
H  47.58200 15.80500 32.87300
H  49.07200 16.83000 35.23900
H  47.46100 16.13700 35.21600
H  53.26700 18.21900 29.41400
H  53.41700 19.70000 28.51500
H  54.26000 18.25400 28.01400
H  54.31800 19.85300 25.89400
H  54.65400 19.09300 24.29300
H  54.67900 18.07300 25.68500
H  48.30600 16.12100 22.62700
H  45.51900 16.14300 23.52500
H  46.12100 18.13100 22.83300
H  47.21900 17.78900 21.63300
H  47.88500 18.72700 22.95000
H  46.30200 13.46200 24.16500
H  47.62700 14.02700 23.12700
H  46.24000 13.14900 21.60600
H  45.17200 14.57800 21.71700
H  44.72900 13.22600 22.69400
H  42.65500 14.72700 26.61100
H  41.95600 15.16200 28.22000
H  42.53300 13.52600 27.92400
H  45.21400 15.58600 32.36600
H  42.02100 17.60300 34.49700
H  42.64200 19.00800 33.68000
H  43.44000 18.46600 35.18100

