158

Mg 35.80600 1.62200 29.94800
C  33.63300 2.91500 32.23400
C  38.23700 1.35900 32.29600
C  38.06500 0.69800 27.47400
C  33.39400 2.10200 27.42000
N  35.90400 2.14400 31.96100
C  34.84700 2.58700 32.71900
C  35.26400 2.64100 34.24000
C  36.77200 2.31800 34.19400
C  37.01300 1.82100 32.70700
C  37.82000 3.41100 34.66200
C  34.32700 1.63400 35.09000
C  33.87800 2.06500 36.46600
H  34.69700 3.09500 37.22500
N  37.87800 1.15800 29.94900
C  38.72300 0.98100 31.02700
C  39.99500 0.50300 30.67200
C  39.91800 0.26300 29.20500
C  38.60000 0.72600 28.83400
C  41.21000 0.35400 31.58200
C  40.88500 -0.39500 28.19800
O  40.74300 -0.40600 26.96600
C  42.12300 -0.98800 28.75200
N  35.76400 1.57900 27.74900
C  36.78700 1.13000 26.98800
C  36.55700 1.31800 25.53000
C  35.02000 1.56600 25.42800
C  34.67300 1.74100 26.97000
C  37.46400 2.34500 24.81300
C  34.21900 0.53300 24.68800
C  34.27500 -0.83800 25.32100
N  33.82500 2.19400 29.84900
C  32.97700 2.39300 28.76000
C  31.73200 2.97200 29.22100
C  31.93200 3.00600 30.62300
C  33.25100 2.73700 30.89300
C  30.53400 3.23300 28.45400
C  31.24400 3.46000 31.76700
O  30.08300 3.78200 31.95300
C  32.38800 3.45200 32.95400
C  32.54800 4.76500 33.65200
O  33.22600 5.66300 33.24000
O  32.12700 4.64900 34.91600
C  32.01400 5.92000 35.63500
H  39.06500 1.41900 33.00600
H  38.59100 0.39800 26.56500
H  32.53800 2.19800 26.74900
H  35.03600 3.66300 34.54400
H  36.93100 1.54200 34.94300
H  37.21000 4.19200 35.11700
H  38.29600 3.96500 33.85300
H  38.55600 3.09800 35.40300
H  34.96200 0.77200 35.29400
H  33.51300 1.24700 34.47700
H  33.90800 1.19400 37.12100
H  32.82400 2.32200 36.36300
H  41.91100 1.15800 31.35700
H  41.71700 -0.60500 31.48000
H  40.95700 0.49000 32.63400
H  42.66700 -1.47300 27.94100
H  41.80300 -1.77000 29.44000
H  42.78700 -0.20400 29.11800
H  36.75400 0.41100 24.95900
H  34.78600 2.56100 25.04900
H  37.85000 3.01100 25.58500
H  36.98700 2.88900 23.99800
H  38.33200 1.83900 24.39100
H  34.49400 0.59400 23.63500
H  33.21800 0.95800 24.62000
H  33.27200 -1.02200 25.70600
H  34.94000 -0.84400 26.18400
H  34.42700 -1.67500 24.64000
H  29.75000 3.37200 29.19900
H  30.23200 2.43000 27.78200
H  30.53700 4.20500 27.96000
H  31.95800 2.72200 33.64000
H  32.19900 5.75900 36.69700
H  31.02400 6.36000 35.51300
H  32.65900 6.70500 35.24000
Mg 49.73400 44.86100 42.00300
C  46.28400 44.54200 41.12200
C  49.91400 41.36800 41.51200
C  53.03700 45.11400 42.03100
C  49.31600 48.20900 42.44000
N  48.27000 43.21700 41.31800
C  46.93400 43.32200 41.10300
C  46.35800 41.94200 40.72100
C  47.38800 40.93400 41.22800
C  48.62100 41.89500 41.40700
C  47.06900 40.12600 42.57400
C  46.00800 41.83200 39.24000
C  44.60500 41.36900 38.91700
H  44.22300 41.53300 37.46700
N  51.28500 43.43100 41.88500
C  51.12900 42.06600 41.65100
C  52.46400 41.45500 41.77900
C  53.40100 42.51300 41.93300
C  52.58000 43.76100 41.92600
C  52.77600 39.94900 41.57300
C  54.92600 42.41500 41.85600
O  55.55300 41.30900 41.75500
C  55.87300 43.59400 41.90100
N  50.97800 46.44200 42.06500
C  52.32200 46.29300 42.17800
C  52.94800 47.70200 42.51800
C  51.74300 48.65700 42.70300
C  50.61600 47.71100 42.45200
C  53.97400 47.86100 43.68800
C  51.79500 49.89700 41.67800
C  52.30700 51.15700 42.31700
N  48.17900 46.15700 41.78100
C  48.15400 47.49200 42.10000
C  46.70900 48.02300 41.95600
C  46.00700 46.86600 41.54100
C  46.92700 45.77100 41.40600
C  46.17600 49.36300 42.22100
C  44.69100 46.44100 40.95700
O  43.67100 47.09800 40.72200
C  44.84800 44.84100 40.77700
C  43.79400 44.21200 41.61400
O  42.60600 43.97400 41.27300
O  44.27000 43.96500 42.83300
C  43.48100 43.12400 43.74600
H  49.91200 40.27600 41.48400
H  54.08300 45.36800 42.21900
H  49.21600 49.25000 42.75200
H  45.45500 41.83800 41.32300
H  47.60200 40.17400 40.47600
H  48.03000 40.21400 43.08100
H  46.91800 39.05000 42.49400
H  46.37400 40.59800 43.26900
H  46.53600 41.04800 38.69700
H  46.19000 42.82800 38.83600
H  43.95100 41.91600 39.59600
H  44.46600 40.30000 39.08400
H  53.49100 39.84800 40.75600
H  51.85300 39.39800 41.39200
H  53.43900 39.64700 42.38300
H  55.62200 44.17700 41.01500
H  56.87000 43.15300 41.89600
H  55.53700 44.03900 42.83800
H  53.49100 47.95900 41.60900
H  51.69300 49.08100 43.70600
H  54.84400 48.45300 43.40400
H  54.32500 46.84000 43.84200
H  53.59900 48.28300 44.62000
H  50.80200 50.06300 41.26100
H  52.37900 49.69600 40.77900
H  53.12200 51.54300 41.70400
H  52.77100 50.72800 43.20500
H  51.40700 51.75100 42.47400
H  45.36900 49.49200 41.50100
H  46.96300 50.06600 41.94900
H  45.78700 49.76100 43.15800
H  44.59400 44.73300 39.72300
H  42.88200 42.38900 43.20800
H  42.82600 43.75000 44.35100
H  44.20100 42.65000 44.41300

