158

Mg 1.55800 -3.08700 44.03900
C  4.70400 -1.89200 43.44800
C  0.24200 -0.36300 42.06200
C  -1.40300 -4.66700 43.88700
C  3.04200 -5.89700 45.61200
N  2.32900 -1.37300 42.78200
C  3.71200 -1.08300 42.80400
C  4.01600 0.29600 42.11700
C  2.56300 0.93800 41.99200
C  1.60700 -0.26500 42.37300
C  2.27800 2.31000 42.67700
C  4.78900 0.06200 40.74500
C  5.92000 1.09400 40.51300
H  5.61100 1.94800 39.26900
N  -0.28800 -2.72700 42.95000
C  -0.63000 -1.52200 42.33500
C  -2.00400 -1.54300 41.93500
C  -2.59000 -2.73000 42.51200
C  -1.41000 -3.42900 43.12900
C  -2.69500 -0.44600 41.14900
C  -4.03600 -3.13200 42.52800
O  -4.94000 -2.58500 41.90900
C  -4.45000 -4.34000 43.24200
N  1.03400 -5.07900 44.54500
C  -0.30600 -5.39200 44.54300
C  -0.61400 -6.66700 45.35100
C  0.80200 -7.20400 45.59500
C  1.70600 -5.98500 45.25600
C  -1.50400 -6.49100 46.55000
C  1.13300 -8.41200 44.72400
C  0.54300 -9.68200 45.33800
N  3.45600 -3.71500 44.63500
C  3.93900 -4.86000 45.24000
C  5.38800 -4.73800 45.50800
C  5.69700 -3.61200 44.82600
C  4.56300 -3.04700 44.23200
C  6.28100 -5.69900 46.41100
C  6.78100 -2.70100 44.55600
O  7.92600 -2.67900 45.04400
C  6.25600 -1.66100 43.49200
C  6.68800 -0.30200 44.04300
O  6.00500 0.29600 44.81800
O  7.87300 0.13400 43.44300
C  8.15800 1.54900 43.55600
H  -0.21400 0.49000 41.55500
H  -2.29300 -5.29300 43.98000
H  3.37000 -6.74900 46.21200
H  4.62300 0.83100 42.84700
H  2.28600 1.01200 40.94000
H  1.99700 3.10500 41.98700
H  3.19200 2.70000 43.12500
H  1.47400 2.27000 43.41100
H  4.01700 0.11900 39.97800
H  5.18800 -0.95000 40.68600
H  6.93600 0.70900 40.42200
H  5.96700 1.85000 41.29700
H  -2.01300 0.11200 40.50800
H  -3.31400 0.28300 41.67200
H  -3.45400 -0.86100 40.48700
H  -4.08800 -5.22100 42.71000
H  -5.52900 -4.27400 43.37900
H  -3.96100 -4.15400 44.19800
H  -1.04600 -7.32400 44.59500
H  0.95700 -7.42700 46.65100
H  -2.29800 -7.23800 46.52600
H  -2.05100 -5.54900 46.49700
H  -1.11600 -6.65900 47.55500
H  2.21600 -8.53400 44.70300
H  0.84900 -8.30400 43.67700
H  0.30400 -9.46400 46.37900
H  1.26300 -10.49300 45.44500
H  -0.37700 -10.03600 44.87400
H  6.85100 -5.13300 47.14700
H  7.05700 -6.19100 45.82400
H  5.70200 -6.43900 46.96300
H  6.73000 -1.79500 42.52000
H  7.32900 2.23400 43.37300
H  9.04200 1.75500 42.95400
H  8.45600 1.65000 44.60000
Mg 1.94700 42.46800 25.53900
C  2.85600 42.55400 28.96300
C  -1.13800 41.18300 26.48400
C  1.46700 41.53400 22.32600
C  5.31400 43.34300 24.70800
N  0.96000 42.01400 27.55000
C  1.51400 42.30000 28.78900
C  0.45200 41.96000 29.93800
C  -0.71600 41.30100 29.15000
C  -0.31600 41.48600 27.60900
C  -1.01800 39.84000 29.54400
C  0.03200 43.37300 30.63300
C  -0.22800 43.30300 32.15900
H  -1.02500 42.12900 32.72800
N  0.30100 41.61100 24.57700
C  -0.85700 41.16200 25.09700
C  -1.67200 40.59300 24.06200
C  -0.93000 40.68800 22.80300
C  0.32500 41.31200 23.18500
C  -3.07100 40.01600 24.34300
C  -1.42100 40.35700 21.35900
O  -0.73800 40.48200 20.40400
C  -2.83200 39.99900 21.11100
N  3.15300 42.52200 23.78600
C  2.75200 42.04800 22.58100
C  3.72800 42.31300 21.40700
C  4.81700 43.20200 22.16200
C  4.42300 43.05200 23.67800
C  4.20100 41.05800 20.66000
C  4.87300 44.59000 21.65000
C  3.61100 45.44200 21.75600
N  3.69000 42.86000 26.55500
C  5.03600 43.14900 26.11900
C  5.89200 43.31300 27.22900
C  5.09200 43.04300 28.34600
C  3.72800 42.85700 27.86900
C  7.40100 43.64600 27.25000
C  5.19400 42.91200 29.78600
O  6.18500 42.98200 30.48700
C  3.64200 42.68400 30.24100
C  3.70700 41.43100 31.06000
O  3.98500 40.35300 30.56600
O  3.43800 41.63000 32.38900
C  3.72200 40.50400 33.25400
H  -2.10600 40.72500 26.69600
H  1.32400 41.21200 21.29300
H  6.36900 43.57500 24.55000
H  0.96900 41.26400 30.59900
H  -1.61500 41.90300 29.28300
H  -0.36500 39.48300 30.34100
H  -0.86900 39.30500 28.60600
H  -1.99700 39.74400 30.01300
H  -0.90700 43.68500 30.17700
H  0.81500 44.13100 30.60100
H  -0.75400 44.18100 32.53200
H  0.73800 43.30000 32.66300
H  -3.85500 40.74400 24.13700
H  -3.13500 39.58400 25.34100
H  -3.22600 39.11300 23.75200
H  -2.95000 38.93600 21.31800
H  -3.02000 40.06700 20.04000
H  -3.51100 40.67200 21.63400
H  3.26300 42.98400 20.68500
H  5.78700 42.77800 21.90200
H  3.49900 40.83300 19.85800
H  4.28400 40.28000 21.41800
H  5.16400 41.20800 20.17000
H  5.10800 44.43300 20.59700
H  5.66100 45.02500 22.26500
H  2.67800 44.87900 21.78400
H  3.57700 45.95000 20.79300
H  3.62900 46.11800 22.61100
H  7.78400 43.27600 28.20100
H  7.47200 44.72800 27.35800
H  7.98100 43.23200 26.42400
H  3.35600 43.56400 30.81600
H  4.78300 40.57600 33.49000
H  3.49800 39.49800 32.89800
H  3.05600 40.71200 34.09200

