158

Mg 29.97700 58.57900 38.69700
C  27.61500 56.56000 37.32600
C  32.44000 56.18000 38.08400
C  32.31900 61.01200 39.28400
C  27.53500 61.20400 38.69700
N  30.00500 56.51600 37.65000
C  28.85300 55.88600 37.36200
C  29.12300 54.39100 37.12100
C  30.66100 54.26400 37.45100
C  31.09100 55.69500 37.80500
C  31.03000 53.26500 38.49000
C  28.78400 53.84300 35.67000
C  29.21600 54.63600 34.42200
H  28.08700 55.06000 33.48100
N  32.10000 58.49800 38.81400
C  32.88900 57.43000 38.48200
C  34.30100 57.79900 38.73700
C  34.23500 59.18500 39.20800
C  32.84600 59.64400 39.07500
C  35.49200 56.88100 38.57200
C  35.48400 59.92300 39.58300
O  36.60700 59.42400 39.64000
C  35.48500 61.44600 39.92100
N  29.94200 60.74600 39.01700
C  31.02700 61.44800 39.39000
C  30.75800 62.93300 39.39100
C  29.21400 62.93700 39.46900
C  28.81100 61.56100 39.04600
C  31.55400 63.86100 40.39400
C  28.47700 64.12300 38.69000
C  28.54100 64.01500 37.10500
N  28.04600 58.88000 38.07200
C  27.13100 59.96400 38.20500
C  25.79700 59.63000 37.71500
C  25.86900 58.19000 37.57600
C  27.28200 57.92400 37.65600
C  24.51800 60.48800 37.56600
C  25.10100 56.99900 37.27900
O  23.90900 56.70500 37.14200
C  26.25600 55.88100 37.03600
C  25.77900 54.74200 37.92400
O  26.05100 54.56400 39.10000
O  24.90200 53.95600 37.21300
C  24.23400 52.93100 37.98200
H  33.13000 55.33400 38.05400
H  32.98400 61.86000 39.45800
H  26.74400 61.94000 38.85400
H  28.51200 53.81200 37.81400
H  31.11500 54.04600 36.48400
H  30.15700 52.92800 39.05000
H  31.76500 53.66000 39.19100
H  31.44500 52.36000 38.04700
H  27.76800 53.45100 35.61700
H  29.38200 52.93500 35.59100
H  29.90200 54.02100 33.83800
H  29.60400 55.57000 34.82900
H  36.11200 57.36700 37.81800
H  35.16900 55.93200 38.14400
H  36.12800 56.66100 39.43000
H  36.46000 61.83400 40.21400
H  34.79300 61.59700 40.75000
H  35.10400 62.09700 39.13400
H  30.96300 63.31500 38.39100
H  28.95000 63.14600 40.50600
H  32.29900 64.48800 39.90400
H  32.02600 63.30500 41.20400
H  30.83800 64.52100 40.88500
H  28.84800 65.12000 38.93100
H  27.47400 64.01700 39.10500
H  28.93900 64.90800 36.62300
H  27.55400 63.76000 36.71700
H  29.06800 63.14300 36.71800
H  23.76700 60.01400 36.93400
H  24.69300 61.49300 37.18000
H  23.99000 60.54600 38.51700
H  26.21100 55.47400 36.02600
H  23.72600 52.27200 37.27900
H  23.54200 53.43100 38.65900
H  24.92600 52.27100 38.50600
Mg 17.23000 51.43500 25.56100
C  18.81400 50.47200 28.57400
C  14.32100 52.25900 27.54600
C  15.39000 51.95500 22.75200
C  19.70100 50.07200 23.69000
N  16.68000 51.52600 27.79300
C  17.53900 51.04500 28.77400
C  16.98300 51.53400 30.16400
C  15.44500 51.72400 29.83400
C  15.44800 51.86100 28.29700
C  14.54100 50.53600 30.27500
C  17.60400 52.83200 30.71300
C  17.48700 52.99700 32.18900
H  16.39800 52.36400 33.04800
N  15.25600 52.22300 25.25000
C  14.25300 52.51900 26.12100
C  13.15100 53.11700 25.43900
C  13.46100 53.04300 24.08900
C  14.77300 52.42900 23.97700
C  11.93700 53.70400 26.22600
C  12.65700 53.51500 22.90300
O  13.22300 53.53000 21.79800
C  11.28000 54.07900 23.04800
N  17.56900 51.20000 23.51900
C  16.63200 51.32000 22.55400
C  17.18400 50.94100 21.19500
C  18.73400 50.71900 21.49500
C  18.66000 50.62200 23.01900
C  16.44000 49.78000 20.51400
C  19.77700 51.79200 20.85100
C  21.07000 51.21800 20.29400
N  18.90200 50.44900 25.95500
C  19.91700 50.00000 25.12200
C  21.00800 49.47500 25.91600
C  20.70100 49.73200 27.22900
C  19.32000 50.24400 27.24900
C  22.20700 48.64500 25.38800
C  21.14700 49.66400 28.57400
O  22.22300 49.35500 29.03100
C  19.91700 50.18200 29.51100
C  19.51300 49.09200 30.40600
O  19.39500 47.93400 30.06900
O  18.99900 49.65800 31.61100
C  18.38700 48.77700 32.59500
H  13.43600 52.51100 28.13500
H  15.03400 51.95100 21.72000
H  20.47300 49.54600 23.12500
H  16.99000 50.68700 30.85000
H  15.04800 52.68100 30.17100
H  14.56300 49.79700 29.47500
H  13.55800 50.84300 30.63100
H  15.05100 50.01500 31.08600
H  17.13300 53.66800 30.19500
H  18.66400 52.82700 30.45800
H  17.59900 54.05800 32.41200
H  18.41600 52.71800 32.68600
H  11.86300 53.29200 27.23200
H  11.00500 53.44000 25.72600
H  11.95900 54.79300 26.25700
H  10.67100 53.32600 23.54900
H  10.95100 54.05500 22.00900
H  11.22600 55.05100 23.53800
H  17.08200 51.81800 20.55700
H  18.95300 49.70100 21.17400
H  15.47100 49.69100 21.00500
H  17.00400 48.85000 20.57000
H  16.11200 49.87200 19.47800
H  19.90200 52.61900 21.55100
H  19.24200 52.24600 20.01700
H  21.01200 51.14000 19.20800
H  21.37100 50.27100 20.74200
H  21.87100 51.91400 20.54300
H  23.13800 48.96300 25.85800
H  22.29100 48.55200 24.30500
H  21.95800 47.64300 25.73700
H  20.28200 51.01800 30.10800
H  18.39800 49.33000 33.53500
H  19.10200 47.98200 32.80600
H  17.43600 48.34800 32.28100

