158

Mg 44.57700 4.93600 47.60100
C  42.23900 7.38800 46.71600
C  42.03800 2.66400 47.02900
C  46.85100 2.58900 47.22400
C  47.12600 7.43500 47.52000
N  42.38400 5.03900 47.07500
C  41.72500 6.13200 46.73600
C  40.26800 5.86000 46.51600
C  40.15200 4.42300 47.19500
C  41.59700 4.02200 47.12900
C  39.56100 4.43800 48.65700
C  39.78100 5.83700 45.04100
C  38.62700 6.82600 44.75400
H  38.90600 7.86200 43.65200
N  44.40500 2.82700 47.36700
C  43.29200 2.14500 47.12700
C  43.63700 0.69600 47.08500
C  45.07700 0.64700 47.03700
C  45.51700 2.05500 47.23000
C  42.59600 -0.43300 47.16200
C  45.90700 -0.64100 46.85300
O  45.32700 -1.73500 46.76200
C  47.46600 -0.53300 46.66300
N  46.67800 5.04300 47.41000
C  47.36200 3.84100 47.32800
C  48.90000 4.04200 47.43900
C  48.98100 5.59100 47.60400
C  47.53500 6.06400 47.44300
C  49.62800 3.16300 48.56200
C  49.86000 6.35500 46.57900
C  50.42800 7.65600 47.06000
N  44.68300 7.06600 47.48600
C  45.81400 7.94300 47.48800
C  45.31800 9.25000 47.41400
C  43.95300 9.14000 47.03500
C  43.59000 7.79500 47.05300
C  46.21800 10.48100 47.49400
C  42.75200 9.88500 46.70100
O  42.52300 11.02400 46.58200
C  41.65000 8.74700 46.50800
C  40.53900 9.03000 47.52200
O  40.49800 8.82700 48.76200
O  39.51800 9.60000 46.82400
C  38.18300 9.62500 47.47500
H  41.17300 1.99900 47.06100
H  47.60300 1.79800 47.27100
H  47.88500 8.21900 47.46800
H  39.71700 6.66600 47.00100
H  39.48900 3.74700 46.65500
H  39.27400 5.40600 49.06900
H  40.31900 4.08800 49.35900
H  38.71100 3.76000 48.58200
H  39.50200 4.82100 44.76100
H  40.58500 6.15900 44.38000
H  38.33800 7.30500 45.68900
H  37.71500 6.24700 44.60600
H  42.65300 -1.12900 46.32500
H  41.57100 -0.08300 47.28300
H  42.95800 -1.02000 48.00600
H  48.00800 -0.16700 47.53500
H  47.54100 0.23200 45.89000
H  47.83700 -1.49100 46.29800
H  49.33700 3.78400 46.47500
H  49.23200 5.86400 48.62900
H  48.85300 2.59400 49.07600
H  50.22700 3.60500 49.35800
H  50.20100 2.46700 47.95000
H  49.15000 6.60300 45.79000
H  50.50800 5.67800 46.02200
H  50.39600 7.86900 48.12900
H  49.93600 8.45600 46.50700
H  51.48300 7.71500 46.79100
H  46.76800 10.54300 46.55500
H  46.78900 10.26500 48.39700
H  45.60400 11.36300 47.67600
H  41.22700 8.92800 45.52000
H  37.96500 10.39100 48.21900
H  37.87200 8.70900 47.97600
H  37.49700 9.73100 46.63400
Mg -9.63300 38.86300 39.80200
C  -8.77500 35.54300 39.30300
C  -6.28600 39.75300 39.06000
C  -10.59700 42.06000 39.21600
C  -13.01300 37.92200 40.15800
N  -7.69100 37.77700 39.35500
C  -7.64800 36.49000 39.13600
C  -6.20100 36.05000 38.89800
C  -5.36600 37.33500 39.15000
C  -6.43600 38.42200 39.22900
C  -4.53500 37.30300 40.44100
C  -5.86700 35.28200 37.58200
C  -6.18300 36.11100 36.30100
H  -7.32500 35.63200 35.44200
N  -8.59900 40.62900 39.30400
C  -7.25400 40.74600 39.04200
C  -6.99700 42.13400 38.67700
C  -8.19300 42.90300 38.68800
C  -9.23200 41.85300 39.01100
C  -5.62400 42.64100 38.38100
C  -8.41100 44.35100 38.32100
O  -7.47200 45.07500 38.14100
C  -9.80600 44.87000 38.08700
N  -11.53600 39.82100 39.73600
C  -11.61700 41.16400 39.53700
C  -13.03600 41.64100 39.37900
C  -13.93500 40.25000 39.74800
C  -12.77500 39.22900 39.90100
C  -13.37600 42.86900 40.36400
C  -15.02000 39.80600 38.73300
C  -16.39800 39.89600 39.41500
N  -10.64800 37.10100 39.94100
C  -12.07900 36.83300 40.05600
C  -12.29900 35.36700 40.11600
C  -11.04400 34.83700 39.75300
C  -10.09200 35.91500 39.67400
C  -13.64200 34.63000 40.44000
C  -10.31100 33.56100 39.42000
O  -10.74300 32.43600 39.38600
C  -8.92800 33.97600 39.00200
C  -7.89300 33.13700 39.75000
O  -7.73400 33.10100 40.95500
O  -7.11700 32.36100 38.88200
C  -5.97300 31.63000 39.50500
H  -5.21800 39.94000 38.92900
H  -11.05500 43.05100 39.24200
H  -14.04000 37.55900 40.23700
H  -5.97800 35.30100 39.65800
H  -4.73000 37.42800 38.26900
H  -3.50500 37.12500 40.13200
H  -4.86500 36.52700 41.13100
H  -4.67800 38.29200 40.87800
H  -6.48500 34.38700 37.49900
H  -4.81600 34.99500 37.53000
H  -5.29300 36.24300 35.68600
H  -6.44100 37.10700 36.66000
H  -5.67700 43.39400 37.59400
H  -4.89800 41.88500 38.08200
H  -5.20000 43.08200 39.28300
H  -10.25700 45.04900 39.06300
H  -10.19700 44.10500 37.41700
H  -9.85500 45.82100 37.55600
H  -13.21000 42.03500 38.37800
H  -14.28900 40.37800 40.77100
H  -13.30400 43.85200 39.89900
H  -12.59800 42.87600 41.12800
H  -14.33800 42.72500 40.85600
H  -14.93800 38.73800 38.53200
H  -15.02900 40.26500 37.74400
H  -17.01800 40.55800 38.81000
H  -16.44300 40.20600 40.45900
H  -16.91300 38.93600 39.37000
H  -13.64500 33.55100 40.28300
H  -14.54600 35.05400 40.00300
H  -13.70900 34.67100 41.52700
H  -8.81600 33.59600 37.98700
H  -4.99500 31.96200 39.15600
H  -5.93600 30.56000 39.30000
H  -5.87000 31.79100 40.57800

