158

Mg 40.66800 9.11000 29.61500
C  42.56100 10.31700 32.30900
C  38.41000 7.67800 31.80600
C  39.08600 7.98600 26.87300
C  43.27500 10.04900 27.48900
N  40.55800 8.95300 31.80900
C  41.41100 9.60800 32.73200
C  40.88300 9.42200 34.11100
C  39.51500 8.63700 33.94300
C  39.50000 8.36300 32.43000
C  39.22700 7.37900 34.81800
C  40.77200 10.76700 34.92000
C  39.47400 11.16700 35.72100
H  39.41700 12.05100 36.89600
N  39.04200 7.86900 29.36200
C  38.21000 7.40800 30.39400
C  37.12300 6.69000 29.80300
C  37.38100 6.72800 28.37700
C  38.49100 7.62200 28.13500
C  36.12400 5.93900 30.63500
C  36.56700 6.05000 27.25600
O  36.85500 6.04000 26.08500
C  35.44800 5.15100 27.56000
N  41.14500 8.97400 27.43000
C  40.25100 8.66500 26.49100
C  40.80500 8.72100 24.99900
C  42.24500 9.34800 25.26000
C  42.21900 9.55000 26.83000
C  40.81700 7.37700 24.22800
C  42.49900 10.70500 24.54700
C  41.75100 11.90700 25.08800
N  42.46000 10.05800 29.72800
C  43.43100 10.34800 28.82600
C  44.58900 10.92400 29.43900
C  44.29400 10.95500 30.78900
C  43.00300 10.41000 30.93600
C  45.82500 11.25500 28.65100
C  44.75900 11.28400 32.10200
O  45.79700 11.82000 32.43100
C  43.59700 11.00000 33.22000
C  44.25800 10.12800 34.15500
O  44.41000 8.90200 34.00800
O  44.70800 10.88000 35.13400
C  45.47800 10.33400 36.20100
H  37.61100 7.28800 32.43900
H  38.61200 7.61800 25.96000
H  44.21900 10.09200 26.94200
H  41.60100 8.74600 34.57600
H  38.68100 9.33800 33.90700
H  38.25300 7.38500 35.30900
H  40.06700 7.25400 35.50200
H  39.14800 6.55200 34.11200
H  40.92300 11.54900 34.17600
H  41.58900 10.93000 35.62300
H  39.08400 10.20700 36.05700
H  38.75600 11.58900 35.01800
H  35.95000 6.28700 31.65300
H  36.43400 4.90200 30.76800
H  35.23600 5.81900 30.01500
H  34.49200 5.59200 27.84300
H  35.72200 4.52900 28.41200
H  35.27700 4.35800 26.83200
H  40.07200 9.38500 24.54100
H  42.99600 8.60000 25.00700
H  40.02000 7.27200 23.49200
H  40.74200 6.63000 25.01800
H  41.74800 7.35100 23.66200
H  42.38000 10.69400 23.46300
H  43.55100 10.97800 24.63000
H  42.34100 12.62400 25.66000
H  40.91200 11.60700 25.71500
H  41.33300 12.47700 24.25800
H  46.22400 10.45000 28.03400
H  46.48900 11.55200 29.46300
H  45.62700 12.06100 27.94400
H  43.26000 11.97200 33.57900
H  46.14600 9.50900 35.95000
H  44.88100 9.85300 36.97500
H  46.12300 11.10300 36.62600
Mg 7.09600 53.30300 42.00500
C  6.53500 49.84500 41.90200
C  10.08300 52.84700 40.62800
C  6.97700 56.60900 41.36900
C  3.52800 53.55700 42.88000
N  8.24700 51.54100 41.35600
C  7.74300 50.24300 41.35100
C  8.86100 49.27400 40.88700
C  10.14100 50.19000 40.82000
C  9.51300 51.59600 40.97500
C  11.03800 49.82200 42.00700
C  8.64500 48.64000 39.38400
C  7.75300 49.48500 38.41600
H  8.21100 49.62800 36.91700
N  8.36500 54.55400 41.27200
C  9.58500 54.16600 40.77900
C  10.27100 55.34900 40.39500
C  9.46500 56.46100 40.63200
C  8.15300 55.93100 41.05600
C  11.78500 55.33200 39.97700
C  9.90900 57.91100 40.40800
O  10.99600 58.06800 39.86900
C  9.03900 59.04000 40.79600
N  5.53900 54.76900 42.21800
C  5.83800 56.05700 41.93600
C  4.64700 56.86200 42.32300
C  3.44000 55.92200 42.40100
C  4.23600 54.66600 42.60000
C  4.81200 57.80900 43.51600
C  2.52100 55.92500 41.14200
C  0.94900 56.03800 41.32400
N  5.27800 51.95000 42.43200
C  4.04500 52.22900 42.90500
C  3.33200 50.98600 43.04200
C  4.32100 50.05800 42.71400
C  5.46200 50.64400 42.36500
C  1.97100 50.92100 43.51200
C  4.59300 48.66600 42.78600
O  3.83700 47.72500 43.09100
C  6.02400 48.42400 42.22200
C  5.79300 47.58100 41.07200
O  5.10400 47.88300 40.10900
O  6.39900 46.34400 41.29800
C  6.11400 45.39500 40.22100
H  11.05000 52.65900 40.15700
H  6.90900 57.67700 41.15400
H  2.49900 53.72300 43.20600
H  9.00000 48.46600 41.60500
H  10.76200 50.01500 39.94200
H  10.40800 49.72200 42.89000
H  11.68200 50.67000 42.23900
H  11.61600 48.93500 41.74400
H  8.20600 47.64200 39.38100
H  9.62600 48.49200 38.93300
H  7.87800 50.50100 38.79200
H  6.70100 49.21700 38.52100
H  11.91800 55.75600 38.98200
H  12.16100 54.31900 39.83200
H  12.47600 55.78400 40.69000
H  8.39700 59.36700 39.97800
H  9.66500 59.83400 41.20400
H  8.46100 58.74700 41.67200
H  4.41000 57.49800 41.47100
H  2.91700 56.17400 43.32300
H  3.90200 57.76700 44.11400
H  4.82600 58.79000 43.04100
H  5.72800 57.59900 44.06900
H  2.69600 54.95900 40.66800
H  2.93000 56.60900 40.39800
H  0.56900 56.94100 40.84500
H  0.73400 56.04600 42.39300
H  0.52200 55.12100 40.92100
H  1.46200 51.88500 43.49400
H  1.99300 50.49300 44.51400
H  1.60300 50.24100 42.74400
H  6.66900 47.88200 42.91400
H  6.35300 45.84500 39.25800
H  5.09700 45.00400 40.20000
H  6.80200 44.55000 40.26800

