158

Mg 55.46200 25.37100 45.57100
C  52.59600 27.10200 44.47100
C  54.08600 22.45600 44.79900
C  58.56000 24.09300 45.74400
C  56.79300 28.58500 46.59900
N  53.66100 24.92700 44.80000
C  52.59800 25.65600 44.37200
C  51.30700 24.80800 44.03700
C  51.71600 23.36100 44.65600
C  53.30800 23.55700 44.86600
C  51.07300 22.90000 45.95600
C  51.05900 24.76000 42.51500
C  49.51500 24.70600 42.23300
H  49.04100 23.59300 41.23700
N  56.19300 23.47000 45.41900
C  55.50400 22.43800 44.91500
C  56.38300 21.33100 44.74400
C  57.62500 21.70300 45.18300
C  57.52700 23.12700 45.57700
C  55.86800 20.00000 44.28600
C  58.87200 20.79600 45.23800
O  58.79600 19.64400 44.82700
C  60.23000 21.22000 45.78400
N  57.37800 26.21500 46.01500
C  58.50500 25.46900 46.04100
C  59.77400 26.25000 46.49600
C  59.18200 27.69900 46.61400
C  57.63900 27.53600 46.41100
C  60.47900 25.69000 47.75200
C  60.01400 28.69200 45.67800
C  59.57500 28.84700 44.19400
N  54.79100 27.44500 45.54800
C  55.46000 28.60900 46.04100
C  54.52200 29.71100 45.87600
C  53.40000 29.19000 45.27500
C  53.63100 27.82500 45.08000
C  54.87200 31.04000 46.42200
C  52.08600 29.49600 44.70400
O  51.43800 30.49400 44.58600
C  51.62300 28.10300 44.05400
C  51.51100 28.32000 42.54400
O  52.37900 28.58200 41.76300
O  50.24200 28.22000 42.20700
C  49.90900 28.43500 40.80000
H  53.65300 21.48500 44.54600
H  59.59200 23.74400 45.67500
H  57.33200 29.48000 46.91600
H  50.40000 25.12000 44.55500
H  51.58100 22.56400 43.92500
H  50.53200 21.95700 45.87300
H  50.31100 23.55000 46.38700
H  51.81000 22.92400 46.75900
H  51.46700 23.82400 42.13400
H  51.55300 25.61200 42.04700
H  49.24800 25.70400 41.88500
H  48.96200 24.54800 43.15900
H  54.93400 19.92000 44.84300
H  56.31500 19.07400 44.64900
H  55.73800 19.98200 43.20400
H  60.86200 21.60500 44.98400
H  60.68900 20.40400 46.34400
H  60.01800 21.94600 46.56900
H  60.49300 26.15200 45.68200
H  59.32000 28.02900 47.64400
H  61.54100 25.93800 47.74200
H  60.47800 24.60500 47.85800
H  59.98900 25.99600 48.67700
H  61.05400 28.37200 45.62300
H  60.05400 29.68400 46.12800
H  59.51800 29.86000 43.79700
H  58.63300 28.30900 44.08700
H  60.29600 28.44500 43.48300
H  55.92300 31.14000 46.69400
H  54.39700 31.26100 47.37800
H  54.53900 31.72400 45.64200
H  50.62000 27.90000 44.42900
H  49.51700 29.44800 40.70600
H  49.11900 27.73900 40.51700
H  50.68800 28.50500 40.04000
Mg -5.93200 25.22900 26.23100
C  -4.88900 26.82300 29.12000
C  -7.68600 23.03100 28.16100
C  -6.83500 23.68800 23.35000
C  -3.98300 27.52100 24.37400
N  -6.26400 25.06100 28.39400
C  -5.79400 25.85500 29.36900
C  -6.38100 25.43000 30.70200
C  -7.14200 24.10200 30.37900
C  -7.07300 24.06700 28.93800
C  -6.47800 22.93700 31.24100
C  -7.29900 26.51200 31.27200
C  -7.04900 27.05000 32.64800
H  -6.66000 26.08300 33.70600
N  -6.99400 23.52600 25.77500
C  -7.67100 22.78100 26.70000
C  -8.49800 21.78700 25.98000
C  -8.12700 21.92200 24.55000
C  -7.33600 23.08600 24.50000
C  -9.49900 20.89400 26.69200
C  -8.57700 21.09400 23.43300
O  -8.15900 21.18200 22.29100
C  -9.64300 20.19600 23.65900
N  -5.43400 25.55500 24.19000
C  -5.94200 24.79200 23.17600
C  -5.51700 25.22500 21.85800
C  -4.75400 26.48900 22.12400
C  -4.73100 26.58900 23.62500
C  -4.62700 24.08600 21.14900
C  -5.33400 27.73700 21.51000
C  -5.30300 27.66400 20.01500
N  -4.59900 26.76600 26.58400
C  -3.88200 27.60200 25.77700
C  -3.12800 28.57100 26.54500
C  -3.48100 28.27200 27.86500
C  -4.31800 27.12100 27.86100
C  -2.39100 29.73100 26.12500
C  -3.30400 28.79800 29.21100
O  -2.73100 29.75000 29.72600
C  -4.23000 27.78600 30.11400
C  -3.53400 27.09100 31.23500
O  -2.97900 25.97700 31.09600
O  -3.53900 27.84300 32.36900
C  -2.49400 27.42800 33.33800
H  -8.26200 22.42600 28.86400
H  -7.03900 23.21200 22.38900
H  -3.37700 28.14000 23.70800
H  -5.53600 25.25300 31.36800
H  -8.16400 24.07800 30.75700
H  -7.12600 22.64700 32.06800
H  -5.49600 23.20400 31.63300
H  -6.44100 21.96400 30.75100
H  -8.34300 26.20200 31.22600
H  -7.17200 27.42900 30.69700
H  -8.04400 27.44900 32.84700
H  -6.32600 27.86600 32.65200
H  -9.14900 19.86300 26.74200
H  -10.39400 20.98600 26.07700
H  -9.64600 21.30800 27.68900
H  -9.32600 19.64100 24.54100
H  -9.74400 19.54300 22.79200
H  -10.58700 20.70900 23.84300
H  -6.41300 25.30700 21.24400
H  -3.71800 26.38100 21.80500
H  -4.53600 23.23700 21.82600
H  -3.59400 24.41700 21.04200
H  -4.99400 23.89800 20.14000
H  -4.72500 28.60800 21.75200
H  -6.30200 27.98000 21.94900
H  -6.30500 27.56900 19.59600
H  -4.72600 26.82100 19.63600
H  -4.79200 28.53200 19.59900
H  -1.37400 29.52100 25.79400
H  -2.40800 30.54500 26.84900
H  -2.88700 30.16100 25.25500
H  -5.03000 28.45800 30.42500
H  -2.65000 27.87800 34.31900
H  -1.54400 27.89300 33.07700
H  -2.35800 26.35000 33.41800

