158

Mg 46.87400 24.76700 28.74000
C  47.86500 27.28400 30.95200
C  45.89700 22.79800 31.32600
C  46.64400 22.33100 26.55600
C  48.68200 26.64300 26.24700
N  46.91100 25.02800 30.85300
C  47.23000 26.14300 31.55600
C  46.96600 25.90300 33.07900
C  46.65600 24.36000 33.16500
C  46.53600 23.98300 31.66100
C  47.59900 23.47900 33.98800
C  45.81200 26.79500 33.64300
C  45.48800 26.74200 35.14800
H  46.54500 26.17600 36.14300
N  46.16400 22.85800 28.89600
C  45.67400 22.25700 30.02000
C  44.94900 21.09400 29.64000
C  45.14800 20.90700 28.24400
C  46.04600 22.00700 27.81100
C  44.22600 20.11100 30.57900
C  44.60100 19.82300 27.29200
O  44.72400 19.96000 26.05300
C  43.73100 18.68700 27.74700
N  47.76400 24.50800 26.72500
C  47.44300 23.36100 26.05900
C  47.96900 23.37300 24.57300
C  48.35600 24.88100 24.46100
C  48.32400 25.37100 25.85700
C  49.11600 22.39000 24.25900
C  47.41300 25.72900 23.54800
C  48.06900 26.51400 22.36500
N  47.88300 26.63700 28.54500
C  48.58400 27.22900 27.55000
C  49.09900 28.54700 27.92300
C  48.78000 28.61300 29.29500
C  48.15500 27.40200 29.61800
C  49.78800 29.44800 26.94000
C  48.96800 29.45000 30.51800
O  49.42400 30.61400 30.65300
C  48.36600 28.53700 31.61500
C  49.50000 28.41400 32.48500
O  50.49500 27.69200 32.27000
O  49.27400 29.13400 33.64700
C  50.32900 29.11000 34.65100
H  45.57800 22.13100 32.13000
H  46.60900 21.45200 25.90900
H  49.14700 27.30200 25.51000
H  47.89000 26.22300 33.56000
H  45.75100 24.27200 33.76600
H  48.33800 24.02000 34.57900
H  48.14500 22.87700 33.26100
H  47.09500 22.68700 34.54200
H  44.89900 26.73000 33.05100
H  46.12600 27.83800 33.67000
H  44.62000 26.09200 35.26200
H  45.28100 27.76200 35.47200
H  44.41200 20.47000 31.59100
H  44.66300 19.11700 30.49200
H  43.18400 20.16200 30.26000
H  44.07000 18.20500 28.66400
H  43.79100 17.94300 26.95300
H  42.77400 19.14200 28.00100
H  47.17700 23.23500 23.83600
H  49.40500 24.83900 24.16800
H  49.05500 21.67800 25.08100
H  50.10800 22.83300 24.35900
H  48.86500 21.97700 23.28200
H  46.74700 26.33400 24.16300
H  46.81300 25.04500 22.94700
H  47.52900 27.46200 22.36700
H  47.89600 26.06700 21.38600
H  49.13200 26.72400 22.48200
H  50.79100 29.02200 26.90800
H  49.78800 30.47500 27.30500
H  49.25300 29.43000 25.99100
H  47.52400 29.02000 32.11100
H  50.33700 28.11700 35.10000
H  50.16600 29.94000 35.33800
H  51.28000 29.08100 34.11900
Mg 47.92200 34.19400 26.80600
C  46.14800 32.93000 29.60900
C  48.68600 37.00000 28.58200
C  48.91000 35.76600 23.92600
C  46.89100 31.50700 24.98300
N  47.49800 34.76100 28.85200
C  46.85000 34.08600 29.88200
C  46.97600 34.78400 31.18900
C  47.36700 36.22100 30.68300
C  47.94700 36.02700 29.26400
C  46.21600 37.27800 30.77800
C  48.02700 34.16800 32.19500
C  47.69700 34.36400 33.62400
H  46.71900 35.45300 34.08900
N  48.65800 36.13800 26.36900
C  48.99400 37.05400 27.27200
C  49.60100 38.21000 26.59900
C  49.60900 37.92900 25.17800
C  48.93900 36.57400 25.09100
C  50.09500 39.38400 27.31600
C  50.22500 38.71100 24.11100
O  50.24000 38.25200 22.95800
C  51.01500 39.98700 24.32500
N  47.80800 33.71200 24.73800
C  48.37900 34.46700 23.74600
C  48.40700 33.73000 22.45900
C  47.65000 32.37900 22.64800
C  47.47900 32.49500 24.19000
C  47.90500 34.52500 21.25200
C  48.49100 31.12300 22.30100
C  49.60600 30.67100 23.22500
N  46.84100 32.45000 27.21400
C  46.50500 31.42100 26.35700
C  45.80000 30.40900 27.08800
C  45.53300 31.02600 28.35500
C  46.23200 32.23900 28.41000
C  45.23800 29.16500 26.63200
C  44.78000 30.82600 29.53700
O  44.06600 29.84800 29.85500
C  45.03500 32.13700 30.40000
C  45.32300 31.74700 31.78700
O  46.33900 31.19200 32.15300
O  44.22600 32.19800 32.59600
C  44.38000 31.85300 34.03100
H  48.87900 37.85700 29.23100
H  49.56400 36.10400 23.11900
H  46.67100 30.58300 24.44400
H  45.96000 34.72600 31.57900
H  48.08900 36.58000 31.41700
H  45.28900 36.92000 31.22500
H  45.90000 37.48400 29.75500
H  46.50600 38.23100 31.22000
H  49.06500 34.47000 32.05000
H  48.12300 33.08300 32.17100
H  48.63200 34.60800 34.12900
H  47.22000 33.47300 34.03100
H  49.68800 40.27900 26.84700
H  51.18300 39.33600 27.26500
H  49.89000 39.43500 28.38600
H  51.29700 40.46500 23.38700
H  51.90300 39.70600 24.89200
H  50.53600 40.68500 25.01200
H  49.45900 33.51400 22.27100
H  46.77000 32.54900 22.02900
H  46.95200 34.11500 20.91900
H  48.75800 34.64700 20.58400
H  47.65100 35.53300 21.58000
H  48.90800 31.29800 21.31000
H  47.73500 30.35500 22.46300
H  49.92200 31.46600 23.90100
H  50.53800 30.39200 22.73300
H  49.30200 29.79100 23.79100
H  45.46100 28.44000 27.41500
H  45.64800 28.87200 25.66500
H  44.15800 29.26900 26.52600
H  44.08400 32.66900 30.41600
H  43.72400 31.01000 34.25000
H  44.01700 32.70900 34.60000
H  45.37100 31.59900 34.40700

