158

Mg 47.80800 16.03600 28.44300
C  45.84600 15.90200 31.33900
C  50.14000 17.74000 30.12300
C  49.49700 16.58300 25.45500
C  45.14800 14.76800 26.60700
N  47.93200 16.74900 30.54100
C  47.03300 16.59600 31.58000
C  47.59800 17.24400 32.85000
C  48.81400 18.08700 32.25000
C  48.97400 17.47600 30.88700
C  48.58200 19.55300 32.27300
C  47.91200 16.14200 33.96800
C  48.58700 16.52800 35.26800
H  48.59900 17.95800 35.86900
N  49.59000 16.89400 27.88000
C  50.42500 17.49900 28.81600
C  51.63800 17.88800 28.13900
C  51.50900 17.45700 26.72400
C  50.14400 16.96600 26.63300
C  52.90200 18.46300 28.97800
C  52.61300 17.56700 25.61500
O  52.34500 17.24400 24.48100
C  54.01900 18.10900 25.91700
N  47.35400 15.75900 26.38000
C  48.19900 16.02300 25.33800
C  47.58700 15.84900 23.99100
C  46.32600 15.04100 24.34200
C  46.26100 15.17800 25.88100
C  47.22800 17.23600 23.30600
C  46.49900 13.53000 23.97400
C  45.84900 13.09900 22.58700
N  45.84700 15.41800 28.78400
C  44.91400 14.84100 28.01300
C  43.71700 14.52600 28.79800
C  44.10800 14.86400 30.10200
C  45.37200 15.45700 30.07600
C  42.45800 13.86700 28.25400
C  43.64400 14.83600 31.47200
O  42.64200 14.36200 31.93800
C  44.78400 15.56400 32.36900
C  44.19200 16.77900 32.99600
O  44.25000 17.91400 32.63200
O  43.53400 16.41800 34.16400
C  42.87100 17.44000 34.91400
H  50.75300 18.50600 30.60300
H  50.08300 16.62600 24.53500
H  44.32500 14.46600 25.95600
H  46.87700 17.79900 33.44900
H  49.73600 17.87800 32.79200
H  48.10900 19.81800 31.32800
H  49.53500 20.08100 32.28500
H  47.91900 19.93300 33.05000
H  48.55900 15.39000 33.51700
H  46.95500 15.71300 34.26600
H  49.63700 16.24100 35.22100
H  48.18000 15.83400 36.00300
H  53.19900 19.30300 28.34900
H  53.68300 17.76300 29.27200
H  52.53100 18.88400 29.91200
H  54.01600 19.19100 25.78700
H  54.64200 17.70400 25.12000
H  54.32500 17.74000 26.89600
H  48.34500 15.17800 23.58900
H  45.43900 15.44800 23.85700
H  47.39900 18.06900 23.98800
H  46.23800 17.18100 22.85300
H  47.79900 17.57700 22.44300
H  46.08800 12.85700 24.72600
H  47.56400 13.30000 23.93900
H  44.87900 12.62200 22.72700
H  46.54900 12.35000 22.21800
H  45.78800 13.91000 21.86100
H  41.59500 14.08600 28.88300
H  42.69700 12.80500 28.20700
H  42.21000 14.20900 27.24900
H  45.22900 14.89400 33.10400
H  41.92000 17.50600 34.38600
H  43.24800 18.46000 34.99400
H  42.56800 17.08800 35.90000
Mg 47.86400 25.00700 28.57100
C  48.75400 26.97200 31.19500
C  46.87400 22.55800 30.83400
C  47.02900 23.02600 25.99600
C  49.09100 27.39600 26.26900
N  47.60100 24.84100 30.74600
C  48.01200 25.83300 31.61300
C  47.71300 25.46900 33.07700
C  47.30900 23.97000 32.93500
C  47.26000 23.74800 31.37800
C  48.19100 22.97300 33.62800
C  46.66200 26.39700 33.76100
C  47.11900 27.10600 35.04500
H  46.05600 27.62200 35.96700
N  47.10900 23.00400 28.44600
C  46.68800 22.18100 29.46800
C  46.21800 20.89300 28.96200
C  46.37100 21.05400 27.52100
C  46.91900 22.39500 27.24800
C  45.63400 19.78300 29.83200
C  46.09200 19.97200 26.49900
O  46.34400 20.08700 25.28700
C  45.46200 18.69300 26.98000
N  48.25900 25.08700 26.33900
C  47.62600 24.20000 25.51800
C  47.47500 24.74500 24.10300
C  48.25000 26.13800 24.15700
C  48.58900 26.20500 25.66100
C  47.93200 23.83800 23.01000
C  47.51800 27.35000 23.56000
C  48.12700 27.99900 22.31600
N  48.85500 26.74400 28.65600
C  49.26500 27.59900 27.68100
C  49.91100 28.70700 28.32400
C  49.58300 28.58600 29.71000
C  49.01700 27.35200 29.85700
C  50.62300 29.95400 27.72200
C  49.71600 29.22000 30.98700
O  50.22600 30.31400 31.29000
C  49.33400 28.13700 32.02600
C  50.53100 27.75300 32.93900
O  51.57000 27.27000 32.51900
O  50.24600 27.99400 34.22500
C  51.24000 27.52100 35.24700
H  46.47500 21.74300 31.44200
H  46.54900 22.40400 25.23700
H  49.39000 28.17500 25.56500
H  48.68500 25.59300 33.55500
H  46.33800 23.83200 33.41100
H  47.70200 22.54600 34.50300
H  49.14400 23.39200 33.95000
H  48.41000 22.15900 32.93700
H  45.76900 25.86000 34.08100
H  46.30800 27.14700 33.05400
H  47.72100 27.95500 34.72100
H  47.72600 26.39100 35.59900
H  46.22600 18.88400 29.65700
H  44.63600 19.62000 29.42400
H  45.44500 19.95700 30.89100
H  45.39100 17.94800 26.18700
H  44.48600 18.99000 27.36500
H  46.06900 18.20200 27.74000
H  46.40600 24.93500 24.00200
H  49.20800 26.01400 23.65100
H  47.00800 23.55100 22.50700
H  48.44400 22.99700 23.47700
H  48.72400 24.17400 22.34100
H  47.30600 28.07700 24.34400
H  46.50800 27.02200 23.31500
H  49.19100 27.81400 22.16900
H  47.96500 29.07700 22.32400
H  47.55500 27.63400 21.46300
H  51.41300 29.61200 27.05300
H  51.00900 30.55500 28.54500
H  49.85900 30.37300 27.06600
H  48.53100 28.70200 32.50000
H  50.82100 26.61300 35.68100
H  51.17700 28.23400 36.06800
H  52.27700 27.33900 34.96400

