158

Mg 35.69400 0.99400 28.96300
C  33.63800 2.61200 31.39300
C  38.20200 1.08100 31.36300
C  37.85300 0.23400 26.55400
C  33.35800 2.09900 26.57200
N  35.83200 1.63200 31.09700
C  34.81300 2.10200 31.87300
C  35.21800 2.13900 33.41800
C  36.82700 1.99600 33.39200
C  36.99100 1.51000 31.85500
C  37.66500 3.24400 33.84500
C  34.51300 0.99500 34.16800
C  34.43600 1.20900 35.65900
H  35.06500 2.41600 36.34700
N  37.69200 0.54700 28.92700
C  38.55000 0.65900 30.02600
C  39.91300 0.32400 29.58900
C  39.85200 -0.03400 28.14500
C  38.42100 0.17800 27.83300
C  41.10500 0.27500 30.55500
C  40.91200 -0.44300 27.19000
O  40.65000 -0.66400 25.98200
C  42.30600 -0.80100 27.59800
N  35.59600 1.09500 26.85800
C  36.62000 0.66900 26.11700
C  36.22500 0.61000 24.63100
C  34.65800 0.90100 24.74900
C  34.51800 1.47900 26.13300
C  37.05600 1.47600 23.70100
C  33.77100 -0.37000 24.60300
C  32.95700 -0.38100 23.35100
N  33.84800 2.13200 28.96400
C  33.01400 2.38200 27.93300
C  31.83300 3.02200 28.42700
C  32.03200 3.07900 29.78700
C  33.29100 2.60500 30.05300
C  30.66700 3.42400 27.63500
C  31.44700 3.44300 31.07300
O  30.34300 3.89700 31.33700
C  32.44300 3.20100 32.16600
C  32.59000 4.49400 32.95000
O  33.17500 5.54700 32.60700
O  31.91900 4.32700 34.23100
C  31.52200 5.63100 34.85900
H  39.00600 1.23500 32.08600
H  38.49800 -0.06000 25.72400
H  32.61500 2.13800 25.77200
H  35.05400 3.14400 33.80700
H  36.94700 1.13600 34.05100
H  36.97300 3.97900 34.25600
H  38.17500 3.66900 32.98000
H  38.37700 3.10800 34.65800
H  34.92600 -0.00700 34.05500
H  33.48900 0.98600 33.79400
H  34.81100 0.29800 36.12500
H  33.39500 1.35900 35.94500
H  41.49800 -0.70700 30.81700
H  40.93200 0.80200 31.49300
H  41.94200 0.60400 29.94000
H  42.76900 -1.33400 26.76700
H  42.36300 -1.42700 28.48800
H  42.81800 0.16100 27.60100
H  36.28500 -0.41600 24.26700
H  34.35100 1.72000 24.09900
H  37.85300 1.99700 24.23200
H  36.43700 2.16200 23.12200
H  37.43200 0.81000 22.92400
H  33.00900 -0.30200 25.37900
H  34.40000 -1.25800 24.66900
H  33.18600 0.40900 22.63600
H  31.89800 -0.37000 23.60900
H  33.08700 -1.33600 22.84400
H  30.82700 4.38500 27.14500
H  29.72400 3.43900 28.18200
H  30.49100 2.75100 26.79500
H  32.04700 2.45300 32.85300
H  31.02500 6.30200 34.15800
H  32.46900 6.04500 35.20600
H  30.89200 5.44600 35.72900
Mg 29.98600 58.61200 39.88100
C  27.24700 56.42000 39.20100
C  32.16400 55.98500 39.23400
C  32.46000 60.81200 39.94700
C  27.59300 61.21400 40.09200
N  29.71000 56.56000 38.98800
C  28.52800 55.82400 38.93000
C  28.78900 54.38700 38.56400
C  30.21000 54.25000 39.09600
C  30.76600 55.67400 39.07800
C  30.34700 53.56100 40.45800
C  28.80900 54.22200 36.97700
C  27.63200 53.41300 36.32800
H  26.76000 54.28300 35.38300
N  32.04300 58.49100 39.63300
C  32.76000 57.29400 39.48500
C  34.22100 57.64000 39.54200
C  34.32600 59.05900 39.66300
C  32.87300 59.54500 39.75700
C  35.31800 56.63600 39.39900
C  35.62000 59.83000 39.65300
O  36.70700 59.30000 39.55900
C  35.68400 61.36700 39.75500
N  29.97100 60.79500 39.87400
C  31.11900 61.44800 40.04500
C  30.86000 63.00900 40.09500
C  29.38600 63.14100 40.07200
C  28.91500 61.65000 40.04100
C  31.55900 63.76000 41.21700
C  28.72000 64.00500 38.85300
C  29.42600 65.16000 38.24800
N  27.81900 58.75100 39.96500
C  26.99600 59.92000 40.00400
C  25.65100 59.55800 40.00700
C  25.70200 58.16800 39.71700
C  26.99300 57.74500 39.65900
C  24.50500 60.37800 40.08600
C  24.84600 57.03000 39.39100
O  23.63800 56.88200 39.40700
C  25.84200 55.84000 39.08900
C  25.60100 54.69300 40.02600
O  25.98500 54.61400 41.14500
O  24.69300 53.84300 39.43700
C  24.03900 52.91300 40.38800
H  32.74900 55.06300 39.25300
H  33.15900 61.65100 39.96000
H  26.97800 62.08100 40.34200
H  28.14300 53.60300 38.95900
H  30.83700 53.66200 38.42500
H  29.36500 53.53400 40.92900
H  31.10400 54.07400 41.05100
H  30.64700 52.51500 40.39100
H  29.70700 53.87000 36.47100
H  28.62600 55.25200 36.67100
H  26.94000 52.98400 37.05200
H  28.03800 52.57300 35.76400
H  35.82900 56.80100 38.45100
H  34.99700 55.60400 39.25600
H  35.97800 56.67100 40.26500
H  35.15100 61.81000 38.91300
H  36.72700 61.65500 39.62600
H  35.28400 61.70300 40.71200
H  31.30700 63.30800 39.14700
H  29.09000 63.58500 41.02300
H  32.40400 63.31300 41.74000
H  30.89500 64.20100 41.96000
H  32.14000 64.56100 40.75900
H  27.89500 64.43600 39.42100
H  28.29300 63.46800 38.00500
H  28.97200 65.55100 37.33700
H  30.49500 65.03900 38.07100
H  29.37800 65.91300 39.03400
H  24.44700 60.92800 39.14700
H  24.40900 61.11600 40.88300
H  23.63400 59.72200 40.10100
H  25.70200 55.50700 38.06100
H  24.80000 52.23400 40.77400
H  23.33800 52.37700 39.74900
H  23.47200 53.38700 41.18900

