158

Mg 42.26500 41.41600 26.98300
C  41.40300 43.64200 29.53800
C  42.67700 38.88300 29.20900
C  43.13800 39.58000 24.41800
C  41.51000 44.17900 24.71900
N  41.94100 41.22200 29.08200
C  41.66600 42.27600 29.99200
C  41.68200 41.80900 31.42000
C  42.01100 40.26800 31.29800
C  42.24800 40.08200 29.77800
C  43.29800 39.90600 32.11800
C  40.35200 41.99000 32.24800
C  40.44000 42.40500 33.68100
H  39.34400 41.99300 34.71600
N  42.94900 39.55500 26.84600
C  42.97600 38.61900 27.80800
C  43.37500 37.35400 27.30000
C  43.56900 37.49900 25.89700
C  43.22400 38.95500 25.62400
C  43.48400 36.17100 28.16900
C  44.03800 36.52100 24.89800
O  44.22200 36.76300 23.66100
C  44.28600 35.16200 25.41700
N  42.40000 41.92700 24.91200
C  42.71700 40.91000 24.10800
C  42.60200 41.36400 22.66600
C  41.79800 42.74800 22.77200
C  41.86600 42.96300 24.20100
C  43.97100 41.56300 22.05400
C  40.35300 42.78700 22.19400
C  39.35100 41.91200 22.87400
N  41.81400 43.52200 27.06700
C  41.61500 44.46600 26.08100
C  41.28100 45.76000 26.67900
C  41.18000 45.51200 28.04800
C  41.49900 44.11500 28.21400
C  41.15600 47.05200 25.97300
C  40.83300 46.03700 29.30300
O  40.44800 47.16100 29.65200
C  40.99000 44.89800 30.35400
C  41.98700 45.36500 31.38700
O  43.19500 45.05100 31.39100
O  41.22000 45.89200 32.46100
C  42.03200 46.09100 33.69300
H  42.83300 38.18400 30.03300
H  43.27900 39.05700 23.47000
H  41.13700 44.92000 24.00900
H  42.49800 42.42100 31.80600
H  41.21500 39.65600 31.72300
H  43.54400 40.80500 32.68300
H  44.04100 39.54900 31.40600
H  43.25500 39.06800 32.81400
H  39.85000 41.02500 32.32300
H  39.69900 42.63800 31.66400
H  40.59600 43.47600 33.55100
H  41.36600 41.98800 34.07700
H  44.51400 35.81700 28.14000
H  42.76800 35.45100 27.77100
H  43.32400 36.27500 29.24200
H  44.97000 35.08600 26.26200
H  44.55700 34.47600 24.61500
H  43.30700 34.90400 25.82200
H  42.04400 40.59000 22.13900
H  42.30000 43.54800 22.22800
H  44.73900 40.93200 22.50200
H  44.20200 42.60100 22.29600
H  43.88400 41.45700 20.97300
H  40.38800 42.52900 21.13500
H  40.00000 43.81700 22.16500
H  39.76300 41.46300 23.77800
H  38.98100 41.11400 22.23000
H  38.49500 42.50400 23.19800
H  40.11200 47.34700 25.87100
H  41.49000 47.13900 24.93900
H  41.69400 47.83900 26.50100
H  40.01000 44.63000 30.74900
H  42.99900 46.52800 33.44500
H  42.23000 45.10600 34.11600
H  41.56800 46.75300 34.42400
Mg 26.67000 50.45600 27.04300
C  24.52900 51.22600 29.73400
C  28.95600 49.57800 29.34300
C  28.73000 49.89200 24.53900
C  24.20000 51.68900 24.87800
N  26.67300 50.30700 29.35300
C  25.67200 50.62900 30.19400
C  26.05000 50.17800 31.62600
C  27.51100 49.76400 31.48500
C  27.77300 49.96900 29.99100
C  28.64200 50.48500 32.27900
C  25.03200 49.19500 32.34400
C  24.17200 49.74100 33.44400
H  24.36300 49.19300 34.85300
N  28.59900 49.94300 26.95200
C  29.35600 49.53000 28.00800
C  30.67800 49.06500 27.50700
C  30.67300 49.33800 26.10600
C  29.33200 49.79900 25.79400
C  31.66100 48.43700 28.39300
C  31.80700 48.97300 25.20200
O  31.69600 49.05300 23.94100
C  33.01300 48.40800 25.68500
N  26.39700 50.62400 25.05700
C  27.41600 50.22400 24.14800
C  26.84200 50.25900 22.69600
C  25.41000 50.81300 22.86000
C  25.30700 51.06700 24.32800
C  27.59000 50.95400 21.57100
C  24.26600 49.89900 22.26300
C  23.84100 50.47300 20.88000
N  24.79300 51.40600 27.25900
C  23.92000 51.90800 26.26400
C  22.68000 52.24900 26.85900
C  22.89500 52.06100 28.26000
C  24.18900 51.57500 28.41200
C  21.45500 52.61700 26.15800
C  22.24900 52.18500 29.51800
O  21.11700 52.60800 29.84100
C  23.32100 51.65500 30.55500
C  23.66900 52.79900 31.43400
O  24.30800 53.78200 31.07100
O  23.08500 52.68300 32.59900
C  23.26000 53.77300 33.60200
H  29.63500 49.34300 30.16500
H  29.33200 49.65600 23.65900
H  23.43900 52.03400 24.17600
H  26.10700 51.17800 32.05700
H  27.52900 48.68600 31.64700
H  29.25600 49.68400 32.69100
H  28.22000 51.12700 33.05100
H  29.23700 51.11500 31.61700
H  25.67100 48.40500 32.74000
H  24.39700 48.81700 31.54300
H  23.11100 49.57100 33.26100
H  24.40400 50.80600 33.46300
H  32.49900 49.11300 28.56300
H  32.03800 47.48000 28.03000
H  31.25600 48.04700 29.32700
H  33.74300 48.39600 24.87600
H  32.71900 47.43200 26.07000
H  33.31600 49.11700 26.45700
H  26.90400 49.17700 22.57800
H  25.36500 51.79700 22.39400
H  28.56000 51.40000 21.79300
H  26.95900 51.64800 21.01500
H  27.72600 50.05900 20.96400
H  23.47700 49.89200 23.01600
H  24.55500 48.86200 22.09400
H  24.23400 51.48300 20.76200
H  22.75300 50.53500 20.85000
H  24.18400 49.78200 20.11000
H  21.46500 52.20900 25.14700
H  21.36200 53.69700 26.05200
H  20.69900 52.17800 26.81000
H  22.83900 50.80600 31.03900
H  23.97300 54.55900 33.35300
H  23.72000 53.09500 34.32100
H  22.38300 54.34300 33.91000

