158

Mg 16.77400 50.84800 27.17000
C  18.61600 49.66400 29.80400
C  14.32300 52.08400 29.31000
C  14.80700 51.78800 24.54000
C  18.90000 49.13900 24.91700
N  16.47200 50.75400 29.30700
C  17.40200 50.34100 30.18600
C  16.93600 50.74700 31.62100
C  15.43400 51.21100 31.48800
C  15.32600 51.26400 29.92700
C  14.42500 50.14200 32.02300
C  17.87000 51.81600 32.24100
C  17.96300 51.93500 33.78400
H  17.20200 50.96300 34.70300
N  14.93300 51.94000 26.96700
C  14.09500 52.39900 27.96200
C  13.02400 53.21000 27.37800
C  13.13100 53.11700 25.98800
C  14.28700 52.24800 25.75500
C  12.02300 53.91100 28.31400
C  12.35800 53.92500 24.96600
O  12.60900 53.84100 23.77400
C  11.17400 54.79000 25.34500
N  16.76600 50.48500 25.00500
C  15.86100 50.94800 24.15700
C  16.14800 50.58000 22.65800
C  17.58500 50.00800 22.76300
C  17.79400 49.84100 24.31600
C  15.04600 49.67600 21.93100
C  18.64100 50.92900 22.07500
C  19.79100 50.22500 21.32400
N  18.41500 49.59500 27.30100
C  19.25200 49.05100 26.30700
C  20.31600 48.42300 27.01100
C  20.10900 48.54300 28.36900
C  18.90700 49.36900 28.48600
C  21.36500 47.61900 26.32800
C  20.56900 48.30200 29.62200
O  21.62700 47.74000 29.91400
C  19.58800 48.96200 30.67500
C  18.93300 47.86200 31.43700
O  18.04000 47.16600 30.99600
O  19.51400 47.59800 32.61800
C  19.00700 46.38700 33.28500
H  13.53300 52.52700 29.92100
H  14.20300 52.19500 23.72600
H  19.52500 48.63000 24.18000
H  17.06800 49.88700 32.27800
H  15.24400 52.11100 32.07200
H  14.94300 49.23300 32.32800
H  13.70700 50.04700 31.20900
H  13.86600 50.44100 32.90900
H  17.55200 52.83200 32.00900
H  18.86500 51.83000 31.79700
H  17.75700 52.97300 34.04300
H  19.00300 51.70000 34.00700
H  11.73100 54.91900 28.01900
H  12.38200 54.12300 29.32100
H  11.10900 53.33300 28.45000
H  10.50200 54.04300 25.76700
H  10.81200 54.99900 24.33800
H  11.53000 55.65300 25.90800
H  16.11000 51.55300 22.16700
H  17.56900 49.09000 22.17500
H  14.40500 50.30900 21.31700
H  14.49500 49.11900 22.68900
H  15.46900 49.01500 21.17500
H  19.19800 51.59400 22.73500
H  18.10600 51.54800 21.35400
H  20.73900 50.50600 21.78300
H  19.97300 50.51100 20.28800
H  19.67300 49.14300 21.39200
H  21.12300 47.44800 25.27900
H  21.56900 46.67400 26.83100
H  22.25700 48.24100 26.40300
H  20.07200 49.68000 31.33700
H  17.98300 46.47300 33.64800
H  19.61700 46.16400 34.16100
H  19.22500 45.45800 32.75800
Mg -2.84900 35.09300 27.05900
C  -4.67000 33.24200 29.47300
C  -1.42200 36.70200 29.57600
C  -1.64200 37.18500 24.76500
C  -4.62400 33.29700 24.54900
N  -2.98200 34.85700 29.23200
C  -3.72100 34.09700 30.05500
C  -3.44100 34.30700 31.56700
C  -2.41800 35.44100 31.58900
C  -2.23800 35.71100 30.04800
C  -2.78800 36.71500 32.49600
C  -3.01500 33.01900 32.25900
C  -3.76600 32.65700 33.61900
H  -2.94600 31.83200 34.59900
N  -1.70000 36.68100 27.12200
C  -1.07900 37.08600 28.26100
C  -0.07700 38.10400 27.91400
C  -0.19400 38.35000 26.52600
C  -1.23300 37.41400 26.07400
C  0.79500 38.85300 28.97300
C  0.63300 39.30000 25.65600
O  0.39200 39.34200 24.42200
C  1.80700 40.07300 26.28400
N  -3.22800 35.28500 25.00300
C  -2.45000 36.15700 24.27400
C  -2.63800 35.96600 22.78000
C  -3.38400 34.63500 22.77000
C  -3.77500 34.39800 24.17200
C  -3.49200 37.10700 22.09400
C  -2.53500 33.38700 22.31200
C  -2.34900 33.18300 20.83200
N  -4.43200 33.61900 26.98300
C  -4.94500 32.90400 25.90100
C  -5.78800 31.89200 26.32700
C  -5.76500 32.05000 27.73500
C  -4.88900 33.08400 28.09200
C  -6.58000 30.83700 25.59500
C  -6.30100 31.52800 28.93400
O  -7.12900 30.59600 29.07700
C  -5.63100 32.28500 30.14100
C  -6.74800 33.03700 30.85200
O  -7.53900 33.86500 30.31000
O  -6.81700 32.68600 32.18000
C  -7.84300 33.42900 32.96900
H  -0.91400 37.20900 30.39900
H  -1.17600 37.74200 23.94900
H  -4.89800 32.62700 23.73200
H  -4.32800 34.72100 32.04700
H  -1.52600 35.01800 32.05000
H  -3.36300 37.47300 31.96500
H  -1.85400 37.11500 32.89100
H  -3.30200 36.31600 33.37100
H  -1.96900 32.82900 32.50000
H  -3.41200 32.24800 31.59900
H  -4.61600 32.06800 33.27700
H  -4.02000 33.51600 34.23900
H  0.68200 39.93700 29.00700
H  1.78300 38.51400 28.66100
H  0.75700 38.44600 29.98300
H  1.37700 40.83000 26.93900
H  2.45900 40.53900 25.54400
H  2.44000 39.41700 26.88100
H  -1.64800 35.90600 22.33000
H  -4.33300 34.61600 22.23300
H  -2.80300 37.78500 21.59100
H  -3.86700 37.67300 22.94700
H  -4.37600 36.83700 21.51600
H  -3.15300 32.51500 22.52500
H  -1.61200 33.20400 22.86200
H  -3.02800 33.86400 20.32000
H  -2.53100 32.15600 20.51500
H  -1.32400 33.38800 20.52300
H  -6.28200 30.76400 24.55000
H  -7.64300 31.07800 25.57300
H  -6.41900 29.86000 26.05000
H  -5.31500 31.45500 30.77300
H  -7.64100 33.40200 34.04000
H  -8.59900 32.67600 32.74400
H  -8.06500 34.42900 32.59700

