158

Mg 47.17100 24.53500 28.05000
C  48.31100 26.79200 30.45700
C  46.79600 22.08600 30.49300
C  46.41900 22.36200 25.66300
C  47.99500 26.92100 25.59800
N  47.46200 24.44600 30.24100
C  47.84400 25.54900 31.00300
C  47.86700 25.15100 32.47100
C  47.38400 23.65400 32.51700
C  47.26400 23.34700 30.99900
C  48.39300 22.72400 33.34000
C  47.05700 26.15700 33.40700
C  46.57000 25.55700 34.70100
H  46.99900 26.29200 36.00900
N  46.58800 22.49800 28.02400
C  46.48100 21.67400 29.17200
C  46.07500 20.32300 28.68400
C  45.93200 20.38600 27.31000
C  46.32200 21.76100 26.92500
C  45.84000 19.19600 29.67000
C  45.60900 19.32200 26.33100
O  45.49300 19.54900 25.16100
C  45.34700 17.91900 26.74300
N  47.14200 24.62900 25.87300
C  46.79800 23.58300 25.12200
C  47.19100 23.84300 23.64100
C  47.31500 25.40900 23.70800
C  47.49200 25.69700 25.13700
C  48.48500 23.09400 23.21300
C  46.06800 26.14500 23.22800
C  46.25400 26.95700 21.93800
N  48.06900 26.41300 27.96000
C  48.30100 27.25800 26.90500
C  48.95300 28.53900 27.35800
C  48.90400 28.40100 28.77300
C  48.39700 27.07800 29.05400
C  49.43600 29.67700 26.56800
C  49.28000 28.99900 30.07800
O  49.78800 30.07700 30.32300
C  48.81200 27.98200 31.16000
C  49.94800 27.71000 32.09300
O  50.96700 27.09400 31.81800
O  49.67100 28.28900 33.30500
C  50.77600 28.38000 34.28000
H  46.63000 21.42400 31.34500
H  46.48000 21.70100 24.79600
H  48.22400 27.62400 24.79400
H  48.91000 25.27400 32.76200
H  46.39700 23.50700 32.95500
H  49.29300 23.12200 33.80700
H  48.69300 21.82900 32.79500
H  47.79400 22.42700 34.20100
H  46.34900 26.61200 32.71400
H  47.78200 26.90800 33.72100
H  46.77400 24.49700 34.85000
H  45.48100 25.55800 34.64400
H  46.67500 19.15500 30.37000
H  45.72100 18.22100 29.19800
H  44.90100 19.45200 30.16100
H  44.97900 17.29800 25.92600
H  44.46700 18.09500 27.36100
H  46.16800 17.47700 27.30800
H  46.34200 23.64100 22.98800
H  48.20100 25.69200 23.14000
H  49.37400 23.72200 23.25800
H  48.30400 22.65900 22.23000
H  48.59900 22.26800 23.91600
H  45.72400 26.91000 23.92400
H  45.20400 25.52000 23.00100
H  47.01900 26.59000 21.25300
H  46.54700 27.93500 22.31900
H  45.30400 27.16300 21.44500
H  49.26500 29.56900 25.49700
H  50.52200 29.75700 26.60900
H  49.02500 30.61900 26.93300
H  48.01900 28.56500 31.62700
H  50.69100 27.64100 35.07600
H  50.70400 29.34200 34.78700
H  51.75500 28.29100 33.80700
Mg 29.80900 57.60800 40.66400
C  26.92500 55.89600 39.63200
C  31.75400 55.07700 39.19700
C  32.52900 59.57200 41.02000
C  27.78000 60.26400 41.70500
N  29.33800 55.77000 39.48100
C  28.12400 55.26600 39.22800
C  28.27400 53.94300 38.49200
C  29.77100 53.57500 38.65600
C  30.34600 54.84000 39.20700
C  29.95200 52.35700 39.67800
C  27.70500 53.91500 37.03800
C  27.74800 55.19000 36.23600
H  26.73400 55.34500 35.05300
N  31.86600 57.33200 40.20900
C  32.43300 56.23600 39.58600
C  33.87600 56.52500 39.43200
C  34.10900 57.81900 39.93800
C  32.83300 58.28300 40.51200
C  34.82900 55.57600 38.66700
C  35.52500 58.43400 40.07700
O  36.47100 57.78500 39.63400
C  35.88100 59.72700 40.80800
N  30.03700 59.64800 41.19900
C  31.28000 60.15300 41.29400
C  31.20900 61.66400 41.64200
C  29.67200 61.91000 42.02100
C  29.11000 60.54100 41.58600
C  32.17700 62.21300 42.66700
C  28.87500 63.12600 41.47300
C  28.31500 63.99300 42.51700
N  27.81400 58.00700 40.90800
C  27.12400 59.06600 41.38200
C  25.68600 58.85100 41.35900
C  25.55500 57.60000 40.78100
C  26.90300 57.08200 40.50800
C  24.55300 59.82200 41.68200
C  24.65000 56.68300 40.17200
O  23.44100 56.70200 40.00300
C  25.47000 55.51600 39.56300
C  25.17100 54.24600 40.31400
O  25.46700 54.01500 41.46700
O  24.34600 53.39200 39.58900
C  24.06400 52.06200 40.26700
H  32.40500 54.23200 38.96400
H  33.33000 60.29200 40.84300
H  27.19900 61.15000 41.97300
H  27.66600 53.15600 38.93900
H  30.24900 53.20800 37.74800
H  30.26100 51.47300 39.11900
H  29.04900 52.07200 40.21800
H  30.69800 52.64800 40.41700
H  26.74400 53.40800 36.95200
H  28.29900 53.18800 36.48500
H  28.73800 55.19900 35.78100
H  27.58300 56.10200 36.81000
H  34.26900 54.76400 38.20300
H  35.51800 55.10700 39.36900
H  35.44800 56.06900 37.91700
H  35.66400 60.52800 40.10000
H  36.95800 59.82400 40.94400
H  35.31700 59.78000 41.73900
H  31.45200 62.15400 40.69900
H  29.69600 61.96200 43.10900
H  31.66500 62.84000 43.39800
H  33.00100 62.71500 42.16000
H  32.48700 61.31400 43.20000
H  27.99900 62.83100 40.89500
H  29.38800 63.78500 40.77300
H  27.24000 63.87500 42.65300
H  28.65000 65.02300 42.39000
H  28.75200 63.86800 43.50800
H  24.69500 60.44000 42.56900
H  23.58100 59.34000 41.58200
H  24.69700 60.47300 40.81900
H  25.25000 55.38400 38.50400
H  23.70800 52.21800 41.28500
H  24.96400 51.45800 40.38300
H  23.30300 51.50200 39.72400

