158

Mg 23.75400 -3.90800 45.30100
C  25.84900 -1.38100 44.02200
C  21.29800 -2.91000 43.16300
C  22.43800 -6.92800 45.57200
C  26.73200 -5.22300 46.91100
N  23.66600 -2.35900 43.68400
C  24.62200 -1.45800 43.34900
C  24.17400 -0.58100 42.19700
C  22.56000 -0.75000 42.25100
C  22.49400 -2.15000 43.05100
C  21.61400 0.17100 43.10200
C  24.85600 -1.13400 40.91500
C  25.11600 -0.07700 39.89200
H  25.27000 -0.39000 38.37600
N  22.02300 -4.81300 44.55100
C  21.10100 -4.17300 43.74900
C  20.00100 -5.05400 43.49500
C  20.33800 -6.25900 44.21100
C  21.62200 -6.05300 44.84200
C  18.86400 -4.73800 42.60000
C  19.40900 -7.42400 44.20100
O  18.36900 -7.50600 43.55300
C  19.86200 -8.63100 44.95900
N  24.53800 -5.80700 46.12100
C  23.70900 -6.82500 46.07500
C  24.29000 -7.99400 46.88000
C  25.68100 -7.52300 47.33100
C  25.67500 -6.04800 46.79400
C  23.43600 -8.77300 48.03300
C  26.88500 -8.27900 46.77200
C  27.65900 -9.01200 47.88600
N  25.76500 -3.32400 45.65400
C  26.78000 -3.89000 46.41100
C  27.97200 -3.01500 46.31500
C  27.62600 -2.03500 45.42800
C  26.30200 -2.23900 44.98600
C  29.30500 -3.38300 47.01900
C  28.25500 -0.94100 44.71300
O  29.38400 -0.38200 44.79700
C  27.14300 -0.46200 43.71700
C  26.76400 0.92300 44.08100
O  25.99200 1.20700 44.98300
O  27.50900 1.82000 43.33000
C  27.31700 3.27000 43.47900
H  20.42300 -2.46000 42.68900
H  22.13500 -7.95900 45.77000
H  27.59300 -5.75200 47.32500
H  24.44800 0.43700 42.47200
H  22.21300 -1.07200 41.27000
H  20.76900 0.50900 42.50100
H  22.14200 1.08500 43.37400
H  21.36400 -0.28400 44.06000
H  24.16500 -1.87900 40.52000
H  25.82100 -1.53900 41.22200
H  26.00500 0.48900 40.17000
H  24.27600 0.61400 39.82100
H  19.07100 -5.06000 41.57900
H  18.69400 -3.66200 42.56700
H  17.90900 -5.09600 42.98600
H  19.22600 -9.51600 44.96900
H  19.89400 -8.35100 46.01200
H  20.83800 -8.94000 44.58500
H  24.48800 -8.76400 46.13400
H  25.71200 -7.50300 48.42100
H  22.63100 -8.06500 48.22800
H  23.93100 -8.88700 48.99800
H  23.09300 -9.74900 47.69100
H  27.57500 -7.62500 46.23800
H  26.65300 -9.06400 46.05200
H  27.40700 -10.03900 47.61900
H  27.43000 -8.61700 48.87600
H  28.73200 -8.84600 47.79200
H  29.26700 -4.43200 47.31400
H  29.55800 -2.83100 47.92400
H  30.10700 -3.27800 46.28800
H  27.55100 -0.53200 42.70900
H  26.51600 3.47400 44.19000
H  27.20900 3.75700 42.51000
H  28.13100 3.75400 44.02000
Mg 25.01000 1.55000 29.40500
C  27.03100 1.55400 32.28700
C  22.27700 1.94500 31.43400
C  23.12800 1.21400 26.64400
C  27.82900 0.86600 27.50500
N  24.71700 1.67300 31.62700
C  25.72200 1.91300 32.60400
C  25.12200 2.21600 33.93800
C  23.52300 2.09200 33.67600
C  23.44300 1.91900 32.12800
C  22.82300 0.99500 34.54500
C  25.66100 3.58000 34.47900
C  26.36800 3.57500 35.83000
H  25.81900 4.63500 36.84700
N  23.00100 1.58500 29.12200
C  21.99300 1.70200 30.02300
C  20.67800 1.64500 29.43800
C  20.89800 1.45500 28.04500
C  22.41000 1.45400 27.84000
C  19.33100 1.82400 30.23500
C  19.82500 1.19600 26.98800
O  20.19200 1.17200 25.77100
C  18.44500 0.98900 27.42800
N  25.39900 1.06900 27.36900
C  24.47900 1.13700 26.37100
C  25.10300 1.43400 24.91900
C  26.60800 1.33300 25.21200
C  26.61300 1.02400 26.80000
C  24.53300 0.37600 23.93100
C  27.40500 2.53600 24.76900
C  27.31000 3.77500 25.50700
N  26.98100 1.07100 29.81000
C  27.98200 0.84300 28.95100
C  29.25400 0.68300 29.62700
C  28.94000 0.89000 31.01800
C  27.52000 1.11900 31.03200
C  30.51900 0.66600 29.02700
C  29.51800 1.04900 32.31700
O  30.64200 0.85000 32.82700
C  28.24800 1.56500 33.22100
C  28.28300 0.66200 34.41900
O  27.82300 -0.45100 34.41700
O  28.80500 1.36200 35.47100
C  29.14200 0.35700 36.53700
H  21.41600 2.18300 32.06200
H  22.53200 1.22500 25.72900
H  28.70500 0.86300 26.85300
H  25.31000 1.44600 34.68700
H  23.03000 2.98200 34.06700
H  23.53300 0.35600 35.07100
H  22.24700 0.29400 33.94200
H  22.15700 1.48400 35.25600
H  24.83700 4.28700 34.58100
H  26.39100 4.03500 33.81000
H  27.39400 3.76700 35.51600
H  26.49100 2.62900 36.35700
H  19.44600 2.09000 31.28500
H  18.86400 0.84600 30.35400
H  18.74300 2.64000 29.81400
H  18.32000 0.24200 28.21200
H  17.91400 0.77900 26.50000
H  18.13900 1.97300 27.78300
H  24.82200 2.40000 24.50000
H  26.99900 0.52900 24.58800
H  23.96100 0.95300 23.20400
H  23.95200 -0.41200 24.41100
H  25.36400 -0.06500 23.38100
H  27.00600 2.81700 23.79400
H  28.40700 2.11600 24.67900
H  26.72400 3.59800 26.40900
H  26.85400 4.67200 25.08600
H  28.34100 4.05700 25.72100
H  30.93100 -0.32800 28.85600
H  31.24800 1.14000 29.68400
H  30.53100 1.18400 28.06800
H  28.54600 2.57700 33.49300
H  28.26500 -0.13000 36.96400
H  29.72700 0.82700 37.32900
H  29.80900 -0.34100 36.03200

