158

Mg 34.71200 3.56800 29.74500
C  32.33400 4.16500 32.36800
C  37.08500 3.57000 32.28500
C  36.79700 3.17600 27.37300
C  32.10500 3.92900 27.51300
N  34.67200 3.81500 32.09800
C  33.59100 4.02600 32.86800
C  33.99200 3.90100 34.37400
C  35.56500 4.22900 34.33000
C  35.84600 3.88400 32.76200
C  36.01200 5.72500 34.64200
C  33.60600 2.55300 35.07700
C  33.06500 2.76800 36.48600
H  33.69800 3.90900 37.36000
N  36.72600 3.43400 29.84300
C  37.50200 3.35600 30.94400
C  38.90100 3.08300 30.50300
C  38.84900 3.02600 29.04900
C  37.47000 3.24600 28.65100
C  40.07700 2.78100 31.43900
C  39.91900 2.68700 28.08300
O  39.70200 2.64300 26.92400
C  41.29800 2.38600 28.70500
N  34.47800 3.65400 27.73300
C  35.50800 3.48400 26.94900
C  35.18400 3.56700 25.40100
C  33.66000 3.61400 25.49500
C  33.35100 3.76200 27.02000
C  35.77000 4.67500 24.58400
C  32.97900 2.28000 24.87100
C  32.63900 1.15100 25.76600
N  32.69400 3.93000 29.92100
C  31.75300 4.02800 28.86700
C  30.43200 4.25100 29.43800
C  30.66400 4.32400 30.85100
C  32.04900 4.15100 31.04900
C  29.16200 4.20500 28.65900
C  29.97800 4.44600 32.07700
O  28.85000 4.78500 32.34500
C  31.11500 4.30200 33.13900
C  31.13700 5.58400 33.93800
O  31.42900 6.73500 33.54800
O  30.67400 5.34100 35.16300
C  30.45700 6.58600 35.98600
H  37.80300 3.55800 33.10800
H  37.50100 3.00800 26.55500
H  31.42900 4.08100 26.66900
H  33.61700 4.68100 35.03800
H  36.04300 3.53200 35.01800
H  36.78600 6.06900 33.95600
H  36.30000 5.83100 35.68800
H  35.16800 6.39200 34.46300
H  34.45100 1.86500 35.06200
H  32.77300 2.19500 34.47200
H  33.25300 1.90000 37.11700
H  32.03000 3.10900 36.51400
H  39.72300 2.84400 32.46800
H  40.91900 3.44800 31.25100
H  40.42200 1.75700 31.29800
H  41.58000 3.27900 29.26400
H  42.05100 2.27000 27.92500
H  41.26600 1.45100 29.26300
H  35.64000 2.69500 24.93200
H  33.32800 4.50900 24.96900
H  35.03400 5.25500 24.02700
H  36.44800 4.22500 23.85900
H  36.30300 5.39700 25.20200
H  33.77500 1.85700 24.25900
H  32.13400 2.64700 24.28900
H  31.58100 1.11900 26.02700
H  33.15200 1.19300 26.72700
H  32.95800 0.16400 25.43100
H  28.62700 5.15400 28.65100
H  28.58400 3.42000 29.14700
H  29.35500 3.83700 27.65200
H  30.90700 3.40700 33.72600
H  29.74800 7.32400 35.61200
H  31.36100 7.11400 36.28700
H  30.14100 5.99000 36.84300
Mg 45.70400 17.34100 29.17700
C  43.65800 16.90400 31.93300
C  47.61100 19.47400 31.23900
C  47.50900 18.45400 26.37800
C  43.39900 15.86600 27.06000
N  45.55700 18.18800 31.35200
C  44.78400 17.57000 32.31000
C  45.18600 17.97400 33.66300
C  46.27100 19.03900 33.34200
C  46.50600 18.87800 31.87200
C  46.05600 20.46500 33.80300
C  45.55100 16.85000 34.65200
C  46.30100 17.19300 35.84600
H  46.07000 18.57900 36.60200
N  47.30800 18.67300 28.91600
C  47.90100 19.47300 29.90200
C  48.95900 20.16900 29.30900
C  48.95000 20.01000 27.86300
C  47.91600 18.99600 27.65100
C  50.00200 21.01900 30.12400
C  49.77600 20.66200 26.82300
O  49.69300 20.44900 25.62800
C  50.78600 21.71900 27.25300
N  45.60200 17.08900 26.91700
C  46.43400 17.61000 26.07000
C  46.08500 17.19400 24.64500
C  44.87200 16.31900 24.87500
C  44.56800 16.41100 26.36600
C  45.89900 18.34000 23.54000
C  45.02000 14.90900 24.46900
C  45.68800 13.95700 25.49200
N  43.93700 16.54000 29.34600
C  43.13700 15.92000 28.43200
C  41.98300 15.50000 29.12800
C  42.17800 15.74300 30.45600
C  43.36300 16.43800 30.58900
C  40.77500 14.81400 28.61400
C  41.49200 15.66000 31.75100
O  40.39900 15.19500 32.05900
C  42.54000 16.33300 32.75600
C  41.88400 17.29900 33.67700
O  41.14600 18.26400 33.38900
O  42.18400 16.94500 34.93900
C  41.58800 17.76300 36.07000
H  48.12600 20.05600 32.00700
H  47.90200 18.83500 25.43300
H  42.57200 15.39300 26.52700
H  44.29200 18.42500 34.09200
H  47.24800 18.75900 33.73400
H  45.85900 21.07800 32.92400
H  46.94000 20.72900 34.38400
H  45.19700 20.46700 34.47300
H  46.02300 16.08600 34.03200
H  44.61000 16.44500 35.02400
H  47.36700 17.02100 35.70300
H  45.99700 16.42100 36.55300
H  49.84000 22.09500 30.05500
H  51.07900 20.97400 29.96500
H  49.82500 20.84100 31.18500
H  51.28000 22.11100 26.36400
H  51.65700 21.37400 27.81000
H  50.26800 22.59200 27.64800
H  46.84200 16.48800 24.30500
H  44.03400 16.71300 24.30000
H  46.00500 19.35500 23.92100
H  44.87800 18.24900 23.16800
H  46.60800 18.24400 22.71700
H  45.42100 14.83500 23.45800
H  44.05000 14.43200 24.33000
H  44.95800 13.28700 25.94400
H  46.28500 14.35400 26.31300
H  46.31700 13.17900 25.05800
H  40.79500 13.74300 28.81300
H  40.70200 15.08600 27.56100
H  39.90100 15.29500 29.05400
H  43.01200 15.52100 33.30900
H  40.86900 17.08900 36.53400
H  41.12200 18.67500 35.69700
H  42.38500 18.00800 36.77300

