158

Mg 45.99700 2.96100 46.74400
C  43.81200 5.72900 46.24700
C  43.18100 1.00900 46.50900
C  48.14200 0.55300 46.34500
C  48.71400 5.36000 46.49300
N  43.79000 3.30700 46.43700
C  43.16200 4.51300 46.26600
C  41.59800 4.38200 45.98900
C  41.37600 2.89300 46.46900
C  42.83600 2.32000 46.47800
C  40.53600 2.71600 47.75900
C  41.05400 4.75300 44.57400
C  40.21500 6.03100 44.43600
H  40.81000 6.95600 43.38800
N  45.74600 0.99900 46.56500
C  44.48200 0.40700 46.45800
C  44.64800 -1.05200 46.37000
C  46.04800 -1.25100 46.23400
C  46.75100 0.10100 46.41300
C  43.56900 -1.98700 46.29400
C  46.71200 -2.62400 45.99600
O  46.04900 -3.65400 45.88700
C  48.20000 -2.78800 46.09500
N  48.10000 3.00000 46.38500
C  48.74600 1.77200 46.40100
C  50.27800 1.98500 46.52700
C  50.51300 3.54300 46.49400
C  49.04000 3.99400 46.50800
C  50.85700 1.31700 47.76200
C  51.29300 4.08500 45.18100
C  52.77900 3.95600 45.16700
N  46.31500 5.15200 46.49600
C  47.44500 5.94900 46.47400
C  47.06100 7.30900 46.35000
C  45.59700 7.31100 46.45300
C  45.22600 5.93000 46.33100
C  48.01900 8.50500 46.30100
C  44.42100 8.13600 46.53600
O  44.28800 9.33400 46.65900
C  43.18900 7.14000 46.49700
C  42.40800 7.27000 47.77800
O  42.27200 6.44000 48.65700
O  41.76500 8.45700 47.67700
C  40.72000 8.72900 48.62900
H  42.31800 0.34400 46.44700
H  48.83100 -0.28800 46.25000
H  49.50900 6.10800 46.52500
H  41.14300 5.17700 46.58100
H  40.88600 2.24500 45.74200
H  41.03600 2.07800 48.48800
H  39.60200 2.21500 47.50500
H  40.30200 3.65300 48.26400
H  40.45000 3.93400 44.18400
H  41.89500 4.91300 43.90000
H  40.17700 6.57000 45.38200
H  39.19000 5.71900 44.23700
H  42.62200 -1.48900 46.08900
H  43.45200 -2.41200 47.29100
H  43.67000 -2.80700 45.58300
H  48.43600 -3.84800 45.99900
H  48.55900 -2.50800 47.08500
H  48.92300 -2.28300 45.45400
H  50.76900 1.41600 45.73800
H  51.01300 3.94700 47.37400
H  51.45500 1.99900 48.36600
H  51.46400 0.49700 47.37600
H  50.09600 0.93600 48.44300
H  51.08000 5.15300 45.21600
H  50.92600 3.51400 44.32700
H  53.05100 3.67900 44.14900
H  53.13400 3.21300 45.88200
H  53.32800 4.88000 45.34600
H  47.65800 9.29000 46.96500
H  48.01500 9.04200 45.35300
H  49.06100 8.32800 46.57100
H  42.58600 7.52500 45.67400
H  39.81500 8.53200 48.05600
H  40.77500 9.75000 49.00700
H  40.77600 8.07300 49.49900
Mg 9.76800 48.08600 25.98100
C  7.45000 47.91000 28.64300
C  12.10600 49.51100 28.08500
C  11.81000 48.31700 23.38000
C  7.12300 47.07500 23.92000
N  9.63100 48.92700 27.99300
C  8.70300 48.48500 28.99500
C  9.24100 48.67100 30.52100
C  10.61800 49.41300 30.18100
C  10.83200 49.25200 28.66300
C  10.60600 50.88100 30.71300
C  9.26200 47.28300 31.28300
C  10.27600 47.07000 32.42500
H  9.83400 46.09400 33.53500
N  11.73100 48.75700 25.77600
C  12.51100 49.30900 26.74300
C  13.87100 49.38100 26.24000
C  13.75200 49.07800 24.84900
C  12.37300 48.74000 24.61200
C  15.01700 49.85200 26.97800
C  14.84000 49.07300 23.77900
O  14.69800 48.83100 22.59900
C  16.25700 49.46800 24.18800
N  9.57600 47.75600 23.92200
C  10.52400 47.87100 22.97600
C  10.19400 47.23600 21.59600
C  8.69700 46.82500 21.85700
C  8.42900 47.18600 23.35300
C  10.43400 48.18000 20.42800
C  8.39300 45.37500 21.51300
C  8.63300 44.20700 22.52100
N  7.71000 47.65700 26.16500
C  6.83800 47.29400 25.24300
C  5.52300 47.08800 25.84200
C  5.72800 47.31400 27.20800
C  7.09000 47.62700 27.30500
C  4.24200 46.76500 25.09300
C  5.06600 47.29900 28.48900
O  3.93400 47.00600 28.82600
C  6.23400 47.61500 29.50100
C  6.37400 46.31900 30.20900
O  7.04000 45.37500 29.80400
O  5.74600 46.41100 31.41500
C  5.91000 45.28600 32.33500
H  12.90800 49.81600 28.76100
H  12.49900 48.21400 22.54000
H  6.35000 46.75200 23.21900
H  8.54500 49.36600 30.99000
H  11.36600 48.77400 30.65100
H  11.51800 50.92700 31.30800
H  9.78700 51.03100 31.41700
H  10.52200 51.56800 29.87100
H  9.49400 46.45100 30.61800
H  8.27600 47.07900 31.70100
H  10.26600 48.06600 32.86600
H  11.29400 47.08600 32.03600
H  14.77100 50.50900 27.81300
H  15.60000 50.60500 26.44800
H  15.79700 49.15700 27.28900
H  16.26700 50.52200 24.46600
H  16.90400 49.32100 23.32300
H  16.64900 48.85200 24.99800
H  10.77400 46.31800 21.50400
H  8.02500 47.35600 21.18200
H  9.51500 48.34100 19.86600
H  11.14900 47.69400 19.76400
H  10.94100 49.08900 20.75400
H  8.86500 45.14700 20.55800
H  7.31100 45.28500 21.40800
H  9.21900 44.51700 23.38600
H  9.16200 43.39100 22.02900
H  7.65100 43.77300 22.70900
H  3.66900 47.69100 25.06100
H  3.58600 46.09500 25.65000
H  4.45300 46.39500 24.08900
H  6.04100 48.37600 30.25800
H  6.21400 44.40800 31.76600
H  5.07000 45.06800 32.99500
H  6.75600 45.52000 32.98100

