158

Mg 29.40000 58.69800 40.20800
C  26.56900 57.21100 39.02600
C  31.29800 56.31800 38.89200
C  32.08500 60.76700 40.69400
C  27.36000 61.48900 41.32800
N  28.89500 56.96000 39.09900
C  27.69600 56.51000 38.67200
C  27.85100 55.24000 37.80600
C  29.37700 54.86600 38.06300
C  29.90400 56.09400 38.78900
C  29.64100 53.53800 38.87200
C  27.47700 55.47000 36.31500
C  26.54000 54.41100 35.63400
H  25.59400 55.00200 34.49500
N  31.42000 58.61000 39.80000
C  32.03400 57.50400 39.31000
C  33.48400 57.64100 39.21500
C  33.73300 58.90400 39.81500
C  32.36100 59.51900 40.13900
C  34.46100 56.62500 38.77700
C  35.06900 59.56200 39.91100
O  36.08600 58.96000 39.50000
C  35.24900 60.93200 40.47500
N  29.66300 60.90600 40.72000
C  30.91700 61.37100 41.01100
C  30.82600 62.77700 41.62700
C  29.29400 62.87400 42.11700
C  28.71600 61.71500 41.27400
C  31.80700 63.03000 42.77300
C  28.71500 64.32000 41.95000
C  27.75900 64.73300 43.11000
N  27.43900 59.25500 40.28900
C  26.76500 60.34700 40.79700
C  25.30800 60.17300 40.62900
C  25.22300 58.95400 39.96000
C  26.51400 58.37900 39.78600
C  24.18600 61.12500 40.95400
C  24.23100 58.03400 39.39400
O  23.01300 58.02600 39.39300
C  25.06700 56.85000 38.75300
C  24.60000 55.65400 39.47500
O  24.67700 55.45900 40.68100
O  24.19000 54.69400 38.61600
C  23.99300 53.32900 39.12400
H  31.93400 55.53700 38.47000
H  32.92400 61.43200 40.91200
H  26.65000 62.14500 41.83600
H  27.22300 54.43700 38.19400
H  29.99400 54.71100 37.17800
H  30.35800 53.72700 39.67100
H  30.09600 52.83300 38.17700
H  28.70700 53.15200 39.28200
H  28.40000 55.66400 35.76800
H  26.94900 56.42300 36.26400
H  25.98300 53.81100 36.35400
H  27.18200 53.74200 35.06300
H  34.07000 55.66400 39.11300
H  35.38900 56.72200 39.34000
H  34.60100 56.60600 37.69600
H  36.31600 61.14900 40.52100
H  34.86300 61.08900 41.48200
H  34.80000 61.64100 39.77900
H  30.99700 63.54800 40.87500
H  29.18700 62.51400 43.14000
H  32.37300 63.90300 42.44800
H  32.40400 62.14200 42.97700
H  31.21700 63.36500 43.62600
H  28.15200 64.36700 41.01800
H  29.45800 65.11400 41.88700
H  26.72800 64.64800 42.76700
H  27.92100 65.73500 43.50700
H  27.85000 64.11100 44.00100
H  23.31300 60.47300 40.93800
H  24.05200 61.95200 40.25800
H  24.29900 61.52300 41.96200
H  24.89600 56.82000 37.67600
H  23.00800 53.05800 39.50400
H  24.74600 53.19000 39.90100
H  24.13500 52.68300 38.25800
Mg 26.09300 50.54300 25.60200
C  24.05100 51.66000 28.09300
C  28.55500 49.91200 27.88200
C  27.99600 49.63000 23.02200
C  23.60100 51.63000 23.14900
N  26.24400 50.69900 27.70900
C  25.21900 51.12700 28.57100
C  25.63400 50.95100 30.05700
C  27.09500 50.64300 30.02000
C  27.30300 50.40800 28.43400
C  28.03900 51.69300 30.63600
C  24.63200 49.94600 30.80400
C  24.12300 50.52900 32.12200
H  23.94400 49.56800 33.25500
N  28.05900 49.90000 25.54300
C  28.91100 49.64500 26.56400
C  30.16600 49.12100 26.02800
C  30.04000 49.09000 24.57000
C  28.61600 49.52000 24.29300
C  31.41200 48.89700 26.87500
C  31.10700 48.80200 23.53700
O  30.84500 48.74200 22.35700
C  32.52000 48.52200 23.90400
N  25.94900 50.77900 23.32700
C  26.82000 50.15100 22.51800
C  26.34100 50.10700 21.12200
C  24.87900 50.59700 21.20100
C  24.82800 51.12400 22.63900
C  27.28900 50.89700 20.19800
C  23.78200 49.44000 20.84800
C  22.59800 49.90100 19.97700
N  24.22500 51.35700 25.53600
C  23.36000 51.76500 24.53300
C  22.14400 52.18000 25.02600
C  22.42000 52.26900 26.34200
C  23.66400 51.77500 26.65600
C  20.96900 52.69000 24.27300
C  21.81700 52.66100 27.64500
O  20.64400 53.00400 27.91000
C  22.82000 52.25500 28.76200
C  23.31900 53.38300 29.70800
O  24.35800 54.07900 29.65300
O  22.31700 53.54100 30.68200
C  22.87900 54.02000 31.94200
H  29.28500 49.73400 28.67500
H  28.57500 49.22300 22.19000
H  22.81200 51.82200 22.42000
H  25.62800 51.97200 30.43800
H  27.28700 49.69200 30.51700
H  27.62400 52.40900 31.34500
H  28.63500 52.23200 29.90000
H  28.75800 51.08300 31.18300
H  25.11500 48.97700 30.92900
H  23.79300 49.78400 30.12600
H  23.16100 51.01400 31.95400
H  24.81300 51.34500 32.33600
H  31.12300 48.59800 27.88300
H  31.96200 49.83400 26.96200
H  32.15800 48.17700 26.53900
H  32.71500 47.50200 24.23400
H  32.75400 49.25400 24.67700
H  33.16900 48.77700 23.06700
H  26.43300 49.07200 20.79300
H  24.73300 51.46800 20.56200
H  27.89600 51.62700 20.73400
H  26.61800 51.55300 19.64300
H  27.93100 50.32900 19.52500
H  23.30600 49.06900 21.75600
H  24.36100 48.67200 20.33400
H  22.83300 50.95800 19.85900
H  21.59500 49.88400 20.40400
H  22.50700 49.38000 19.02400
H  20.84500 52.11700 23.35400
H  21.13600 53.71600 23.94500
H  20.09000 52.64000 24.91600
H  22.42300 51.48800 29.42700
H  22.15100 53.84200 32.73300
H  22.93400 55.10600 31.87200
H  23.87800 53.61300 32.10200

