158

Mg 48.11500 16.31100 28.39000
C  45.93900 16.01900 31.01800
C  50.39100 18.10700 30.35500
C  49.74000 17.33100 25.57800
C  45.51900 14.81900 26.29800
N  48.14100 16.90800 30.40100
C  47.15300 16.65100 31.34900
C  47.63200 17.02100 32.78900
C  48.89800 17.86900 32.52400
C  49.23700 17.57700 31.00400
C  48.80500 19.38100 32.85500
C  47.70500 15.74300 33.74600
C  47.45900 16.04600 35.25500
H  47.69100 17.45200 35.79600
N  49.97500 17.33200 28.08300
C  50.76800 17.91200 29.02900
C  52.01700 18.21700 28.41500
C  51.85300 18.09900 26.99800
C  50.42800 17.57700 26.79700
C  53.19500 18.77900 29.15700
C  52.80200 18.24800 25.85400
O  52.45000 17.91000 24.70700
C  54.07800 18.88900 26.07900
N  47.62500 16.14700 26.19100
C  48.53300 16.66700 25.23800
C  48.08600 16.24500 23.78400
C  46.96900 15.21800 24.13000
C  46.64900 15.34500 25.65600
C  47.49600 17.42400 22.97700
C  47.32300 13.77900 23.65200
C  46.61800 13.29400 22.38400
N  46.14800 15.56100 28.56800
C  45.25100 14.96300 27.64100
C  44.06500 14.47900 28.41100
C  44.30400 14.87500 29.75900
C  45.55500 15.58100 29.79200
C  42.86500 13.79700 27.82200
C  43.80200 14.85300 31.13300
O  42.77600 14.26500 31.60500
C  44.76200 15.61200 31.96000
C  43.97900 16.72700 32.59000
O  43.97400 17.86900 32.15400
O  43.48600 16.38700 33.82500
C  43.01200 17.45600 34.67900
H  51.13900 18.57000 31.00200
H  50.15900 17.70300 24.64100
H  44.82000 14.16300 25.77400
H  46.94000 17.75200 33.20700
H  49.80300 17.46100 32.97400
H  49.83000 19.66500 33.09400
H  48.18400 19.59300 33.72500
H  48.49200 20.02500 32.03200
H  48.73600 15.41800 33.60900
H  47.06600 14.90900 33.45600
H  48.20800 15.44600 35.77200
H  46.44800 15.71800 35.49700
H  53.34200 18.61000 30.22400
H  53.42300 19.83400 29.00900
H  54.01000 18.14900 28.80200
H  54.35700 19.10500 25.04800
H  54.74800 18.15000 26.51700
H  53.95400 19.73400 26.75600
H  48.85000 15.76900 23.17000
H  46.03300 15.46600 23.63000
H  48.29600 17.62700 22.26500
H  47.29200 18.28900 23.60700
H  46.51500 17.16800 22.57800
H  47.09700 13.18500 24.53700
H  48.40800 13.87100 23.60900
H  46.45000 14.02100 21.58900
H  45.64800 12.96200 22.75200
H  47.14600 12.45000 21.94000
H  42.21700 13.33800 28.56900
H  43.16200 13.06900 27.06700
H  42.25200 14.55200 27.32900
H  44.97800 15.03000 32.85600
H  42.25800 18.00100 34.11200
H  43.88800 18.06800 34.89800
H  42.62400 17.08600 35.62800
Mg -5.38100 25.85600 26.43100
C  -3.89900 27.03100 29.40600
C  -7.34000 23.83700 28.26100
C  -6.21200 24.35300 23.55600
C  -3.08800 27.77700 24.63800
N  -5.52700 25.41700 28.62100
C  -4.90100 26.09000 29.61200
C  -5.52100 25.67700 30.90800
C  -6.46800 24.55000 30.56300
C  -6.49300 24.60500 29.08400
C  -6.03100 23.11100 31.04200
C  -6.13100 26.87600 31.70800
C  -5.84200 26.98600 33.25200
H  -5.29100 25.65400 33.92800
N  -6.64900 24.37100 25.92500
C  -7.48500 23.77500 26.84100
C  -8.39300 22.91000 26.16400
C  -8.13000 23.02300 24.78700
C  -6.91300 23.95000 24.67200
C  -9.24800 21.97800 26.89300
C  -8.77300 22.39400 23.62700
O  -8.46000 22.58500 22.45700
C  -9.94600 21.44400 23.82400
N  -4.74300 26.06400 24.47400
C  -5.21700 25.33200 23.39300
C  -4.39400 25.42500 22.13800
C  -3.69500 26.82900 22.44900
C  -3.81400 26.94400 23.98300
C  -3.36700 24.33800 21.90600
C  -4.32100 28.08700 21.74000
C  -3.81100 28.46000 20.33400
N  -3.89900 27.25700 26.88100
C  -2.99400 27.95800 26.05900
C  -2.16800 28.89100 26.87100
C  -2.54000 28.51400 28.15600
C  -3.49400 27.53500 28.17100
C  -1.23100 29.91900 26.40700
C  -2.20100 28.70000 29.56700
O  -1.35300 29.49500 30.01600
C  -3.11500 27.88800 30.43100
C  -2.25900 27.14900 31.36100
O  -1.63600 26.15500 31.01000
O  -2.28200 27.77900 32.58300
C  -1.64400 27.01700 33.63800
H  -8.04000 23.20300 28.81100
H  -6.43600 23.84400 22.61600
H  -2.43400 28.48500 24.12500
H  -4.60600 25.41300 31.43800
H  -7.42500 24.60800 31.08100
H  -5.32600 23.08900 31.87400
H  -5.40000 22.74500 30.23200
H  -6.97200 22.58600 31.20600
H  -7.21700 26.83500 31.62500
H  -5.78600 27.77800 31.20300
H  -6.81000 27.11100 33.73800
H  -5.17800 27.80600 33.52400
H  -10.13200 21.61200 26.37200
H  -9.76000 22.51400 27.69200
H  -8.76600 21.13000 27.38000
H  -9.53700 20.57900 24.34500
H  -10.35700 20.95800 22.93900
H  -10.72900 21.97600 24.36500
H  -4.93700 25.62800 21.21500
H  -2.64800 26.68500 22.18100
H  -3.81000 23.43500 21.48500
H  -2.87800 24.08000 22.84500
H  -2.57300 24.55300 21.19100
H  -4.36700 28.92500 22.43500
H  -5.38800 27.89200 21.63000
H  -3.78500 27.65000 19.60400
H  -2.76200 28.69900 20.51000
H  -4.21100 29.34000 19.83100
H  -1.56200 30.86500 25.97700
H  -0.58400 29.41300 25.69100
H  -0.66900 30.16500 27.30800
H  -3.68900 28.66100 30.94200
H  -2.02800 27.47500 34.55000
H  -0.57300 27.08700 33.44800
H  -1.89400 25.95700 33.67400

