158

Mg 1.49800 -1.59500 43.23100
C  4.95400 -1.04000 42.55900
C  0.83100 1.26000 41.35000
C  -1.76000 -2.25000 43.45500
C  2.35200 -4.68500 44.51300
N  2.81300 -0.16600 41.95200
C  4.17800 -0.07000 41.93200
C  4.68000 1.07700 41.02000
C  3.36100 1.81300 40.64200
C  2.23400 0.93400 41.30200
C  3.30800 3.28900 40.98900
C  5.53000 0.57200 39.86200
C  7.01500 1.20900 39.81200
H  7.55900 1.71000 38.37300
N  -0.21300 -0.62200 42.59500
C  -0.26800 0.52900 41.79300
C  -1.64300 0.87900 41.48300
C  -2.48800 -0.11900 42.13500
C  -1.48300 -1.03900 42.83800
C  -2.02800 2.09700 40.62900
C  -3.99700 -0.15200 42.06800
O  -4.65900 0.76100 41.54300
C  -4.78700 -1.26700 42.65500
N  0.42800 -3.33000 43.70000
C  -0.95200 -3.27000 43.90100
C  -1.43700 -4.62200 44.43200
C  -0.11300 -5.45700 44.73600
C  0.94700 -4.44900 44.26600
C  -2.52500 -4.62500 45.52100
C  0.00500 -6.82300 44.02400
C  0.60600 -7.91600 44.84800
N  3.26100 -2.69000 43.53500
C  3.46900 -3.89400 44.17100
C  4.87800 -4.11800 44.38700
C  5.52700 -2.96700 43.84200
C  4.47300 -2.18100 43.27200
C  5.51600 -5.30700 44.97000
C  6.83300 -2.30400 43.53700
O  7.94400 -2.66400 43.82600
C  6.48200 -1.04900 42.75400
C  7.03600 0.07000 43.51300
O  6.90100 0.18700 44.71800
O  7.59200 1.05000 42.72300
C  7.75700 2.35600 43.37700
H  0.65300 2.25200 40.93000
H  -2.79600 -2.56700 43.59500
H  2.59300 -5.59500 45.06700
H  5.23600 1.77600 41.64400
H  3.25000 1.68700 39.56500
H  2.23700 3.48000 41.05500
H  3.71000 3.83200 40.13400
H  3.87800 3.61600 41.85900
H  4.95500 0.90100 38.99700
H  5.72400 -0.49800 39.78600
H  7.71400 0.49000 40.23800
H  7.11100 2.07100 40.47300
H  -2.96000 2.03800 40.06500
H  -1.16600 2.24800 39.98000
H  -1.99700 2.97300 41.27500
H  -5.83200 -0.95800 42.64200
H  -4.46700 -1.41000 43.68700
H  -4.60600 -2.13100 42.01500
H  -1.97500 -5.08300 43.60400
H  -0.00300 -5.59600 45.81200
H  -2.08000 -4.97100 46.45400
H  -3.24700 -5.38800 45.23000
H  -3.02300 -3.67100 45.69900
H  0.66700 -6.68400 43.16800
H  -0.96300 -7.09300 43.60200
H  0.01100 -8.82900 44.85200
H  0.81900 -7.61200 45.87300
H  1.57800 -8.13300 44.40600
H  4.94300 -5.73400 45.79400
H  6.55100 -5.28100 45.31100
H  5.59300 -6.01100 44.14100
H  7.08500 -1.11300 41.84800
H  8.59700 2.26900 44.06600
H  6.87500 2.73700 43.89100
H  8.00400 3.14800 42.67000
Mg 35.85500 49.11200 25.40200
C  36.06600 46.87000 28.26100
C  35.05800 51.56800 27.47700
C  35.83000 50.92400 22.61700
C  36.93300 46.24300 23.43800
N  35.44100 49.12700 27.57200
C  35.68900 48.22400 28.55600
C  35.52700 48.85000 30.00400
C  34.87300 50.23400 29.61500
C  35.15400 50.35300 28.15300
C  33.42300 50.42000 29.92700
C  36.97900 49.00000 30.66000
C  37.14000 48.59000 32.09600
H  35.84200 48.42300 32.82700
N  35.53100 50.97900 25.06000
C  35.22500 51.87600 26.05400
C  35.13600 53.21600 25.47400
C  35.21000 52.98400 24.01800
C  35.58000 51.59900 23.88400
C  34.73700 54.44600 26.22400
C  34.93700 53.89500 22.87600
O  35.03600 53.64100 21.73700
C  34.37200 55.21700 23.18200
N  36.13600 48.63900 23.34300
C  36.08800 49.55700 22.39800
C  36.33000 48.98900 21.00500
C  36.99300 47.62200 21.34600
C  36.63600 47.42600 22.79600
C  35.08000 48.93000 20.18100
C  38.54300 47.58700 21.04500
C  39.19100 46.16600 20.96500
N  36.32700 46.98200 25.70400
C  36.79200 46.03200 24.81900
C  37.19700 44.85700 25.57800
C  36.93300 45.14500 26.93700
C  36.37900 46.44900 26.92900
C  37.83300 43.51100 25.11500
C  36.96400 44.57800 28.24600
O  37.19500 43.43800 28.65900
C  36.48300 45.76400 29.15600
C  35.35100 45.34600 30.06500
O  34.19000 45.13400 29.74900
O  35.82100 45.04600 31.35300
C  34.89800 44.44200 32.30600
H  34.82700 52.40600 28.13700
H  35.77300 51.50000 21.69100
H  37.25100 45.42900 22.78300
H  34.77700 48.27400 30.54600
H  35.35900 51.15400 29.94100
H  33.07800 49.60800 30.56700
H  32.74700 50.39600 29.07200
H  33.13000 51.37500 30.36200
H  37.12400 50.07500 30.56100
H  37.71500 48.37000 30.16100
H  37.63700 49.37900 32.66000
H  37.63900 47.62100 32.12100
H  33.65500 54.56000 26.28200
H  35.21800 55.35400 25.86000
H  34.96100 54.20600 27.26400
H  34.27600 55.85200 22.30100
H  35.02900 55.83200 23.79800
H  33.39400 55.02400 23.62300
H  37.07200 49.71400 20.67000
H  36.46300 46.82100 20.83000
H  34.22300 49.18500 20.80400
H  34.80600 47.89800 19.96200
H  35.04400 49.53800 19.27700
H  38.94400 48.16700 21.87600
H  38.92000 48.25500 20.27000
H  39.67700 45.83700 21.88400
H  39.87900 46.07200 20.12500
H  38.48200 45.34700 20.84000
H  38.02200 43.05300 26.08600
H  38.73200 43.65300 24.51500
H  37.16800 42.82000 24.59700
H  37.35500 46.06100 29.73800
H  34.32900 43.59000 31.93400
H  34.16500 45.13500 32.71800
H  35.42100 44.07700 33.18900

