158

Mg 41.47600 41.45400 26.21500
C  40.59600 43.66000 28.80300
C  42.45400 39.19000 28.65200
C  42.39000 39.49300 23.85400
C  40.50800 43.91100 23.91500
N  41.50400 41.49700 28.45700
C  41.07200 42.44500 29.29800
C  41.11100 42.01800 30.78300
C  41.70100 40.54700 30.73000
C  41.93900 40.38400 29.20900
C  42.91200 40.30500 31.72000
C  39.77000 42.15800 31.50600
C  39.52000 41.34600 32.78900
H  38.92300 42.08300 34.01700
N  42.33600 39.56000 26.26000
C  42.54800 38.73500 27.29100
C  42.89000 37.37500 26.90900
C  42.78000 37.40000 25.46800
C  42.50600 38.83800 25.13000
C  43.18000 36.27800 27.86700
C  42.77000 36.32800 24.44900
O  42.73100 36.54300 23.20800
C  43.10100 34.99300 24.89800
N  41.60100 41.78100 24.24400
C  42.00000 40.77500 23.45100
C  41.71400 41.09400 21.90300
C  40.80100 42.39500 21.98400
C  40.88800 42.73600 23.48000
C  43.00900 41.14900 21.02500
C  39.25900 42.34900 21.54200
C  38.52000 41.10800 22.10100
N  40.63900 43.39000 26.29900
C  40.41600 44.30100 25.30500
C  40.10100 45.58800 25.85300
C  40.09500 45.35100 27.25400
C  40.40300 43.98800 27.42500
C  39.84400 46.85000 25.15400
C  39.83300 45.93100 28.52700
O  39.32100 46.98300 28.76700
C  39.99900 44.82200 29.59100
C  40.80000 45.36500 30.66400
O  41.99700 45.57600 30.60700
O  39.94800 45.52300 31.73100
C  40.53200 46.03000 32.96300
H  42.43900 38.44000 29.44600
H  42.65400 38.81600 23.04000
H  40.17500 44.63000 23.16400
H  41.73800 42.62600 31.43600
H  41.03800 39.71600 30.96900
H  43.84900 40.25100 31.16600
H  42.88100 39.40000 32.32600
H  42.95900 41.13300 32.42700
H  39.04600 41.83700 30.75600
H  39.47300 43.17100 31.77800
H  40.52600 41.01000 33.04300
H  38.82700 40.52200 32.62000
H  42.38700 35.53800 27.76300
H  43.11400 36.59300 28.90800
H  44.20800 35.92200 27.80900
H  44.15500 34.84100 25.13100
H  42.81700 34.25600 24.14600
H  42.39800 34.86200 25.72100
H  41.11600 40.26200 21.53100
H  41.29800 43.18500 21.42200
H  43.32600 42.19200 21.00100
H  42.95700 40.72100 20.02400
H  43.69900 40.60500 21.67000
H  39.31300 42.25800 20.45700
H  38.69900 43.25800 21.76200
H  37.84000 41.36200 22.91500
H  39.20800 40.43300 22.61100
H  38.05900 40.59300 21.25800
H  40.68200 47.52300 24.96900
H  39.17000 47.40000 25.80900
H  39.36700 46.74200 24.17900
H  38.96100 44.63300 29.86500
H  40.29500 47.08900 33.06100
H  41.61700 46.05200 33.06600
H  40.24600 45.56900 33.90800
Mg 16.71500 53.25700 26.37800
C  18.54300 51.56400 28.93900
C  14.37600 54.06600 28.91900
C  14.78800 54.27800 24.09600
C  18.84800 51.78800 24.11800
N  16.47400 52.91300 28.71100
C  17.45400 52.32600 29.50300
C  17.01800 52.36400 31.01300
C  15.61400 53.06400 30.93500
C  15.43400 53.37400 29.41500
C  14.40900 52.25500 31.53100
C  18.15700 53.11100 31.89000
C  18.32900 52.60600 33.30400
H  17.32400 51.68200 34.01800
N  14.84500 54.17000 26.50400
C  14.05100 54.43800 27.60800
C  12.80500 55.02200 27.13600
C  12.76900 54.89300 25.72500
C  14.16600 54.47700 25.35000
C  11.62900 55.51400 28.11300
C  11.74200 55.39800 24.72900
O  11.90000 55.21500 23.51400
C  10.44100 55.99800 25.19600
N  16.84800 53.09800 24.40500
C  15.99500 53.70700 23.63600
C  16.29100 53.58300 22.18300
C  17.58700 52.69800 22.18600
C  17.80000 52.48800 23.63200
C  15.24400 53.05600 21.21600
C  18.84200 53.05500 21.33900
C  19.40200 51.91900 20.38400
N  18.46300 52.03500 26.46600
C  19.17100 51.49900 25.44400
C  20.23400 50.78800 26.00000
C  20.08500 50.73400 27.35300
C  18.90100 51.50000 27.61900
C  21.41100 50.18900 25.07100
C  20.53700 50.12400 28.65900
O  21.47700 49.34800 28.82100
C  19.63500 50.67200 29.76600
C  19.04800 49.56100 30.61700
O  17.99400 48.95000 30.46700
O  19.89500 49.31700 31.70800
C  19.45800 48.40300 32.78500
H  13.55100 54.26900 29.60500
H  14.27900 54.85600 23.32100
H  19.34800 51.22500 23.32700
H  16.91600 51.28600 31.14000
H  15.80400 54.02000 31.42200
H  13.75100 51.99800 30.70100
H  13.98700 52.84400 32.34600
H  14.83900 51.32400 31.90100
H  17.91300 54.17300 31.89600
H  19.15800 53.08500 31.46000
H  18.60300 53.47700 33.90000
H  19.28500 52.10800 33.14300
H  11.35400 56.48900 27.71100
H  11.94400 55.58000 29.15400
H  10.84900 54.76000 28.00700
H  9.83000 55.41600 25.88700
H  9.91100 56.33800 24.30700
H  10.72100 56.85600 25.80700
H  16.53900 54.57600 21.80900
H  17.27200 51.68800 21.92300
H  15.09100 52.05500 21.62000
H  15.51000 52.89600 20.17100
H  14.38900 53.73200 21.23000
H  19.63700 53.28300 22.04900
H  18.74000 53.99000 20.78700
H  20.42600 51.65100 20.64100
H  19.40300 52.17100 19.32300
H  18.74200 51.05600 20.47900
H  22.22700 49.80900 25.68600
H  21.78600 51.03900 24.50300
H  20.92300 49.50000 24.38100
H  20.35100 51.19200 30.40300
H  19.97100 47.44700 32.68200
H  18.38700 48.21600 32.70100
H  19.64000 48.69900 33.81800

