158

Mg 46.79300 15.81700 27.85900
C  44.48400 15.72800 30.70700
C  48.92700 17.60100 29.81800
C  48.62400 16.51100 25.13100
C  44.13800 14.72500 25.84600
N  46.57400 16.70300 29.97100
C  45.67800 16.46400 30.97400
C  46.11600 17.02700 32.32900
C  47.42000 17.83500 31.98900
C  47.70600 17.29900 30.50600
C  47.27800 19.35500 31.92500
C  46.28700 15.85400 33.35400
C  45.62200 15.97600 34.75900
H  45.63100 17.31400 35.34300
N  48.48900 16.90800 27.56700
C  49.31300 17.47300 28.53300
C  50.55400 18.05000 27.86600
C  50.40800 17.83100 26.47900
C  49.11300 16.98900 26.35400
C  51.66600 18.75900 28.59000
C  51.24200 18.36500 25.35500
O  50.88300 18.26000 24.21000
C  52.54700 19.16900 25.65900
N  46.39200 15.82600 25.74200
C  47.39100 15.96200 24.87500
C  46.94900 15.49200 23.46300
C  45.58800 14.78900 23.71600
C  45.30200 15.14100 25.16900
C  46.77700 16.75900 22.47300
C  45.45800 13.29600 23.49100
C  46.11800 12.36800 24.51900
N  44.76900 15.19100 28.17900
C  43.84300 14.84600 27.24900
C  42.60200 14.44700 27.90100
C  42.81000 14.66900 29.31600
C  44.09300 15.22100 29.37300
C  41.35800 13.84500 27.22200
C  42.27200 14.59200 30.65400
O  41.20900 14.13300 31.05600
C  43.31700 15.28800 31.61500
C  42.60600 16.43200 32.17300
O  42.70200 17.60100 31.84600
O  41.98100 15.99100 33.29800
C  41.55700 17.01400 34.18900
H  49.51900 18.27400 30.44200
H  49.25200 16.53800 24.23900
H  43.39600 14.26300 25.19200
H  45.27900 17.55500 32.78500
H  48.25000 17.61000 32.65900
H  46.47900 19.62500 32.61500
H  47.07500 19.62800 30.88900
H  48.22400 19.79000 32.24500
H  47.34300 15.75100 33.60500
H  45.87300 14.94700 32.91300
H  46.28700 15.35000 35.35400
H  44.59800 15.60900 34.81700
H  52.47500 18.02900 28.59600
H  51.40500 19.14600 29.57500
H  51.94300 19.63000 27.99600
H  53.19800 18.63900 26.35400
H  52.16700 20.11300 26.04900
H  53.05000 19.44200 24.73100
H  47.62700 14.75800 23.02600
H  44.81200 15.28000 23.12900
H  45.79700 16.85000 22.00400
H  47.46600 16.63000 21.63900
H  47.03900 17.69800 22.96000
H  46.11100 13.12900 22.63400
H  44.43300 13.00300 23.26500
H  46.56600 12.93600 25.33400
H  46.90700 11.75200 24.08900
H  45.40700 11.66100 24.94800
H  41.40200 14.19500 26.19100
H  40.43300 14.29900 27.57900
H  41.33400 12.75500 27.20900
H  43.58500 14.69600 32.49100
H  41.44400 16.68500 35.22200
H  40.61700 17.31900 33.73000
H  42.16700 17.89400 34.39800
Mg -11.36700 15.93500 42.86500
C  -7.96000 16.63700 42.67700
C  -12.06400 19.33400 42.56500
C  -14.52800 15.17900 42.14700
C  -10.50700 12.49500 42.72400
N  -10.12700 17.73300 42.77300
C  -8.76500 17.81600 42.70800
C  -8.31700 19.27400 42.54200
C  -9.60100 19.97800 43.08900
C  -10.73000 18.95600 42.73200
C  -9.63700 20.26200 44.62200
C  -7.81500 19.69500 41.07300
C  -6.31800 20.13400 40.96400
H  -5.48700 19.51200 39.90300
N  -13.07600 17.10500 42.42400
C  -13.14600 18.50400 42.32200
C  -14.48200 18.90700 41.91500
C  -15.25800 17.65400 41.73000
C  -14.35600 16.58900 42.17800
C  -14.99200 20.26500 41.76400
C  -16.67700 17.68000 41.32800
O  -17.24400 18.74900 41.02900
C  -17.56900 16.45000 41.32100
N  -12.29100 14.07500 42.54000
C  -13.65200 14.12600 42.42400
C  -14.26700 12.67200 42.50500
C  -12.99300 11.80100 42.68800
C  -11.85700 12.78800 42.60400
C  -15.27800 12.50700 43.62800
C  -12.79400 10.74000 41.56300
C  -12.80700 9.28100 42.06900
N  -9.63700 14.74100 42.80000
C  -9.41500 13.37100 42.79600
C  -8.00500 13.10000 42.83000
C  -7.46000 14.35800 42.84500
C  -8.47100 15.31100 42.73900
C  -7.29400 11.83500 42.97500
C  -6.13700 14.98800 42.96700
O  -5.04900 14.47200 42.99300
C  -6.45100 16.54900 42.81200
C  -6.01900 17.13100 44.14600
O  -6.50200 16.93600 45.27900
O  -4.99500 17.91900 43.93700
C  -4.33900 18.51900 45.12600
H  -12.11300 20.42500 42.54800
H  -15.53700 14.82300 41.92700
H  -10.35500 11.41300 42.71800
H  -7.48500 19.40200 43.23300
H  -9.80600 20.90700 42.55700
H  -8.62900 20.05800 44.98300
H  -10.43000 19.74500 45.16300
H  -9.80100 21.33900 44.64900
H  -8.46700 20.49200 40.71800
H  -8.05900 18.86300 40.41200
H  -5.91500 19.81500 41.92600
H  -6.31500 21.22300 40.90800
H  -14.99900 20.56100 40.71500
H  -14.36400 21.03700 42.20900
H  -15.96000 20.41600 42.24000
H  -18.62000 16.73500 41.36000
H  -17.55100 15.90300 42.26400
H  -17.28000 15.78800 40.50400
H  -14.68000 12.36800 41.54400
H  -12.93000 11.34400 43.67600
H  -15.29300 13.45400 44.16900
H  -14.93300 11.71200 44.29000
H  -16.27000 12.47000 43.17900
H  -11.95800 11.02500 40.92500
H  -13.65000 10.73900 40.88700
H  -12.86100 9.10000 43.14300
H  -11.96800 8.67100 41.73500
H  -13.68200 8.74100 41.70400
H  -6.60500 11.97400 43.80800
H  -6.65600 11.71700 42.09900
H  -7.97000 10.98100 43.02000
H  -5.80000 16.88800 42.00600
H  -4.07700 17.81900 45.91900
H  -4.83600 19.39400 45.54400
H  -3.33500 18.68100 44.73500

