158

Mg 0.07700 7.02800 26.01400
C  0.82900 9.16800 28.63600
C  -0.43200 4.50000 28.23200
C  -0.49300 5.04400 23.47800
C  0.96400 9.64400 23.76000
N  0.11300 6.94800 28.25400
C  0.49100 7.88300 29.15400
C  0.32600 7.44700 30.63200
C  0.32400 5.85400 30.32500
C  -0.02800 5.72800 28.79100
C  1.58900 5.07100 30.62200
C  -0.85500 8.19800 31.35000
C  -0.94500 7.77900 32.83900
H  0.12100 6.91200 33.52900
N  -0.56600 5.10600 25.92300
C  -0.66000 4.23800 26.92300
C  -1.02600 2.90600 26.37000
C  -0.99000 3.06800 24.95300
C  -0.67400 4.47500 24.74600
C  -1.20000 1.64800 27.22300
C  -1.16000 1.97200 23.88200
O  -1.02200 2.21000 22.71300
C  -1.46400 0.56300 24.36700
N  0.30000 7.28200 23.90100
C  -0.01800 6.24400 23.09800
C  0.23400 6.67300 21.63400
C  0.53700 8.24200 21.69000
C  0.59300 8.43900 23.17900
C  1.15400 5.83400 20.84000
C  -0.42500 9.22300 20.89000
C  -1.87200 9.38900 21.39100
N  0.74300 8.96000 26.10300
C  1.00100 9.89200 25.13300
C  1.39200 11.14500 25.72800
C  1.39700 10.91400 27.12400
C  0.98200 9.53700 27.24200
C  1.64600 12.35200 25.00100
C  1.63300 11.48100 28.39400
O  2.01800 12.62900 28.69500
C  1.29800 10.37200 29.42100
C  2.42400 10.20200 30.31600
O  3.57500 9.95900 30.13300
O  1.92500 10.60500 31.56800
C  2.80700 10.92600 32.63900
H  -0.56400 3.65900 28.91500
H  -0.75800 4.45000 22.60000
H  1.27900 10.47300 23.12300
H  1.25600 7.67700 31.15100
H  -0.54900 5.42200 30.81500
H  1.87200 4.42000 29.79500
H  1.32400 4.43000 31.46300
H  2.43100 5.65000 31.00000
H  -1.78100 8.06900 30.79100
H  -0.56000 9.24800 31.37300
H  -1.93800 7.33700 32.91600
H  -0.86300 8.68200 33.44500
H  -0.37200 0.94500 27.31000
H  -2.07300 1.11400 26.84700
H  -1.49100 1.90800 28.24000
H  -0.62200 0.22600 24.97100
H  -1.51900 -0.07100 23.48200
H  -2.39000 0.40200 24.91900
H  -0.72400 6.60100 21.11900
H  1.51500 8.52200 21.29800
H  1.17000 4.84000 21.28900
H  2.13300 6.31300 20.84500
H  0.92400 5.84800 19.77500
H  -0.63000 8.69400 19.95900
H  0.06000 10.18600 20.72800
H  -2.51100 8.64200 20.92100
H  -2.23700 10.40400 21.23400
H  -1.85900 9.21200 22.46600
H  1.94800 13.27600 25.49500
H  0.70400 12.73000 24.60500
H  2.38300 12.25500 24.20300
H  0.38700 10.66900 29.94200
H  2.76000 10.04600 33.28000
H  2.35200 11.79800 33.10900
H  3.79900 11.15900 32.25200
Mg 36.63500 49.61400 24.59600
C  36.45300 47.74400 27.63000
C  35.30100 52.36700 26.28300
C  35.90900 51.13300 21.58700
C  37.51200 46.78000 22.93800
N  35.84700 49.90200 26.68200
C  35.91100 49.04900 27.72700
C  35.58600 49.89700 29.00600
C  35.01000 51.26000 28.47100
C  35.42600 51.17500 27.04900
C  33.48100 51.49500 28.66600
C  36.81900 50.13300 29.94000
C  36.54800 50.04000 31.45400
H  35.22700 49.68900 31.94300
N  35.75800 51.52500 24.00000
C  35.41700 52.56400 24.87600
C  34.94700 53.67100 24.05000
C  35.24700 53.32300 22.72100
C  35.63200 51.91200 22.72500
C  34.28000 54.80800 24.74600
C  35.28200 54.17900 21.49300
O  35.52400 53.79200 20.39400
C  34.95400 55.56400 21.61900
N  36.74600 49.03400 22.54400
C  36.49400 49.90900 21.49300
C  36.83500 49.18800 20.12400
C  37.63600 47.93100 20.61200
C  37.29100 47.86700 22.13200
C  35.57100 48.88300 19.31100
C  39.16000 48.04200 20.36900
C  39.88000 46.67000 20.43300
N  36.95600 47.60900 25.16100
C  37.34100 46.58500 24.35800
C  37.56400 45.36000 25.19900
C  37.30000 45.80000 26.50600
C  36.82300 47.12100 26.42300
C  38.19500 44.16200 24.74600
C  37.26500 45.39000 27.91000
O  37.54200 44.32300 28.36600
C  36.72700 46.67100 28.70800
C  35.49700 46.10600 29.32800
O  34.45800 45.86200 28.76400
O  35.78500 45.75300 30.62100
C  34.73900 45.05700 31.20200
H  35.17200 53.22900 26.94100
H  35.68800 51.51200 20.58700
H  37.89000 45.95600 22.32900
H  34.82200 49.35700 29.56600
H  35.57000 52.12500 28.82900
H  33.14000 50.99500 29.57300
H  32.88900 51.03400 27.87600
H  33.17400 52.53600 28.77100
H  37.27600 51.10400 29.74600
H  37.55300 49.36700 29.69000
H  36.98200 50.98100 31.79300
H  37.21400 49.27000 31.84400
H  35.02000 55.55400 25.03400
H  33.81200 54.51500 25.68600
H  33.45900 55.30500 24.23100
H  33.87500 55.65400 21.48700
H  35.41100 56.17900 20.84400
H  35.23900 55.95300 22.59700
H  37.38800 49.86200 19.46900
H  37.26100 46.97000 20.26100
H  34.69900 49.41500 19.69200
H  35.38200 47.81000 19.27700
H  35.69100 49.30100 18.31100
H  39.47900 48.68900 21.18600
H  39.32400 48.74400 19.55100
H  40.56100 46.47600 19.60400
H  39.18600 45.83300 20.50500
H  40.50200 46.59900 21.32500
H  39.01800 43.91300 25.41700
H  38.69800 44.20800 23.78000
H  37.48000 43.36400 24.54600
H  37.28500 47.04900 29.56500
H  34.88400 45.16500 32.27700
H  34.80000 43.99200 30.98200
H  33.69400 45.19800 30.92600

