158

Mg 36.78100 49.65600 24.95100
C  37.25700 47.64900 27.94900
C  35.49500 51.97900 27.05800
C  36.40600 51.46100 22.30400
C  38.02600 46.89300 23.11300
N  36.28700 49.69700 27.22100
C  36.67200 48.83800 28.23700
C  36.22700 49.39300 29.57600
C  35.77800 50.80900 29.25900
C  35.86300 50.81300 27.74800
C  34.31700 51.22600 29.72800
C  37.22200 49.18200 30.78500
C  37.35500 50.27800 31.86800
H  36.26300 50.38300 32.98500
N  35.99400 51.42100 24.68800
C  35.56800 52.29200 25.70000
C  35.16500 53.52100 25.19400
C  35.35800 53.42000 23.76600
C  35.98200 52.08400 23.48000
C  34.84700 54.76400 26.03600
C  35.09100 54.37200 22.66600
O  35.14200 54.08500 21.49500
C  34.72700 55.83700 22.91200
N  36.89900 49.11900 23.06300
C  36.81500 50.14000 22.14900
C  37.02700 49.58500 20.72900
C  37.70000 48.23000 20.95300
C  37.57800 48.06700 22.50500
C  35.78500 49.66600 19.78000
C  39.25300 48.26500 20.53700
C  40.30700 49.00500 21.31800
N  37.59800 47.66000 25.32400
C  38.02600 46.68200 24.47200
C  38.50800 45.54100 25.26600
C  38.26600 45.93500 26.64900
C  37.63600 47.20800 26.63900
C  39.04700 44.32700 24.66500
C  38.26900 45.39400 28.02500
O  38.67900 44.36600 28.50500
C  37.66900 46.53400 28.91700
C  36.54000 46.09900 29.77400
O  35.42200 45.93800 29.39200
O  37.02100 45.92700 31.09200
C  36.03100 45.39800 32.04200
H  35.14100 52.75700 27.73800
H  36.33300 51.98900 21.35100
H  38.46200 46.13100 22.46500
H  35.32100 48.86600 29.87500
H  36.41800 51.62100 29.60400
H  33.73400 51.31800 28.81100
H  34.26500 52.22400 30.16300
H  33.74000 50.48900 30.28800
H  38.23700 48.96300 30.45600
H  36.87000 48.36300 31.41300
H  37.24100 51.26000 31.41100
H  38.39000 50.21100 32.20300
H  35.33200 55.60100 25.53500
H  35.33800 54.73900 27.00900
H  33.77400 54.82300 26.22000
H  34.01100 55.90100 23.73200
H  34.09900 56.25100 22.12300
H  35.62400 56.42400 23.10800
H  37.72000 50.27200 20.24300
H  37.14600 47.39100 20.53200
H  35.08300 50.37100 20.22600
H  35.34700 48.66800 19.78600
H  36.01100 49.96300 18.75600
H  39.21700 48.67600 19.52800
H  39.63200 47.24700 20.45000
H  41.09200 48.32900 21.65800
H  39.65100 49.40200 22.09300
H  40.74500 49.85600 20.79600
H  39.84800 44.52600 23.95400
H  38.31700 43.62500 24.26200
H  39.55300 43.71900 25.41500
H  38.48600 46.92700 29.52100
H  35.43300 44.59500 31.61000
H  35.46400 46.21600 32.48500
H  36.43000 44.84500 32.89300
Mg -6.23100 25.40800 25.98300
C  -4.50800 26.68400 28.76900
C  -8.04200 23.52600 28.03200
C  -7.48900 24.03400 23.24100
C  -3.74500 26.94500 23.91200
N  -6.42000 25.34000 28.15300
C  -5.61700 25.85900 29.13000
C  -6.05200 25.37300 30.55000
C  -6.92100 24.13300 30.19200
C  -7.12300 24.34500 28.68200
C  -6.15800 22.73200 30.43000
C  -6.84800 26.52300 31.33600
C  -7.14200 26.24500 32.88700
H  -6.30100 25.13200 33.55000
N  -7.71700 24.08900 25.69100
C  -8.40800 23.43200 26.67400
C  -9.37900 22.56000 26.05400
C  -9.15700 22.66400 24.69500
C  -8.10900 23.65800 24.47800
C  -10.38900 21.67300 26.92100
C  -9.95500 21.97500 23.60500
O  -9.60700 22.04000 22.41200
C  -11.02000 20.95800 23.87300
N  -5.68300 25.53700 23.85800
C  -6.32200 24.68200 22.96500
C  -5.74000 24.84800 21.53500
C  -4.67300 25.95500 21.66700
C  -4.70300 26.21500 23.21500
C  -5.30600 23.49600 20.89400
C  -5.08100 27.28100 20.95000
C  -4.37300 27.54000 19.57300
N  -4.56800 26.61600 26.23400
C  -3.67100 27.10200 25.32100
C  -2.53700 27.77700 26.00900
C  -2.85000 27.66000 27.31600
C  -4.03900 26.91500 27.44400
C  -1.38100 28.49100 25.37100
C  -2.38700 28.01200 28.64500
O  -1.34400 28.54500 28.97300
C  -3.48600 27.47100 29.70100
C  -2.87700 26.59100 30.71400
O  -2.30900 25.56400 30.40900
O  -3.05200 27.05000 32.01600
C  -2.54100 26.19000 33.10400
H  -8.68100 22.88000 28.63700
H  -7.88800 23.65100 22.29900
H  -2.89000 27.40200 23.40800
H  -5.12700 25.07300 31.04200
H  -7.79800 24.15300 30.83900
H  -5.91900 22.12000 29.56000
H  -6.81600 22.10600 31.03200
H  -5.23300 22.90000 30.98200
H  -7.77900 26.60400 30.77600
H  -6.34100 27.48700 31.30800
H  -8.20300 26.06500 33.05600
H  -6.69100 27.10300 33.38600
H  -9.97800 20.66400 26.92200
H  -11.33700 21.50200 26.41100
H  -10.53500 22.08300 27.92000
H  -11.30900 20.51600 22.92000
H  -11.90800 21.45000 24.26900
H  -10.71700 20.24800 24.64300
H  -6.63700 25.21700 21.03800
H  -3.72300 25.54300 21.32700
H  -5.20900 22.79700 21.72500
H  -4.31200 23.56900 20.45200
H  -6.05600 23.14000 20.18800
H  -4.71100 28.15300 21.49000
H  -6.16800 27.32100 20.88000
H  -4.95100 27.53200 18.65000
H  -3.64500 26.74200 19.42500
H  -3.78000 28.45400 19.60600
H  -1.69300 28.86200 24.39500
H  -0.49600 27.88000 25.19400
H  -1.05300 29.35500 25.94900
H  -3.85700 28.35700 30.21700
H  -1.49900 26.50900 33.12200
H  -2.77900 25.16900 32.80600
H  -3.02500 26.40500 34.05600

