158

Mg 48.12700 24.34100 28.30400
C  49.15000 26.48700 30.95600
C  47.53000 21.90600 30.80700
C  47.39700 22.14000 25.91200
C  49.50700 26.49900 26.08700
N  48.26900 24.22500 30.62900
C  48.68500 25.25200 31.49200
C  48.48200 24.89100 32.97600
C  48.00900 23.37300 32.90800
C  47.96900 23.13500 31.36900
C  48.90900 22.37500 33.68500
C  47.66500 25.91600 33.79900
C  48.19300 26.41800 35.14600
H  47.10500 26.65800 36.28200
N  47.51600 22.32300 28.36800
C  47.31300 21.53000 29.47600
C  46.63300 20.32300 28.98200
C  46.60800 20.37900 27.54600
C  47.20500 21.65800 27.23500
C  46.43700 19.20200 29.97900
C  46.14900 19.37700 26.54400
O  46.30900 19.52600 25.35500
C  45.61200 18.05500 27.01600
N  48.64300 24.20400 26.31900
C  48.05800 23.30900 25.49300
C  48.24300 23.72900 24.00700
C  48.70000 25.23000 24.15900
C  49.00200 25.30600 25.62500
C  49.15600 22.82000 23.17100
C  47.71400 26.29000 23.69900
C  46.38200 26.35200 24.43600
N  49.00300 26.20700 28.38500
C  49.55600 26.93700 27.37700
C  50.01000 28.18000 27.91400
C  49.81300 28.06800 29.35600
C  49.27300 26.77900 29.53100
C  50.72500 29.20900 27.22000
C  50.03100 28.72200 30.63000
O  50.43000 29.88100 30.90700
C  49.64700 27.72800 31.73200
C  50.83500 27.40800 32.44600
O  51.79200 26.74300 32.07900
O  50.65400 27.90500 33.73900
C  51.67200 27.46700 34.67800
H  47.44900 21.18000 31.61900
H  47.14300 21.54200 25.03500
H  49.92700 27.21500 25.37800
H  49.45800 24.91100 33.46200
H  46.99400 23.25200 33.28800
H  49.09800 21.60200 32.94000
H  48.33900 22.02100 34.54300
H  49.85600 22.74000 34.08300
H  46.69700 25.44500 33.96800
H  47.45400 26.79400 33.18800
H  48.59600 27.42700 35.05800
H  48.93900 25.72200 35.53000
H  46.91500 18.37100 29.46000
H  45.38600 19.10100 30.25100
H  46.91400 19.39400 30.94000
H  45.22300 17.48100 26.17500
H  44.76100 18.19100 27.68300
H  46.42900 17.48900 27.46300
H  47.22600 23.87900 23.64400
H  49.60300 25.49100 23.60500
H  50.10500 23.32600 22.99100
H  48.69000 22.65700 22.19900
H  49.46300 21.86700 23.60100
H  47.54200 26.19700 22.62700
H  48.15000 27.26900 23.89700
H  45.96600 25.41000 24.07800
H  45.85900 27.14000 23.89400
H  46.36000 26.43500 25.52300
H  50.68700 30.11800 27.82100
H  50.25600 29.46200 26.26900
H  51.74400 28.84400 27.09400
H  48.81200 28.23900 32.21000
H  51.49900 26.40100 34.83100
H  51.41800 27.91100 35.64100
H  52.65900 27.88800 34.49000
Mg -10.53500 39.15200 39.25400
C  -9.99800 35.73800 38.64700
C  -7.06700 39.68400 38.43400
C  -11.13900 42.41800 39.09900
C  -13.92500 38.37400 39.65000
N  -8.81700 37.87900 38.51100
C  -8.90500 36.50700 38.44400
C  -7.48300 35.95900 38.01000
C  -6.50700 37.23500 38.31100
C  -7.54300 38.28700 38.42900
C  -5.80700 37.07900 39.72000
C  -7.40500 35.39400 36.50600
C  -7.68200 36.44500 35.33600
H  -8.70400 36.14400 34.27500
N  -9.27600 40.84400 38.90500
C  -7.92400 40.82600 38.53500
C  -7.48700 42.14300 38.39700
C  -8.62000 42.97100 38.51600
C  -9.74400 42.12200 38.88800
C  -6.12000 42.62500 37.91600
C  -8.65300 44.49800 38.31600
O  -7.61400 45.19500 38.08300
C  -9.96200 45.32400 38.51300
N  -12.31200 40.17700 39.49300
C  -12.22800 41.56800 39.37000
C  -13.63500 42.13000 39.36800
C  -14.56400 40.88600 39.72600
C  -13.52300 39.75000 39.69600
C  -13.86300 43.35100 40.21400
C  -15.78400 40.80100 38.70400
C  -17.09200 40.04700 38.96600
N  -11.75900 37.42900 39.18100
C  -13.10200 37.23100 39.32800
C  -13.59800 35.88100 39.22700
C  -12.36800 35.21400 39.05600
C  -11.30100 36.20800 38.94500
C  -14.99700 35.37100 39.47300
C  -11.71100 33.85300 38.92200
O  -12.09300 32.68300 39.13200
C  -10.27200 34.23800 38.45400
C  -9.25800 33.51100 39.29500
O  -9.07400 33.60500 40.49700
O  -8.43400 32.73700 38.43000
C  -7.27800 32.03700 39.13300
H  -5.99500 39.78300 38.61600
H  -11.42000 43.47100 39.02500
H  -14.96200 38.16800 39.92500
H  -7.17600 35.12200 38.63800
H  -5.84400 37.49700 37.48600
H  -6.03500 37.87800 40.42500
H  -4.72100 37.00200 39.65900
H  -6.20700 36.20800 40.23900
H  -8.03700 34.50700 36.48300
H  -6.39800 34.98000 36.56700
H  -6.66100 36.71800 35.07100
H  -8.00600 37.38100 35.79000
H  -5.45200 41.78600 38.11000
H  -5.85900 43.49300 38.52200
H  -6.02100 42.93100 36.87400
H  -10.26900 45.44000 39.55300
H  -10.67300 44.84000 37.84300
H  -9.69200 46.31400 38.14900
H  -13.88800 42.43800 38.35400
H  -14.91500 40.94200 40.75600
H  -14.73700 43.25100 40.85800
H  -14.04800 44.18200 39.53400
H  -13.02500 43.60700 40.86200
H  -15.31900 40.53000 37.75700
H  -16.17900 41.81700 38.71800
H  -17.38600 39.39100 38.14600
H  -17.92500 40.72800 39.13900
H  -17.00700 39.46900 39.88600
H  -15.23100 34.75800 38.60200
H  -15.77200 36.13000 39.58400
H  -15.04800 34.78700 40.39200
H  -10.28500 33.98600 37.39400
H  -7.48700 30.98000 39.29800
H  -6.95600 32.52100 40.05500
H  -6.33100 32.21900 38.62400

