158

Mg 53.53400 24.20200 44.22800
C  50.82900 26.01000 43.31000
C  52.14500 21.31700 42.97900
C  56.57500 22.54100 44.65600
C  55.17500 27.16300 45.22100
N  51.85300 23.81100 43.04600
C  50.79500 24.66700 42.82300
C  49.66000 23.97000 42.04400
C  49.91900 22.48100 42.29300
C  51.37600 22.53800 42.85100
C  48.83900 21.77100 43.05900
C  49.77600 24.22000 40.46600
C  48.41300 24.23600 39.68600
H  47.86800 22.88600 39.19000
N  54.28900 22.21100 43.83700
C  53.48700 21.17700 43.37000
C  54.32100 20.00800 43.29800
C  55.57600 20.28800 43.84800
C  55.56200 21.72300 44.21300
C  53.71400 18.74500 42.78900
C  56.72100 19.32800 44.10900
O  56.64800 18.15800 43.77600
C  57.97500 19.75900 44.88000
N  55.60500 24.75600 44.87900
C  56.58000 23.91800 44.94800
C  57.81300 24.65300 45.43200
C  57.46300 26.17500 45.31400
C  56.00400 26.03600 45.14500
C  58.37900 24.03800 46.76900
C  58.24700 26.94300 44.21600
C  57.52900 27.66700 43.09100
N  52.99900 26.19500 44.42700
C  53.79800 27.27900 44.91400
C  52.84800 28.38300 45.04100
C  51.65300 27.97600 44.45400
C  51.83700 26.67300 43.98800
C  53.24900 29.70400 45.66100
C  50.27700 28.29000 44.10600
O  49.64000 29.28200 44.29400
C  49.71800 27.06600 43.32300
C  49.16400 27.71400 42.09200
O  49.86500 28.31200 41.27300
O  47.84900 27.44500 41.94300
C  47.22500 27.76700 40.67900
H  51.53800 20.45600 42.69300
H  57.57700 22.12200 44.76300
H  55.73100 28.08300 45.41800
H  48.71300 24.31000 42.46300
H  50.07000 21.87700 41.39800
H  48.72300 20.77400 42.63500
H  47.88600 22.27000 42.88500
H  49.08400 21.58900 44.10600
H  50.32900 23.42100 39.97200
H  50.39100 25.07500 40.18800
H  48.55000 24.95900 38.88100
H  47.62300 24.72400 40.25600
H  52.73400 18.50000 43.19700
H  54.25300 17.80100 42.88000
H  53.33700 18.93800 41.78500
H  58.39500 20.53800 44.24300
H  58.71200 18.96400 45.00200
H  57.68400 20.11400 45.86800
H  58.56800 24.52000 44.65700
H  57.80800 26.53100 46.28500
H  57.66500 23.25200 47.01800
H  58.48400 24.77700 47.56200
H  59.33900 23.56800 46.55300
H  59.13500 26.44900 43.82200
H  58.60200 27.75500 44.85100
H  58.18600 27.56000 42.22800
H  57.52200 28.72200 43.36600
H  56.53000 27.28100 42.88800
H  52.41500 30.10200 46.24000
H  53.38400 30.32800 44.77800
H  54.16000 29.51600 46.22800
H  48.78800 26.80000 43.82500
H  47.84600 27.53500 39.81300
H  47.12700 28.85000 40.61300
H  46.28600 27.23000 40.54300
Mg 41.20100 41.06700 26.83100
C  40.52400 43.43200 29.43900
C  41.92300 38.73100 29.15400
C  41.97500 38.96100 24.36100
C  40.51200 43.51700 24.51500
N  41.15500 41.05300 29.05500
C  40.84000 42.13700 29.88500
C  40.88500 41.66400 31.35200
C  41.35300 40.13300 31.24100
C  41.45100 39.94500 29.70100
C  42.71300 39.76800 31.81200
C  39.58500 41.82700 32.15900
C  39.45000 42.97600 33.15900
H  38.98300 42.61800 34.65500
N  41.92200 39.14900 26.75800
C  42.12900 38.36000 27.83900
C  42.60100 37.11300 27.43400
C  42.57300 37.07800 26.00700
C  42.10600 38.43500 25.65500
C  43.05000 35.99700 28.47500
C  42.81100 35.95100 25.03200
O  42.58600 36.05200 23.82100
C  43.34000 34.59200 25.52900
N  41.45300 41.27600 24.74600
C  41.66400 40.23600 23.93800
C  41.40500 40.59400 22.43800
C  40.61500 41.96700 22.56900
C  40.79900 42.23300 24.07900
C  42.66700 40.49500 21.54800
C  39.20200 41.85800 21.95900
C  38.19100 41.41600 22.99900
N  40.68700 43.05900 26.91700
C  40.49300 43.96100 25.85800
C  40.08300 45.29100 26.38200
C  40.14600 45.12400 27.74500
C  40.47000 43.75100 28.02300
C  39.60800 46.55500 25.63300
C  39.87000 45.76600 28.93900
O  39.50700 46.88400 29.14400
C  40.21400 44.74300 30.15000
C  41.41400 45.24900 30.91000
O  42.50300 44.80900 30.78600
O  40.94000 46.05600 31.94100
C  41.89800 46.45300 33.03300
H  42.17900 38.13300 30.03200
H  42.18200 38.29600 23.51900
H  40.17600 44.22200 23.75100
H  41.67400 42.27100 31.79700
H  40.60400 39.39700 31.53300
H  42.82500 40.50300 32.60900
H  43.51600 39.83600 31.07900
H  42.69400 38.76400 32.23700
H  39.40600 40.90600 32.71400
H  38.67900 41.84000 31.55300
H  38.75500 43.65900 32.67200
H  40.44100 43.42900 33.16200
H  42.42500 36.16300 29.35200
H  44.09100 36.05100 28.79200
H  42.86400 34.97500 28.14600
H  42.54900 33.89800 25.81500
H  44.06500 34.67500 26.33900
H  43.94800 34.18700 24.72100
H  40.67900 39.90800 22.00100
H  41.29600 42.65700 22.07100
H  42.66100 39.56800 20.97400
H  43.52100 40.44300 22.22400
H  42.76500 41.36200 20.89500
H  39.18800 41.20600 21.08600
H  38.93900 42.82600 21.53200
H  38.65300 40.83400 23.79700
H  37.31000 40.85300 22.68800
H  37.93800 42.38400 23.43200
H  38.84200 46.16300 24.96400
H  40.40900 46.95800 25.01400
H  39.27500 47.32600 26.32900
H  39.29100 44.78400 30.72700
H  42.75200 46.91000 32.53300
H  42.24500 45.57200 33.57300
H  41.37300 47.12500 33.71100

