158

Mg 25.97700 0.16900 29.79300
C  27.82300 -0.09200 32.73600
C  23.13100 0.65600 31.54300
C  24.29100 -0.06300 26.92100
C  28.97300 -0.73100 27.93300
N  25.55900 0.08300 31.92600
C  26.47200 0.14900 33.01600
C  25.78300 0.38600 34.35000
C  24.23700 0.50600 33.98800
C  24.30000 0.45000 32.36100
C  23.44300 -0.67300 34.57600
C  26.42200 1.62300 35.13500
C  26.85200 1.29100 36.55500
H  26.76400 2.34700 37.56900
N  23.99700 0.20600 29.31300
C  22.95600 0.44500 30.14700
C  21.69500 0.39700 29.42600
C  22.06300 0.26400 28.02600
C  23.52200 0.11200 28.06100
C  20.34900 0.79300 30.00600
C  21.13300 0.26200 26.81500
O  21.52900 0.30200 25.62800
C  19.61800 0.36100 27.00100
N  26.48000 -0.41700 27.72900
C  25.66000 -0.20400 26.74600
C  26.20500 -0.32300 25.35100
C  27.73100 -0.42400 25.66900
C  27.75000 -0.53000 27.16800
C  25.67800 -1.60700 24.61200
C  28.49400 0.80900 25.10900
C  29.84200 0.59700 24.43900
N  28.05000 -0.20100 30.15600
C  29.08400 -0.55700 29.33100
C  30.22900 -0.74700 30.19800
C  29.82300 -0.49500 31.47700
C  28.47400 -0.22500 31.45300
C  31.64100 -1.25900 29.89200
C  30.34100 -0.38200 32.87100
O  31.45800 -0.57100 33.33700
C  29.01100 -0.13900 33.75200
C  28.78300 -1.27000 34.71700
O  27.87900 -2.12200 34.62000
O  29.60100 -1.12600 35.82600
C  29.19100 -2.02200 37.02400
H  22.21300 0.84900 32.10200
H  23.72600 -0.04200 25.98700
H  29.95000 -0.90100 27.47700
H  25.77700 -0.53900 34.92700
H  23.84300 1.46400 34.33000
H  23.45700 -1.47700 33.84000
H  22.41300 -0.33300 34.68500
H  23.83900 -1.11800 35.48800
H  25.67100 2.41200 35.15000
H  27.24400 2.00100 34.52700
H  27.91300 1.04300 36.51700
H  26.45900 0.35700 36.95700
H  20.08700 1.69200 29.45000
H  20.27700 0.98700 31.07600
H  19.64800 -0.00700 29.76500
H  19.05700 0.29900 26.06900
H  19.35900 1.25600 27.56700
H  19.26800 -0.47500 27.60800
H  25.91100 0.62700 24.90600
H  28.11700 -1.37000 25.28900
H  25.03000 -2.18100 25.27500
H  26.46300 -2.29500 24.29900
H  25.22000 -1.40000 23.64500
H  28.53400 1.59400 25.86300
H  27.83000 1.23100 24.35400
H  30.54000 1.38000 24.73300
H  29.63800 0.58300 23.36900
H  30.21100 -0.39500 24.69900
H  32.35500 -0.50800 29.55400
H  31.51700 -1.97300 29.07800
H  31.99300 -1.78300 30.78100
H  29.17600 0.70400 34.42300
H  28.61700 -2.92500 36.81300
H  28.65500 -1.46100 37.79000
H  30.11200 -2.25700 37.55800
Mg -11.77700 38.21300 41.93900
C  -9.58300 35.63500 40.89600
C  -9.50900 40.44100 40.53400
C  -14.13100 40.47100 41.92800
C  -13.94600 35.79200 43.13000
N  -9.68000 38.09200 41.03500
C  -9.01200 36.96600 40.72800
C  -7.79100 37.23400 39.91100
C  -7.59800 38.83400 40.12200
C  -9.00100 39.17200 40.63700
C  -6.51900 39.11700 41.19100
C  -7.95800 36.86200 38.38800
C  -6.91300 35.92500 37.75500
H  -5.99900 36.56000 36.70300
N  -11.82400 40.15700 41.40200
C  -10.78700 40.94600 40.83100
C  -11.19400 42.29700 40.67500
C  -12.58800 42.30700 40.97000
C  -12.88600 40.94400 41.49600
C  -10.34000 43.39200 40.06700
C  -13.44700 43.55800 40.80500
O  -12.99300 44.59400 40.27800
C  -14.93000 43.54400 41.10700
N  -13.79800 38.12000 42.29700
C  -14.45900 39.27500 42.53600
C  -15.87700 39.05000 43.17200
C  -15.97500 37.50400 43.26000
C  -14.48600 37.10100 42.98500
C  -16.08200 39.89600 44.54200
C  -16.86000 36.83400 42.16100
C  -17.33600 35.42200 42.47800
N  -11.90400 36.11000 41.95400
C  -12.74100 35.29100 42.60400
C  -12.28100 33.88900 42.46000
C  -11.06100 33.98400 41.72300
C  -10.84600 35.40000 41.54700
C  -13.08500 32.70300 42.76900
C  -10.04800 33.21000 40.99200
O  -9.94400 31.99000 40.77300
C  -9.19600 34.32400 40.31000
C  -7.69800 33.91900 40.37400
O  -6.89700 34.24700 41.25300
O  -7.36900 33.22400 39.23300
C  -6.06800 32.52500 39.33200
H  -8.81200 41.18900 40.14800
H  -14.97900 41.13900 41.76400
H  -14.62300 35.08100 43.60800
H  -6.97700 36.63900 40.32500
H  -7.34700 39.33600 39.18800
H  -5.74600 38.36100 41.32500
H  -7.00000 39.41200 42.12400
H  -5.99800 39.99000 40.79800
H  -7.92400 37.77500 37.79400
H  -8.95900 36.49400 38.16400
H  -7.31500 35.08800 37.18400
H  -6.28700 35.49600 38.53700
H  -10.80300 43.82500 39.18100
H  -9.38000 43.05000 39.68000
H  -10.14600 44.15500 40.82200
H  -15.47100 42.86400 40.44800
H  -15.28000 44.55400 40.89300
H  -15.09500 43.51100 42.18400
H  -16.71200 39.31000 42.52200
H  -16.32800 37.06100 44.19200
H  -16.68400 39.32400 45.24700
H  -16.65800 40.77700 44.25800
H  -15.11300 40.00700 45.03000
H  -16.24900 36.81500 41.25900
H  -17.73000 37.45300 41.94100
H  -17.73600 35.10800 43.44200
H  -16.66800 34.60300 42.21100
H  -18.18800 35.19200 41.83800
H  -14.14100 32.86400 42.55300
H  -13.04900 32.53400 43.84500
H  -12.88500 31.79200 42.20600
H  -9.51300 34.46100 39.27600
H  -5.52000 32.51200 40.27400
H  -5.37500 32.90300 38.58000
H  -6.28700 31.50500 39.01800

