158

Mg 2.59300 -2.04300 44.65400
C  5.52900 -0.68600 43.52600
C  0.83600 0.02100 42.58700
C  -0.26100 -3.85000 45.37900
C  4.50500 -4.48500 46.38900
N  3.12700 -0.62600 43.13100
C  4.44200 -0.17700 42.82800
C  4.42900 0.98800 41.82300
C  2.88000 1.36100 41.80200
C  2.24900 0.23200 42.61200
C  2.57800 2.80600 42.32300
C  5.02000 0.63300 40.43500
C  6.28400 1.37000 40.09100
H  6.59600 1.94100 38.66700
N  0.53500 -1.84600 44.08900
C  0.00100 -0.93500 43.18800
C  -1.32900 -1.19500 43.03900
C  -1.72800 -2.22200 43.93800
C  -0.43900 -2.71700 44.52600
C  -2.32000 -0.37400 42.14800
C  -3.13000 -2.68300 44.21400
O  -4.01000 -2.33100 43.42000
C  -3.55900 -3.77400 45.18800
N  2.23900 -3.93400 45.76100
C  0.96100 -4.37100 45.96000
C  0.92500 -5.66600 46.84700
C  2.44300 -5.99300 46.94500
C  3.10500 -4.76600 46.30700
C  0.27300 -5.65000 48.25200
C  2.93500 -7.27800 46.19600
C  3.22300 -8.40000 47.16400
N  4.64700 -2.49700 44.97600
C  5.23900 -3.44700 45.76700
C  6.66900 -3.20800 45.79000
C  6.82800 -2.14300 44.93400
C  5.55600 -1.73600 44.49700
C  7.76500 -3.94700 46.56100
C  7.84000 -1.28300 44.39700
O  9.03600 -1.21300 44.60300
C  7.06100 -0.31300 43.50500
C  7.22700 1.04600 44.07400
O  8.09100 1.79300 43.66300
O  6.38300 1.34500 45.07000
C  6.65300 2.55200 45.87600
H  0.27000 0.65400 41.90000
H  -1.15200 -4.45000 45.57400
H  5.05600 -5.17600 47.03000
H  4.95000 1.81200 42.30900
H  2.38000 1.32400 40.83400
H  2.67500 3.47900 41.47200
H  3.13900 3.16800 43.18400
H  1.53400 2.82300 42.63500
H  4.32700 0.65600 39.59400
H  5.35900 -0.39900 40.52500
H  7.14500 0.76500 40.37500
H  6.24400 2.22900 40.76100
H  -1.99800 0.66700 42.17300
H  -3.27400 -0.06800 42.57800
H  -2.52500 -0.77500 41.15600
H  -3.03500 -3.63100 46.13200
H  -3.32700 -4.71000 44.68000
H  -4.63100 -3.71700 45.37600
H  0.40800 -6.37400 46.19900
H  2.61100 -6.01000 48.02200
H  -0.81400 -5.62400 48.17300
H  0.55000 -4.73700 48.77900
H  0.50900 -6.54400 48.83000
H  3.90700 -7.09500 45.73900
H  2.20000 -7.52000 45.42800
H  2.46100 -9.17900 47.15000
H  3.23300 -8.02200 48.18600
H  4.18300 -8.85800 46.92300
H  8.29200 -4.58800 45.85300
H  7.27300 -4.49600 47.36400
H  8.41300 -3.23200 47.06800
H  7.59300 -0.33400 42.55400
H  7.68100 2.66600 46.22100
H  5.92100 2.66000 46.67600
H  6.50600 3.33500 45.13200
Mg 6.66800 54.10300 41.49200
C  6.06500 50.58600 41.77300
C  9.87400 53.41900 40.34600
C  7.00300 57.28900 40.78600
C  3.45100 54.58400 42.68300
N  7.72900 52.14300 40.96100
C  7.30100 50.89900 41.14900
C  8.41500 49.92300 40.67100
C  9.66900 50.82600 40.71800
C  9.07300 52.26800 40.63500
C  10.50400 50.57700 41.92900
C  8.02700 49.23000 39.26600
C  8.38100 50.13300 38.04800
H  7.17000 50.44200 37.17800
N  8.21900 55.17300 40.57900
C  9.48800 54.75800 40.29200
C  10.35000 55.86900 39.89300
C  9.53900 57.04000 40.11500
C  8.17200 56.53100 40.49000
C  11.78100 55.85800 39.47800
C  10.10000 58.42700 40.04200
O  11.26200 58.65300 39.74200
C  9.19100 59.67500 40.26900
N  5.33500 55.67900 41.52700
C  5.75600 56.92700 41.26300
C  4.74900 57.99000 41.68900
C  3.64500 57.16500 42.42400
C  4.09000 55.70100 42.09600
C  5.25400 59.21500 42.57200
C  2.07800 57.36700 42.09300
C  1.20900 57.89400 43.23700
N  5.03900 52.92800 42.14600
C  3.80500 53.25800 42.58600
C  3.10400 52.07000 43.06600
C  4.02700 51.01100 42.76000
C  5.15100 51.59400 42.21600
C  1.68500 52.03300 43.57300
C  4.22500 49.60400 42.88100
O  3.39900 48.81100 43.34600
C  5.46400 49.26100 42.13700
C  5.15300 48.45300 40.90800
O  4.22300 48.72900 40.10500
O  5.90600 47.28600 40.92000
C  5.53400 46.24800 40.03200
H  10.96300 53.40800 40.26000
H  7.08500 58.37000 40.65500
H  2.57700 54.82400 43.29200
H  8.60900 49.08800 41.34400
H  10.28900 50.70900 39.82800
H  10.09900 49.74600 42.50800
H  10.41700 51.42300 42.61100
H  11.51900 50.26400 41.68500
H  6.96400 49.00000 39.20000
H  8.53300 48.26400 39.26300
H  9.08100 49.62400 37.38600
H  8.79100 51.10700 38.31800
H  11.75100 56.60200 38.68200
H  12.15200 54.86900 39.20500
H  12.43900 56.15700 40.29400
H  8.41200 59.71800 39.50800
H  9.82900 60.54600 40.11600
H  8.74000 59.76700 41.25700
H  4.30300 58.37000 40.77000
H  3.83900 57.36700 43.47700
H  4.56400 59.38900 43.39800
H  5.34100 60.09600 41.93600
H  6.21200 59.04600 43.06300
H  1.65800 56.43100 41.72700
H  2.19200 58.04200 41.24400
H  1.72300 57.71700 44.18300
H  0.21900 57.44500 43.16700
H  1.10100 58.97800 43.21400
H  0.91800 52.03100 42.79900
H  1.57900 52.87800 44.25400
H  1.65400 51.12600 44.17700
H  6.10000 48.63800 42.76600
H  5.99300 46.41900 39.05900
H  4.47000 46.19900 39.80400
H  5.91800 45.29700 40.40200

