158

Mg 5.99300 54.81500 40.53300
C  3.32800 52.49000 40.40800
C  8.05800 52.37900 39.38100
C  8.34600 57.10300 40.21300
C  3.56500 57.33900 41.21800
N  5.64300 52.73700 39.79400
C  4.55000 51.97700 39.80600
C  4.69300 50.58400 39.15500
C  6.27400 50.52900 39.09200
C  6.68800 51.96300 39.46700
C  7.09400 49.49000 39.85600
C  4.02200 50.53700 37.72200
C  3.32200 49.12500 37.43500
H  3.90400 48.25100 36.39200
N  8.09200 54.71700 40.09400
C  8.69900 53.63300 39.58500
C  10.05700 54.03200 39.41900
C  10.06400 55.44000 39.34100
C  8.80900 55.82600 39.88500
C  11.17800 53.04800 39.12800
C  11.23500 56.32100 38.84200
O  12.27700 55.75700 38.49200
C  11.19500 57.77000 38.86700
N  5.85700 56.92900 40.42600
C  7.07400 57.59300 40.56300
C  6.92400 59.08500 40.96100
C  5.36300 59.17600 41.05300
C  4.89600 57.70600 40.89300
C  7.60500 59.23000 42.30700
C  4.80500 60.27600 40.05900
C  4.00900 59.79500 38.82400
N  3.87600 54.96600 40.87500
C  3.10300 56.02000 41.25200
C  1.82600 55.51400 41.68000
C  1.88900 54.20500 41.35900
C  3.15400 53.85800 40.89600
C  0.71600 56.24200 42.21200
C  1.14800 52.93900 41.30100
O  -0.00100 52.64700 41.59500
C  2.06200 51.85700 40.68100
C  1.32800 51.15200 39.64300
O  0.98200 51.59800 38.58000
O  1.03200 49.89500 40.13100
C  0.03400 49.20800 39.28900
H  8.77500 51.64800 39.00100
H  9.17900 57.80700 40.26000
H  3.01100 58.22900 41.52300
H  4.29600 49.90500 39.91000
H  6.53700 50.38300 38.04500
H  7.58500 48.96900 39.03400
H  6.50800 48.81000 40.47400
H  7.74800 49.93100 40.61000
H  4.84900 50.73500 37.04000
H  3.28600 51.31700 37.52900
H  2.28700 49.31100 37.14500
H  3.34100 48.52400 38.34400
H  10.84400 52.01400 39.21900
H  11.94600 53.16900 39.89100
H  11.66500 53.27200 38.17900
H  10.32400 58.14900 38.33300
H  11.94200 58.17500 38.18400
H  11.22200 58.18100 39.87600
H  7.46100 59.64600 40.19800
H  4.93700 59.45900 42.01600
H  6.89900 59.81300 42.89800
H  8.51800 59.81700 42.20700
H  7.87600 58.29500 42.79800
H  5.55800 60.96900 39.68400
H  4.06100 60.90100 40.55500
H  2.94400 59.95300 38.99300
H  4.22200 58.75500 38.57900
H  4.27600 60.37000 37.93700
H  1.02700 56.77600 43.11000
H  -0.11000 55.53900 42.32100
H  0.44200 57.02200 41.50200
H  2.27500 51.20900 41.53100
H  -0.56000 48.45700 39.81000
H  0.53600 48.79400 38.41400
H  -0.82800 49.82200 39.02800
Mg -1.41400 33.90700 26.38500
C  -3.32200 32.50100 28.94600
C  0.08600 35.96000 28.66000
C  0.25900 35.49500 23.74800
C  -2.86700 31.79200 24.15900
N  -1.73100 34.28300 28.59200
C  -2.46800 33.51100 29.47500
C  -2.34800 34.00500 30.88700
C  -1.24400 35.13600 30.75700
C  -0.86200 35.12900 29.25400
C  -1.66400 36.48800 31.38100
C  -1.91200 32.83400 31.85400
C  -1.19500 33.19700 33.09500
H  -1.66200 32.51000 34.39100
N  -0.12200 35.59300 26.22800
C  0.40100 36.24600 27.30800
C  1.24200 37.33000 26.77400
C  1.17200 37.26400 25.32700
C  0.36100 36.09300 25.01300
C  2.08600 38.25600 27.68700
C  1.79900 38.16500 24.32800
O  1.67800 38.08600 23.13100
C  2.53100 39.39900 24.82300
N  -1.16700 33.55400 24.27300
C  -0.44600 34.29100 23.38300
C  -0.71700 33.79000 21.91900
C  -1.55500 32.42100 22.20000
C  -1.82500 32.53700 23.65100
C  -1.46200 34.80000 20.97600
C  -0.76700 31.11300 21.77900
C  0.17800 30.40400 22.75500
N  -2.93100 32.59400 26.46500
C  -3.39200 31.75300 25.46100
C  -4.42300 30.91000 25.95200
C  -4.44000 31.12800 27.35300
C  -3.44500 32.10100 27.61300
C  -5.29300 30.01200 25.13300
C  -5.06100 30.84300 28.57000
O  -6.04100 30.10900 28.78000
C  -4.27200 31.64000 29.74900
C  -5.22600 32.44400 30.54600
O  -5.75800 33.53100 30.28900
O  -5.33600 31.70300 31.70200
C  -6.09000 32.39500 32.77100
H  0.52100 36.68200 29.35400
H  0.50500 36.10900 22.87900
H  -3.37200 31.23100 23.37000
H  -3.33500 34.40200 31.12500
H  -0.37600 34.79500 31.32200
H  -0.78900 36.95700 31.83200
H  -2.51900 36.20200 31.99400
H  -2.05700 37.08300 30.55700
H  -1.31100 32.10300 31.31300
H  -2.82200 32.34800 32.20400
H  -1.35100 34.25800 33.29300
H  -0.14200 32.93800 32.98500
H  3.10400 38.43600 27.34100
H  1.97800 37.81100 28.67600
H  1.62500 39.24200 27.74400
H  1.94000 39.85400 25.61800
H  2.73900 40.14800 24.05900
H  3.46600 39.01700 25.23100
H  0.25000 33.55800 21.47300
H  -2.52100 32.37600 21.69600
H  -1.67900 35.70300 21.54600
H  -2.43400 34.57200 20.53900
H  -0.84200 35.12000 20.13900
H  -0.15800 31.48700 20.95500
H  -1.58600 30.53500 21.35100
H  0.27300 30.84000 23.75000
H  1.20900 30.35200 22.40600
H  -0.11300 29.35600 22.83200
H  -5.32400 29.06700 25.67500
H  -4.82900 29.91600 24.15200
H  -6.32200 30.37200 25.16400
H  -3.69300 31.00000 30.41600
H  -6.76200 31.67500 33.23900
H  -6.62300 33.31500 32.53200
H  -5.35000 32.74600 33.49100

