158

Mg 0.68900 -2.01800 45.29900
C  4.19100 -1.16100 44.49500
C  -0.30900 0.70000 43.54700
C  -2.41400 -3.24700 45.42600
C  2.04300 -5.18400 46.33800
N  1.83900 -0.50900 44.08200
C  3.21800 -0.25000 43.92900
C  3.46200 1.17600 43.42200
C  2.00100 1.70300 43.15800
C  1.07600 0.56800 43.66600
C  1.71000 3.04700 43.93100
C  4.42100 1.29600 42.14800
C  5.24600 2.68800 42.06000
H  5.41700 3.19300 40.57000
N  -1.16100 -1.36700 44.61600
C  -1.37300 -0.20800 43.93500
C  -2.79800 -0.06900 43.59200
C  -3.44900 -1.26400 44.08600
C  -2.32800 -2.01700 44.72700
C  -3.46300 1.10500 42.82000
C  -4.97100 -1.58300 44.06400
O  -5.74900 -0.83100 43.48100
C  -5.55000 -2.81900 44.75300
N  -0.01300 -3.97800 45.69700
C  -1.41600 -4.08000 45.92100
C  -1.71500 -5.42500 46.62700
C  -0.28800 -6.11900 46.83700
C  0.61500 -5.04200 46.28200
C  -2.58300 -5.35700 47.90900
C  -0.18300 -7.39600 45.96300
C  -0.29500 -8.72200 46.73400
N  2.69800 -2.95700 45.54300
C  3.06500 -4.24600 45.95200
C  4.47500 -4.37600 46.09700
C  5.00400 -3.24200 45.52700
C  3.88400 -2.40100 45.14600
C  5.19100 -5.53200 46.88100
C  6.21300 -2.50600 45.31500
O  7.38300 -2.79900 45.56300
C  5.76800 -1.10300 44.64000
C  6.25400 -0.01400 45.52000
O  6.17800 0.00000 46.71800
O  6.91300 0.97900 44.79500
C  7.53900 2.05400 45.65500
H  -0.62600 1.72700 43.35300
H  -3.38200 -3.70900 45.63000
H  2.20800 -6.16700 46.78400
H  3.80700 1.65700 44.33700
H  1.81800 1.87200 42.09700
H  1.96300 3.79200 43.17600
H  2.41600 3.12000 44.75800
H  0.67200 3.12500 44.25500
H  3.87100 1.36000 41.20900
H  5.10100 0.44500 42.18100
H  6.26300 2.68400 42.45200
H  4.68500 3.43200 42.62500
H  -2.88800 2.03100 42.79500
H  -4.29300 1.56500 43.35600
H  -3.82500 0.74600 41.85700
H  -5.18800 -2.72500 45.77700
H  -5.20900 -3.67700 44.17200
H  -6.63800 -2.84500 44.79600
H  -2.31200 -5.86600 45.82900
H  -0.17700 -6.50400 47.85100
H  -3.22000 -4.47300 47.86800
H  -1.90600 -5.16400 48.74100
H  -3.14400 -6.27200 48.10200
H  0.82000 -7.54600 45.56500
H  -0.87000 -7.43100 45.11700
H  -1.06100 -9.41800 46.39300
H  -0.79000 -8.35000 47.63100
H  0.56000 -9.39500 46.79600
H  5.44300 -5.00500 47.80200
H  6.08800 -5.69200 46.28400
H  4.52600 -6.38100 47.04000
H  6.29900 -0.93700 43.70300
H  8.30600 1.59000 46.27500
H  6.88300 2.63400 46.30400
H  8.08700 2.73900 45.00700
Mg 41.94600 41.86100 27.59100
C  40.83000 44.30900 29.89100
C  42.80000 39.83800 30.17700
C  43.24100 39.74400 25.35100
C  41.39300 44.28200 25.03300
N  41.69100 42.01800 29.76500
C  41.18800 43.12200 30.53000
C  41.21700 42.75800 32.05900
C  42.07200 41.38600 32.06600
C  42.31000 41.07200 30.62100
C  43.34500 41.54500 32.98300
C  39.79000 42.63900 32.73900
C  39.84100 43.17900 34.15900
H  39.39200 42.17500 35.24700
N  42.88600 40.08700 27.67500
C  43.09600 39.32500 28.84800
C  43.43500 37.93800 28.50900
C  43.55400 37.89900 27.10900
C  43.25300 39.28200 26.60700
C  43.69000 36.88700 29.54900
C  43.82300 36.70100 26.19900
O  43.91900 36.77700 24.97000
C  44.14400 35.33300 26.73500
N  42.27000 42.08400 25.54400
C  42.80800 41.04900 24.83200
C  42.80000 41.25500 23.30300
C  41.93200 42.57100 23.24800
C  41.96000 43.06000 24.68900
C  44.23000 41.36400 22.67400
C  40.48700 42.48400 22.62800
C  39.46000 41.82400 23.59400
N  41.37500 43.95100 27.48000
C  41.06000 44.73800 26.34400
C  40.43500 45.93300 26.78200
C  40.33600 45.82300 28.14900
C  40.96700 44.65600 28.53500
C  40.08200 47.18900 25.99100
C  39.87400 46.45700 29.30700
O  39.23800 47.53100 29.42800
C  40.22100 45.48800 30.51700
C  41.15600 46.16700 31.44900
O  42.36100 46.27200 31.31400
O  40.59000 46.51500 32.68200
C  41.53500 46.99200 33.77000
H  42.97500 39.19700 31.04400
H  43.31900 38.99100 24.56400
H  41.04200 45.01000 24.29900
H  41.71400 43.65300 32.43200
H  41.48900 40.58600 32.52200
H  44.08600 40.78700 32.72900
H  43.03400 41.33600 34.00700
H  43.80700 42.53200 32.96600
H  39.37900 41.62900 32.72400
H  38.93300 43.04300 32.20000
H  39.27400 44.11000 34.17800
H  40.85800 43.40500 34.48200
H  43.20000 35.95400 29.27000
H  43.37200 37.23800 30.53000
H  44.75800 36.67500 29.58500
H  45.05400 35.33800 27.33500
H  44.20700 34.59700 25.93400
H  43.21300 35.07700 27.24100
H  42.26400 40.42100 22.85000
H  42.38200 43.33700 22.61700
H  44.85200 41.93300 23.36500
H  44.15500 41.84400 21.69800
H  44.57200 40.34700 22.48400
H  40.55700 41.96200 21.67300
H  40.21700 43.50700 22.36900
H  39.75000 41.83300 24.64400
H  39.29300 40.80300 23.25200
H  38.50100 42.32600 23.46500
H  39.27400 47.05700 25.27100
H  40.92900 47.31200 25.31600
H  40.00100 48.04200 26.66500
H  39.40300 45.11900 31.13500
H  41.13100 47.62000 34.56400
H  42.41000 47.54400 33.42700
H  41.81200 46.13200 34.38000

