158

Mg 47.94100 15.30100 28.53100
C  45.91900 14.94800 31.31200
C  49.88400 17.49700 30.35200
C  49.66500 16.06600 25.74400
C  45.67100 13.31400 26.75600
N  47.86400 16.10500 30.66200
C  46.98200 15.74300 31.61000
C  47.26500 16.54300 32.92700
C  48.54000 17.39200 32.56700
C  48.76200 17.00100 31.05200
C  48.46700 18.81100 32.90000
C  47.36300 15.61800 34.18200
C  46.87800 16.24500 35.49300
H  47.87500 16.15500 36.69200
N  49.57600 16.59600 28.10900
C  50.23300 17.38700 29.01700
C  51.35400 17.93200 28.37500
C  51.43600 17.48900 27.04000
C  50.20900 16.65700 26.89700
C  52.46500 18.70300 29.15800
C  52.52500 17.54400 25.98200
O  52.38500 16.95400 24.89300
C  53.88000 18.14100 26.22900
N  47.63100 14.84900 26.51500
C  48.57000 15.12600 25.56700
C  48.33800 14.30500 24.26800
C  47.19000 13.35700 24.71300
C  46.77300 13.86200 26.07400
C  48.00100 15.25800 23.09300
C  47.62600 11.83500 24.48900
C  48.11700 11.05900 25.72300
N  46.20000 14.21800 28.89700
C  45.30700 13.52500 28.10600
C  44.06000 13.17100 28.84800
C  44.29700 13.70000 30.10600
C  45.59300 14.31000 30.06200
C  42.89700 12.42200 28.32100
C  43.80200 13.71900 31.43500
O  42.83200 13.15300 31.85600
C  44.73500 14.53500 32.26300
C  43.92200 15.71000 32.66300
O  43.74500 16.77600 32.11200
O  43.47300 15.44400 33.91700
C  42.47600 16.39700 34.43100
H  50.51600 18.01500 31.07600
H  50.17800 16.28000 24.80400
H  44.98800 12.72400 26.14000
H  46.46800 17.26400 33.11400
H  49.40000 16.93900 33.06100
H  47.62200 18.86600 33.58600
H  48.17700 19.44300 32.06100
H  49.43200 19.13500 33.29000
H  48.42400 15.40100 34.30000
H  46.84100 14.69100 33.94700
H  45.95000 15.70900 35.69200
H  46.57400 17.29100 35.44200
H  52.41200 18.69500 30.24700
H  52.50600 19.75200 28.86200
H  53.39200 18.18600 28.91300
H  54.29800 17.47100 26.98000
H  53.60600 19.12800 26.60400
H  54.48600 18.15400 25.32300
H  49.27500 13.80300 24.02500
H  46.30700 13.50200 24.08900
H  47.39600 14.76100 22.33500
H  48.90900 15.50500 22.54400
H  47.42400 16.12000 23.42700
H  48.45000 11.77800 23.77800
H  46.87800 11.25100 23.95200
H  47.80300 11.67700 26.56400
H  49.18800 10.87600 25.64600
H  47.55600 10.15100 25.94800
H  42.92000 11.46400 28.84100
H  42.89200 12.27500 27.24100
H  41.99900 12.97900 28.58600
H  44.96900 13.87500 33.09800
H  43.02900 17.12900 35.01900
H  41.91400 15.72100 35.07600
H  41.70400 16.79300 33.77000
Mg 26.36900 50.66100 26.51600
C  24.00300 51.55000 28.95900
C  28.56500 50.01900 29.06300
C  28.57600 49.68600 24.12100
C  24.25400 51.75400 24.06100
N  26.20500 50.68300 28.71800
C  25.22400 51.04800 29.48500
C  25.35100 50.70800 30.91400
C  26.85500 50.38700 30.97700
C  27.25600 50.42400 29.49800
C  27.65400 51.45400 31.76500
C  24.39700 49.57500 31.50700
C  23.87800 49.71000 32.89900
H  24.54100 50.73300 33.79700
N  28.36600 49.96500 26.54700
C  29.04000 49.69400 27.71500
C  30.31200 49.06400 27.32000
C  30.29200 48.91200 25.96100
C  29.04900 49.52100 25.44300
C  31.33800 48.58600 28.35500
C  31.38300 48.29900 25.11100
O  31.29500 48.31700 23.87500
C  32.66600 47.80800 25.75700
N  26.35500 50.76200 24.44200
C  27.33300 50.14200 23.70200
C  26.97300 49.97000 22.24600
C  25.48200 50.63400 22.10900
C  25.27100 51.01000 23.64600
C  27.92000 50.57100 21.21500
C  24.43900 49.59400 21.67300
C  23.35800 50.21200 20.81300
N  24.52600 51.55100 26.44400
C  23.81200 51.98700 25.39300
C  22.50500 52.56400 25.83700
C  22.56900 52.39100 27.27200
C  23.84800 51.76900 27.56800
C  21.41300 52.86100 25.03500
C  21.80700 52.64000 28.47000
O  20.71500 53.14700 28.69200
C  22.76900 52.17200 29.57700
C  23.11000 53.39700 30.43400
O  23.87400 54.27500 30.19200
O  22.49900 53.21500 31.59000
C  22.28000 54.39000 32.46400
H  29.23500 49.58000 29.80500
H  29.14600 49.20800 23.32200
H  23.62100 52.03400 23.21600
H  25.14900 51.64400 31.43400
H  26.96400 49.35100 31.29900
H  28.23100 52.11400 31.11700
H  28.33500 51.00400 32.48800
H  27.07100 52.02000 32.49200
H  24.82700 48.57500 31.45600
H  23.53800 49.48500 30.84100
H  23.93500 48.74300 33.39900
H  22.81700 49.94900 32.83300
H  31.25000 47.50400 28.25400
H  31.11500 48.79100 29.40200
H  32.24600 49.14100 28.12200
H  33.37100 47.36000 25.05700
H  32.46400 47.05500 26.51900
H  33.10400 48.71600 26.17100
H  26.83600 48.92600 21.96300
H  25.46700 51.47600 21.41700
H  28.85300 50.93700 21.64200
H  27.61400 51.43100 20.62000
H  28.17300 49.77900 20.51000
H  23.98900 49.06100 22.51000
H  24.91500 48.77400 21.13400
H  22.32400 49.91000 20.97900
H  23.61800 49.99800 19.77600
H  23.37500 51.29900 20.89800
H  20.60700 52.13500 25.14500
H  21.68900 52.83400 23.98100
H  21.09800 53.86300 25.32500
H  22.30100 51.37300 30.15300
H  22.61100 55.23300 31.85800
H  22.83800 54.40000 33.40100
H  21.22300 54.53600 32.68700

