158

Mg 54.73100 24.22700 44.77700
C  52.32900 26.64700 43.91300
C  52.69900 21.79100 43.72000
C  57.31600 22.08500 44.94300
C  56.90200 26.92000 45.66000
N  52.83700 24.30800 43.74300
C  51.93400 25.29000 43.64400
C  50.51600 24.77900 43.22200
C  50.59500 23.33700 43.78300
C  52.13400 23.10300 43.62400
C  49.92900 23.02700 45.21700
C  50.32400 24.96600 41.64200
C  49.01400 24.56700 41.04600
H  48.74600 25.05400 39.57800
N  54.93800 22.09000 44.53900
C  53.93400 21.30800 44.14500
C  54.44400 19.93600 44.01600
C  55.84600 19.97900 44.40000
C  56.12500 21.39600 44.62500
C  53.62300 18.73600 43.58200
C  56.74300 18.81400 44.53100
O  56.36900 17.75100 44.04900
C  58.17400 18.80500 45.10300
N  56.85100 24.45800 45.03100
C  57.67100 23.42300 45.16800
C  59.09800 23.87100 45.72400
C  58.86400 25.39100 46.00200
C  57.46000 25.64500 45.59200
C  59.61700 23.04900 46.96700
C  59.89200 26.39400 45.42600
C  61.22500 26.49200 46.16300
N  54.64700 26.40000 44.82700
C  55.54100 27.28300 45.34300
C  54.85000 28.58000 45.50500
C  53.56500 28.38800 44.90600
C  53.55100 27.05000 44.49800
C  55.33000 29.85600 46.15200
C  52.27900 28.95000 44.59600
O  51.80700 30.05400 44.77400
C  51.41700 27.88800 43.87800
C  50.90400 28.41300 42.54000
O  51.61100 28.66200 41.55800
O  49.49200 28.52700 42.61400
C  48.76300 28.97300 41.42400
H  51.93400 21.02800 43.55800
H  58.14900 21.38600 44.84200
H  57.57600 27.67900 46.06200
H  49.73000 25.33500 43.73400
H  50.04700 22.73900 43.05600
H  50.48100 22.40600 45.92200
H  48.98000 22.56400 44.94800
H  49.58500 23.97200 45.63800
H  51.00200 24.16800 41.33800
H  50.74700 25.86200 41.18900
H  48.31400 24.84100 41.83600
H  48.96400 23.47900 41.02600
H  52.54200 18.87100 43.58600
H  53.75000 17.87400 44.23600
H  53.99800 18.39900 42.61500
H  58.44200 17.78500 45.38100
H  58.27500 19.39600 46.01400
H  58.88200 19.16800 44.35900
H  59.83900 23.76100 44.93200
H  58.72900 25.69800 47.03900
H  59.04600 22.24000 47.42300
H  59.82100 23.79500 47.73500
H  60.64600 22.72600 46.81100
H  59.45800 27.36700 45.19800
H  60.31100 26.24800 44.43100
H  62.11600 26.09000 45.68100
H  61.17300 26.10400 47.18000
H  61.49700 27.52600 46.37600
H  56.35400 30.01000 45.81000
H  55.34000 29.72000 47.23400
H  54.66900 30.65800 45.82400
H  50.50800 27.60000 44.40500
H  48.15700 28.16500 41.01400
H  49.47400 29.33900 40.68200
H  48.04300 29.75800 41.65500
Mg 9.54500 47.93500 25.95200
C  7.79200 47.88000 29.00400
C  12.37500 48.62400 27.72800
C  11.02000 47.94100 23.03300
C  6.48400 47.01300 24.38700
N  9.90700 48.52000 28.09900
C  9.15500 48.36800 29.17700
C  9.88600 48.84600 30.47600
C  11.22800 49.33600 29.94000
C  11.23200 48.83500 28.50500
C  11.51600 50.95600 30.18100
C  9.94300 47.69000 31.45600
C  10.95700 47.92900 32.53100
H  10.56500 47.55300 33.99100
N  11.39700 48.36500 25.42100
C  12.49500 48.44500 26.27700
C  13.68700 48.57800 25.47800
C  13.34500 48.19900 24.18800
C  11.88100 48.08500 24.16700
C  15.06400 48.81800 26.11500
C  14.23600 47.87400 23.03200
O  13.84400 47.45500 21.95900
C  15.69600 47.99600 23.13900
N  8.83500 47.62200 23.91300
C  9.67700 47.58200 22.90900
C  8.94400 47.31400 21.59100
C  7.64300 46.78300 22.09400
C  7.60000 47.18300 23.58000
C  8.77800 48.72400 20.90800
C  7.41300 45.23800 21.93100
C  8.37400 44.28200 22.64600
N  7.47700 47.68600 26.50200
C  6.44100 47.22000 25.74300
C  5.21800 47.02700 26.60300
C  5.74200 47.24500 27.89500
C  7.10900 47.65800 27.76400
C  3.85700 46.72600 26.09200
C  5.38900 47.24100 29.35800
O  4.34800 46.97100 29.86700
C  6.69800 47.62100 30.18400
C  6.95400 46.34400 30.95500
O  7.71900 45.41600 30.65400
O  6.20100 46.30800 32.10100
C  6.57200 45.28700 33.11500
H  13.32200 48.56800 28.26900
H  11.50600 48.02200 22.05800
H  5.62400 46.65100 23.82100
H  9.25700 49.61400 30.92600
H  12.03500 48.75500 30.38600
H  11.76100 51.44000 29.23600
H  12.42200 51.05200 30.78000
H  10.72700 51.31300 30.84300
H  10.09800 46.68000 31.07600
H  8.99200 47.70700 31.98700
H  11.29600 48.96500 32.56600
H  11.82600 47.35200 32.21500
H  14.95900 49.13000 27.15400
H  15.57000 49.55700 25.49400
H  15.59200 47.86600 26.08000
H  16.19100 47.23500 23.74200
H  15.92900 49.01800 23.43800
H  16.08400 47.81800 22.13600
H  9.48700 46.63600 20.93300
H  6.77900 47.24200 21.61400
H  9.34400 48.85200 19.98600
H  9.07300 49.50900 21.60500
H  7.73700 48.94200 20.66800
H  7.39400 45.01600 20.86400
H  6.40200 44.98900 22.25300
H  8.98600 44.80400 23.38100
H  9.02000 43.79500 21.91500
H  7.78300 43.58800 23.24400
H  3.46200 47.70100 25.80700
H  3.26700 46.42900 26.96000
H  3.89000 45.97200 25.30600
H  6.48500 48.46400 30.84200
H  7.62700 45.35700 33.38200
H  6.41300 44.29600 32.69000
H  5.96400 45.37000 34.01500

