158

Mg -2.19100 35.05000 26.95200
C  -3.59900 33.18200 29.66200
C  -1.12700 37.32400 29.49000
C  -1.07200 37.06500 24.59200
C  -3.77500 33.07600 24.67500
N  -2.31700 35.18300 29.32300
C  -2.88500 34.29400 30.19000
C  -2.74400 34.80600 31.69000
C  -2.05900 36.22900 31.52200
C  -1.85700 36.30900 30.04100
C  -2.79100 37.49800 32.17500
C  -2.01500 33.77600 32.61500
C  -2.85200 33.37900 33.81200
H  -2.10600 32.78400 35.02400
N  -1.09800 36.86200 27.08000
C  -0.78000 37.59200 28.15100
C  0.17200 38.60200 27.71700
C  0.19100 38.59800 26.26700
C  -0.71200 37.55300 25.89000
C  0.94500 39.45500 28.64900
C  0.92500 39.41900 25.22600
O  0.65600 39.38800 24.03600
C  2.08800 40.37900 25.65300
N  -2.41500 35.03900 24.90700
C  -1.89200 35.99500 24.15400
C  -2.01200 35.61800 22.65000
C  -2.83700 34.38300 22.68300
C  -2.97500 34.08100 24.19800
C  -2.51600 36.69500 21.65000
C  -2.42000 33.22000 21.79900
C  -1.68700 32.04600 22.40000
N  -3.54000 33.52400 27.09200
C  -4.03400 32.73300 26.03300
C  -4.94800 31.75700 26.50800
C  -4.70600 31.89100 27.93100
C  -3.85900 32.90200 28.24600
C  -5.76400 30.87000 25.69200
C  -5.05000 31.23600 29.25900
O  -5.68800 30.24900 29.55900
C  -4.33900 32.14800 30.33800
C  -5.35300 32.64300 31.28500
O  -6.00000 33.69400 31.14400
O  -5.58500 31.76400 32.30400
C  -6.63400 32.15700 33.25700
H  -0.87800 38.11000 30.20600
H  -0.68700 37.67100 23.76900
H  -4.27100 32.39200 23.98400
H  -3.74600 34.84000 32.11900
H  -1.03400 36.35300 31.87400
H  -3.25500 38.06000 31.36500
H  -2.00300 38.16700 32.52200
H  -3.47900 37.26700 32.98900
H  -1.04800 34.18500 32.90800
H  -1.88500 32.90100 31.97700
H  -3.57200 32.62200 33.50300
H  -3.43900 34.22200 34.17800
H  0.84800 39.32400 29.72700
H  0.50700 40.44200 28.50400
H  2.00400 39.55200 28.41300
H  3.01400 39.88200 25.94300
H  1.75800 41.12200 26.37900
H  2.40500 40.88900 24.74400
H  -0.99600 35.34800 22.36300
H  -3.79000 34.65500 22.22900
H  -2.75100 37.57500 22.25000
H  -3.36700 36.32800 21.07700
H  -1.72700 36.87500 20.92100
H  -1.81400 33.44100 20.92000
H  -3.38200 32.87100 21.42100
H  -0.90300 31.79000 21.68600
H  -2.36800 31.21600 22.58500
H  -1.15200 32.26200 23.32500
H  -6.41300 31.33300 24.94900
H  -6.49100 30.34500 26.31200
H  -5.15900 30.02700 25.35900
H  -3.58700 31.59700 30.90100
H  -7.62400 32.45400 32.90900
H  -6.38200 33.08000 33.77900
H  -6.67200 31.38600 34.02600
Mg -10.61300 16.71000 41.09500
C  -7.14900 16.33500 41.35700
C  -10.12300 20.04800 40.49600
C  -13.77500 16.93100 40.11900
C  -10.86400 13.15200 40.89900
N  -8.81800 18.04700 40.91000
C  -7.49700 17.64100 41.01100
C  -6.58200 18.87600 40.83000
C  -7.57800 20.07900 40.92500
C  -8.94400 19.36000 40.76100
C  -7.51200 20.94400 42.17600
C  -5.75700 18.79300 39.51700
C  -4.28600 18.34500 39.57700
H  -3.84100 17.01400 38.78800
N  -11.83800 18.36200 40.55400
C  -11.46200 19.63700 40.35700
C  -12.65000 20.40400 40.07300
C  -13.80400 19.57200 40.17400
C  -13.24400 18.21900 40.31100
C  -12.66100 21.80100 39.89300
C  -15.31900 20.00700 40.05900
O  -15.65900 21.18100 39.85400
C  -16.38100 18.93800 40.34300
N  -12.05800 15.18800 40.39200
C  -13.31100 15.57200 40.13200
C  -14.26300 14.38600 39.92500
C  -13.40100 13.21400 40.35500
C  -11.99600 13.86400 40.52100
C  -15.65800 14.42800 40.69600
C  -13.47900 11.94600 39.44700
C  -13.56100 10.48100 40.07000
N  -9.33500 14.99700 41.29400
C  -9.55400 13.67000 41.17100
C  -8.29800 12.95000 41.46400
C  -7.37800 14.03000 41.54400
C  -8.01700 15.22100 41.33000
C  -8.14100 11.44900 41.54900
C  -5.96800 14.22600 41.74600
O  -5.01400 13.41200 41.92600
C  -5.77600 15.70500 41.63000
C  -5.03600 16.11400 42.88100
O  -3.81900 16.12900 42.89500
O  -5.92200 16.55700 43.83100
C  -5.29200 17.24400 44.92800
H  -10.00600 21.13400 40.51800
H  -14.84000 17.01700 39.89500
H  -10.86600 12.06000 40.89000
H  -5.91300 19.02800 41.67600
H  -7.43000 20.68200 40.02900
H  -6.69200 21.66000 42.21000
H  -7.46000 20.40700 43.12400
H  -8.45800 21.48600 42.16200
H  -5.72600 19.77700 39.04900
H  -6.22000 18.09900 38.81600
H  -3.99700 18.22000 40.62100
H  -3.62000 19.08200 39.12900
H  -13.21600 21.99000 38.97400
H  -11.65200 22.21200 39.89100
H  -13.10600 22.36300 40.71400
H  -17.35800 19.34300 40.60500
H  -16.05800 18.24300 41.11800
H  -16.45800 18.38000 39.40900
H  -14.41100 14.44300 38.84700
H  -13.71200 12.87700 41.34400
H  -15.70400 13.65600 41.46400
H  -16.46800 14.25900 39.98600
H  -15.84000 15.43300 41.07600
H  -12.48400 11.86900 39.00900
H  -14.13000 12.05300 38.57800
H  -13.53700 10.62700 41.15000
H  -12.72500 9.89500 39.69000
H  -14.53600 10.03300 39.87600
H  -7.15200 11.27600 41.12500
H  -8.94000 11.08600 40.90200
H  -8.24700 11.18000 42.60000
H  -5.11300 15.97500 40.80800
H  -4.94100 16.44900 45.58600
H  -5.96700 17.95900 45.39900
H  -4.43500 17.82100 44.58200

