158

Mg -2.12800 17.14900 26.93900
C  -2.69000 15.06600 29.72100
C  -2.28400 19.86900 29.09300
C  -1.90800 19.19800 24.13600
C  -2.63100 14.39200 24.80500
N  -2.54800 17.33200 29.19000
C  -2.52400 16.38900 30.18600
C  -2.63800 17.00000 31.54300
C  -2.52700 18.51300 31.20400
C  -2.43000 18.59900 29.73500
C  -3.75000 19.21300 31.81000
C  -1.59600 16.39600 32.60500
C  -1.20500 17.21900 33.85100
H  -0.95400 16.53800 35.21000
N  -1.88400 19.20700 26.70300
C  -1.97800 20.19300 27.70300
C  -1.74700 21.45400 27.07400
C  -1.55200 21.25100 25.68300
C  -1.66600 19.83900 25.41600
C  -1.78600 22.71600 27.87000
C  -1.25000 22.31300 24.56400
O  -1.13100 21.96300 23.40600
C  -1.21500 23.82900 24.87000
N  -2.34700 16.84100 24.78600
C  -2.25400 17.85700 23.84800
C  -2.62500 17.36200 22.48200
C  -2.61500 15.77400 22.62600
C  -2.56000 15.62900 24.14200
C  -3.85300 18.14800 21.85100
C  -1.46900 15.05400 21.79300
C  -0.11900 15.16400 22.37600
N  -2.43700 15.11500 27.17200
C  -2.65900 14.14700 26.20000
C  -3.01900 12.98000 26.85800
C  -3.08500 13.25300 28.24100
C  -2.66900 14.58800 28.38900
C  -3.29300 11.69900 26.20500
C  -3.28800 12.61200 29.52600
O  -3.56200 11.43800 29.81800
C  -2.92900 13.85400 30.55500
C  -1.73100 13.35800 31.31700
O  -0.57400 13.61800 31.02200
O  -2.01400 12.57900 32.39700
C  -0.85900 12.15500 33.20200
H  -2.23100 20.62500 29.88000
H  -1.96200 19.84200 23.25600
H  -2.84100 13.53100 24.16800
H  -3.66600 16.75100 31.80500
H  -1.67300 18.95600 31.71600
H  -4.66900 18.73100 31.47700
H  -3.72300 20.25200 31.47900
H  -3.59500 19.13200 32.88600
H  -0.71700 16.07700 32.04500
H  -1.86100 15.38700 32.92100
H  -2.13900 17.76200 33.99600
H  -0.34900 17.79400 33.49800
H  -1.87200 22.65600 28.95500
H  -2.70700 23.21600 27.57000
H  -0.98200 23.38100 27.55300
H  -0.21200 24.24300 24.96900
H  -1.87500 24.08600 25.69800
H  -1.62600 24.28300 23.96800
H  -1.72900 17.59300 21.90700
H  -3.59500 15.33200 22.44400
H  -4.14200 19.00900 22.45300
H  -4.73000 17.51700 21.71000
H  -3.62800 18.53900 20.85900
H  -1.44600 15.56000 20.82800
H  -1.80000 14.03400 21.59700
H  -0.04700 15.75400 23.29000
H  0.60400 15.59500 21.68300
H  0.27800 14.17700 22.61200
H  -2.30800 11.23100 26.20200
H  -3.64900 11.78800 25.17800
H  -4.06600 11.24000 26.82000
H  -3.74500 13.79500 31.27400
H  -0.60800 13.03900 33.78900
H  0.05700 11.77700 32.74800
H  -1.28800 11.52000 33.97700
Mg 9.39500 47.49300 25.74400
C  7.39800 47.68100 28.55200
C  11.89200 49.03700 27.44700
C  11.22900 47.68300 22.85400
C  6.54700 47.03900 23.80500
N  9.60000 48.25100 27.78300
C  8.68900 48.08400 28.86100
C  9.30800 48.54000 30.18500
C  10.68100 49.20300 29.70400
C  10.72200 48.83600 28.22800
C  10.78000 50.78900 29.98300
C  9.54100 47.36000 31.12000
C  9.32300 47.59700 32.58800
H  8.89100 46.43600 33.41000
N  11.37800 48.11500 25.19600
C  12.29400 48.67800 26.13900
C  13.56000 48.76300 25.47700
C  13.39900 48.29700 24.13300
C  12.00900 48.02000 24.00300
C  14.82400 49.29700 26.04200
C  14.41300 48.20100 22.97500
O  14.06600 47.85700 21.82400
C  15.94000 48.26300 23.20400
N  8.94800 47.35100 23.73800
C  9.81900 47.56900 22.73200
C  9.22800 47.01800 21.30200
C  7.76700 46.77300 21.59100
C  7.76600 47.04200 23.12900
C  9.58600 47.84300 20.03800
C  7.38000 45.27800 21.33100
C  8.15100 44.26500 22.23400
N  7.31900 47.31700 26.03200
C  6.27100 47.19200 25.15800
C  5.03100 46.94100 25.91100
C  5.41400 47.18300 27.22000
C  6.80200 47.47300 27.26800
C  3.68600 46.73500 25.44000
C  4.91800 47.19600 28.58300
O  3.73700 47.04300 28.98100
C  6.21000 47.41900 29.55200
C  6.31700 46.11500 30.14500
O  6.81900 45.14500 29.67100
O  5.71600 46.18900 31.37600
C  5.44400 44.85800 31.99000
H  12.78400 49.37200 27.98000
H  11.74400 47.47400 21.91400
H  5.60100 46.79600 23.31600
H  8.54000 49.24600 30.50300
H  11.57100 48.71900 30.10600
H  9.98000 51.19500 30.60100
H  10.67300 51.30000 29.02600
H  11.75900 51.03500 30.39500
H  10.59500 47.11800 30.98300
H  9.16000 46.44100 30.67600
H  8.57300 48.38700 32.54300
H  10.18400 48.06000 33.06900
H  14.61900 49.78700 26.99400
H  15.52300 49.96800 25.54400
H  15.42200 48.39600 26.17600
H  16.20700 47.42700 23.85000
H  16.24400 49.24000 23.57900
H  16.44500 48.16100 22.24300
H  9.64600 46.01400 21.21800
H  7.12800 47.46300 21.03900
H  8.72900 48.46800 19.79000
H  10.02100 47.34800 19.16900
H  10.36400 48.49100 20.44100
H  7.66200 45.21600 20.28000
H  6.30500 45.10200 21.31300
H  8.63200 43.46700 21.67000
H  7.28600 43.84600 22.74900
H  8.81800 44.70500 22.97500
H  3.56800 46.37300 24.41900
H  3.29600 47.75000 25.36800
H  3.21100 46.03100 26.12400
H  5.84200 48.21400 30.20100
H  4.37500 44.68500 31.86800
H  5.69500 44.95100 33.04700
H  6.03100 44.04600 31.56200

