158

Mg 36.09100 2.10700 31.05000
C  33.58800 3.32400 33.22800
C  38.39500 2.38900 33.48600
C  38.53100 1.55600 28.79600
C  33.82900 2.76100 28.41600
N  35.98100 2.91000 33.04700
C  34.84900 3.11800 33.84800
C  35.19900 3.14700 35.38600
C  36.83600 3.13800 35.39300
C  37.12100 2.80900 33.88300
C  37.51500 4.47000 35.93500
C  34.44400 1.90600 36.06300
C  33.99700 2.20500 37.53500
H  34.78700 3.29100 38.39800
N  38.16900 1.72800 31.22200
C  38.87800 1.85200 32.33400
C  40.24700 1.41800 32.03100
C  40.24200 1.09700 30.64900
C  38.97000 1.43900 30.14300
C  41.34300 1.33700 33.09300
C  41.34600 0.68200 29.74300
O  41.24600 0.58600 28.53600
C  42.80800 0.47700 30.32600
N  36.17200 2.19900 28.94200
C  37.24400 1.75300 28.24900
C  36.97100 1.71900 26.75000
C  35.48600 1.93300 26.60900
C  35.11500 2.34800 28.03800
C  37.94200 2.72200 25.96500
C  34.69900 0.63000 26.28100
C  33.48100 0.91300 25.41900
N  34.08700 2.78900 30.77100
C  33.30100 2.99100 29.67400
C  31.99800 3.34800 30.12500
C  32.05800 3.45900 31.50400
C  33.34700 3.20000 31.84500
C  30.82800 3.57700 29.25200
C  31.30900 3.79100 32.68200
O  30.16700 4.18800 32.76700
C  32.27400 3.79400 33.85300
C  32.37400 5.20800 34.36600
O  32.71300 6.19000 33.79000
O  32.04300 5.20000 35.70000
C  31.86400 6.53500 36.30700
H  39.02500 2.45100 34.37500
H  39.27900 1.39600 28.01600
H  33.10400 2.90600 27.61300
H  34.80800 4.08100 35.79000
H  37.21200 2.25900 35.91700
H  36.76200 5.25000 36.04300
H  38.21500 4.83900 35.18600
H  38.14300 4.28800 36.80700
H  35.14100 1.07200 35.97500
H  33.54100 1.66700 35.50200
H  34.11500 1.22500 37.99800
H  32.94200 2.43600 37.39000
H  42.15000 0.63000 32.89700
H  40.85000 1.06400 34.02600
H  41.84500 2.29400 33.23500
H  43.55600 0.36800 29.54100
H  42.72100 -0.26100 31.12300
H  42.98600 1.38500 30.90200
H  37.18900 0.71400 26.38700
H  35.32200 2.79300 25.95900
H  38.59500 3.28200 26.63500
H  37.27400 3.40600 25.44200
H  38.50500 2.14500 25.23200
H  34.28900 0.11600 27.15000
H  35.37400 -0.12900 25.88500
H  33.52800 1.88600 24.93000
H  32.56900 0.69800 25.97700
H  33.60700 0.25000 24.56300
H  29.99500 2.94000 29.55100
H  31.04800 3.31500 28.21700
H  30.66000 4.65400 29.25300
H  32.05900 3.05100 34.62100
H  31.69800 6.44700 37.38000
H  30.99800 6.90500 35.75700
H  32.74200 7.13700 36.07100
Mg -5.03000 25.41700 25.93800
C  -4.11300 26.85100 28.84900
C  -6.92700 23.09600 27.80700
C  -5.34100 23.46500 23.18100
C  -3.03700 27.63100 24.15600
N  -5.55600 25.03100 28.05600
C  -5.09700 25.84300 29.03400
C  -5.91200 25.63200 30.33400
C  -6.70300 24.31100 30.02900
C  -6.35800 24.08500 28.55000
C  -6.43600 23.11600 30.93800
C  -6.75700 26.86100 30.76600
C  -6.60100 27.27700 32.24400
H  -6.04100 26.28000 33.28600
N  -6.01900 23.48900 25.48900
C  -6.82400 22.80900 26.37600
C  -7.46100 21.71300 25.62200
C  -6.96100 21.78000 24.30600
C  -6.01700 22.87200 24.31700
C  -8.50600 20.77600 26.25800
C  -7.28400 20.93100 23.10100
O  -6.82400 21.15600 22.00400
C  -8.26500 19.75200 23.26800
N  -4.30100 25.46900 23.99500
C  -4.50900 24.54500 22.98900
C  -3.86400 24.98100 21.65900
C  -3.37500 26.44700 21.96700
C  -3.66500 26.56500 23.46300
C  -2.76600 23.95900 21.12300
C  -4.05500 27.55500 21.18100
C  -5.56400 27.70300 21.42200
N  -3.85100 26.95600 26.34200
C  -3.13400 27.79700 25.50600
C  -2.45600 28.71000 26.31200
C  -2.81600 28.45100 27.61800
C  -3.68200 27.35400 27.59200
C  -1.62200 29.78500 25.79500
C  -2.63900 28.88900 28.94300
O  -1.93500 29.76700 29.48000
C  -3.45600 27.76800 29.84300
C  -2.69800 27.16300 31.02200
O  -2.02200 26.15700 30.98300
O  -2.87400 28.00800 32.13400
C  -2.23500 27.69300 33.40600
H  -7.46800 22.33500 28.37400
H  -5.52800 22.97200 22.22400
H  -2.31700 28.25400 23.62000
H  -5.07800 25.48000 31.01900
H  -7.76200 24.56100 30.10000
H  -7.32800 22.72700 31.42700
H  -5.72100 23.46600 31.68400
H  -6.01000 22.27800 30.38600
H  -7.79400 26.69800 30.47100
H  -6.28000 27.66600 30.20900
H  -7.60200 27.56800 32.56000
H  -5.80200 28.01900 32.24500
H  -8.24600 19.72900 26.10900
H  -9.52500 20.88900 25.88800
H  -8.40900 20.90400 27.33600
H  -7.80900 18.91800 23.80200
H  -8.57600 19.35800 22.30000
H  -9.21100 20.11300 23.67000
H  -4.72900 25.05500 21.00000
H  -2.31100 26.67700 21.90400
H  -3.15700 23.23500 20.40800
H  -2.46300 23.34900 21.97500
H  -1.93600 24.42700 20.59500
H  -4.00000 27.44800 20.09800
H  -3.55600 28.47600 21.48400
H  -6.15800 27.67100 20.50900
H  -5.56400 28.72400 21.80400
H  -6.04300 27.01800 22.12200
H  -0.79200 29.39200 25.20900
H  -1.22800 30.19400 26.72500
H  -2.26000 30.48500 25.25400
H  -4.22900 28.42100 30.24900
H  -1.19700 28.02400 33.43700
H  -2.29000 26.64300 33.69100
H  -2.75500 28.21200 34.21200

