158

Mg -10.89800 15.98300 41.45800
C  -7.39900 15.78000 41.05000
C  -10.74400 19.19000 40.33100
C  -14.14800 15.82500 41.12900
C  -10.86600 12.51500 42.38500
N  -9.24800 17.26100 40.58900
C  -7.86100 17.02600 40.65100
C  -7.09300 18.25200 40.20200
C  -8.17500 19.37900 40.59100
C  -9.46100 18.59500 40.50400
C  -7.91900 20.06900 41.93900
C  -6.64000 18.13300 38.70600
C  -5.09900 18.09200 38.50300
H  -4.67800 18.65500 37.19000
N  -12.24000 17.29100 40.86000
C  -11.96000 18.60500 40.45000
C  -13.22100 19.24100 40.03900
C  -14.25300 18.34400 40.41100
C  -13.58600 17.09000 40.78900
C  -13.43200 20.63300 39.44000
C  -15.72800 18.68300 40.34700
O  -16.12100 19.71000 39.84200
C  -16.74500 17.68500 40.93700
N  -12.35000 14.39300 41.66200
C  -13.63000 14.60800 41.50600
C  -14.56400 13.39700 41.88600
C  -13.47700 12.32300 42.23000
C  -12.12800 13.11200 42.18200
C  -15.64400 13.71700 42.89900
C  -13.50700 11.05300 41.27000
C  -12.62900 11.20700 39.94400
N  -9.46900 14.45800 41.64600
C  -9.58000 13.15600 42.08900
C  -8.24000 12.50400 42.11800
C  -7.36200 13.55200 41.79400
C  -8.15400 14.70600 41.49200
C  -7.95000 11.04400 42.60500
C  -5.93800 13.93400 41.67900
O  -4.93000 13.30700 41.82900
C  -5.96100 15.36400 41.14200
C  -5.29000 16.10600 42.20300
O  -5.73800 16.22300 43.33000
O  -4.00500 16.43000 41.79000
C  -3.27300 17.32900 42.70800
H  -10.67900 20.26300 40.13400
H  -15.23500 15.74600 41.05800
H  -10.96700 11.53200 42.84900
H  -6.17000 18.15900 40.77400
H  -8.22300 20.17100 39.84300
H  -7.37900 19.42000 42.62900
H  -8.87000 20.43900 42.32200
H  -7.28700 20.94800 41.81100
H  -7.18200 18.96200 38.25100
H  -7.04500 17.18900 38.34200
H  -4.78300 17.05300 38.41100
H  -4.60800 18.57000 39.35000
H  -14.13100 20.54400 38.60900
H  -12.54200 21.07800 38.99500
H  -13.95300 21.32800 40.09800
H  -17.65800 18.26600 41.06600
H  -16.46900 17.47700 41.97100
H  -16.99600 16.83800 40.29900
H  -15.02400 13.12000 40.93700
H  -13.66100 12.08600 43.27800
H  -15.82100 14.79200 42.88600
H  -15.18800 13.62800 43.88500
H  -16.52200 13.07800 42.80400
H  -14.46400 10.75000 40.84700
H  -13.08900 10.24700 41.87300
H  -11.61200 10.99200 40.27100
H  -12.61800 12.21300 39.52400
H  -12.97100 10.54100 39.15300
H  -6.90800 10.76500 42.44900
H  -8.45100 10.30600 41.97800
H  -8.22500 10.87700 43.64600
H  -5.52400 15.41000 40.14400
H  -3.68500 18.33700 42.75400
H  -2.29000 17.60200 42.32400
H  -3.14800 17.04200 43.75200
Mg -5.50100 25.77500 25.65600
C  -4.10100 27.38900 28.39200
C  -7.15800 23.70800 27.69200
C  -6.43500 24.02500 22.96700
C  -3.55800 27.82800 23.63800
N  -5.57900 25.58600 27.81200
C  -5.00700 26.36300 28.79300
C  -5.55900 26.08800 30.21400
C  -6.37800 24.81800 29.92700
C  -6.29800 24.68600 28.37600
C  -6.03100 23.61800 30.76700
C  -6.34200 27.32100 30.83700
C  -5.89600 27.72800 32.19800
H  -5.32800 26.64800 33.09400
N  -6.68400 24.12900 25.35100
C  -7.36900 23.41500 26.36000
C  -8.13100 22.31600 25.90500
C  -7.89700 22.40100 24.43500
C  -6.88100 23.53400 24.19300
C  -8.87400 21.25400 26.73900
C  -8.56800 21.53800 23.34100
O  -8.33500 21.70800 22.17600
C  -9.70600 20.74400 23.74000
N  -5.15600 26.06100 23.48100
C  -5.60900 25.09700 22.58300
C  -5.05100 25.42800 21.14200
C  -4.14800 26.68700 21.39200
C  -4.25300 26.86700 22.93000
C  -4.32300 24.14100 20.66400
C  -4.56500 27.94800 20.54700
C  -4.66900 27.73900 18.98600
N  -4.16600 27.39400 25.85300
C  -3.51500 28.15100 25.01100
C  -2.69500 29.13300 25.71900
C  -2.90600 28.90800 27.07200
C  -3.82300 27.84200 27.12000
C  -1.75500 30.13900 25.11500
C  -2.47700 29.31500 28.42300
O  -1.74600 30.17400 28.85900
C  -3.28000 28.28000 29.28000
C  -2.30400 27.42700 30.10400
O  -1.74200 26.39300 29.67500
O  -2.23500 27.85500 31.42300
C  -1.22900 27.08600 32.28200
H  -7.75900 23.18000 28.43500
H  -6.65000 23.40200 22.09600
H  -2.97000 28.38900 22.90800
H  -4.69400 25.77900 30.80000
H  -7.42800 24.98700 30.16500
H  -6.90200 23.44500 31.39900
H  -5.11700 23.67200 31.35800
H  -5.93600 22.82800 30.02200
H  -7.38700 27.10900 31.06200
H  -6.23700 28.22800 30.24100
H  -6.81400 28.08900 32.66000
H  -5.19700 28.55400 32.06700
H  -8.57800 21.38600 27.78000
H  -8.69600 20.23600 26.39200
H  -9.95200 21.41500 26.73100
H  -10.37400 21.28700 24.40900
H  -9.28200 19.82700 24.14900
H  -10.32000 20.54700 22.86100
H  -5.97600 25.63900 20.60600
H  -3.09700 26.55200 21.13700
H  -4.77300 23.25800 21.11900
H  -3.24400 24.06000 20.80000
H  -4.53000 24.12700 19.59400
H  -3.79100 28.69700 20.71300
H  -5.55500 28.25900 20.88100
H  -4.25300 26.75700 18.76000
H  -4.04800 28.44200 18.43000
H  -5.66500 27.87500 18.56400
H  -1.56200 30.05900 24.04500
H  -0.77900 30.11400 25.60000
H  -2.11400 31.16300 25.22100
H  -3.90200 28.81400 29.99900
H  -0.27700 27.27700 31.78700
H  -1.45700 26.02200 32.34400
H  -1.15600 27.45500 33.30500

