158

Mg 0.09200 7.60400 25.20700
C  0.85700 9.69100 27.79800
C  0.47100 4.89500 27.28900
C  -0.41800 5.61700 22.61600
C  0.28300 10.31800 23.05200
N  0.70800 7.28800 27.28500
C  0.85600 8.34900 28.18900
C  1.19400 7.81000 29.59500
C  1.14500 6.30400 29.36300
C  0.77700 6.10300 27.92800
C  2.45400 5.55500 29.70000
C  0.22100 8.28600 30.65200
C  0.94800 8.67900 32.00600
H  1.52700 7.50700 32.84000
N  -0.20700 5.57400 25.05800
C  -0.07700 4.63200 25.99100
C  -0.25800 3.27000 25.33900
C  -0.51100 3.40700 23.99300
C  -0.45200 4.97400 23.84300
C  -0.07500 2.01700 26.15800
C  -0.77700 2.29800 22.94900
O  -1.17900 2.54700 21.83900
C  -0.50700 0.77700 23.37200
N  0.09100 7.90300 23.15800
C  -0.24900 6.96500 22.25900
C  -0.56900 7.46400 20.88300
C  -0.37300 8.99900 21.05300
C  0.07400 9.09800 22.51100
C  0.19900 6.86700 19.72800
C  -1.54100 9.95400 20.64500
C  -2.85700 9.85200 21.30400
N  0.59200 9.56700 25.33700
C  0.62900 10.53900 24.37700
C  0.78600 11.86000 24.95100
C  1.01400 11.53500 26.29500
C  0.78100 10.14700 26.50100
C  0.84100 13.18500 24.39100
C  1.30200 12.13300 27.55900
O  1.62000 13.27400 27.90100
C  1.20800 10.97200 28.67900
C  2.43000 10.96900 29.54300
O  3.44900 10.38200 29.30800
O  2.17800 11.57800 30.71800
C  3.32900 11.68900 31.69900
H  0.48300 4.09100 28.02800
H  -0.86800 4.96600 21.86300
H  0.14600 11.24100 22.48600
H  2.22800 8.10500 29.77300
H  0.45800 5.87300 30.09100
H  2.68600 4.86100 28.89100
H  2.33400 4.95100 30.59900
H  3.26900 6.25900 29.86800
H  -0.53200 7.52600 30.86200
H  -0.27600 9.16900 30.25000
H  0.23800 9.31300 32.53700
H  1.85000 9.20000 31.68200
H  -1.04700 1.54200 26.03400
H  0.01000 2.36000 27.19000
H  0.85000 1.47600 25.96100
H  -1.34200 0.43100 23.98300
H  0.46200 0.82200 23.86800
H  -0.39000 0.10900 22.51900
H  -1.62800 7.32300 20.66800
H  0.54400 9.30500 20.54900
H  -0.38700 6.60100 18.84800
H  0.69300 5.94200 20.02300
H  0.88200 7.62600 19.34600
H  -1.69900 9.76900 19.58300
H  -1.13100 10.96400 20.61200
H  -2.78400 9.13200 22.11900
H  -3.58400 9.54800 20.55100
H  -3.19200 10.77700 21.77400
H  0.00400 13.71000 24.85200
H  0.68300 13.21900 23.31300
H  1.77900 13.63100 24.72200
H  0.46200 11.37500 29.36400
H  3.75500 10.71400 31.93700
H  3.03700 12.10100 32.66500
H  4.15300 12.24500 31.25200
Mg 54.69400 25.00900 44.78300
C  52.35300 27.40700 43.64000
C  52.59400 22.64200 43.72800
C  57.34100 23.02900 44.86200
C  56.62200 27.75100 45.94900
N  52.87200 25.15400 43.45300
C  52.08800 26.17500 43.00100
C  50.75700 25.71100 42.31100
C  50.74600 24.28200 42.98400
C  52.23000 23.96600 43.40700
C  49.69400 24.05900 44.13400
C  50.73400 25.77000 40.76400
C  51.79300 26.45100 39.93600
H  52.89400 25.62000 39.25200
N  54.94400 23.03800 44.33300
C  53.91100 22.18600 44.06200
C  54.43100 20.79700 44.21400
C  55.80500 20.83800 44.52600
C  56.13600 22.35000 44.54500
C  53.57500 19.66000 43.91300
C  56.77100 19.68900 44.74000
O  56.33400 18.57700 44.77300
C  58.11000 19.86700 45.07800
N  56.69000 25.38700 45.20400
C  57.61700 24.37100 45.17000
C  59.07700 24.89400 45.55200
C  58.70700 26.27800 46.19600
C  57.26600 26.51600 45.79500
C  59.97500 23.96700 46.43100
C  59.73600 27.44700 45.89500
C  60.48800 27.98700 47.01100
N  54.50200 27.09300 44.93000
C  55.31300 28.02800 45.58300
C  54.63800 29.34400 45.61300
C  53.51100 29.08600 44.84100
C  53.43000 27.74100 44.47600
C  55.09100 30.57200 46.24700
C  52.32000 29.71800 44.40800
O  51.90300 30.85000 44.49400
C  51.47600 28.66900 43.70600
C  51.17600 29.16800 42.32400
O  51.91100 29.65300 41.51100
O  49.81500 28.89000 42.08700
C  49.06900 29.53900 41.01900
H  51.85300 21.89000 43.44900
H  58.21300 22.37200 44.83800
H  57.27400 28.54900 46.31000
H  49.98400 26.35500 42.73200
H  50.62800 23.56400 42.17300
H  50.19300 23.57100 44.97100
H  48.90800 23.40500 43.75800
H  49.35400 25.05400 44.42200
H  49.72500 26.13900 40.58100
H  50.59400 24.75100 40.40100
H  52.29200 27.14100 40.61600
H  51.26300 27.02100 39.17300
H  54.11100 18.79500 44.30500
H  53.15300 19.40200 42.94200
H  52.69700 19.71100 44.55700
H  58.43200 18.92100 45.51400
H  58.25500 20.59200 45.87800
H  58.59200 20.13300 44.13700
H  59.65000 25.14300 44.65900
H  58.59000 26.15300 47.27200
H  61.02300 24.20500 46.24600
H  59.67900 22.93100 46.26800
H  59.65500 24.06300 47.46800
H  59.32500 28.25700 45.29300
H  60.51400 27.06100 45.23600
H  61.51400 27.62700 47.08200
H  60.06100 27.74600 47.98400
H  60.40300 29.07300 47.00300
H  55.26400 30.37700 47.30500
H  54.32900 31.33700 46.09300
H  55.98000 30.82800 45.67000
H  50.52800 28.57000 44.23500
H  49.40100 29.30600 40.00700
H  49.03700 30.57300 41.36300
H  48.04300 29.18100 41.10600

