158

Mg 27.91200 56.66200 39.46400
C  25.38300 54.23000 39.04600
C  30.15100 54.25000 38.60300
C  30.27600 58.96700 39.08900
C  25.48600 59.15100 39.81300
N  27.67500 54.50800 38.56300
C  26.63400 53.67900 38.63900
C  27.04100 52.27900 38.13900
C  28.56800 52.30200 38.22400
C  28.82300 53.79000 38.50100
C  29.19900 51.42300 39.40900
C  26.51300 52.02800 36.64000
C  26.65400 53.23300 35.66400
H  27.03900 53.06500 34.20200
N  29.98900 56.62200 39.00300
C  30.70900 55.49400 38.82300
C  32.08800 55.88400 38.82600
C  32.14500 57.29000 38.91900
C  30.78700 57.69300 38.99900
C  33.33700 54.90200 38.79300
C  33.43800 58.11900 39.00300
O  34.56000 57.62300 38.95800
C  33.51300 59.62000 39.21000
N  27.78900 58.78700 39.26100
C  28.97100 59.46500 39.26200
C  28.76700 61.00000 39.28900
C  27.19300 61.03200 39.66400
C  26.78000 59.58100 39.47400
C  29.63400 61.64500 40.40300
C  26.36700 62.14900 38.93300
C  26.00200 63.42800 39.82200
N  25.87000 56.72800 39.47900
C  24.96600 57.75600 39.66800
C  23.67600 57.24200 39.85300
C  23.83900 55.87500 39.67900
C  25.18700 55.56300 39.40500
C  22.38900 57.98900 40.16600
C  23.05300 54.62300 39.70600
O  21.84300 54.38000 39.79300
C  24.03000 53.52000 39.09300
C  23.83300 52.21200 39.85900
O  23.19400 51.24400 39.45800
O  24.46700 52.39500 40.99900
C  24.76300 51.14900 41.79800
H  30.87900 53.44200 38.51800
H  30.97400 59.78500 38.89800
H  24.84200 60.00400 40.03700
H  26.70800 51.43300 38.74000
H  28.90300 52.07800 37.21200
H  30.21200 51.12800 39.13600
H  28.50500 50.58600 39.49200
H  29.23400 52.02400 40.31700
H  25.46300 51.74900 36.72700
H  26.96500 51.08700 36.32300
H  27.35400 53.92900 36.12700
H  25.70300 53.76500 35.69500
H  33.84600 54.88200 37.82900
H  33.01000 53.87100 38.93300
H  33.95700 55.14300 39.65700
H  32.94100 59.95900 40.07400
H  33.09700 60.15700 38.35800
H  34.50700 60.01900 39.41600
H  28.99300 61.31200 38.27000
H  27.20500 61.26500 40.72800
H  29.86800 60.94100 41.20100
H  29.00300 62.45400 40.77400
H  30.54900 62.08300 40.00300
H  25.45600 61.78200 38.45900
H  26.90000 62.53200 38.06300
H  26.45000 63.34900 40.81200
H  24.94400 63.56900 40.04200
H  26.33400 64.29300 39.24700
H  21.61100 57.26000 40.39700
H  22.32000 58.58400 39.25500
H  22.60700 58.71500 40.94800
H  23.65000 53.42100 38.07600
H  25.75200 51.05600 42.24500
H  24.63100 50.22600 41.23300
H  24.06600 51.12900 42.63600
Mg -5.47300 25.33400 25.79300
C  -4.38000 26.47000 28.98300
C  -7.54400 23.03100 27.43200
C  -5.88100 23.82800 22.81100
C  -2.91000 27.34900 24.36400
N  -5.73200 24.78000 27.94300
C  -5.30600 25.42800 29.05100
C  -5.81500 24.83700 30.36200
C  -6.71400 23.64700 29.82200
C  -6.70800 23.85700 28.27000
C  -6.03100 22.25600 30.34400
C  -6.60300 25.89900 31.18500
C  -6.16900 26.17100 32.63100
H  -5.54000 25.03200 33.31200
N  -6.63700 23.72400 25.18900
C  -7.49100 22.92600 25.97000
C  -8.26800 22.10800 25.06000
C  -7.78300 22.29600 23.76600
C  -6.73800 23.36900 23.86600
C  -9.41600 21.28300 25.57400
C  -8.26100 21.60700 22.46700
O  -7.89800 22.01000 21.33400
C  -9.17000 20.46800 22.48000
N  -4.54400 25.57700 23.81200
C  -4.88400 24.83900 22.72300
C  -4.13400 25.23300 21.45400
C  -3.37000 26.50300 21.93500
C  -3.54400 26.48200 23.47200
C  -3.41700 24.21200 20.64100
C  -3.87700 27.84800 21.30700
C  -5.19800 28.39600 21.86700
N  -4.01300 26.71200 26.47100
C  -3.11300 27.51400 25.74200
C  -2.46800 28.39300 26.65500
C  -2.97500 28.10800 27.96100
C  -3.81600 26.98500 27.77600
C  -1.54100 29.56800 26.29600
C  -2.90800 28.54500 29.37900
O  -2.36200 29.48500 29.96300
C  -3.79900 27.46300 30.11300
C  -2.69700 26.66300 30.87400
O  -1.93500 25.74200 30.48600
O  -2.58800 27.29700 32.08500
C  -1.40400 27.02000 32.81100
H  -8.18000 22.41500 28.07100
H  -6.14100 23.22100 21.94100
H  -2.12500 27.91300 23.85700
H  -4.95300 24.49300 30.93500
H  -7.76100 23.63800 30.12500
H  -5.66200 21.75400 29.44900
H  -6.63700 21.51700 30.86900
H  -5.23000 22.51000 31.03900
H  -7.62500 25.52300 31.23700
H  -6.67200 26.86500 30.68500
H  -7.02400 26.48800 33.22800
H  -5.45800 26.99500 32.57900
H  -9.21200 20.21200 25.59900
H  -10.28800 21.54600 24.97400
H  -9.66700 21.58600 26.59000
H  -8.72000 19.52400 22.78600
H  -9.65400 20.31300 21.51500
H  -10.06000 20.72400 23.05500
H  -4.83300 25.68000 20.74700
H  -2.32300 26.36700 21.66500
H  -2.34400 24.36800 20.53500
H  -3.96900 24.19100 19.70200
H  -3.50400 23.26700 21.17600
H  -3.98300 27.72400 20.22900
H  -3.05700 28.56500 21.34200
H  -5.87000 28.69600 21.06200
H  -5.08300 29.28600 22.48500
H  -5.67900 27.63300 22.47900
H  -1.31900 30.28200 27.08900
H  -2.22300 30.06600 25.60800
H  -0.66900 29.10900 25.83000
H  -4.59400 27.91400 30.70700
H  -0.56900 27.06700 32.11100
H  -1.46200 26.00200 33.19500
H  -1.33400 27.68300 33.67300

