158

Mg 25.57800 1.26200 30.06700
C  27.54200 0.85400 32.82000
C  22.86500 1.31600 32.04800
C  23.62600 0.76200 27.18700
C  28.38400 0.58700 27.97100
N  25.26100 0.99600 32.16800
C  26.21400 1.07800 33.10700
C  25.64600 1.50500 34.60500
C  24.13600 1.31100 34.28600
C  24.03800 1.17900 32.75200
C  23.54100 0.00700 34.98900
C  26.08400 2.96800 34.99400
C  27.07800 3.04900 36.11100
H  26.49500 3.61900 37.40000
N  23.51200 1.21900 29.65700
C  22.57200 1.26400 30.64200
C  21.28400 1.16600 29.98500
C  21.49200 0.89700 28.59700
C  22.94300 0.92600 28.40800
C  19.98600 1.33300 30.73700
C  20.48700 0.75200 27.46000
O  20.66300 0.59600 26.27800
C  19.08500 0.78700 27.73400
N  25.92500 0.74200 27.95300
C  24.97100 0.73500 27.03400
C  25.58100 0.98300 25.56500
C  27.10100 0.85200 25.78500
C  27.15800 0.73200 27.32700
C  25.09800 0.07000 24.42100
C  27.94200 2.09700 25.34500
C  29.23500 1.81400 24.65900
N  27.58400 0.87900 30.27300
C  28.55400 0.63900 29.41800
C  29.73700 0.21800 30.14600
C  29.44000 0.35300 31.52500
C  28.08300 0.67200 31.53000
C  30.99900 -0.23000 29.55500
C  29.88200 0.27700 32.82400
O  31.00600 -0.00900 33.20300
C  28.74300 0.74600 33.78700
C  28.58100 -0.32200 34.77400
O  28.05500 -1.44300 34.63400
O  29.17600 0.03700 35.93000
C  28.89400 -0.67500 37.15800
H  21.95100 1.33500 32.64500
H  23.12900 0.69100 26.21700
H  29.22300 0.45100 27.28500
H  25.93600 0.71200 35.29300
H  23.53400 2.11300 34.71100
H  24.03400 -0.14900 35.94800
H  23.60700 -0.84300 34.30900
H  22.46300 0.14900 35.06900
H  25.13900 3.44800 35.24900
H  26.44400 3.59200 34.17600
H  27.75900 3.85200 35.82900
H  27.54000 2.06900 36.23100
H  19.51200 0.36800 30.91600
H  19.36100 2.11000 30.29600
H  20.22300 1.69400 31.73800
H  18.55000 0.85800 26.78700
H  18.84900 1.68100 28.31200
H  18.77200 -0.15900 28.17500
H  25.34700 2.03300 25.39200
H  27.39200 -0.10300 25.34900
H  24.85400 -0.93300 24.77100
H  25.87400 -0.14500 23.68600
H  24.19500 0.61900 24.15500
H  28.11100 2.75900 26.19500
H  27.37100 2.64300 24.59400
H  29.38400 0.73600 24.60500
H  30.02500 2.41100 25.11500
H  29.23500 2.26700 23.66700
H  31.79700 -0.00900 30.26400
H  31.35200 0.27400 28.65500
H  30.78400 -1.27100 29.31200
H  29.10700 1.67800 34.22000
H  28.35000 -1.61800 37.10900
H  28.34500 -0.01900 37.83300
H  29.83500 -0.79000 37.69600
Mg 49.70000 46.39000 43.34300
C  46.57700 47.20500 42.39500
C  49.44200 43.29500 41.73700
C  53.05800 45.86900 43.82100
C  50.21400 49.72600 44.42200
N  48.19100 45.47300 42.11700
C  47.00600 45.99300 41.89000
C  46.11800 45.09200 40.93700
C  46.98500 43.75200 40.94000
C  48.24500 44.13400 41.66700
C  46.28100 42.60700 41.76600
C  45.84300 45.69400 39.54500
C  44.41500 45.32000 38.93000
H  44.46500 44.27700 37.77200
N  51.08500 44.68700 42.93600
C  50.73900 43.53900 42.25700
C  51.80300 42.58800 42.32400
C  52.89200 43.23500 43.05800
C  52.36900 44.66900 43.33600
C  51.76500 41.29000 41.69600
C  54.24100 42.61800 43.36400
O  54.51100 41.47800 43.04000
C  55.27600 43.41400 44.02200
N  51.34200 47.61200 44.02500
C  52.63700 47.15800 44.16700
C  53.61500 48.26400 44.60000
C  52.63600 49.38300 45.02000
C  51.28700 48.87900 44.42500
C  54.64600 47.79300 45.76400
C  53.06000 50.80300 44.49700
C  52.71500 52.02000 45.37900
N  48.57100 48.10600 43.61100
C  48.85900 49.37300 44.05700
C  47.68200 50.20200 43.95700
C  46.75500 49.38900 43.36400
C  47.33300 48.11300 43.10800
C  47.43800 51.60500 44.50000
C  45.33700 49.27000 43.06200
O  44.39500 50.00500 43.32900
C  45.21300 47.86300 42.31300
C  44.13600 47.09800 42.90100
O  43.94900 46.92400 44.12000
O  43.31000 46.70700 41.91200
C  42.12100 46.04100 42.25200
H  49.38300 42.30000 41.29100
H  54.04100 45.65700 44.24500
H  50.40200 50.75100 44.74800
H  45.15900 44.83700 41.38900
H  47.21900 43.33300 39.96100
H  46.29900 41.71600 41.14000
H  45.25600 42.92300 41.95700
H  46.65700 42.38700 42.76500
H  46.67100 45.43900 38.88400
H  45.84200 46.77400 39.69200
H  43.91900 46.25300 38.66300
H  43.80400 44.90100 39.73000
H  52.64400 41.14400 41.06800
H  50.92300 41.06900 41.04100
H  51.74400 40.50500 42.45200
H  56.04500 42.71700 44.35400
H  54.74700 43.79500 44.89500
H  55.59700 44.24200 43.39000
H  54.14000 48.54500 43.68700
H  52.61300 49.41400 46.10900
H  54.65100 46.76300 46.12100
H  54.54400 48.46000 46.61900
H  55.65700 47.95100 45.38900
H  52.41100 50.85000 43.62200
H  54.12200 50.85400 44.25700
H  52.32900 51.67000 46.33700
H  51.92400 52.56000 44.85900
H  53.63500 52.58400 45.52600
H  47.77600 52.28200 43.71500
H  47.97000 51.71600 45.44600
H  46.41000 51.84700 44.76700
H  45.00600 48.25200 41.31600
H  42.29000 44.96500 42.29800
H  41.29000 46.09500 41.54800
H  41.60700 46.37500 43.15400

