158

Mg 40.45000 9.42800 29.18200
C  42.25500 10.59200 31.81400
C  38.19600 7.91100 31.40800
C  38.76500 8.18300 26.56600
C  43.04100 10.51400 26.99500
N  40.26000 9.26100 31.30600
C  41.04300 9.88700 32.20100
C  40.50200 9.82100 33.69000
C  39.35700 8.75200 33.46400
C  39.26900 8.58300 31.94200
C  39.40700 7.44400 34.22900
C  40.14400 11.21200 34.24000
C  40.06800 11.32600 35.76100
H  40.91700 12.38400 36.42900
N  38.70500 8.15100 29.00700
C  37.93200 7.66900 30.03800
C  36.79100 6.96200 29.45600
C  36.83300 7.28600 28.05000
C  38.16300 7.90400 27.84200
C  35.79400 6.20600 30.27500
C  35.84400 7.07100 26.89700
O  36.03100 7.54700 25.79000
C  34.57100 6.33500 27.22200
N  40.88700 9.20900 27.08900
C  39.98300 8.70700 26.22500
C  40.44800 8.88600 24.83300
C  41.81800 9.58100 24.92400
C  41.96600 9.81100 26.44200
C  40.55100 7.52600 24.09400
C  41.90200 10.83900 24.07800
C  40.94200 12.01300 24.52700
N  42.31700 10.37900 29.31800
C  43.21700 10.77500 28.35900
C  44.34300 11.46100 29.00900
C  44.01000 11.39200 30.40400
C  42.75800 10.78800 30.50300
C  45.66300 12.06800 28.51100
C  44.43300 11.68100 31.77700
O  45.41300 12.20200 32.22600
C  43.30300 11.23800 32.78200
C  43.78000 10.31300 33.80000
O  44.37400 9.23900 33.59500
O  43.54700 10.71800 35.09500
C  44.03600 9.85800 36.23800
H  37.47900 7.57200 32.15900
H  38.20600 8.02100 25.64200
H  43.83900 10.76200 26.29200
H  41.17800 9.36600 34.41400
H  38.41100 9.21300 33.74900
H  38.54800 7.42700 34.89900
H  40.35400 7.31300 34.75200
H  39.43300 6.57300 33.57500
H  39.17400 11.38000 33.77400
H  40.83800 11.93500 33.81100
H  40.17400 10.30300 36.12100
H  39.02900 11.60600 35.93500
H  34.82400 6.70000 30.22500
H  36.07800 6.06100 31.31700
H  35.84600 5.32200 29.63900
H  34.11500 7.01400 27.94300
H  34.74300 5.30800 27.54300
H  33.99000 6.48100 26.31100
H  39.73200 9.52700 24.31900
H  42.56900 8.86500 24.58800
H  41.58900 7.47200 23.76500
H  39.85100 7.38700 23.27000
H  40.27800 6.70600 24.75900
H  41.53800 10.52700 23.09900
H  42.92600 11.20500 24.15800
H  40.55900 11.94000 25.54500
H  40.09600 12.09200 23.84400
H  41.49400 12.95100 24.48000
H  46.13900 12.49500 29.39300
H  45.52100 12.76000 27.68100
H  46.31800 11.31900 28.06500
H  43.01400 12.13700 33.32700
H  45.05500 9.53200 36.03100
H  43.32900 9.06000 36.46200
H  44.06000 10.44900 37.15300
Mg 49.06100 45.81500 43.15200
C  45.63000 45.74900 42.21900
C  49.09400 42.51800 42.28600
C  52.49400 46.06300 42.97000
C  48.80900 49.27500 43.63100
N  47.55000 44.34300 42.23100
C  46.23800 44.50900 41.99000
C  45.42300 43.18900 41.64900
C  46.54700 42.21000 41.88600
C  47.78900 43.06100 42.31200
C  46.28700 41.05600 42.82300
C  44.70700 43.07000 40.23000
C  45.39600 43.76200 39.03000
H  45.24600 42.91700 37.75000
N  50.59800 44.50800 42.59600
C  50.38800 43.17100 42.39500
C  51.62300 42.50800 42.23400
C  52.63600 43.49100 42.37600
C  51.95400 44.74700 42.63700
C  51.77100 41.01000 41.86300
C  54.11100 43.18300 42.33400
O  54.45800 41.98700 42.10100
C  55.09200 44.29900 42.46900
N  50.39100 47.50100 43.14000
C  51.78200 47.27700 43.16200
C  52.52100 48.62900 43.33900
C  51.33200 49.63400 43.56900
C  50.11600 48.77500 43.46000
C  53.67500 48.67000 44.32500
C  51.21700 50.73400 42.50600
C  50.74400 52.15800 42.94700
N  47.48100 47.24800 43.17300
C  47.55300 48.61900 43.38800
C  46.22800 49.17500 43.27700
C  45.41000 48.13300 42.76600
C  46.21600 46.94300 42.76500
C  45.82600 50.68500 43.46600
C  44.12100 47.77700 42.16600
O  43.11500 48.44000 41.95600
C  44.15200 46.21500 41.84200
C  43.07000 45.48600 42.62300
O  42.37900 44.53900 42.30200
O  42.90200 46.12100 43.86900
C  41.94400 45.45600 44.76800
H  49.17700 41.47600 41.97100
H  53.56800 46.22300 43.08400
H  48.64800 50.30000 43.97200
H  44.66500 43.15200 42.43100
H  46.84600 41.83000 40.90900
H  46.53100 40.13900 42.28700
H  45.24800 41.05900 43.15400
H  46.82300 41.26800 43.74800
H  43.64900 43.32600 40.29800
H  44.69200 42.00000 40.02500
H  46.47700 43.71900 39.16000
H  45.06000 44.77800 38.82200
H  51.96400 41.01300 40.79000
H  50.96700 40.32000 42.11800
H  52.64800 40.64700 42.40000
H  55.02100 44.69500 41.45600
H  56.06100 43.80100 42.50400
H  54.95600 44.88800 43.37600
H  52.92600 48.87600 42.35700
H  51.39400 50.01500 44.58800
H  53.38500 49.39700 45.08400
H  54.52200 49.00600 43.72800
H  53.81400 47.68200 44.76500
H  50.46100 50.41600 41.78900
H  52.20800 50.90500 42.08500
H  50.41400 52.13200 43.98600
H  49.89400 52.40300 42.31000
H  51.48900 52.93000 42.75600
H  46.66000 51.26300 43.06800
H  45.75400 50.80200 44.54700
H  44.89400 50.82300 42.91700
H  44.10600 45.87300 40.80800
H  42.07400 45.77400 45.80300
H  42.42400 44.47800 44.74400
H  40.93300 45.49600 44.36300

