158

Mg 35.07900 48.29300 25.81500
C  35.10600 46.38800 28.88900
C  33.82400 50.97000 27.67100
C  34.61900 50.02900 22.94900
C  35.54000 45.37200 24.18400
N  34.57800 48.58300 28.01100
C  34.87000 47.79000 29.06500
C  34.82700 48.53900 30.42700
C  33.99400 49.78900 29.96700
C  34.17300 49.85000 28.46700
C  32.50200 49.82200 30.49700
C  36.24000 48.56100 31.18100
C  36.36300 48.09500 32.64500
H  36.34100 49.19400 33.68800
N  34.49400 50.25500 25.37000
C  34.09800 51.18900 26.24300
C  33.81100 52.45400 25.55400
C  34.14000 52.16700 24.20500
C  34.44300 50.71900 24.13500
C  33.34400 53.73700 26.25800
C  34.14900 53.12800 23.00900
O  34.70300 52.84900 21.93500
C  33.63000 54.49400 23.09500
N  35.17800 47.78300 23.80800
C  34.91900 48.67800 22.75900
C  34.89700 47.93300 21.41400
C  35.46700 46.50000 21.85500
C  35.32800 46.52200 23.37300
C  33.57400 47.93200 20.68900
C  36.86600 46.14700 21.40100
C  37.05700 44.89300 20.49900
N  35.25000 46.21800 26.33400
C  35.51400 45.13000 25.55400
C  35.74800 43.91100 26.40600
C  35.61500 44.44400 27.73600
C  35.22800 45.76300 27.63300
C  36.10700 42.53400 25.97800
C  35.66700 44.11200 29.09800
O  36.10100 43.07500 29.57800
C  35.51500 45.38500 29.92100
C  34.45800 45.03200 30.96200
O  33.39400 44.45000 30.72700
O  34.97500 45.22700 32.20500
C  34.18500 44.87400 33.40900
H  33.35600 51.80000 28.20500
H  34.31200 50.52500 22.02500
H  35.72800 44.43200 23.66100
H  34.16600 47.94100 31.05400
H  34.36400 50.73000 30.37400
H  32.45000 50.51900 31.33400
H  32.29100 48.83700 30.91400
H  31.76300 50.05200 29.72900
H  36.51200 49.61600 31.22100
H  36.98400 47.94700 30.67300
H  37.22400 47.42700 32.64000
H  35.52300 47.46400 32.93900
H  34.03000 54.48700 25.86300
H  33.44700 53.85200 27.33700
H  32.31300 53.94500 25.97400
H  32.70400 54.45400 23.66900
H  33.54700 54.73700 22.03500
H  34.47400 54.99700 23.56700
H  35.65800 48.46200 20.84000
H  34.69900 45.77600 21.58600
H  32.80100 48.33400 21.34500
H  33.16900 46.97700 20.35400
H  33.60000 48.52600 19.77600
H  37.47400 45.83500 22.25000
H  37.42800 46.96100 20.94400
H  37.78300 44.20600 20.93500
H  37.41600 45.23400 19.52900
H  36.04400 44.50100 20.41200
H  35.21600 41.91400 26.08400
H  36.94800 42.13200 26.54300
H  36.47100 42.61600 24.95400
H  36.54300 45.50800 30.26300
H  33.20900 45.35000 33.50300
H  34.68200 45.22800 34.31200
H  34.05000 43.79200 33.37400
Mg 9.29200 48.78900 26.00100
C  7.31000 49.00500 28.97400
C  12.07300 49.54600 27.99200
C  11.23300 48.55200 23.36700
C  6.45100 48.17200 24.22800
N  9.57600 49.29900 28.18800
C  8.66000 49.21200 29.21800
C  9.30800 49.55700 30.50700
C  10.65100 50.20900 30.01600
C  10.83500 49.64300 28.61600
C  10.74300 51.79800 29.96900
C  9.53800 48.38000 31.40400
C  8.98200 48.60000 32.84200
H  8.89900 47.44500 33.83500
N  11.41000 49.00400 25.74800
C  12.41200 49.34700 26.65200
C  13.71500 49.21100 26.08100
C  13.45900 48.77200 24.71100
C  11.98700 48.73800 24.54400
C  15.05500 49.48000 26.82600
C  14.50400 48.36900 23.56200
O  14.07100 47.93900 22.46900
C  15.97900 48.44500 23.84600
N  8.91700 48.47100 24.08300
C  9.85900 48.39100 23.10400
C  9.27500 48.03600 21.73600
C  7.76700 47.76500 22.03400
C  7.68700 48.20100 23.54000
C  9.47500 48.97300 20.60700
C  7.25400 46.29700 21.79500
C  8.11600 45.19100 22.41200
N  7.31600 48.53800 26.47200
C  6.25300 48.28700 25.59900
C  5.04200 48.21300 26.38100
C  5.40800 48.53400 27.65800
C  6.80600 48.71400 27.68600
C  3.56300 47.97000 25.85600
C  4.86500 48.72200 28.98000
O  3.72500 48.69100 29.34200
C  6.09200 49.12800 29.89900
C  5.91600 48.14100 31.01300
O  6.36500 47.03700 31.04000
O  5.03800 48.66900 31.98700
C  4.56400 47.67800 32.96900
H  12.86300 49.86200 28.67700
H  11.85700 48.47300 22.47400
H  5.58500 47.91000 23.61700
H  8.69100 50.30400 31.00500
H  11.53400 49.99700 30.61900
H  9.75500 52.25800 29.97700
H  11.17200 52.06800 29.00400
H  11.22800 52.20500 30.85600
H  10.60200 48.14300 31.42000
H  9.16200 47.45200 30.97200
H  8.00200 49.07600 32.80700
H  9.54700 49.39300 33.33200
H  15.57500 48.52500 26.91000
H  14.92700 49.76700 27.87000
H  15.61400 50.24400 26.28600
H  16.26100 47.84200 24.70900
H  16.11900 49.50500 24.05600
H  16.48100 48.12700 22.93200
H  9.73600 47.07400 21.50900
H  7.19100 48.43900 21.40000
H  9.13600 49.98300 20.83800
H  9.09500 48.49200 19.70600
H  10.55100 48.91100 20.44600
H  7.23700 46.24300 20.70700
H  6.20100 46.21100 22.06300
H  7.56800 44.36500 22.86500
H  8.78900 45.60200 23.16500
H  8.76200 44.79400 21.62900
H  3.40300 48.25800 24.81700
H  2.84100 48.49400 26.48100
H  3.32000 46.91900 26.01200
H  5.91900 50.14500 30.25100
H  5.41200 47.11200 33.35300
H  3.92100 46.96100 32.45800
H  3.96000 48.13400 33.75400

