158

Mg -1.14300 18.00700 27.55000
C  -1.85300 15.80700 30.18200
C  -2.05700 20.67900 29.67000
C  -1.14300 20.02600 24.84800
C  -0.90500 15.28100 25.40100
N  -1.80200 18.18700 29.62200
C  -2.01700 17.14400 30.51000
C  -2.44200 17.72300 31.89900
C  -2.63200 19.23700 31.57000
C  -2.13100 19.35900 30.18900
C  -4.10100 19.77500 31.85100
C  -1.44600 17.44200 33.09900
C  -2.10900 17.09800 34.49300
H  -1.06300 17.07200 35.58900
N  -1.34100 20.08900 27.30700
C  -1.68300 20.96900 28.29200
C  -1.59900 22.31200 27.67700
C  -1.29600 22.23500 26.27900
C  -1.17300 20.72600 26.06600
C  -2.05100 23.55800 28.40300
C  -1.26100 23.26500 25.23700
O  -1.12000 22.90700 24.07100
C  -1.49300 24.69700 25.55500
N  -1.19200 17.66600 25.44200
C  -1.17900 18.64400 24.56700
C  -0.95500 18.19000 23.11800
C  -0.57200 16.72200 23.40700
C  -0.97500 16.51900 24.82000
C  -2.19500 18.46800 22.11300
C  0.95700 16.31900 23.11200
C  2.07800 17.15800 23.74400
N  -1.23000 15.91600 27.74000
C  -1.13800 14.96900 26.75000
C  -1.35500 13.67800 27.37000
C  -1.60500 13.94400 28.72800
C  -1.50300 15.33600 28.90600
C  -1.51100 12.45300 26.58800
C  -1.97800 13.37100 30.05700
O  -2.26500 12.23700 30.46200
C  -1.97300 14.52100 31.05400
C  -0.70200 14.34200 31.81000
O  0.40600 14.38900 31.32200
O  -0.87400 14.19500 33.12800
C  0.28400 13.84500 33.98800
H  -2.38100 21.44600 30.37600
H  -0.81400 20.69000 24.04500
H  -0.77500 14.47400 24.67700
H  -3.36100 17.31300 32.31800
H  -2.11600 19.93300 32.23200
H  -4.76900 19.00700 32.24100
H  -4.45100 20.01700 30.84800
H  -4.06100 20.63500 32.52100
H  -0.82800 18.33500 33.19600
H  -0.75200 16.61100 32.97300
H  -2.64500 16.15900 34.36000
H  -2.89200 17.85100 34.57900
H  -1.44600 24.42200 28.13000
H  -1.97500 23.35600 29.47100
H  -3.11400 23.77300 28.29100
H  -2.46600 24.93700 25.98400
H  -1.46200 25.31500 24.65700
H  -0.66600 25.14100 26.10800
H  -0.01100 18.58500 22.74400
H  -1.24500 16.13700 22.78100
H  -2.75700 19.30300 22.53100
H  -2.76400 17.55200 21.95400
H  -1.77300 18.66900 21.12800
H  1.16900 16.29200 22.04400
H  0.99900 15.25400 23.34100
H  1.54200 17.81700 24.42700
H  2.69200 17.80000 23.11200
H  2.80600 16.54200 24.27100
H  -2.01600 12.81000 25.69000
H  -2.07300 11.70600 27.14800
H  -0.58000 11.96200 26.30500
H  -2.87000 14.49900 31.67100
H  0.30300 12.77300 34.18600
H  0.29900 14.25200 34.99900
H  1.25400 14.09100 33.55700
Mg 47.83500 34.19500 26.65500
C  46.04300 32.52100 29.20100
C  48.07600 36.95600 28.70700
C  49.37700 35.82600 24.20900
C  47.41500 31.43200 24.66300
N  47.14100 34.68500 28.70700
C  46.55000 33.78300 29.64800
C  46.45500 34.40300 31.07400
C  47.03700 35.85700 30.78100
C  47.45900 35.86500 29.33000
C  46.06900 37.08800 31.09000
C  47.29700 33.59800 32.11800
C  48.21800 34.37800 33.11600
H  47.37800 35.34300 33.96000
N  48.67100 36.14500 26.46000
C  48.61800 37.10200 27.44500
C  49.12800 38.31400 26.85000
C  49.63500 37.98100 25.58800
C  49.24300 36.58500 25.37000
C  49.18700 39.65400 27.52100
C  50.30000 38.88300 24.54400
O  50.55500 38.52100 23.37500
C  50.59600 40.29900 24.93200
N  48.12000 33.75600 24.57600
C  49.02200 34.50900 23.87100
C  49.38100 33.84300 22.53100
C  48.74800 32.42700 22.70300
C  48.00500 32.54200 24.06200
C  48.93600 34.60900 21.27100
C  49.73800 31.21500 22.65600
C  49.39400 29.94800 21.83900
N  46.74400 32.40000 26.77900
C  46.75200 31.34700 25.83500
C  46.05600 30.27000 26.40700
C  45.69100 30.70400 27.67600
C  46.22600 31.93200 27.90200
C  45.71200 28.93400 25.66000
C  44.98500 30.32100 28.85000
O  44.25200 29.34500 29.11000
C  45.17900 31.50500 29.99800
C  45.92100 30.80900 31.09400
O  47.08600 30.45400 31.19900
O  45.08200 30.72400 32.20900
C  45.59900 29.93700 33.27800
H  48.10400 37.78300 29.41900
H  49.85800 36.30300 23.35300
H  47.42400 30.51000 24.07900
H  45.42500 34.50500 31.41700
H  47.93200 36.03300 31.37700
H  46.45300 37.64900 31.94200
H  45.03500 36.86600 31.35400
H  45.92700 37.71100 30.20700
H  47.73900 32.85100 31.46000
H  46.64600 33.05800 32.80600
H  49.05200 34.80700 32.56000
H  48.57000 33.66500 33.86200
H  48.75900 39.74000 28.51900
H  48.80200 40.44800 26.88100
H  50.17900 39.84400 27.93100
H  49.72600 40.95400 24.97200
H  51.13900 40.75200 24.10200
H  51.13700 40.34600 25.87700
H  50.46200 33.70200 22.49800
H  47.98000 32.21700 21.95900
H  49.77800 34.66700 20.58200
H  48.65600 35.63200 21.52400
H  48.05100 34.13800 20.84300
H  49.98600 30.89300 23.66800
H  50.72200 31.56600 22.34700
H  48.34700 30.00500 21.54200
H  49.35800 29.04100 22.44200
H  49.97500 29.74700 20.93900
H  45.07000 28.99500 24.78100
H  45.43300 28.15000 26.36400
H  46.69300 28.79600 25.20500
H  44.20700 31.83300 30.36700
H  46.49900 30.53500 33.42000
H  45.85400 28.92700 32.96000
H  45.05900 30.03100 34.22100

