158

Mg -2.26900 17.20900 27.49000
C  -2.64300 14.98800 30.32600
C  -2.68000 19.83400 29.66100
C  -1.92500 19.30100 24.88300
C  -2.27100 14.47300 25.49700
N  -2.72100 17.35900 29.73900
C  -2.67000 16.36600 30.67600
C  -2.79000 16.95400 32.08300
C  -2.89100 18.50300 31.82100
C  -2.73300 18.59200 30.30900
C  -4.15400 19.17500 32.44000
C  -1.64300 16.51700 33.03200
C  -1.22700 17.38300 34.24100
H  -0.96000 16.69600 35.59300
N  -2.16900 19.30100 27.32600
C  -2.40700 20.21400 28.28500
C  -2.05100 21.55500 27.78600
C  -1.76600 21.37200 26.43500
C  -1.93400 19.96400 26.17100
C  -2.22200 22.74700 28.64700
C  -1.49300 22.36100 25.33900
O  -1.42500 22.12900 24.11900
C  -1.30100 23.77200 25.75600
N  -2.18000 16.92500 25.51700
C  -2.05900 17.94300 24.61000
C  -1.91100 17.36300 23.13500
C  -1.59000 15.88000 23.41700
C  -2.03600 15.73300 24.87400
C  -3.27700 17.65700 22.28000
C  -0.18200 15.31000 23.05700
C  0.94900 16.10100 23.66500
N  -2.48500 15.16500 27.72100
C  -2.53700 14.14800 26.85600
C  -2.72800 12.90700 27.48600
C  -2.77800 13.14600 28.86200
C  -2.55700 14.54200 28.98300
C  -2.75100 11.66900 26.70700
C  -2.89800 12.52400 30.22400
O  -2.91500 11.40500 30.62800
C  -2.80400 13.76400 31.20400
C  -1.75400 13.49300 32.20200
O  -0.59100 13.53900 32.02300
O  -2.35200 13.12000 33.38600
C  -1.41600 12.59600 34.33600
H  -2.56400 20.57100 30.45800
H  -1.66000 19.75500 23.92600
H  -2.25600 13.63700 24.79400
H  -3.71300 16.52600 32.47400
H  -2.04200 19.03700 32.24900
H  -4.84600 19.38000 31.62300
H  -3.78100 20.08200 32.91500
H  -4.75800 18.54200 33.08900
H  -0.71400 16.37800 32.48000
H  -2.05100 15.63000 33.51800
H  -1.93900 18.20800 34.27300
H  -0.23500 17.80500 34.08400
H  -1.23900 23.19800 28.78300
H  -2.62300 22.50200 29.63000
H  -2.79900 23.53000 28.15500
H  -0.82200 23.69700 26.73200
H  -2.31100 24.14600 25.92500
H  -0.80700 24.30400 24.94300
H  -1.02300 17.82000 22.70000
H  -2.18500 15.13400 22.89100
H  -3.84700 18.44500 22.77100
H  -3.89400 16.76000 22.22000
H  -3.08000 17.91100 21.23800
H  -0.10700 15.59400 22.00800
H  -0.04500 14.23200 23.13800
H  0.66600 16.85500 24.40000
H  1.63600 16.56900 22.96000
H  1.52700 15.42400 24.29500
H  -3.73600 11.53400 26.26200
H  -2.48300 10.81400 27.32800
H  -2.03700 11.81400 25.89600
H  -3.76300 13.96400 31.68100
H  -0.99300 13.47800 34.81700
H  -0.59200 12.05200 33.87400
H  -1.91900 11.94600 35.05200
Mg 0.74000 43.03200 25.37700
C  2.80700 43.08700 28.23900
C  -1.79900 41.92400 27.51000
C  -1.19400 41.97300 22.70700
C  3.58000 42.95900 23.45600
N  0.60100 42.50900 27.62800
C  1.51500 42.75600 28.61900
C  0.92600 42.64100 30.02200
C  -0.53300 42.11600 29.75700
C  -0.62200 42.15700 28.18700
C  -0.86300 40.66400 30.25700
C  0.82500 44.08200 30.73000
C  1.27800 43.99800 32.20200
H  0.08200 43.90200 33.20600
N  -1.25600 42.30200 25.16000
C  -2.11700 41.89600 26.12500
C  -3.37300 41.46300 25.51000
C  -3.20600 41.50400 24.14200
C  -1.86400 42.02900 23.89500
C  -4.57600 41.02700 26.37700
C  -4.19300 41.08900 23.02000
O  -3.98800 41.16900 21.79700
C  -5.54400 40.56000 23.41000
N  1.07400 42.63700 23.40800
C  0.15900 42.24900 22.47600
C  0.80700 42.07900 21.05400
C  2.25900 42.67600 21.23400
C  2.34600 42.72000 22.79700
C  0.84500 40.61200 20.50700
C  2.69200 43.95700 20.46100
C  2.45400 45.28600 21.24600
N  2.75900 43.16100 25.72700
C  3.82700 43.17600 24.86100
C  5.10300 43.39600 25.55000
C  4.72700 43.34200 26.89500
C  3.29600 43.23800 26.93700
C  6.46200 43.37000 24.91600
C  5.25600 43.20100 28.19600
O  6.43100 43.01000 28.65100
C  4.04900 43.22200 29.12100
C  4.15900 42.08700 30.02600
O  3.88700 40.88600 29.85900
O  4.60200 42.52600 31.33000
C  4.73600 41.47800 32.44100
H  -2.58700 41.49000 28.12900
H  -1.66000 41.63600 21.77900
H  4.46000 43.05600 22.81700
H  1.55500 41.92500 30.55100
H  -1.29300 42.76500 30.19200
H  -1.15000 39.95800 29.47800
H  -1.74200 40.72100 30.90000
H  -0.01100 40.19800 30.75200
H  -0.18800 44.44400 30.90500
H  1.43000 44.76100 30.12800
H  1.84300 44.89700 32.45000
H  1.99500 43.19900 32.39200
H  -5.06100 41.88700 26.83900
H  -4.32600 40.39000 27.22600
H  -5.24700 40.38800 25.80400
H  -5.34200 39.56700 23.81000
H  -6.23000 40.70000 22.57500
H  -5.90100 41.27500 24.15100
H  0.38500 42.72700 20.28500
H  2.95400 41.92800 20.85400
H  0.16100 40.04200 21.13500
H  1.79900 40.09800 20.62200
H  0.61900 40.56900 19.44100
H  2.13000 43.96900 19.52700
H  3.72100 43.89000 20.11000
H  2.53600 46.14100 20.57500
H  3.25500 45.36900 21.98000
H  1.51800 45.24900 21.80400
H  6.49100 42.95100 23.91000
H  7.03600 42.77600 25.62800
H  6.91000 44.35900 24.82600
H  4.03000 44.17300 29.65300
H  5.57300 40.80700 32.24500
H  3.83100 40.87600 32.35700
H  4.85100 41.98400 33.39900

