158

Mg 17.67500 -1.72800 27.59000
C  16.53100 0.08100 30.45000
C  19.71800 -3.43600 29.69500
C  19.37700 -2.71300 24.80400
C  15.79400 0.46300 25.65700
N  18.13300 -1.53500 29.87500
C  17.42400 -0.86100 30.81700
C  17.91600 -1.20100 32.30400
C  19.01500 -2.29100 31.98600
C  18.94900 -2.45700 30.39200
C  20.36200 -2.01100 32.56600
C  16.70400 -1.60700 33.21800
C  16.60200 -0.92200 34.59900
H  17.80500 -0.26000 35.20400
N  19.12100 -3.03000 27.29000
C  19.81600 -3.70700 28.30900
C  20.67600 -4.73900 27.66900
C  20.61700 -4.45700 26.28100
C  19.64000 -3.33000 26.02600
C  21.28900 -5.90300 28.46900
C  21.62100 -5.12000 25.16900
O  21.42900 -4.80100 23.96300
C  22.63700 -6.04800 25.65400
N  17.62300 -1.15900 25.52900
C  18.43200 -1.71600 24.57900
C  18.13000 -1.16200 23.21400
C  16.83300 -0.36200 23.40600
C  16.70700 -0.30200 24.93300
C  19.34900 -0.40900 22.53900
C  15.52700 -1.00600 22.81600
C  14.49800 -0.03000 22.20700
N  16.29500 -0.17700 27.88700
C  15.65400 0.62000 27.01700
C  14.74500 1.53600 27.65700
C  15.12300 1.43400 29.03200
C  16.06500 0.32500 29.09700
C  13.87000 2.47500 26.97200
C  14.84300 1.89700 30.44600
O  13.98000 2.69700 30.87100
C  15.82300 1.09600 31.38000
C  16.71900 2.09600 31.94500
O  17.84600 2.41600 31.54200
O  15.98800 2.66600 32.93600
C  16.77700 3.67400 33.62300
H  20.35300 -4.03300 30.35200
H  20.06100 -2.93700 23.98300
H  15.27300 1.14900 24.98500
H  18.38600 -0.29300 32.68100
H  18.70900 -3.13500 32.60400
H  20.52800 -2.67800 33.41200
H  20.50800 -0.98000 32.88600
H  21.15500 -2.18000 31.83700
H  16.68000 -2.69600 33.23500
H  15.78900 -1.35200 32.68200
H  16.21000 -1.66000 35.29900
H  15.77000 -0.21800 34.61100
H  21.01100 -6.82600 27.96000
H  20.84500 -5.94400 29.46400
H  22.37300 -5.80000 28.51100
H  23.46600 -5.69700 26.26800
H  23.01900 -6.44600 24.71400
H  22.00800 -6.76900 26.17800
H  17.79100 -2.01900 22.63200
H  16.88300 0.63500 22.96800
H  20.28300 -0.54000 23.08600
H  19.14200 0.66000 22.58300
H  19.40200 -0.66600 21.48100
H  15.07100 -1.51400 23.66600
H  15.68800 -1.77100 22.05600
H  14.40900 -0.08500 21.12200
H  14.64100 1.02200 22.45200
H  13.53800 -0.28300 22.65600
H  13.18900 1.91900 26.32800
H  14.48400 3.14200 26.36600
H  13.26100 3.04700 27.67300
H  15.22100 0.69500 32.19600
H  16.91500 4.47200 32.89400
H  17.63400 3.19500 34.09700
H  16.20100 4.02900 34.47700
Mg 40.96500 9.27100 30.05100
C  42.62300 10.42000 32.95600
C  38.67300 7.92500 32.29200
C  39.46900 7.86800 27.48000
C  43.61800 10.40100 28.12400
N  40.73300 9.16500 32.41200
C  41.45900 9.83600 33.32100
C  40.73600 9.82700 34.66600
C  39.62600 8.83200 34.53000
C  39.60000 8.66100 33.00300
C  39.78800 7.43300 35.28300
C  40.34100 11.26000 35.33400
C  39.92300 11.13300 36.82100
H  40.54800 12.00400 37.85700
N  39.39700 7.98000 29.89700
C  38.61100 7.52500 30.92000
C  37.45500 6.75200 30.40900
C  37.52800 6.89400 29.03900
C  38.86500 7.53100 28.73100
C  36.37000 6.21300 31.16300
C  36.53800 6.60600 27.97500
O  36.75200 6.69100 26.81100
C  35.14000 6.00800 28.37100
N  41.56000 9.01900 28.13700
C  40.71900 8.45200 27.22500
C  41.14200 8.70200 25.75100
C  42.41500 9.56300 26.02000
C  42.51000 9.73400 27.54600
C  41.49600 7.39700 24.97000
C  42.29500 11.00600 25.32200
C  43.51600 11.26900 24.42400
N  42.84300 10.14700 30.43600
C  43.72200 10.59500 29.48800
C  44.91000 11.03400 30.22500
C  44.43800 11.10500 31.58600
C  43.16300 10.51300 31.66100
C  46.18000 11.57700 29.60200
C  44.72500 11.57300 32.88400
O  45.68400 12.21200 33.30100
C  43.63400 11.07100 33.87400
C  44.14100 10.04000 34.91800
O  44.69000 8.96500 34.66500
O  43.83100 10.44400 36.23500
C  44.24600 9.52900 37.28300
H  37.80700 7.68900 32.91500
H  39.01700 7.41400 26.59500
H  44.41900 10.79400 27.49500
H  41.49400 9.46200 35.36000
H  38.71100 9.17200 35.01600
H  40.74500 7.33500 35.79600
H  39.56500 6.64900 34.56000
H  39.01700 7.53400 36.04700
H  39.53900 11.82200 34.85500
H  41.27700 11.79700 35.18400
H  40.01700 10.08300 37.09800
H  38.84700 11.25800 36.94000
H  36.50400 6.24900 32.24400
H  36.24300 5.18000 30.83900
H  35.45300 6.76400 30.95500
H  34.70000 6.69900 29.09000
H  35.19400 5.04900 28.88800
H  34.45000 5.97500 27.52800
H  40.38700 9.26100 25.19900
H  43.27000 9.00100 25.64400
H  40.68400 7.11400 24.30000
H  41.48900 6.71000 25.81600
H  42.45100 7.37700 24.44600
H  42.33000 11.72800 26.13800
H  41.29800 11.00500 24.88200
H  43.86500 10.27800 24.13300
H  44.22000 11.89100 24.97700
H  43.31900 11.82900 23.50900
H  45.93000 12.39400 28.92600
H  46.74900 10.79500 29.09800
H  46.69800 12.06200 30.42900
H  43.27400 12.00900 34.29800
H  44.33300 8.46900 37.04600
H  43.59000 9.65900 38.14400
H  45.19300 9.88900 37.68500

