158

Mg 45.84000 5.07400 49.01800
C  43.78500 7.86800 48.03800
C  43.12600 3.04500 48.06900
C  47.78900 2.48400 49.33300
C  48.61400 7.32500 49.30800
N  43.60300 5.44100 48.32800
C  43.08900 6.64700 47.86400
C  41.77400 6.42700 47.09900
C  41.44300 4.85800 47.39200
C  42.81600 4.39200 47.99700
C  40.26900 4.76100 48.39300
C  41.87200 6.76800 45.57500
C  40.93600 7.92800 45.13500
H  39.95000 7.64900 43.93000
N  45.51200 3.02100 48.83500
C  44.29900 2.39500 48.46500
C  44.56400 0.96600 48.40300
C  45.86700 0.77100 48.79600
C  46.46200 2.14800 48.97900
C  43.39600 0.00600 48.00100
C  46.58700 -0.63700 48.91900
O  45.92800 -1.67600 48.86700
C  48.08600 -0.74400 49.10500
N  47.92300 4.91700 49.14300
C  48.42700 3.68600 49.49800
C  49.88700 3.84500 49.87500
C  50.15500 5.40400 49.94600
C  48.84200 5.91800 49.34700
C  50.34100 3.13100 51.23500
C  51.40900 5.91700 49.10400
C  52.38400 6.84100 49.93100
N  46.18900 7.12800 48.84400
C  47.35900 7.85900 49.01000
C  46.99400 9.30900 48.85200
C  45.71200 9.29500 48.46100
C  45.21800 7.97400 48.47500
C  47.91800 10.44100 48.98200
C  44.59700 10.13300 48.07400
O  44.62600 11.38200 47.95800
C  43.32100 9.31500 47.83900
C  42.34400 9.70700 48.77600
O  42.15400 9.22000 49.90200
O  41.53200 10.66000 48.20600
C  40.33000 10.88300 48.98800
H  42.36000 2.33400 47.75100
H  48.36700 1.65900 49.75600
H  49.46300 7.94900 49.59200
H  40.99500 7.05800 47.52600
H  41.22900 4.30500 46.47700
H  39.80300 3.77600 48.37100
H  39.47800 5.47700 48.16900
H  40.59100 5.03000 49.39900
H  41.57200 5.88500 45.01100
H  42.90300 6.94900 45.27200
H  41.60700 8.69900 44.75600
H  40.45100 8.35800 46.01200
H  43.80200 -0.77500 47.35900
H  42.64400 0.44400 47.34400
H  43.03800 -0.40100 48.94600
H  48.41600 -1.73700 48.80200
H  48.31700 -0.49100 50.13900
H  48.50900 -0.09300 48.34000
H  50.35900 3.38900 49.00500
H  50.09600 5.83000 50.94700
H  49.53300 2.67600 51.80800
H  50.95900 3.76600 51.87000
H  50.91400 2.24400 50.96400
H  50.93000 6.48800 48.30900
H  52.00800 5.10100 48.69800
H  53.44800 6.62500 49.84000
H  52.11700 6.71600 50.98000
H  52.27200 7.90200 49.70700
H  48.31400 10.55800 49.99000
H  47.36800 11.31000 48.62100
H  48.67300 10.38300 48.19800
H  42.94900 9.42400 46.82100
H  40.61000 11.43900 49.88300
H  39.75000 9.97200 49.13900
H  39.66900 11.61200 48.52000
Mg 30.23000 57.68600 39.06200
C  27.46400 55.65600 38.20500
C  32.28600 55.16300 38.11900
C  32.68900 59.77600 39.52700
C  27.91500 60.40100 39.43700
N  29.90100 55.57100 38.11500
C  28.67100 54.93300 37.97500
C  28.92900 53.43500 37.68300
C  30.48500 53.29600 37.73400
C  30.93100 54.70100 38.05200
C  31.00400 52.20800 38.74300
C  28.42500 53.00000 36.23700
C  29.04500 53.71500 34.96500
H  28.07900 54.45500 34.12200
N  32.23800 57.50500 38.80200
C  32.93100 56.41400 38.48500
C  34.23700 56.68500 38.51800
C  34.42100 57.98700 39.00800
C  33.04500 58.52100 39.08600
C  35.25000 55.63100 38.27300
C  35.73800 58.63800 39.48400
O  36.80700 58.06400 39.58000
C  35.79300 60.12400 39.84500
N  30.30100 59.81600 39.41900
C  31.47800 60.38800 39.74400
C  31.33000 61.86200 40.27300
C  29.82300 62.00600 40.11900
C  29.29400 60.71700 39.58000
C  32.00700 62.03800 41.67500
C  29.47000 63.26500 39.18400
C  28.32600 64.18700 39.76900
N  28.16900 58.04700 38.85600
C  27.38200 59.14100 39.12900
C  26.01300 58.74200 39.01800
C  26.04300 57.42400 38.62200
C  27.37800 57.02900 38.50100
C  24.87500 59.62400 39.33500
C  25.19300 56.21600 38.40500
O  24.01600 56.07900 38.49000
C  26.09500 55.06100 37.99600
C  25.83500 53.90400 38.76800
O  26.15000 53.65500 39.92400
O  24.93100 53.11700 38.04500
C  24.33900 51.92700 38.78200
H  32.90700 54.28000 37.95400
H  33.46000 60.50300 39.79200
H  27.23000 61.23200 39.62000
H  28.37300 52.90100 38.45300
H  30.86000 53.02200 36.74800
H  31.33500 52.69500 39.66100
H  31.85000 51.67300 38.31200
H  30.23300 51.45400 38.89800
H  27.34000 53.04900 36.15400
H  28.67200 51.94200 36.14000
H  29.46100 52.96100 34.29700
H  29.89700 54.36800 35.15600
H  35.40800 55.02200 39.16300
H  36.26600 55.91300 37.99600
H  34.97200 54.88900 37.52400
H  36.85000 60.30400 40.04100
H  35.39800 60.17700 40.85900
H  35.30300 60.79800 39.14200
H  31.86000 62.56300 39.62800
H  29.35500 62.13100 41.09600
H  31.29500 62.61900 42.26100
H  32.99200 62.50100 41.63100
H  32.03800 61.08200 42.19900
H  29.04500 62.94300 38.23400
H  30.39500 63.77800 38.91900
H  27.46300 63.98700 39.13400
H  28.67100 65.21300 39.63800
H  27.94900 63.92500 40.75700
H  24.50700 59.19900 40.26900
H  24.10700 59.51500 38.56900
H  25.13700 60.67400 39.46100
H  26.03900 54.80400 36.93800
H  24.70100 51.84400 39.80700
H  24.61300 51.00500 38.26900
H  23.25100 51.97300 38.82900

