158

Mg 16.49300 -2.12500 28.30200
C  15.59300 0.22300 30.87800
C  18.19500 -3.83500 30.61500
C  17.63900 -3.96500 25.75600
C  14.43900 -0.19500 26.08500
N  16.96000 -1.64800 30.49000
C  16.37700 -0.78500 31.35100
C  16.76400 -1.03800 32.80100
C  17.76700 -2.31400 32.66700
C  17.63000 -2.65900 31.15900
C  19.20900 -2.08100 33.16900
C  15.56800 -1.52000 33.68800
C  15.51000 -0.83400 35.07800
H  16.70800 -0.10100 35.70100
N  17.74800 -3.73500 28.23900
C  18.36500 -4.33400 29.29300
C  19.14000 -5.44100 28.85700
C  18.97200 -5.52400 27.43800
C  18.11400 -4.36700 27.07200
C  19.87400 -6.29900 29.87600
C  19.53500 -6.53600 26.40700
O  19.38900 -6.40400 25.22200
C  20.29400 -7.78200 26.94600
N  15.99900 -2.09200 26.23000
C  16.70800 -2.94400 25.39500
C  16.52300 -2.52500 23.87100
C  15.25900 -1.56000 24.02100
C  15.15500 -1.25000 25.51400
C  17.71000 -1.78100 23.32800
C  13.89300 -2.12700 23.46400
C  13.07700 -1.22300 22.56300
N  15.33300 -0.27100 28.39400
C  14.59400 0.33900 27.40800
C  13.84300 1.47600 27.99400
C  14.22000 1.44000 29.37300
C  15.09800 0.35400 29.55900
C  12.78900 2.29700 27.33800
C  13.94500 2.05500 30.67400
O  13.18400 3.01400 30.92900
C  14.74300 1.23300 31.74600
C  15.62800 2.16300 32.43200
O  16.74300 2.61900 32.18900
O  15.05900 2.42300 33.66600
C  15.59700 3.62300 34.36100
H  18.70900 -4.47400 31.33600
H  18.05800 -4.41300 24.85300
H  13.78900 0.33300 25.38400
H  17.20200 -0.17200 33.29800
H  17.45200 -3.25200 33.12400
H  19.33200 -2.64800 34.09200
H  19.26000 -0.99900 33.29700
H  19.92800 -2.43200 32.42900
H  15.72900 -2.57900 33.89000
H  14.67500 -1.48700 33.06300
H  15.22500 -1.66900 35.71800
H  14.66200 -0.15300 35.00900
H  19.14100 -6.93700 30.37000
H  20.30400 -5.62100 30.61300
H  20.69200 -6.92100 29.51200
H  21.17500 -7.47400 27.51000
H  20.59400 -8.43200 26.12400
H  19.60600 -8.35400 27.56900
H  16.35100 -3.44000 23.30500
H  15.43700 -0.66100 23.43000
H  18.44100 -1.71800 24.13500
H  17.43900 -0.83300 22.86400
H  18.19900 -2.31300 22.51200
H  13.34600 -2.47900 24.33900
H  14.15400 -3.07100 22.98700
H  12.87500 -1.72600 21.61700
H  13.70200 -0.42500 22.16100
H  12.25500 -0.69800 23.05000
H  11.95100 2.41000 28.02500
H  12.39300 1.93900 26.38700
H  13.14000 3.30000 27.09500
H  14.03100 0.68500 32.36400
H  15.59800 4.47900 33.68700
H  16.60900 3.48000 34.74100
H  15.03900 3.79600 35.28100
Mg 48.12700 16.36300 29.00500
C  46.13900 16.11300 31.88700
C  50.51200 17.84200 30.80500
C  49.77700 16.81400 26.12000
C  45.43900 14.95800 27.19600
N  48.24300 16.97500 31.15700
C  47.38400 16.74200 32.15000
C  47.82300 17.24300 33.43900
C  49.20900 18.01300 33.09000
C  49.34800 17.58800 31.59700
C  49.29900 19.53500 33.23200
C  47.92200 16.26800 34.64800
C  47.31400 16.84700 35.98200
H  47.05400 18.27500 36.22900
N  49.97500 17.19000 28.52400
C  50.77300 17.83700 29.43500
C  52.00800 18.18800 28.74100
C  51.82300 17.99900 27.36100
C  50.52200 17.25700 27.27500
C  53.12300 18.84800 29.41800
C  52.72400 18.39800 26.15600
O  52.43800 17.92700 25.06200
C  54.02900 19.20800 26.29400
N  47.63900 16.00700 26.94500
C  48.48600 16.21700 25.93300
C  48.08900 15.59500 24.61100
C  46.73600 14.86200 25.02900
C  46.60800 15.21000 26.52800
C  47.76000 16.53100 23.45000
C  46.86600 13.28900 24.90400
C  45.83300 12.71700 23.89600
N  46.18100 15.63300 29.40700
C  45.21800 15.15600 28.54700
C  44.05000 14.82200 29.29800
C  44.36600 15.13400 30.59400
C  45.67900 15.63800 30.64300
C  42.81100 14.10300 28.76500
C  43.89800 15.08100 31.90800
O  42.92400 14.58300 32.42700
C  45.02900 15.77000 32.81000
C  44.39600 16.95800 33.50500
O  44.34700 18.10400 33.15500
O  43.79000 16.45900 34.65700
C  42.70100 17.31100 35.27900
H  51.17800 18.46400 31.40800
H  50.37900 16.82300 25.20900
H  44.67700 14.44000 26.61100
H  47.07700 17.99800 33.68700
H  49.99900 17.53400 33.66900
H  49.38200 19.89200 32.20500
H  50.22800 19.60700 33.79700
H  48.37200 19.90300 33.67200
H  48.94300 16.02300 34.94000
H  47.32000 15.39700 34.38700
H  48.07200 16.54000 36.70100
H  46.42100 16.27300 36.23000
H  54.03400 18.33300 29.11500
H  53.10500 18.89800 30.50700
H  53.16400 19.85800 29.01000
H  54.14600 19.75600 27.22900
H  54.20200 19.75200 25.36600
H  54.78500 18.42800 26.38900
H  48.88600 14.89200 24.36800
H  45.82000 15.22200 24.56100
H  48.36300 16.56700 22.54200
H  47.92600 17.55900 23.77100
H  46.74200 16.39400 23.08600
H  46.80400 12.83000 25.89100
H  47.78500 13.08600 24.35500
H  46.48300 12.38400 23.08700
H  45.07300 13.41200 23.54000
H  45.37400 11.88300 24.42500
H  42.58000 13.19900 29.33000
H  42.98300 13.73000 27.75600
H  41.98900 14.81600 28.82900
H  45.26900 15.19800 33.70700
H  42.03500 16.76400 35.94600
H  42.01100 17.65200 34.50700
H  43.21100 18.12300 35.79700

