158

Mg 25.41200 50.04200 26.18500
C  23.34700 51.22800 28.81400
C  27.70000 49.37200 28.57400
C  27.61100 49.41300 23.76700
C  23.23100 51.26700 23.93400
N  25.38800 50.06100 28.52300
C  24.48300 50.70200 29.36400
C  24.82600 50.39100 30.82000
C  26.33300 50.09600 30.68500
C  26.53300 49.79200 29.18200
C  27.38400 51.18300 31.21400
C  23.97100 49.24100 31.35300
C  23.61900 49.31700 32.92600
H  24.37300 50.24500 33.84400
N  27.39300 49.37900 26.22000
C  28.14100 49.21100 27.30300
C  29.44900 48.74400 26.93800
C  29.47000 48.71200 25.51300
C  28.13800 49.10400 25.07700
C  30.58700 48.35700 27.88900
C  30.60500 48.43000 24.53900
O  30.54400 48.68700 23.32200
C  31.94900 47.91700 25.03500
N  25.40900 50.27400 24.15500
C  26.44500 49.94700 23.34400
C  25.99600 50.01500 21.85300
C  24.54300 50.52300 21.85000
C  24.36900 50.70200 23.40900
C  26.98200 50.63400 20.83300
C  23.50100 49.53000 21.31100
C  22.22400 50.10900 20.76800
N  23.65500 51.07600 26.32000
C  22.88000 51.55100 25.32000
C  21.69800 52.25800 25.84900
C  21.86700 52.11600 27.21500
C  23.07000 51.46700 27.43300
C  20.65800 52.93400 25.03800
C  21.32400 52.41800 28.50300
O  20.27100 53.02400 28.82000
C  22.21600 51.85800 29.60200
C  22.60300 53.02200 30.43900
O  23.15500 53.98400 30.03800
O  22.06600 52.88500 31.71500
C  22.43600 54.00600 32.61000
H  28.51900 49.22300 29.28100
H  28.22000 49.22300 22.88100
H  22.45500 51.55600 23.22100
H  24.67500 51.34400 31.32500
H  26.60400 49.16500 31.18100
H  26.88300 52.14400 31.32100
H  28.15000 51.39800 30.47000
H  27.83300 50.98800 32.18800
H  24.47900 48.32400 31.05400
H  23.00800 49.21300 30.84400
H  23.67500 48.28800 33.28000
H  22.56400 49.59100 32.92500
H  30.47500 48.78800 28.88400
H  31.58400 48.61100 27.52800
H  30.61000 47.27000 27.96500
H  32.46300 47.52700 24.15600
H  31.80800 47.04600 25.67600
H  32.48200 48.73300 25.52200
H  25.97000 48.98900 21.48600
H  24.39800 51.44400 21.28500
H  27.89900 50.87300 21.37100
H  26.51500 51.56600 20.51500
H  27.19100 49.90500 20.05100
H  23.22400 48.76600 22.03800
H  23.99100 48.97900 20.50900
H  21.50900 50.09300 21.59100
H  21.94700 49.66000 19.81500
H  22.34800 51.18400 20.63000
H  20.34400 52.53900 24.07200
H  21.06400 53.94200 24.95600
H  19.77800 53.02900 25.67400
H  21.60600 51.10800 30.10600
H  21.65500 54.75900 32.50300
H  23.41800 54.45100 32.44700
H  22.39100 53.71700 33.66000
Mg -10.14500 40.06000 43.56000
C  -8.94600 36.98100 42.41500
C  -7.35600 41.50700 42.11500
C  -11.50600 43.18900 43.97400
C  -13.24800 38.52900 44.31000
N  -8.35300 39.29400 42.47400
C  -7.99000 37.95600 42.20100
C  -6.67200 37.84900 41.46900
C  -6.05600 39.26400 41.73500
C  -7.28400 40.11600 42.13000
C  -4.84300 39.26300 42.79500
C  -6.84600 37.47700 39.98000
C  -5.82400 36.42600 39.35000
H  -4.76700 36.94300 38.26700
N  -9.43300 42.05100 43.16100
C  -8.28300 42.42200 42.56500
C  -8.14300 43.83300 42.39700
C  -9.33900 44.37800 43.02900
C  -10.21300 43.23300 43.42000
C  -6.96700 44.50600 41.74900
C  -9.61700 45.87100 43.12600
O  -8.83800 46.71000 42.65200
C  -10.90600 46.43300 43.73600
N  -12.00300 40.73200 44.26600
C  -12.33700 42.06200 44.29900
C  -13.88500 42.17200 44.56700
C  -14.24500 40.76000 45.09100
C  -13.12500 39.94000 44.49900
C  -14.20000 43.31700 45.53300
C  -15.66500 40.36400 44.59300
C  -15.82200 39.95600 43.09700
N  -10.94600 38.13200 43.55100
C  -12.22600 37.66300 43.79700
C  -12.32700 36.23800 43.50300
C  -11.05700 35.99200 43.01000
C  -10.25100 37.14400 42.97700
C  -13.57100 35.42600 43.53400
C  -10.26800 34.94400 42.49700
O  -10.60700 33.68900 42.37600
C  -8.85400 35.53700 41.99700
C  -7.71300 34.75600 42.53900
O  -7.33800 34.57400 43.71800
O  -7.05200 34.16200 41.56200
C  -6.29300 33.00600 41.94500
H  -6.38900 41.97300 41.91500
H  -12.04600 44.13800 43.95000
H  -14.14800 37.97700 44.59000
H  -5.96400 37.09600 41.81400
H  -5.63100 39.57600 40.78200
H  -5.10800 38.53400 43.56000
H  -4.83300 40.25700 43.24300
H  -3.91900 39.06900 42.24800
H  -6.73400 38.42800 39.45900
H  -7.85900 37.10900 39.81900
H  -6.51300 35.70600 38.90900
H  -5.17300 35.87400 40.02800
H  -7.10100 45.52900 41.39800
H  -6.54500 44.07100 40.84300
H  -6.11800 44.62300 42.42300
H  -11.81600 46.19600 43.18500
H  -10.90900 47.51300 43.87700
H  -10.97700 46.12000 44.77800
H  -14.26100 42.37100 43.56400
H  -14.08800 40.60400 46.15800
H  -13.33300 43.91500 45.81400
H  -14.73600 42.89700 46.38500
H  -14.88200 44.03000 45.07100
H  -16.37400 41.13600 44.89300
H  -16.07200 39.47900 45.08100
H  -16.01400 40.89300 42.57500
H  -16.49200 39.09600 43.06800
H  -14.88000 39.52500 42.75800
H  -13.39700 34.35400 43.43700
H  -14.15100 35.70000 42.65300
H  -14.12500 35.48200 44.47100
H  -8.76900 35.52400 40.91100
H  -6.93400 32.44100 42.62200
H  -5.36500 33.23100 42.46900
H  -6.08100 32.48500 41.01200

