158

Mg 35.52300 1.29300 29.64700
C  33.31500 1.95800 32.29700
C  38.14700 1.12400 31.86200
C  37.68300 0.52400 27.06700
C  32.88600 1.34000 27.42800
N  35.64600 1.60500 31.78700
C  34.64500 1.86100 32.69200
C  35.17400 1.86800 34.04700
C  36.68400 1.94400 33.88000
C  36.89400 1.43200 32.41500
C  37.41700 3.31200 34.06700
C  34.74700 0.55100 34.81000
C  34.19400 0.71100 36.28200
H  34.80900 1.77400 37.16600
N  37.58900 0.92700 29.46800
C  38.44000 0.77500 30.58900
C  39.78800 0.38900 30.11100
C  39.77700 0.35900 28.70400
C  38.30000 0.53900 28.35600
C  41.00300 0.07000 31.03600
C  40.85100 0.00800 27.60700
O  40.73300 0.32000 26.45200
C  42.14700 -0.47900 28.03900
N  35.31600 0.94100 27.52100
C  36.39500 0.66500 26.66200
C  35.94300 0.65100 25.21100
C  34.41500 0.76300 25.36300
C  34.16300 1.07100 26.83100
C  36.70100 1.54100 24.16200
C  33.53500 -0.47000 24.82800
C  32.20100 -0.14500 24.05800
N  33.59000 1.74000 29.78600
C  32.66200 1.82300 28.73000
C  31.36800 2.15100 29.27800
C  31.53200 2.06900 30.66300
C  32.90900 1.87300 30.95400
C  30.20100 2.49900 28.45400
C  30.87200 2.16900 31.95100
O  29.68500 2.33600 32.08200
C  31.94200 2.12700 33.00400
C  31.81300 3.37800 33.80500
O  32.20100 4.48700 33.40300
O  31.27500 3.10800 35.03500
C  31.18500 4.29800 35.89600
H  38.97100 1.11900 32.57800
H  38.35000 0.38000 26.21500
H  32.04200 1.30000 26.73700
H  34.77800 2.72700 34.58800
H  37.19000 1.22700 34.52600
H  37.61100 3.68300 33.06000
H  38.30200 3.01700 34.63100
H  36.83100 3.97200 34.70700
H  35.51300 -0.21500 34.92600
H  33.91200 0.27300 34.16700
H  34.32900 -0.23800 36.80000
H  33.16600 1.07000 36.23300
H  40.73800 -0.13900 32.07200
H  41.80900 0.79700 30.94400
H  41.39100 -0.85400 30.60700
H  42.43000 0.17400 28.86500
H  42.85700 -0.35100 27.22200
H  42.09600 -1.51300 28.38000
H  36.16200 -0.32800 24.78500
H  34.03800 1.63200 24.82500
H  35.88300 1.92900 23.55500
H  37.48800 1.03300 23.60400
H  37.18000 2.32200 24.75100
H  33.30700 -1.08800 25.69700
H  34.20100 -0.94200 24.10500
H  32.49000 -0.03800 23.01300
H  31.91300 0.89600 24.19800
H  31.38400 -0.86400 24.11700
H  29.87800 3.46100 28.85300
H  29.52700 1.65100 28.57200
H  30.50800 2.60700 27.41400
H  31.57200 1.34100 33.66200
H  32.16200 4.76200 36.03300
H  30.90900 4.10700 36.93300
H  30.46900 4.93300 35.37400
Mg 16.56000 52.15500 24.80800
C  18.46800 51.31000 27.72600
C  13.81700 52.60300 26.90600
C  14.74100 52.46900 22.13900
C  19.43800 50.96100 22.87500
N  16.23600 51.98900 26.99400
C  17.20500 51.75800 28.00400
C  16.56300 51.99300 29.40900
C  15.06500 52.30800 29.13300
C  15.04500 52.40300 27.56900
C  13.90200 51.35400 29.58100
C  17.41200 53.15500 30.14000
C  17.69000 52.87900 31.64300
H  16.89400 51.91700 32.41300
N  14.51400 52.55900 24.55300
C  13.53400 52.66800 25.53100
C  12.26100 52.95800 24.85000
C  12.57500 53.06000 23.45100
C  13.98100 52.77000 23.30900
C  11.01200 53.17900 25.59000
C  11.61600 53.38800 22.25000
O  12.04000 53.43700 21.09200
C  10.07400 53.66600 22.48000
N  16.98600 51.63700 22.87300
C  16.08000 52.02400 21.87900
C  16.65600 51.95100 20.47500
C  18.20300 51.76600 20.75800
C  18.26600 51.46600 22.31000
C  16.01900 50.83300 19.65300
C  19.05400 53.04900 20.40900
C  20.46300 52.86000 19.99600
N  18.52300 51.18400 25.19600
C  19.59000 50.82500 24.36500
C  20.68600 50.38400 25.15200
C  20.29200 50.57900 26.46800
C  18.93800 51.01600 26.45300
C  22.01700 50.08900 24.60200
C  20.69600 50.47800 27.82600
O  21.79100 50.18000 28.27600
C  19.50600 50.92100 28.74400
C  19.10200 49.71600 29.43200
O  18.55500 48.75200 28.90200
O  19.55400 49.68100 30.72600
C  19.37700 48.45300 31.51900
H  13.03700 52.94100 27.59100
H  14.44500 52.82300 21.15000
H  20.29100 50.94300 22.19400
H  16.74900 51.05300 29.92900
H  14.93300 53.30200 29.55900
H  13.23400 51.85400 30.28200
H  14.41400 50.59300 30.17000
H  13.33700 50.89300 28.77100
H  16.83800 54.08100 30.09600
H  18.30300 53.38800 29.55700
H  17.70500 53.84600 32.14600
H  18.71800 52.52400 31.71800
H  10.41500 52.31000 25.31400
H  10.45700 54.09900 25.40300
H  11.10800 53.14000 26.67500
H  9.63900 54.08800 21.57400
H  9.95900 54.47400 23.20200
H  9.55100 52.78900 22.86100
H  16.45700 52.88500 19.94900
H  18.61100 50.91200 20.21800
H  15.49200 51.32800 18.83700
H  15.25900 50.39800 20.30200
H  16.79700 50.13300 19.34900
H  19.01600 53.70900 21.27600
H  18.46700 53.54100 19.63400
H  20.79700 53.52200 19.19600
H  20.68800 51.84500 19.67000
H  21.19000 52.92300 20.80500
H  22.01900 50.15100 23.51400
H  22.23700 49.02300 24.66400
H  22.75100 50.72400 25.09800
H  19.88500 51.60100 29.50700
H  18.35700 48.30800 31.87800
H  19.95300 48.52000 32.44200
H  19.66000 47.61100 30.88800

