158

Mg 24.72000 -6.06900 45.67900
C  26.80600 -3.70700 44.39200
C  22.18200 -4.91400 43.73300
C  22.96700 -8.95000 46.33600
C  27.45800 -7.30100 47.54900
N  24.57500 -4.44700 44.17000
C  25.58800 -3.67300 43.75100
C  25.12400 -2.74200 42.52500
C  23.56300 -2.96100 42.63200
C  23.40300 -4.15700 43.53900
C  22.70000 -1.78800 43.08900
C  25.72300 -3.29000 41.19200
C  26.44700 -2.24500 40.27800
H  25.94100 -2.22200 38.76100
N  22.75200 -6.82000 45.18000
C  21.91700 -6.16700 44.38200
C  20.71800 -7.00000 44.30400
C  20.88800 -8.15100 44.98200
C  22.25600 -8.00900 45.57400
C  19.59600 -6.62300 43.30800
C  19.86900 -9.29600 45.10000
O  18.72600 -9.11400 44.62400
C  20.13600 -10.50900 45.86000
N  25.12600 -7.82900 46.78900
C  24.25700 -8.84000 46.93600
C  24.84100 -10.04000 47.75300
C  26.19000 -9.46800 48.22800
C  26.29900 -8.11900 47.47100
C  23.87800 -10.59500 48.84000
C  27.34100 -10.51000 48.09200
C  28.32200 -10.54900 49.29600
N  26.67400 -5.47100 46.19600
C  27.70200 -6.14900 46.83500
C  28.94400 -5.46500 46.61900
C  28.61800 -4.41700 45.69300
C  27.30300 -4.54500 45.45600
C  30.30400 -5.73900 47.22600
C  29.15600 -3.29500 44.99200
O  30.31100 -2.88600 44.96500
C  28.01400 -2.91600 43.96900
C  27.69300 -1.46600 44.02900
O  26.96400 -0.98000 44.84900
O  28.30100 -0.90000 42.95700
C  28.28500 0.55900 42.99900
H  21.42200 -4.41400 43.12800
H  22.41600 -9.87900 46.49900
H  28.32800 -7.80200 47.98100
H  25.41200 -1.72700 42.79900
H  23.23900 -3.43100 41.70300
H  22.18200 -2.10800 43.99300
H  22.05000 -1.43000 42.29000
H  23.27700 -0.95500 43.49100
H  24.95200 -3.80400 40.61900
H  26.47700 -4.02200 41.48300
H  27.40300 -2.76900 40.27000
H  26.50500 -1.26500 40.75100
H  20.00000 -6.05500 42.47000
H  18.70800 -6.19000 43.76800
H  19.35500 -7.55400 42.79500
H  19.23100 -11.11100 45.78800
H  20.34300 -10.27900 46.90500
H  20.95400 -11.02000 45.35200
H  24.95200 -10.74800 46.93200
H  26.07300 -9.27500 49.29400
H  23.60100 -11.59200 48.49800
H  23.02500 -9.92900 48.97100
H  24.38500 -10.63700 49.80400
H  27.87200 -10.27000 47.17100
H  26.86900 -11.48800 47.99600
H  29.34900 -10.87700 49.13800
H  27.93100 -11.16300 50.10700
H  28.34800 -9.49800 49.58400
H  30.39400 -5.27500 48.20800
H  31.05700 -5.37300 46.52800
H  30.63300 -6.76300 47.40200
H  28.27500 -3.28400 42.97700
H  28.45000 0.82400 41.95500
H  29.12500 1.03400 43.50600
H  27.34300 1.00600 43.31500
Mg -10.43100 16.52400 41.22800
C  -6.89100 16.21900 41.77700
C  -9.88300 19.83100 40.65800
C  -13.62700 16.77600 40.31500
C  -10.59400 13.07300 41.14900
N  -8.58100 17.78800 41.12100
C  -7.27500 17.49300 41.47600
C  -6.39800 18.74800 41.35100
C  -7.45700 19.84000 41.59900
C  -8.71900 19.16400 41.02100
C  -7.60800 20.50600 43.06500
C  -5.79100 18.78300 39.96100
C  -4.33500 18.37900 39.77000
H  -3.97200 17.16300 38.86500
N  -11.67300 18.18600 40.67400
C  -11.24700 19.46500 40.51100
C  -12.38600 20.23200 40.02800
C  -13.50400 19.32900 39.89200
C  -12.98300 18.06000 40.24600
C  -12.39200 21.72700 39.88200
C  -14.96500 19.72100 39.29600
O  -15.14700 20.84800 38.88000
C  -15.99700 18.71900 38.88900
N  -11.92500 15.19300 40.71300
C  -13.19000 15.50700 40.56600
C  -14.08300 14.25800 40.46300
C  -13.12000 13.10900 40.80200
C  -11.78500 13.82900 40.85900
C  -15.33400 14.30200 41.39300
C  -13.28100 11.83000 39.86500
C  -13.70200 10.45600 40.40800
N  -9.05400 14.89100 41.50100
C  -9.24300 13.55200 41.41500
C  -7.99800 12.82700 41.67000
C  -7.08400 13.90100 41.93400
C  -7.76900 15.10200 41.70800
C  -7.84900 11.30600 41.80600
C  -5.68200 14.18400 42.23500
O  -4.77800 13.39000 42.52400
C  -5.50300 15.72600 42.25900
C  -5.04100 16.12800 43.56200
O  -3.90200 16.43300 43.77100
O  -6.01100 16.01800 44.46800
C  -5.74900 16.53900 45.83400
H  -9.69400 20.90000 40.53900
H  -14.68600 16.87100 40.06400
H  -10.79500 12.01600 41.33600
H  -5.55100 18.85000 42.03000
H  -7.13500 20.67400 40.97500
H  -8.37800 19.96600 43.61700
H  -7.79200 21.57600 42.96700
H  -6.76900 20.35300 43.74300
H  -5.82100 19.81500 39.61300
H  -6.32600 18.06600 39.33800
H  -4.00800 18.20700 40.79600
H  -3.86400 19.28600 39.38900
H  -13.26200 22.12500 40.40500
H  -12.54000 21.87500 38.81200
H  -11.45600 22.24200 40.09500
H  -15.60500 17.78700 38.48300
H  -16.74100 19.26900 38.31300
H  -16.42900 18.50500 39.86700
H  -14.39400 14.11300 39.42900
H  -13.22900 12.78000 41.83500
H  -15.20600 15.14200 42.07600
H  -15.57900 13.35900 41.88100
H  -16.20000 14.46500 40.75200
H  -12.31700 11.68700 39.37700
H  -14.10900 11.96200 39.16900
H  -14.70100 10.13400 40.11200
H  -13.77100 10.52400 41.49300
H  -13.01300 9.69500 40.04000
H  -6.90000 11.01500 42.25600
H  -7.82300 10.90200 40.79400
H  -8.69500 10.84900 42.32100
H  -4.64800 15.91300 41.60900
H  -4.71100 16.73900 46.10000
H  -6.23900 15.76700 46.42700
H  -6.26800 17.48200 46.00700

