158

Mg 35.76300 1.22100 28.79300
C  33.77800 2.25600 31.50400
C  38.46100 1.24900 30.89000
C  37.68200 0.53200 26.16800
C  32.94000 1.55800 26.69000
N  36.01200 1.66600 30.92500
C  35.09500 1.97300 31.82100
C  35.68400 2.07900 33.21700
C  37.23800 1.99700 32.96400
C  37.25300 1.55800 31.49800
C  38.07900 3.28100 33.23400
C  35.04700 1.02800 34.18200
C  34.75500 1.65500 35.53900
H  35.97800 2.27000 36.27800
N  37.82900 0.88400 28.55000
C  38.72700 0.89200 29.53800
C  39.97700 0.57400 29.00400
C  39.79400 0.21900 27.63800
C  38.38800 0.59300 27.38100
C  41.27600 0.43300 29.86700
C  40.71700 -0.38600 26.54900
O  40.34400 -0.75100 25.44900
C  42.12800 -0.75800 26.96900
N  35.32200 0.90400 26.71900
C  36.35400 0.82500 25.79500
C  35.77100 0.77700 24.29200
C  34.26600 0.99600 24.48300
C  34.19000 1.14400 26.05800
C  36.40000 1.87400 23.34900
C  33.27000 0.00600 24.02100
C  33.54300 -0.73700 22.62800
N  33.80000 1.69000 29.01400
C  32.78000 1.83000 28.07600
C  31.58400 2.39300 28.65800
C  31.93700 2.50800 30.00800
C  33.30600 2.10100 30.17100
C  30.30700 2.64700 27.96300
C  31.37800 2.91500 31.32100
O  30.23800 3.25500 31.66900
C  32.54000 2.76300 32.35100
C  32.80900 4.08200 32.89700
O  33.31600 5.09300 32.28200
O  32.45000 4.10600 34.23400
C  32.66500 5.43700 34.88400
H  39.35700 1.16900 31.51000
H  38.27700 0.33500 25.27300
H  32.08900 1.84500 26.06900
H  35.45700 3.02700 33.70500
H  37.66800 1.15500 33.50600
H  38.67500 3.56800 32.36800
H  38.83700 3.09900 33.99600
H  37.56500 4.18700 33.55400
H  35.70000 0.16800 34.32900
H  34.16900 0.52900 33.77200
H  34.24300 0.96800 36.21300
H  34.07600 2.49100 35.36700
H  41.16400 0.74700 30.90500
H  42.09300 1.04300 29.48300
H  41.57000 -0.61600 29.90000
H  42.74900 -1.23100 26.20800
H  41.91700 -1.47000 27.76700
H  42.56800 0.20000 27.24700
H  35.87200 -0.22700 23.88100
H  34.02600 1.99300 24.11300
H  37.10300 1.33700 22.71300
H  36.92000 2.62700 23.94100
H  35.61400 2.25300 22.69500
H  32.29700 0.49800 24.03000
H  33.18400 -0.78600 24.76400
H  33.71800 -1.81200 22.69100
H  34.46400 -0.32300 22.21700
H  32.76800 -0.52500 21.89200
H  29.85600 1.76300 27.51200
H  30.53600 3.41900 27.22900
H  29.61200 3.12100 28.65600
H  32.15700 2.14700 33.16500
H  32.25300 6.18400 34.20500
H  33.72600 5.49500 35.12400
H  32.09700 5.43800 35.81500
Mg 9.35300 48.24200 26.58900
C  7.40600 48.40400 29.47100
C  11.98600 49.25500 28.63800
C  11.39000 47.98700 23.98500
C  6.60700 47.63000 24.67600
N  9.58600 48.83100 28.82700
C  8.69400 48.70900 29.83700
C  9.36400 48.99500 31.17300
C  10.58100 49.84800 30.72300
C  10.81700 49.28300 29.29100
C  10.35000 51.38100 30.80500
C  9.71400 47.62800 31.89500
C  10.10700 47.70400 33.41000
H  9.46500 46.56300 34.33100
N  11.35000 48.33400 26.35800
C  12.26500 48.81600 27.32700
C  13.65400 48.57200 26.79900
C  13.52000 48.21200 25.46400
C  12.04900 48.15000 25.19200
C  14.95300 48.80700 27.66100
C  14.66800 47.78100 24.42700
O  14.36600 47.30800 23.33200
C  16.10800 47.77500 24.87400
N  9.09800 47.70800 24.66500
C  10.06900 47.75400 23.72400
C  9.50700 47.49900 22.33000
C  7.93600 47.45100 22.48700
C  7.88500 47.56400 24.03100
C  9.96400 48.37200 21.15700
C  7.15500 46.25200 21.83100
C  6.14700 46.67000 20.77400
N  7.40000 48.19300 26.93300
C  6.37500 47.79800 26.03900
C  5.10300 47.63200 26.75800
C  5.51000 47.92600 28.11500
C  6.88400 48.24400 28.17100
C  3.80500 47.17300 26.24500
C  4.91200 47.98600 29.45900
O  3.73200 47.78800 29.76600
C  6.20000 48.16100 30.38500
C  6.37900 46.91800 31.14300
O  6.91000 45.86400 30.73600
O  5.92100 47.02900 32.47100
C  5.97700 45.71000 33.12300
H  12.80000 49.71800 29.19900
H  12.12400 47.93900 23.17900
H  5.73900 47.32900 24.08500
H  8.61500 49.49600 31.78700
H  11.41400 49.56700 31.36700
H  9.50000 51.64100 31.43600
H  10.12900 51.71000 29.79000
H  11.25500 51.93500 31.05400
H  10.64400 47.33800 31.40600
H  8.85300 46.97200 31.76600
H  9.91300 48.74900 33.65400
H  11.18300 47.53600 33.35600
H  14.72600 48.89400 28.72300
H  15.43100 49.77300 27.49800
H  15.58400 47.91900 27.62100
H  16.34700 48.76200 25.26900
H  16.73800 47.48200 24.03400
H  16.07600 46.95900 25.59600
H  9.87600 46.51100 22.05500
H  7.52200 48.41100 22.17800
H  9.17300 48.78200 20.52900
H  10.70700 47.80200 20.60000
H  10.49700 49.20800 21.60900
H  6.56500 45.76400 22.60600
H  7.89700 45.55300 21.44300
H  5.93200 45.82400 20.12300
H  6.61000 47.56100 20.34900
H  5.20100 46.99300 21.21000
H  4.02600 46.50600 25.41200
H  3.27600 48.06500 25.91200
H  3.19100 46.56400 26.90800
H  6.06600 49.01300 31.05100
H  5.91700 45.93800 34.18700
H  6.86700 45.17400 32.79300
H  5.14500 45.08500 32.79800

