158

Mg 47.97900 24.85800 27.77500
C  49.24100 27.12900 30.31300
C  47.20000 22.75600 30.35300
C  47.40900 22.64000 25.49200
C  49.15600 27.22500 25.46300
N  48.23700 24.94400 30.14000
C  48.63600 25.96700 30.92300
C  48.42700 25.62700 32.37500
C  47.79600 24.16300 32.31000
C  47.81600 23.89600 30.85200
C  48.42400 23.07000 33.13100
C  47.39800 26.68100 32.88700
C  46.78000 26.30600 34.25700
H  46.82400 27.32700 35.39900
N  47.31200 22.96900 27.89500
C  46.95800 22.24900 29.03200
C  46.37000 20.97100 28.59500
C  46.57600 20.87300 27.21500
C  47.15700 22.16600 26.78100
C  45.93800 19.95500 29.59300
C  46.46000 19.56900 26.32100
O  46.60800 19.60500 25.12200
C  45.93300 18.32100 26.86000
N  48.43700 24.81400 25.82900
C  47.96900 23.79200 25.02600
C  48.10500 24.11300 23.58900
C  48.56900 25.60700 23.57800
C  48.72400 25.93000 25.05700
C  49.12600 23.13300 22.83900
C  47.67300 26.56100 22.70100
C  48.45400 27.72300 22.04700
N  48.97600 26.83500 27.84500
C  49.37200 27.64700 26.77800
C  50.19800 28.70800 27.24400
C  50.05800 28.62000 28.59900
C  49.34700 27.40300 28.98300
C  50.97300 29.74800 26.44700
C  50.37500 29.26900 29.86600
O  50.99700 30.29000 30.05900
C  49.73100 28.35900 31.01200
C  50.80100 28.01200 31.93500
O  51.82500 27.42500 31.64100
O  50.51700 28.51000 33.21600
C  51.38200 28.00000 34.31700
H  46.80100 22.05800 31.09100
H  47.15000 21.91900 24.71400
H  49.29800 28.06100 24.77400
H  49.29600 25.72500 33.02600
H  46.74400 24.22200 32.58800
H  49.03500 23.45800 33.94700
H  49.14100 22.50300 32.53800
H  47.62500 22.42900 33.50300
H  46.51500 26.76000 32.25400
H  47.77200 27.70400 32.92500
H  47.30000 25.40500 34.58300
H  45.72100 26.14600 34.05000
H  44.89000 19.83500 29.31800
H  45.97300 20.34000 30.61200
H  46.42200 18.98000 29.52700
H  45.68900 17.52600 26.15500
H  44.95300 18.57300 27.26500
H  46.64500 18.00700 27.62300
H  47.13300 24.12200 23.09600
H  49.61200 25.64600 23.26200
H  49.53800 22.37200 23.50200
H  49.88700 23.80100 22.43500
H  48.71300 22.57600 21.99800
H  46.91100 26.92300 23.39200
H  47.10300 26.08900 21.90100
H  48.13000 27.83400 21.01300
H  49.54400 27.71200 22.01600
H  48.03200 28.63900 22.46000
H  50.17300 30.26600 25.91700
H  51.70100 29.34800 25.74200
H  51.52100 30.36800 27.15600
H  49.03800 29.03100 31.51700
H  50.68000 28.05000 35.14900
H  52.27400 28.57400 34.56900
H  51.65200 26.95300 34.18600
Mg 5.22100 54.91100 41.60100
C  3.99300 51.58200 41.19500
C  8.31100 53.91000 40.37700
C  6.22200 58.18700 41.69900
C  1.95400 55.74000 42.69300
N  6.09900 52.97400 40.91300
C  5.36400 51.83300 40.70000
C  6.17100 50.88900 39.85800
C  7.65800 51.38000 40.10700
C  7.37400 52.83700 40.41600
C  8.48100 50.56100 41.14600
C  5.77100 51.02200 38.37700
C  5.54400 49.75800 37.47000
H  6.08900 49.76300 36.06100
N  6.85200 55.91000 40.94200
C  8.06400 55.27000 40.68600
C  9.12300 56.23100 40.55600
C  8.61600 57.54100 40.94400
C  7.17000 57.26400 41.23400
C  10.54800 55.89000 40.16800
C  9.45600 58.76000 41.16700
O  10.63800 58.65900 40.90000
C  8.83500 60.05900 41.68400
N  4.21700 56.68500 41.86700
C  4.87500 57.88300 42.01800
C  3.99200 58.98200 42.63800
C  2.58800 58.15300 42.83100
C  2.94600 56.75700 42.45300
C  4.51600 59.85600 43.86700
C  1.36300 58.74100 42.10800
C  0.11300 59.16400 42.98000
N  3.37700 53.88600 41.97700
C  2.16200 54.34000 42.45100
C  1.22500 53.24500 42.68800
C  1.92600 52.14300 42.29300
C  3.18900 52.58500 41.78800
C  -0.16900 53.34300 43.26900
C  1.86800 50.70800 42.09200
O  0.98600 49.89800 42.33200
C  3.26100 50.25200 41.43200
C  2.96700 49.26000 40.26700
O  2.43900 49.58700 39.21600
O  3.35300 48.01700 40.63900
C  2.77200 46.89100 39.84800
H  9.27400 53.51100 40.05200
H  6.54800 59.22100 41.83100
H  0.94400 55.90900 43.07400
H  6.15300 49.89700 40.30900
H  8.24500 51.31900 39.19100
H  9.41100 50.18000 40.72500
H  7.93100 49.68900 41.50100
H  8.77800 51.11600 42.03500
H  6.41400 51.79100 37.95100
H  4.83400 51.57900 38.40200
H  4.48800 49.61200 37.24400
H  6.12000 48.98300 37.97600
H  11.18200 55.73900 41.04100
H  10.89700 56.75100 39.59600
H  10.60500 55.03000 39.50100
H  9.70300 60.71400 41.77000
H  8.48700 59.94800 42.71100
H  8.12400 60.53100 41.00700
H  3.81800 59.73100 41.86600
H  2.37900 58.06900 43.89800
H  3.77000 59.85200 44.66200
H  4.71300 60.87300 43.52900
H  5.49400 59.48700 44.17500
H  1.05900 58.04700 41.32400
H  1.72300 59.69600 41.72700
H  0.13500 58.59300 43.90800
H  -0.83200 59.14400 42.43700
H  0.10500 60.20700 43.29800
H  -0.16300 52.81700 44.22400
H  -0.92400 52.90600 42.61500
H  -0.33200 54.37400 43.58200
H  3.84100 49.64900 42.13000
H  1.83600 46.55400 40.29500
H  3.44000 46.03000 39.86200
H  2.47300 47.27500 38.87300

