158

Mg 42.70600 4.83400 47.71800
C  41.00000 7.94000 47.29900
C  39.78900 3.19200 47.43900
C  44.51000 2.02700 47.16400
C  45.79800 6.76200 47.37600
N  40.59000 5.49000 47.39000
C  40.12600 6.73500 47.30700
C  38.54000 6.80400 47.52600
C  38.18100 5.29700 47.75200
C  39.59200 4.59500 47.50500
C  37.52000 4.84600 49.07300
C  37.74700 7.55800 46.39000
C  38.09200 7.05100 44.91800
H  38.50400 8.08900 43.92400
N  42.25200 2.83500 47.52300
C  40.96200 2.33300 47.46700
C  40.98400 0.91200 47.47500
C  42.35600 0.54200 47.22000
C  43.15500 1.78200 47.28800
C  39.66700 0.12300 47.60500
C  42.73000 -0.83600 47.01900
O  41.95300 -1.78600 46.96200
C  44.11600 -1.12000 46.84700
N  44.81700 4.48100 47.17100
C  45.25500 3.17400 47.15100
C  46.79400 3.13400 47.13100
C  47.18500 4.65800 47.08300
C  45.85500 5.41200 47.16600
C  47.42400 2.34900 48.33700
C  48.06900 5.05400 45.82300
C  49.51300 5.11200 45.97600
N  43.34500 6.92100 47.46900
C  44.63600 7.53300 47.34500
C  44.41300 9.02700 47.26800
C  43.02200 9.20000 47.34400
C  42.45700 7.89400 47.33100
C  45.44400 9.93500 47.11500
C  41.97200 10.21100 47.24300
O  41.98700 11.40700 47.12100
C  40.63300 9.37800 47.31700
C  39.91800 9.84800 48.55700
O  40.16300 9.47000 49.67300
O  38.95800 10.78800 48.17600
C  38.10700 11.42300 49.18300
H  38.86200 2.62000 47.35300
H  45.25700 1.23200 47.20400
H  46.71200 7.35300 47.29500
H  38.43200 7.37600 48.44800
H  37.56500 4.92300 46.93500
H  37.10400 5.60700 49.73300
H  38.27800 4.27200 49.60500
H  36.74500 4.10300 48.88600
H  38.05000 8.60400 46.44200
H  36.68200 7.39200 46.55000
H  37.22200 6.56800 44.47300
H  38.86500 6.28800 45.00500
H  39.14400 0.21300 46.65300
H  39.00700 0.47800 48.39800
H  39.57100 -0.95500 47.73400
H  44.66600 -0.66800 47.67200
H  44.54500 -0.74800 45.91700
H  44.26400 -2.19100 46.98200
H  47.13600 2.65700 46.21300
H  47.77700 4.82600 47.98200
H  46.71300 2.15600 49.14000
H  48.27600 2.91700 48.71200
H  47.72800 1.35600 48.00300
H  47.69200 6.03900 45.55000
H  47.81300 4.33600 45.04400
H  49.80700 4.97300 47.01700
H  49.99500 6.05700 45.72600
H  50.10000 4.44600 45.34300
H  46.03000 9.97100 48.03400
H  45.09100 10.91600 46.79700
H  46.07000 9.61300 46.28200
H  39.93200 9.66500 46.53400
H  37.83600 12.46000 48.98100
H  38.56500 11.33300 50.16800
H  37.20300 10.87100 49.43800
Mg 37.09700 49.80900 25.05900
C  37.27900 47.95700 28.11400
C  35.49300 52.33700 26.94200
C  36.42800 51.50600 22.32300
C  38.36100 47.21200 23.43500
N  36.51100 50.14700 27.29500
C  36.85100 49.29800 28.29500
C  36.48600 49.91900 29.67300
C  35.67200 51.20300 29.32500
C  35.81200 51.24000 27.74100
C  34.17400 51.28400 29.76900
C  37.68500 50.13900 30.61700
C  37.54400 50.19000 32.13700
H  36.07600 50.03500 32.80400
N  36.23600 51.78800 24.67000
C  35.68100 52.69700 25.57600
C  35.24100 53.87500 24.93500
C  35.29800 53.56900 23.48300
C  36.00100 52.23800 23.40400
C  34.60900 55.06800 25.72400
C  34.91500 54.43500 22.25200
O  35.15300 54.14800 21.07500
C  34.35800 55.78300 22.52200
N  37.34500 49.41100 23.11100
C  37.08400 50.26800 22.13200
C  37.41500 49.62100 20.71800
C  38.11400 48.26200 21.11400
C  37.99200 48.30600 22.63700
C  36.17800 49.54700 19.83700
C  39.53300 48.30800 20.54200
C  40.53700 48.97800 21.55600
N  37.61600 47.95800 25.62600
C  38.22800 46.98700 24.79300
C  38.54700 45.77000 25.58100
C  38.14900 46.13300 26.90300
C  37.65100 47.43700 26.86400
C  39.08500 44.51800 25.01600
C  38.02700 45.66600 28.26100
O  38.27400 44.54900 28.68800
C  37.55500 46.84900 29.09700
C  36.24500 46.41200 29.81900
O  35.18300 46.24400 29.27300
O  36.49200 46.02200 31.09400
C  35.18200 45.62800 31.83600
H  35.10700 53.10600 27.61500
H  36.26300 51.93100 21.33100
H  38.79400 46.41200 22.83100
H  35.92600 49.07900 30.08200
H  36.17300 52.07800 29.74000
H  34.06900 52.07000 30.51700
H  33.98500 50.32900 30.25900
H  33.48400 51.42100 28.93600
H  38.10800 51.06800 30.23400
H  38.50100 49.45500 30.38700
H  37.97600 51.12300 32.50000
H  38.10100 49.33800 32.52700
H  34.44000 54.90400 26.78800
H  33.62500 55.23900 25.28700
H  35.12000 55.99700 25.47100
H  35.14000 56.45900 22.87000
H  33.63500 55.56000 23.30600
H  33.83200 56.34700 21.75100
H  38.21400 50.21100 20.26800
H  37.56600 47.41700 20.69900
H  35.31900 50.17800 20.06400
H  35.90000 48.50200 19.70200
H  36.46200 49.89800 18.84500
H  39.64000 48.77300 19.56200
H  39.81300 47.26700 20.37900
H  40.16200 49.94100 21.90200
H  41.50800 49.08500 21.07200
H  40.67700 48.14000 22.23800
H  38.29600 43.84600 24.67800
H  39.74100 44.05700 25.75500
H  39.64400 44.77600 24.11600
H  38.18500 47.20300 29.91300
H  34.47100 46.44100 31.69100
H  35.47300 45.38800 32.85900
H  34.89700 44.67400 31.39200

