158

Mg 24.12900 -6.35100 46.16600
C  26.66300 -4.29900 44.51600
C  21.99200 -5.14800 43.85400
C  22.47300 -8.97700 46.59200
C  26.90200 -7.70300 48.01600
N  24.36900 -4.86900 44.33500
C  25.44600 -4.18300 43.90800
C  25.04200 -3.13000 42.96000
C  23.46900 -3.27600 42.79300
C  23.22400 -4.42600 43.79100
C  22.64400 -1.98100 43.12600
C  25.85100 -3.14600 41.58600
C  26.11600 -1.77500 41.00000
H  25.53700 -1.56300 39.68200
N  22.32100 -6.88800 45.47100
C  21.60100 -6.28200 44.53100
C  20.28700 -6.87500 44.37200
C  20.39800 -8.08300 45.24000
C  21.76500 -8.03600 45.81000
C  19.19400 -6.30500 43.45100
C  19.23500 -9.08800 45.37400
O  18.21300 -8.88500 44.76500
C  19.34900 -10.18600 46.41000
N  24.63700 -8.04900 47.20600
C  23.71700 -9.00500 47.20900
C  24.29000 -10.27400 48.06000
C  25.68500 -9.83600 48.60400
C  25.73300 -8.46400 47.98000
C  23.26600 -10.89900 49.13200
C  26.86200 -10.80600 48.22000
C  27.71700 -11.21900 49.39900
N  26.26500 -5.92500 46.44800
C  27.21600 -6.57300 47.25400
C  28.54500 -5.96400 47.15000
C  28.33900 -5.09800 46.07400
C  26.94800 -5.05900 45.70100
C  29.86100 -6.26300 47.95500
C  28.98600 -4.14600 45.25300
O  30.16800 -3.91800 45.21200
C  27.96600 -3.54600 44.29100
C  27.76100 -2.12100 44.57000
O  27.19400 -1.74400 45.55700
O  28.10300 -1.30900 43.53800
C  27.74800 0.06400 43.54500
H  21.28200 -4.72200 43.14300
H  21.98500 -9.95200 46.64500
H  27.71700 -8.20500 48.54200
H  25.30500 -2.19100 43.44600
H  23.25700 -3.78100 41.85000
H  22.40700 -1.47800 42.18800
H  23.21300 -1.32500 43.78600
H  21.74400 -2.39900 43.57600
H  25.37000 -3.78400 40.84500
H  26.84800 -3.58500 41.63800
H  27.19800 -1.65900 40.94300
H  25.68700 -0.93700 41.55000
H  18.43400 -7.05200 43.22500
H  19.71600 -6.09600 42.51700
H  18.70900 -5.39900 43.81400
H  18.38700 -10.45800 46.84600
H  19.93800 -9.78800 47.23700
H  19.87200 -10.98000 45.87800
H  24.53900 -10.91600 47.21600
H  25.65700 -9.77800 49.69200
H  23.32000 -11.98100 49.00800
H  22.29600 -10.40900 49.03700
H  23.65700 -10.70300 50.13000
H  27.60400 -10.30500 47.59800
H  26.38400 -11.70800 47.83600
H  28.75500 -11.06800 49.10200
H  27.56200 -12.25900 49.68500
H  27.45200 -10.63200 50.27700
H  30.35600 -7.21400 47.75500
H  29.56200 -6.32700 49.00100
H  30.37800 -5.30900 47.85400
H  28.36800 -3.56600 43.27800
H  27.24100 0.37600 44.45800
H  27.11500 0.19000 42.66600
H  28.64600 0.67600 43.45600
Mg 16.28900 52.34100 25.06600
C  18.18400 51.20100 27.85400
C  13.93900 53.39200 27.38500
C  14.75900 53.44900 22.55300
C  18.86800 51.00500 23.04100
N  16.02200 52.12600 27.38700
C  16.97800 51.81700 28.29600
C  16.52100 52.18500 29.72500
C  15.03500 52.56300 29.49300
C  15.04300 52.85200 28.00900
C  14.14400 51.36800 29.86900
C  17.39100 53.34800 30.37800
C  17.17600 53.53100 31.85900
H  16.23200 52.57100 32.57800
N  14.54300 53.25600 24.93100
C  13.63200 53.57100 25.98800
C  12.46800 54.29400 25.33800
C  12.70400 54.38400 23.91600
C  14.04100 53.71800 23.74800
C  11.36400 54.93000 26.08200
C  11.84700 55.00100 22.88600
O  12.23700 55.04600 21.75300
C  10.56300 55.69200 23.13400
N  16.69000 52.25100 23.02500
C  15.96900 52.87900 22.19200
C  16.61300 53.01800 20.84100
C  17.86100 52.14000 20.92800
C  17.89000 51.76900 22.39700
C  15.67900 52.57600 19.66400
C  19.13000 52.76500 20.32800
C  20.23600 51.86500 19.65200
N  17.98600 51.16600 25.27100
C  18.91900 50.75000 24.41900
C  20.04300 50.02800 25.08900
C  19.79500 50.21100 26.43800
C  18.52400 50.96400 26.48000
C  21.09200 49.13900 24.50600
C  20.32500 49.87600 27.67700
O  21.33900 49.29300 27.99100
C  19.43900 50.66700 28.67600
C  18.96700 49.71900 29.70300
O  18.49000 48.57400 29.41900
O  19.10300 50.18800 30.94100
C  18.71000 49.24700 32.02900
H  13.12200 53.68800 28.04600
H  14.32000 53.99300 21.71400
H  19.58900 50.54700 22.36100
H  16.74500 51.26900 30.27200
H  14.64400 53.35300 30.13400
H  13.11300 51.69500 30.00900
H  14.53800 50.86900 30.75400
H  14.10200 50.62800 29.06900
H  17.02300 54.26900 29.92600
H  18.46900 53.26700 30.24000
H  16.86100 54.56700 31.98000
H  18.13400 53.37500 32.35400
H  11.21700 55.97000 25.78800
H  11.63600 55.02000 27.13400
H  10.40800 54.41300 26.00000
H  9.93600 55.18200 23.86500
H  10.09900 55.76100 22.14900
H  10.87900 56.68500 23.45400
H  17.05500 54.01300 20.78100
H  17.69300 51.24200 20.33400
H  16.29400 52.38800 18.78400
H  15.09300 53.49300 19.59900
H  15.09200 51.68700 19.89400
H  19.57900 53.34200 21.13600
H  18.77000 53.48700 19.59400
H  21.11900 52.34600 20.07400
H  20.23100 51.85000 18.56200
H  20.25300 50.83200 20.00000
H  20.81500 48.58800 23.60600
H  21.23600 48.37500 25.27000
H  22.02300 49.69600 24.40800
H  20.05200 51.43700 29.14400
H  19.35500 48.39600 32.24500
H  17.66800 48.96500 31.87600
H  18.65300 49.99500 32.82000

