158

Mg 36.13300 1.90600 29.94300
C  33.77500 2.91400 32.39700
C  38.28200 1.25600 32.41600
C  38.14500 0.90300 27.63400
C  33.57800 2.24500 27.56000
N  36.08400 2.33800 32.18000
C  35.01900 2.69100 33.00400
C  35.37900 2.47700 34.48200
C  36.95000 2.29300 34.43500
C  37.07800 1.88400 32.90700
C  37.76600 3.58500 34.64800
C  34.59000 1.43300 35.24600
C  33.95800 1.81700 36.63800
H  34.57100 2.99500 37.42100
N  38.08300 1.30700 30.01300
C  38.78000 1.12700 31.08500
C  40.13300 0.68400 30.66400
C  40.11600 0.52700 29.26700
C  38.78500 0.93200 28.90200
C  41.30500 0.53700 31.67300
C  41.29000 0.06200 28.38000
O  41.14700 0.03800 27.15200
C  42.64000 -0.41400 28.83200
N  35.84200 1.51400 27.93100
C  36.88500 1.14400 27.16600
C  36.53100 1.31000 25.70300
C  35.04400 1.25200 25.70400
C  34.79200 1.75300 27.12300
C  37.22300 2.50000 24.95600
C  34.42500 -0.17100 25.47700
C  33.22000 -0.23200 24.54800
N  33.99000 2.55000 29.88100
C  33.13500 2.69800 28.82300
C  31.81400 3.09800 29.37200
C  32.01500 3.16600 30.73000
C  33.34200 2.84400 31.03200
C  30.57600 3.24400 28.46100
C  31.39700 3.48000 32.04400
O  30.24900 3.78200 32.30800
C  32.50200 3.32300 33.11900
C  32.57200 4.61600 33.76700
O  33.17600 5.60200 33.35600
O  31.73800 4.68500 34.83000
C  31.76600 5.84500 35.78000
H  39.04100 1.04100 33.17200
H  38.77600 0.45200 26.86500
H  32.74300 2.34200 26.86300
H  35.22100 3.43700 34.97300
H  37.14000 1.46000 35.11200
H  37.25700 4.53000 34.45900
H  38.66300 3.51900 34.03200
H  38.02900 3.50700 35.70300
H  35.24200 0.57100 35.38900
H  33.72500 1.13600 34.65200
H  33.99800 0.89200 37.21400
H  32.88500 1.89800 36.46500
H  41.00500 0.97500 32.62500
H  42.25500 1.01000 31.42400
H  41.39800 -0.54700 31.74000
H  43.41100 -0.60400 28.08600
H  42.55700 -1.32200 29.42900
H  43.02800 0.39200 29.45600
H  36.91400 0.40900 25.22300
H  34.65900 2.07300 25.10000
H  36.40800 3.13600 24.61100
H  37.97700 2.25300 24.20900
H  37.70400 3.20200 25.63700
H  34.18700 -0.65700 26.42300
H  35.20900 -0.79400 25.04700
H  33.52700 -0.85500 23.70800
H  32.85500 0.72200 24.16700
H  32.38300 -0.78000 24.98200
H  29.76000 2.69200 28.92800
H  30.77300 2.71000 27.53100
H  30.41200 4.27300 28.14100
H  32.14700 2.60800 33.86100
H  32.68700 6.40000 35.60000
H  31.84900 5.43500 36.78600
H  30.93500 6.54900 35.74200
Mg 29.72000 57.26400 40.57000
C  27.15600 55.29500 39.47000
C  32.10400 54.97500 39.24200
C  32.43200 59.28300 41.41400
C  27.45700 59.83200 41.37000
N  29.58900 55.31000 39.53500
C  28.39500 54.81700 39.03700
C  28.71800 53.81900 37.92000
C  30.26200 53.57800 38.11100
C  30.71700 54.69800 39.04900
C  30.67700 52.25400 38.69200
C  28.28000 54.24300 36.45900
C  27.06600 53.54100 35.82200
H  26.28700 54.25400 34.78700
N  32.01300 57.08700 40.52700
C  32.73700 56.03300 39.91800
C  34.06900 56.37000 40.10000
C  34.21400 57.61900 40.67900
C  32.89700 58.05300 40.90600
C  35.19800 55.49000 39.63200
C  35.56700 58.33200 41.01900
O  36.62000 57.72000 40.90200
C  35.68400 59.85700 41.48900
N  29.90900 59.29800 41.25400
C  31.15300 59.88700 41.53200
C  30.99000 61.32100 42.02300
C  29.42600 61.46600 42.17500
C  28.84400 60.17100 41.54400
C  31.79400 61.63900 43.28400
C  28.85100 62.77500 41.58000
C  28.30400 63.95000 42.55500
N  27.72800 57.58100 40.51100
C  26.89100 58.57100 40.94500
C  25.50700 58.14000 40.91500
C  25.57100 56.90000 40.25400
C  26.88500 56.54700 40.03300
C  24.32300 59.00300 41.33500
C  24.80600 55.76800 39.71100
O  23.58000 55.61000 39.64900
C  25.79700 54.74200 39.13100
C  25.36300 53.51200 39.78300
O  25.80800 53.09000 40.84800
O  24.43700 52.86300 38.96900
C  23.88900 51.62300 39.52400
H  32.78500 54.21500 38.85200
H  33.23100 59.99400 41.63500
H  26.71800 60.54700 41.73800
H  28.11900 52.91600 38.04100
H  30.62300 53.56200 37.08300
H  30.81900 52.30700 39.77100
H  31.62800 51.96300 38.24500
H  29.88300 51.53700 38.48500
H  29.13600 54.08500 35.80300
H  28.01000 55.29400 36.35600
H  26.49100 53.18000 36.67500
H  27.38500 52.63300 35.31100
H  34.84100 54.47400 39.80100
H  36.13900 55.53000 40.18000
H  35.33600 55.70000 38.57100
H  35.27500 60.69100 40.91900
H  36.71700 60.11600 41.72000
H  35.25900 59.90700 42.49100
H  31.36600 61.91300 41.18900
H  29.24100 61.29100 43.23500
H  32.47900 60.82100 43.50800
H  31.17100 61.96600 44.11700
H  32.46100 62.47300 43.06800
H  27.99000 62.51700 40.96300
H  29.60100 63.16500 40.89200
H  27.22500 63.88400 42.69900
H  28.52000 64.91500 42.09700
H  28.87000 63.94500 43.48700
H  24.24900 59.93200 40.77000
H  24.29200 59.13900 42.41600
H  23.38700 58.51700 41.05900
H  25.65000 54.63600 38.05600
H  23.13100 51.93800 40.24100
H  24.58800 51.04600 40.12900
H  23.54200 50.93300 38.75500

