158

Mg 8.76300 3.40500 27.42700
C  10.49000 2.14000 30.32400
C  7.64300 5.99100 29.14000
C  7.34200 4.39700 24.58600
C  10.16800 0.58900 25.65200
N  8.92800 3.99700 29.47600
C  9.71900 3.33400 30.50400
C  9.55000 4.09500 31.83900
C  8.47100 5.16500 31.54300
C  8.24700 5.01600 29.96900
C  7.07500 5.11200 32.20000
C  10.82600 4.47700 32.58300
C  10.65700 5.47300 33.71900
H  11.13700 4.92700 35.07100
N  7.70400 5.03200 26.84400
C  7.31400 5.99400 27.74300
C  6.58700 7.03700 26.95700
C  6.42300 6.53400 25.62600
C  7.18400 5.23700 25.67600
C  5.92000 8.17000 27.59800
C  5.80300 7.27600 24.42500
O  5.83500 6.74700 23.29800
C  5.07600 8.59600 24.64600
N  8.82600 2.65000 25.39500
C  7.99900 3.22200 24.45400
C  8.19100 2.57100 23.09900
C  8.93900 1.29100 23.42800
C  9.35100 1.49000 24.90600
C  6.91100 2.35200 22.18600
C  10.16600 1.05600 22.51900
C  9.94600 -0.03000 21.46400
N  10.03200 1.65700 27.88400
C  10.52900 0.65800 27.06000
C  11.36600 -0.27600 27.82900
C  11.37600 0.30800 29.11800
C  10.57400 1.46300 29.08400
C  12.17500 -1.35500 27.20700
C  11.95100 0.20300 30.49700
O  12.78000 -0.58800 30.98600
C  11.34500 1.39600 31.31000
C  10.61600 0.80000 32.50500
O  9.56000 0.19300 32.49700
O  11.46800 0.98200 33.56800
C  10.97200 0.47200 34.83600
H  7.22600 6.76300 29.79100
H  6.95400 4.67900 23.60500
H  10.61000 -0.20800 25.05000
H  9.06000 3.36300 32.48100
H  8.84700 6.13600 31.86600
H  6.34600 5.66300 31.60600
H  7.25900 5.45000 33.22000
H  6.86000 4.04700 32.12600
H  11.58900 4.78900 31.87000
H  11.21500 3.53300 32.96300
H  9.64900 5.83600 33.92300
H  11.36900 6.27500 33.52500
H  5.96500 8.15600 28.68700
H  4.83700 8.22400 27.47900
H  6.32400 9.12400 27.25900
H  4.27700 8.56400 25.38600
H  4.70000 8.98100 23.69800
H  5.84900 9.33100 24.87000
H  8.78600 3.24400 22.48100
H  8.31500 0.39700 23.43600
H  6.05100 2.69900 22.76000
H  6.85700 1.27700 22.01400
H  6.94400 2.96400 21.28500
H  10.98600 0.67800 23.13000
H  10.53400 1.97700 22.06700
H  8.90500 -0.30400 21.29500
H  10.40800 -0.98400 21.71900
H  10.41300 0.19300 20.50400
H  12.42300 -1.15800 26.16400
H  11.78300 -2.36000 27.35900
H  13.09600 -1.30500 27.78700
H  12.20400 1.97900 31.64300
H  11.60500 0.85100 35.63800
H  10.92700 -0.61100 34.94800
H  10.01200 0.98000 34.92700
Mg 15.85900 52.44700 24.95600
C  17.65200 51.11000 27.79000
C  13.23700 53.23000 26.94000
C  14.16600 53.12200 22.29800
C  18.49600 50.99500 23.06500
N  15.57100 52.17200 27.05500
C  16.41800 51.72200 28.08500
C  15.77200 52.02200 29.43600
C  14.33400 52.39200 29.03400
C  14.33000 52.63200 27.57000
C  13.12400 51.61100 29.64500
C  16.57200 53.06800 30.24000
C  16.86700 52.81400 31.67400
H  16.11000 51.77300 32.53600
N  14.00500 53.22500 24.65400
C  13.05400 53.50800 25.60200
C  11.89800 54.12900 25.00800
C  12.10500 53.95700 23.56200
C  13.45200 53.41400 23.43500
C  10.79900 54.58900 25.83400
C  11.06200 54.21500 22.40600
O  11.37900 54.01500 21.25200
C  9.80800 54.95600 22.75400
N  16.20300 52.03300 22.95000
C  15.37500 52.38100 22.06600
C  15.81000 51.93500 20.62100
C  17.26200 51.43200 20.86600
C  17.32700 51.49900 22.42000
C  14.83400 50.91600 20.01100
C  18.35100 52.30200 20.20500
C  18.15500 52.22900 18.65100
N  17.72200 51.25900 25.27700
C  18.65200 50.78300 24.43200
C  19.65200 50.03300 25.09200
C  19.28800 50.15500 26.43800
C  18.10800 50.90600 26.47500
C  20.76700 49.38900 24.43700
C  19.67500 49.77200 27.79700
O  20.69600 49.18800 28.19400
C  18.72400 50.37800 28.70800
C  18.11500 49.26700 29.54500
O  17.40300 48.34800 29.14400
O  18.61700 49.26400 30.83900
C  18.16900 48.12700 31.65100
H  12.41400 53.48700 27.61000
H  13.63000 53.34100 21.37100
H  19.31400 50.59300 22.46300
H  15.72100 51.14000 30.07400
H  14.16400 53.42600 29.33400
H  12.42600 51.27300 28.87800
H  12.42800 52.17100 30.26900
H  13.50500 50.69000 30.08600
H  16.09000 54.04400 30.18400
H  17.53100 53.11500 29.72600
H  16.85400 53.70800 32.29700
H  17.92500 52.58500 31.80800
H  9.94900 53.94100 25.61900
H  10.51200 55.58800 25.50700
H  10.98200 54.72400 26.90000
H  9.16800 55.02800 21.87500
H  10.11300 55.89700 23.21200
H  9.19300 54.36600 23.43300
H  15.63500 52.82900 20.02300
H  17.44300 50.36500 20.73200
H  14.04200 51.39400 19.43400
H  14.30200 50.25600 20.69600
H  15.33000 50.17900 19.38000
H  19.32900 51.86300 20.40300
H  18.34000 53.32300 20.58900
H  17.41600 51.46300 18.41300
H  19.11600 52.02700 18.17800
H  17.74900 53.15700 18.25000
H  20.94000 48.47400 25.00300
H  21.69200 49.96300 24.50200
H  20.47000 49.37400 23.38900
H  19.24500 51.05600 29.38400
H  18.99900 47.42700 31.74800
H  17.44200 47.38000 31.33200
H  17.93000 48.33100 32.69500

