158

Mg 17.76300 -1.93700 28.31700
C  16.61800 0.01100 31.18400
C  19.46000 -3.77400 30.44500
C  19.24800 -3.16200 25.51500
C  16.20900 0.59200 26.36200
N  18.13000 -1.77300 30.64700
C  17.48700 -1.03700 31.53200
C  17.82900 -1.42600 32.91000
C  18.95100 -2.61700 32.69200
C  18.84300 -2.76800 31.14300
C  20.49300 -2.30600 33.04300
C  16.64400 -1.68500 33.88100
C  16.46000 -0.72800 35.15000
H  17.69600 -0.09900 35.74000
N  19.14100 -3.39500 28.02200
C  19.63700 -4.12200 29.06600
C  20.46100 -5.22800 28.51800
C  20.47700 -4.97000 27.05400
C  19.59800 -3.78100 26.73500
C  21.02100 -6.32300 29.35400
C  21.28100 -5.70300 26.01700
O  21.24300 -5.35000 24.79600
C  22.00300 -6.89600 26.42100
N  17.90600 -1.29200 26.22000
C  18.54400 -2.03000 25.27900
C  18.33200 -1.37700 23.91300
C  17.32200 -0.24400 24.20800
C  17.06900 -0.33100 25.67900
C  19.59300 -1.10200 23.09100
C  16.11100 0.01200 23.38900
C  16.20900 1.04200 22.29000
N  16.51400 -0.18500 28.62100
C  15.82800 0.65500 27.75900
C  14.99100 1.63900 28.38700
C  15.31600 1.45000 29.73200
C  16.24600 0.35700 29.82300
C  14.10200 2.67700 27.67000
C  15.03400 1.81100 31.06300
O  14.15200 2.57100 31.41100
C  15.80600 0.99400 32.06000
C  16.63300 1.90100 32.84100
O  17.79400 2.25000 32.64800
O  15.86800 2.46200 33.81900
C  16.37600 3.53200 34.63400
H  19.92300 -4.44300 31.17400
H  19.55700 -3.57900 24.55400
H  15.58700 1.32600 25.84600
H  18.42400 -0.66800 33.41900
H  18.60000 -3.55200 33.12900
H  21.11100 -1.98700 32.20400
H  20.92500 -3.23000 33.42600
H  20.56800 -1.58900 33.86100
H  16.88100 -2.68800 34.23600
H  15.73800 -1.64400 33.27600
H  16.14100 -1.55200 35.78900
H  15.67400 -0.01300 34.90800
H  20.56300 -7.29700 29.18300
H  20.86500 -6.19500 30.42500
H  22.11100 -6.30500 29.38200
H  21.42800 -7.69400 26.89000
H  22.67300 -6.50700 27.18800
H  22.40800 -7.33100 25.50700
H  17.98400 -2.18400 23.26900
H  17.80000 0.73200 24.13300
H  19.55900 -0.07700 22.72100
H  19.67400 -1.69900 22.18300
H  20.47600 -1.33300 23.68700
H  15.26100 0.22500 24.03700
H  15.91400 -0.95800 22.93300
H  17.13900 1.60200 22.18900
H  15.43400 1.77400 22.51300
H  16.01700 0.52000 21.35200
H  13.98600 2.44400 26.61100
H  14.43600 3.70200 27.82900
H  13.15200 2.61300 28.20100
H  15.10600 0.41300 32.66000
H  16.31800 4.52100 34.18000
H  17.43700 3.42100 34.85800
H  15.79200 3.56700 35.55300
Mg 0.47700 44.25300 26.16700
C  3.03900 44.45600 28.70100
C  -1.72400 43.55500 28.67500
C  -1.81000 43.90400 23.71100
C  3.00800 44.79200 23.69600
N  0.66800 44.23100 28.42200
C  1.75300 44.40500 29.22900
C  1.33600 44.21400 30.66000
C  -0.14200 43.74100 30.67400
C  -0.44600 43.80400 29.15900
C  -0.37000 42.41400 31.37600
C  1.68500 45.57800 31.44600
C  1.49600 45.57300 32.94000
H  1.37900 44.25300 33.71700
N  -1.48900 43.75200 26.19600
C  -2.22100 43.55400 27.36200
C  -3.62700 43.50500 26.92300
C  -3.68400 43.49700 25.55600
C  -2.31600 43.73200 25.06800
C  -4.73500 43.34800 28.01200
C  -4.90300 43.48500 24.61800
O  -4.77300 43.60700 23.39300
C  -6.25600 43.34600 25.18200
N  0.54100 44.34000 24.03700
C  -0.48900 44.13400 23.25700
C  -0.10900 44.04300 21.78800
C  1.32000 44.66100 21.77700
C  1.68700 44.55900 23.26500
C  -0.26700 42.69900 21.07100
C  1.34600 46.04600 21.07100
C  2.49300 46.19300 20.14600
N  2.61900 44.50800 26.07300
C  3.49200 44.77100 25.04000
C  4.85300 44.94400 25.64700
C  4.68600 44.82500 27.00500
C  3.30700 44.54100 27.27100
C  6.06200 45.26100 24.90400
C  5.41000 44.83200 28.20000
O  6.62200 44.86300 28.47500
C  4.28800 44.70400 29.31300
C  4.73200 43.58700 30.25000
O  4.76500 42.40600 29.96400
O  5.06100 44.07500 31.57400
C  5.41400 43.04300 32.59900
H  -2.43800 43.40200 29.48700
H  -2.52500 43.61200 22.93900
H  3.77700 44.91200 22.93000
H  2.01300 43.46600 31.07200
H  -0.70900 44.48400 31.23500
H  0.62700 42.03600 31.60200
H  -0.80300 41.71300 30.66200
H  -0.99600 42.48100 32.26600
H  1.15600 46.42100 31.00200
H  2.74400 45.77600 31.28400
H  0.60500 46.16400 33.15300
H  2.36000 46.08800 33.36100
H  -5.48700 42.61200 27.72800
H  -5.25000 44.30800 27.98500
H  -4.49500 43.17500 29.06100
H  -6.25800 44.27000 25.76000
H  -6.42600 42.42100 25.73200
H  -7.01000 43.28800 24.39700
H  -0.81800 44.64400 21.21900
H  1.85300 43.93300 21.16500
H  -0.43900 41.87900 21.76800
H  0.60500 42.32200 20.53800
H  -0.98700 42.80400 20.25900
H  1.45300 46.73800 21.90700
H  0.43600 46.30500 20.53000
H  2.99600 47.14600 20.31100
H  2.16000 46.11100 19.11200
H  3.17800 45.35300 20.26300
H  5.77800 45.57600 23.90000
H  6.67500 44.37000 24.76500
H  6.72300 45.98500 25.38200
H  4.23900 45.63600 29.87700
H  5.96400 43.54100 33.39700
H  6.05100 42.28000 32.15100
H  4.57100 42.59600 33.12600

