158

Mg 0.53700 7.52900 26.03100
C  1.24700 9.40800 28.84800
C  0.30200 4.76600 28.09000
C  0.29200 5.57100 23.31400
C  1.29100 10.32500 24.04800
N  0.88800 7.17200 28.25400
C  1.10600 8.07000 29.21800
C  0.99200 7.50600 30.64700
C  0.89200 5.96900 30.31500
C  0.61700 5.99100 28.79200
C  2.08200 5.02400 30.61800
C  -0.28200 8.08300 31.35200
C  -0.30600 8.04400 32.89800
H  0.93700 7.62100 33.69400
N  0.17900 5.39700 25.75200
C  0.13600 4.47500 26.73500
C  -0.20000 3.23800 26.11000
C  -0.04600 3.40100 24.68500
C  0.14400 4.82900 24.52800
C  -0.54000 1.98600 26.94900
C  -0.12700 2.37100 23.55400
O  -0.07000 2.73600 22.34800
C  -0.65400 0.98200 23.91100
N  0.81300 7.82200 24.02800
C  0.52900 6.88300 23.07800
C  0.44900 7.50700 21.66100
C  0.52500 9.11500 21.93900
C  0.99500 9.06300 23.42100
C  1.40000 6.86300 20.60900
C  -0.86100 9.81800 21.82600
C  -0.88100 11.21700 21.08500
N  1.18800 9.52000 26.32200
C  1.46000 10.53400 25.43700
C  1.70200 11.81600 26.17800
C  1.62300 11.40500 27.49100
C  1.26900 10.01700 27.57600
C  1.83900 13.24100 25.64900
C  1.74700 11.77400 28.89400
O  1.98300 12.92500 29.29400
C  1.34900 10.59100 29.78800
C  2.42300 10.55800 30.77600
O  3.59200 10.21200 30.56900
O  1.99700 10.95600 31.95900
C  3.06800 11.26400 32.92600
H  0.15800 3.92400 28.77000
H  0.11100 4.97200 22.42000
H  1.38600 11.09900 23.28400
H  1.94400 7.83100 31.06700
H  -0.01700 5.67500 30.84000
H  2.56200 5.51500 31.46500
H  2.67800 4.87900 29.71700
H  1.62700 4.06000 30.84400
H  -1.12000 7.44400 31.07700
H  -0.47600 9.13500 31.14200
H  -0.99600 7.20300 32.97200
H  -0.66000 9.02900 33.20300
H  -0.11700 1.10000 26.47600
H  -1.62200 1.85400 26.95300
H  -0.10900 2.02600 27.95000
H  -0.94900 0.36400 23.06200
H  -1.57700 1.19900 24.44800
H  0.07100 0.38000 24.46000
H  -0.54900 7.36900 21.24600
H  1.35000 9.55000 21.37500
H  1.81500 5.93400 21.00000
H  2.24300 7.52700 20.42300
H  0.85400 6.61900 19.69700
H  -1.22000 10.01700 22.83600
H  -1.58600 9.20900 21.28600
H  -1.41300 11.05200 20.14800
H  0.15100 11.53000 20.93100
H  -1.38300 11.89300 21.77800
H  1.89400 13.37000 24.56800
H  2.67500 13.74500 26.13300
H  0.93100 13.70400 26.03700
H  0.40800 10.83700 30.27900
H  3.89900 11.79300 32.46000
H  3.35400 10.37500 33.48800
H  2.63300 11.87000 33.72100
Mg 26.55400 50.39700 27.16700
C  24.44300 51.68700 29.65600
C  28.81100 49.58600 29.69300
C  28.57200 49.62700 24.82300
C  24.20200 51.53900 24.85000
N  26.61300 50.59700 29.40700
C  25.58600 51.07100 30.24200
C  25.90000 50.75400 31.70300
C  27.34500 50.23000 31.71600
C  27.66200 50.11600 30.18500
C  28.40400 51.23100 32.26300
C  24.86100 49.55400 32.05500
C  23.82700 49.92100 33.19300
H  24.01100 48.98100 34.44100
N  28.46900 49.85500 27.20700
C  29.22000 49.46400 28.32200
C  30.50500 48.97600 27.87700
C  30.49400 49.07700 26.46300
C  29.17000 49.55900 26.09600
C  31.55800 48.52900 28.88400
C  31.64600 48.63600 25.50300
O  31.58800 48.79100 24.31800
C  32.88000 48.02500 26.11000
N  26.42500 50.56100 25.06300
C  27.32900 50.07000 24.34400
C  27.01400 49.97700 22.85900
C  25.57100 50.72100 22.83300
C  25.33600 50.96400 24.32400
C  28.09500 50.67400 21.83900
C  24.44100 49.87600 22.13800
C  23.85600 50.52000 20.89100
N  24.67400 51.37400 27.21500
C  23.91300 51.80200 26.17300
C  22.77400 52.51700 26.68200
C  22.91800 52.51800 28.12100
C  24.14800 51.83800 28.32500
C  21.67100 53.13900 25.91700
C  22.40500 52.96800 29.38100
O  21.40000 53.63800 29.59300
C  23.31800 52.34800 30.47500
C  23.73500 53.52400 31.34900
O  24.48700 54.44100 31.08400
O  23.06300 53.41500 32.55100
C  23.17700 54.51600 33.60200
H  29.45400 49.19500 30.48400
H  29.14500 49.10800 24.05200
H  23.49100 51.92800 24.11800
H  25.68300 51.65300 32.28000
H  27.47000 49.29800 32.26700
H  27.96800 51.82600 33.06500
H  28.82900 51.92400 31.53600
H  29.19100 50.55900 32.60400
H  25.49900 48.73100 32.37600
H  24.23200 49.17900 31.24800
H  22.86200 49.94000 32.68800
H  24.10800 50.96400 33.33900
H  31.37900 49.08500 29.80500
H  32.60600 48.68600 28.63200
H  31.44100 47.47900 29.15000
H  32.47100 47.13900 26.59700
H  33.36400 48.61900 26.88500
H  33.60000 47.63600 25.39100
H  26.78500 48.94200 22.60400
H  25.69000 51.73400 22.44800
H  28.70800 51.41900 22.34700
H  27.56200 51.06600 20.97400
H  28.59900 49.76500 21.50900
H  23.62500 49.81800 22.85900
H  24.72500 48.85400 21.88600
H  23.92700 49.97400 19.95000
H  24.24100 51.53700 20.80900
H  22.81000 50.73400 21.11100
H  21.95500 54.17200 25.71700
H  20.78100 53.14200 26.54700
H  21.37800 52.59100 25.02100
H  22.70600 51.72600 31.12800
H  23.58000 55.43500 33.17800
H  23.81900 54.18200 34.41800
H  22.20600 54.68600 34.06700

