158

Mg 35.15200 2.96100 29.69000
C  32.48300 3.92300 31.88700
C  37.24400 3.37700 32.32200
C  37.56400 2.12600 27.67500
C  32.85100 3.13000 27.02400
N  34.85600 3.50100 31.90400
C  33.70900 3.79900 32.56300
C  33.87200 3.79600 34.15100
C  35.42400 4.09700 34.10800
C  35.87400 3.59900 32.72700
C  35.81900 5.49900 34.55900
C  33.39400 2.42600 34.78600
C  33.12800 2.50300 36.26800
H  33.96900 3.47100 37.06600
N  37.13200 2.68000 29.98600
C  37.87600 2.93900 31.13800
C  39.26500 2.57100 30.95700
C  39.34200 2.13700 29.59500
C  38.02000 2.33300 28.99200
C  40.21800 2.71800 32.05900
C  40.51800 1.55600 28.87500
O  40.44400 1.28200 27.65200
C  41.83700 1.28900 29.52900
N  35.21400 2.66000 27.59200
C  36.32700 2.24700 26.95700
C  36.24200 2.36000 25.42200
C  34.64900 2.58900 25.20100
C  34.20100 2.79100 26.67000
C  37.12500 3.56100 24.84600
C  34.06000 1.28100 24.59700
C  33.34100 1.40000 23.23300
N  33.08600 3.55600 29.40600
C  32.34400 3.46000 28.25900
C  30.94300 3.63900 28.71400
C  30.98300 3.87500 30.11400
C  32.31800 3.78400 30.46700
C  29.76400 3.68300 27.80900
C  30.15200 4.19300 31.34000
O  28.95700 4.41000 31.41500
C  31.07400 4.15400 32.53300
C  31.06400 5.33500 33.41500
O  31.50400 6.43300 33.23400
O  30.57800 4.86200 34.60200
C  30.60300 5.86900 35.66100
H  37.92800 3.51800 33.16200
H  38.41100 1.81600 27.05900
H  32.13900 2.98400 26.20800
H  33.26900 4.60700 34.55900
H  35.85300 3.37800 34.80600
H  36.46800 5.44500 35.43400
H  34.95100 6.05000 34.92000
H  36.31500 6.11200 33.80600
H  34.20600 1.71700 34.63100
H  32.59800 1.97500 34.19300
H  33.16600 1.57600 36.84100
H  32.13500 2.95200 36.25400
H  40.93100 1.89900 31.96400
H  39.67600 2.63300 33.00000
H  40.75000 3.66800 32.11800
H  41.57900 0.65200 30.37500
H  42.29400 2.24500 29.78200
H  42.45800 0.78100 28.79100
H  36.59800 1.40500 25.03600
H  34.58800 3.45500 24.54200
H  36.58800 4.35600 24.32900
H  37.92500 3.21700 24.19100
H  37.58200 4.05300 25.70500
H  33.29300 0.93100 25.28700
H  34.67500 0.38700 24.70000
H  34.08000 1.01900 22.52700
H  33.20400 2.46500 23.04600
H  32.47500 0.74300 23.14700
H  28.95600 4.25500 28.26500
H  29.40400 2.71900 27.44700
H  30.12800 4.26100 26.96100
H  30.79200 3.30700 33.15800
H  30.30800 5.58300 36.67000
H  30.01600 6.72700 35.33400
H  31.63900 6.20400 35.71400
Mg 6.36400 55.05100 39.92300
C  6.00900 51.60600 40.07400
C  9.79000 54.54700 39.24900
C  6.68800 58.35600 39.21700
C  2.89700 55.30000 39.95500
N  7.72900 53.21900 39.56900
C  7.39500 51.94700 39.75300
C  8.64600 51.02400 39.73400
C  9.83500 52.08100 39.75500
C  9.08100 53.37700 39.43000
C  10.70000 52.18100 41.05500
C  8.90100 50.05500 38.52400
C  9.32400 50.54800 37.12300
H  8.64500 49.90700 35.87500
N  8.01800 56.37400 39.36500
C  9.33400 55.91800 39.11800
C  10.06700 57.10000 38.88700
C  9.23200 58.25900 39.00200
C  7.93800 57.72400 39.22200
C  11.58400 57.05400 38.70100
C  9.76100 59.67200 38.86600
O  11.01100 59.91600 38.75900
C  8.90900 60.89100 38.87700
N  5.03100 56.55800 39.41800
C  5.42900 57.86500 39.32400
C  4.22600 58.87600 39.31600
C  2.97700 57.83800 39.36600
C  3.68600 56.46800 39.62200
C  4.28700 59.86700 40.48800
C  2.05700 57.80900 38.12900
C  0.58200 57.37200 38.41500
N  4.76300 53.78000 39.98400
C  3.38000 54.01100 40.16000
C  2.74100 52.76000 40.46500
C  3.77300 51.82500 40.52600
C  4.92200 52.49600 40.12100
C  1.28100 52.60000 40.90200
C  4.02900 50.43700 40.79100
O  3.28300 49.47800 41.12500
C  5.48200 50.18100 40.31300
C  5.43800 49.34200 39.10300
O  4.94500 49.73900 38.07200
O  5.90600 47.98200 39.32600
C  5.43000 46.95700 38.35800
H  10.86900 54.38400 39.19900
H  6.80500 59.44200 39.21600
H  1.81800 55.39100 40.09600
H  8.56400 50.41700 40.63500
H  10.44000 52.05400 38.84900
H  10.70000 53.17300 41.50700
H  11.75400 51.97000 40.87100
H  10.28000 51.45500 41.75100
H  7.99700 49.46100 38.38600
H  9.61400 49.33900 38.93100
H  10.39500 50.36500 37.03500
H  9.29100 51.63400 37.04100
H  11.95100 57.66200 37.87400
H  11.91800 56.02200 38.58700
H  11.93800 57.39500 39.67300
H  9.55500 61.73600 38.63700
H  8.34000 60.85200 39.80600
H  8.30800 60.70600 37.98700
H  4.24100 59.41600 38.36900
H  2.43700 58.09700 40.27700
H  5.19800 59.95300 41.08100
H  3.51500 59.74700 41.24800
H  4.17100 60.85000 40.03100
H  2.50200 57.11500 37.41600
H  2.00400 58.74800 37.57900
H  0.48200 57.29500 39.49700
H  0.44000 56.41200 37.91900
H  -0.18400 58.09600 38.13800
H  0.60600 53.45600 40.87700
H  1.16200 52.20900 41.91200
H  0.81200 51.79600 40.33500
H  6.04500 49.59000 41.03500
H  5.91900 47.00500 37.38500
H  4.34900 47.04200 38.24700
H  5.63200 45.94600 38.71200

