158

Mg 24.13400 -4.90200 45.97800
C  26.17500 -2.49300 44.39700
C  21.63800 -4.02100 43.85700
C  22.56200 -7.72900 46.92700
C  27.06800 -5.92000 47.74600
N  23.96000 -3.35800 44.42100
C  24.86400 -2.46100 43.91200
C  24.32400 -1.56500 42.81900
C  22.78100 -1.95000 42.88200
C  22.76200 -3.17300 43.78400
C  21.71800 -0.89700 43.30300
C  24.92100 -1.91300 41.38200
C  25.56000 -0.73900 40.53200
H  26.02200 -1.05200 39.07500
N  22.33200 -5.71700 45.45100
C  21.48200 -5.25500 44.52800
C  20.35800 -6.20400 44.47000
C  20.53800 -7.29200 45.41800
C  21.84000 -6.91000 46.01800
C  19.13000 -5.93100 43.55800
C  19.63100 -8.43300 45.76800
O  18.57800 -8.58300 45.15300
C  19.76100 -9.40700 46.94600
N  24.75200 -6.55400 47.18200
C  23.89300 -7.61100 47.39200
C  24.62400 -8.80200 48.06400
C  25.98500 -8.11400 48.42800
C  25.97400 -6.79900 47.69000
C  23.87500 -9.49400 49.20800
C  27.17700 -8.99300 48.21800
C  28.24000 -9.03200 49.31200
N  26.13300 -4.24600 46.26900
C  27.16100 -4.76600 47.04600
C  28.30800 -3.93600 46.85400
C  28.01000 -3.04400 45.82900
C  26.63500 -3.29400 45.50500
C  29.65000 -4.16600 47.53500
C  28.55300 -1.98400 44.95300
O  29.71100 -1.56500 44.90700
C  27.43600 -1.61500 44.00400
C  27.19200 -0.25600 44.17600
O  27.33800 0.57800 43.33000
O  26.80400 -0.03900 45.49700
C  26.41900 1.39100 45.83300
H  20.82500 -3.66700 43.22100
H  22.14500 -8.72500 47.09000
H  27.99000 -6.25500 48.22500
H  24.57700 -0.51500 42.97000
H  22.41600 -2.40600 41.96200
H  21.22700 -1.15100 44.24200
H  20.92700 -0.92700 42.55300
H  22.10200 0.12300 43.31800
H  24.16300 -2.50100 40.86400
H  25.78200 -2.56900 41.50800
H  26.46700 -0.31400 40.96100
H  24.77100 0.01000 40.47300
H  19.38400 -5.79400 42.50700
H  18.63400 -5.11000 44.07500
H  18.45600 -6.78600 43.59900
H  20.54800 -10.13900 46.76400
H  18.79200 -9.86300 47.14800
H  20.02600 -8.72700 47.75500
H  24.91300 -9.47700 47.25800
H  25.92200 -7.90100 49.49500
H  23.35000 -10.41500 48.95300
H  23.25800 -8.68000 49.58800
H  24.60300 -9.79700 49.96100
H  27.64800 -8.65600 47.29400
H  26.88400 -10.02100 48.00500
H  28.71400 -10.01400 49.30100
H  27.68500 -8.78500 50.21700
H  29.12100 -8.39400 49.24400
H  30.15800 -4.97500 47.01000
H  29.40700 -4.48800 48.54800
H  30.29300 -3.28900 47.45900
H  27.84300 -1.83700 43.01700
H  25.34900 1.50600 46.00800
H  26.72300 2.20200 45.17200
H  26.95800 1.49800 46.77500
Mg 9.34600 47.72800 26.25400
C  7.21400 48.13800 29.03600
C  11.85100 49.08400 28.49300
C  11.55700 47.73900 23.70600
C  6.79500 47.07500 24.24500
N  9.50400 48.46800 28.53300
C  8.50500 48.25100 29.45100
C  8.88400 48.54100 30.90100
C  10.43000 48.93100 30.71800
C  10.63800 48.90500 29.15700
C  10.81200 50.29600 31.38400
C  8.67200 47.36300 31.89100
C  9.62200 46.83500 32.96000
H  8.94800 46.31500 34.23500
N  11.43400 48.24500 26.11800
C  12.24100 48.80800 27.13900
C  13.55800 48.88600 26.57200
C  13.45000 48.39200 25.22200
C  12.12000 48.12400 24.99900
C  14.84000 49.40700 27.21900
C  14.62200 48.33600 24.21300
O  14.50800 47.94800 23.09600
C  16.05100 48.67400 24.61900
N  9.20400 47.42300 24.24300
C  10.19700 47.43400 23.39200
C  9.78000 47.03900 21.94400
C  8.27600 46.97200 22.12200
C  8.05300 47.12000 23.67500
C  10.29700 47.95900 20.79200
C  7.67200 45.63400 21.48800
C  7.34600 45.64600 20.00400
N  7.39100 47.60800 26.53300
C  6.40600 47.27500 25.60000
C  5.08300 47.36900 26.20200
C  5.34000 47.71000 27.55200
C  6.73700 47.84700 27.67900
C  3.69100 47.04300 25.51300
C  4.74200 48.07200 28.78000
O  3.57500 48.12900 29.08500
C  5.91900 48.29600 29.77000
C  5.60900 47.23200 30.83900
O  5.98500 46.06000 30.83200
O  5.04500 47.78600 31.99500
C  4.53900 46.63500 32.77800
H  12.69800 49.41000 29.10000
H  12.22300 47.74900 22.84100
H  5.98600 46.88000 23.53800
H  8.34600 49.44600 31.18400
H  11.05500 48.20900 31.24300
H  11.71100 50.18600 31.99100
H  10.02900 50.63500 32.06200
H  10.93100 51.15600 30.72400
H  8.53700 46.49700 31.24400
H  7.71800 47.64400 32.33700
H  10.39900 47.50900 33.32000
H  10.01500 45.91500 32.52800
H  14.47300 49.66900 28.21100
H  15.17800 50.30900 26.70900
H  15.54500 48.62600 27.50300
H  16.14400 48.00600 25.47500
H  16.04400 49.75800 24.72500
H  16.82900 48.34200 23.93100
H  10.20000 46.05800 21.72600
H  7.89800 47.88600 21.66500
H  11.03400 48.68700 21.13000
H  9.57100 48.52300 20.20700
H  10.72100 47.26800 20.06400
H  6.77600 45.24100 21.96900
H  8.38800 44.83300 21.67300
H  7.57000 46.56400 19.46100
H  6.31400 45.31300 19.89200
H  7.99100 44.97400 19.43700
H  3.87600 46.69000 24.49900
H  3.20400 48.01800 25.47000
H  3.26200 46.28200 26.16500
H  5.79000 49.30900 30.15100
H  3.98100 45.97900 32.11000
H  3.88700 46.97200 33.58400
H  5.29000 45.97300 33.21000

