158

Mg 40.91900 9.20300 29.72700
C  42.58100 10.37100 32.51900
C  38.76100 7.54200 31.82600
C  39.22600 8.02600 27.00800
C  43.40100 10.27600 27.70300
N  40.81900 8.88300 31.94200
C  41.47100 9.62800 32.85100
C  40.91000 9.50900 34.27500
C  39.89600 8.33600 34.03300
C  39.75700 8.23700 32.48000
C  40.36300 6.95400 34.69100
C  40.37300 10.82600 34.85200
C  40.27500 10.80800 36.40900
H  41.18200 11.81200 37.18800
N  39.15300 8.09600 29.49400
C  38.46300 7.45200 30.46200
C  37.29300 6.89300 29.86000
C  37.26700 7.24700 28.51200
C  38.59600 7.84100 28.26500
C  36.18600 6.16600 30.65300
C  36.17300 7.05300 27.50300
O  36.29000 7.46500 26.35300
C  34.91600 6.35800 27.96700
N  41.27500 9.11200 27.66200
C  40.43300 8.55500 26.73700
C  40.87900 8.84300 25.21700
C  42.18500 9.68700 25.42900
C  42.39100 9.70400 26.98500
C  40.91600 7.51000 24.29300
C  42.09600 11.06600 24.79100
C  41.29300 12.14300 25.47500
N  42.68700 10.09700 29.99200
C  43.65000 10.45500 29.06000
C  44.76100 11.07400 29.75800
C  44.42400 11.04900 31.11300
C  43.13200 10.45500 31.20400
C  45.98300 11.73200 29.11700
C  44.83100 11.46400 32.38200
O  45.78300 12.09900 32.76400
C  43.59400 11.02400 33.41600
C  44.20400 10.06000 34.30800
O  44.73000 9.06900 33.86200
O  44.18800 10.36200 35.61900
C  44.68800 9.25800 36.52300
H  37.98400 7.18600 32.50500
H  38.57300 7.71100 26.19200
H  44.09700 10.70600 26.97900
H  41.70500 9.16300 34.93600
H  38.89800 8.62400 34.36300
H  41.11200 7.10200 35.47000
H  40.86400 6.26800 34.00800
H  39.43300 6.51000 35.04600
H  39.35300 10.96800 34.49700
H  40.91800 11.68100 34.45200
H  40.39500 9.75400 36.66100
H  39.21600 11.05300 36.49400
H  36.70200 5.97900 31.59500
H  36.13800 5.19400 30.16200
H  35.23500 6.67100 30.82200
H  34.26000 6.87200 28.67000
H  35.24600 5.32700 28.09900
H  34.26700 6.35900 27.09200
H  40.11200 9.48700 24.78800
H  43.12800 9.20400 25.17200
H  40.94000 6.57300 24.84800
H  41.85800 7.54600 23.74500
H  40.04900 7.44700 23.63400
H  41.72300 10.97900 23.77000
H  43.17100 11.24400 24.80900
H  40.74600 11.84400 26.37000
H  40.47900 12.49400 24.84100
H  41.99300 12.95300 25.68000
H  46.43200 12.39400 29.85700
H  45.54300 12.44100 28.41500
H  46.61300 11.09900 28.49200
H  43.19900 11.83100 34.03400
H  45.77100 9.20400 36.41600
H  44.30200 8.31700 36.13100
H  44.33400 9.33500 37.55100
Mg 48.06100 34.92200 27.49500
C  46.10800 33.30300 29.88900
C  48.11100 37.65100 29.61000
C  49.57800 36.76500 25.07700
C  47.60300 32.32000 25.21600
N  47.31000 35.30600 29.43700
C  46.62100 34.48700 30.36300
C  46.75400 35.01300 31.79100
C  46.95600 36.48800 31.58500
C  47.47600 36.47000 30.07100
C  45.65500 37.29100 31.83000
C  47.89300 34.36600 32.73500
C  47.55800 34.08800 34.23800
H  46.62600 35.01200 34.92700
N  48.74400 36.98500 27.33900
C  48.74500 37.92500 28.37300
C  49.36100 39.11300 27.91100
C  49.76600 38.87400 26.60800
C  49.31900 37.51100 26.24100
C  49.51600 40.36800 28.84800
C  50.53800 39.82500 25.64900
O  50.84900 39.53100 24.48600
C  51.03100 41.15100 26.21200
N  48.52800 34.59100 25.42400
C  49.12200 35.50200 24.64000
C  49.33700 34.91700 23.14600
C  48.92100 33.43700 23.30900
C  48.37100 33.44100 24.76500
C  48.56300 35.66000 22.05100
C  50.11300 32.51900 23.24000
C  50.82000 32.33200 21.92600
N  47.09500 33.13600 27.51800
C  47.03100 32.16200 26.53400
C  46.20200 31.05300 27.05400
C  45.78000 31.51500 28.33400
C  46.35100 32.76300 28.61600
C  45.81800 29.77600 26.25900
C  45.00700 31.11600 29.52000
O  44.44600 30.12400 29.86700
C  45.01200 32.34200 30.50500
C  45.14900 31.86000 31.85800
O  46.05800 31.15000 32.20600
O  44.22600 32.44300 32.63500
C  44.15600 31.94300 34.02600
H  48.08800 38.44100 30.36400
H  50.18500 37.31000 24.35100
H  47.60400 31.50700 24.48800
H  45.79900 34.92000 32.30800
H  47.69500 36.92100 32.25900
H  46.03700 38.17000 32.34700
H  45.01600 36.71100 32.49600
H  45.17100 37.64700 30.92000
H  48.70600 35.09000 32.68400
H  48.23000 33.42200 32.30600
H  48.54700 34.25300 34.66600
H  47.22800 33.05100 34.30500
H  49.40800 40.16800 29.91400
H  48.77800 41.13900 28.62600
H  50.50800 40.82000 28.86100
H  50.14700 41.65200 26.60600
H  51.64200 41.62600 25.44400
H  51.62700 41.00800 27.11300
H  50.40300 34.88100 22.92100
H  48.14200 33.17500 22.59300
H  48.26400 36.66700 22.34100
H  47.66300 35.16000 21.69400
H  49.37200 35.72700 21.32300
H  49.63200 31.55600 23.41400
H  50.77300 32.74800 24.07600
H  50.32600 32.95200 21.17700
H  50.74700 31.31400 21.54300
H  51.89700 32.47300 22.02000
H  46.10300 28.88000 26.81000
H  46.24200 29.76900 25.25500
H  44.73800 29.73700 26.11700
H  44.05700 32.86400 30.45900
H  43.49100 31.08900 34.15500
H  43.72700 32.75100 34.61900
H  45.10200 31.63700 34.47400

