158

Mg 47.37600 44.66100 42.55200
C  44.00800 43.46000 42.41800
C  48.23800 41.20200 42.36700
C  50.37200 45.63200 42.36600
C  46.15300 47.89500 42.03300
N  46.20700 42.60100 42.50800
C  44.86000 42.33500 42.51100
C  44.51900 40.89000 42.28000
C  45.87000 40.14600 42.55600
C  46.88100 41.39400 42.52200
C  45.74300 39.30800 43.88000
C  43.84000 40.60900 40.83800
C  44.40600 41.24800 39.54500
H  44.15100 40.54700 38.20000
N  49.07500 43.55800 42.42900
C  49.30200 42.16200 42.35500
C  50.74200 41.95700 42.23300
C  51.40400 43.18400 42.20500
C  50.27700 44.19600 42.32600
C  51.33600 40.57000 42.22500
C  52.91500 43.34000 42.16600
O  53.62700 42.34000 42.00700
C  53.47400 44.67300 42.07100
N  48.16700 46.60600 42.23700
C  49.49400 46.70600 42.33200
C  49.88300 48.19800 42.42200
C  48.59400 48.87400 41.83800
C  47.56600 47.78100 42.01100
C  50.15300 48.64200 43.92400
C  48.84300 49.27800 40.38600
C  47.92500 50.23100 39.66700
N  45.54200 45.51700 42.15600
C  45.18500 46.86200 42.06400
C  43.72100 47.02200 42.01000
C  43.21700 45.68800 42.21700
C  44.34200 44.81700 42.25300
C  42.99000 48.38900 41.69600
C  42.00900 44.95100 42.27700
O  40.83400 45.32700 42.17300
C  42.44900 43.44800 42.51800
C  42.02800 42.95000 43.84000
O  41.52500 41.85000 44.11000
O  42.33800 43.89800 44.80100
C  41.80600 43.56200 46.10600
H  48.48800 40.13900 42.38800
H  51.32300 46.16300 42.28300
H  45.82700 48.89200 41.73100
H  43.66700 40.64700 42.91600
H  46.18400 39.42500 41.80200
H  46.17900 39.75100 44.77500
H  46.12400 38.29200 43.77800
H  44.68800 39.18000 44.12300
H  42.80600 40.94600 40.91500
H  43.77000 39.52200 40.79600
H  45.45600 41.53800 39.58200
H  43.88700 42.19600 39.40500
H  50.71800 39.69600 42.43000
H  52.18400 40.48700 42.90500
H  51.71900 40.28000 41.24700
H  53.27300 45.01700 41.05700
H  54.55800 44.59200 42.15200
H  53.02000 45.20200 42.90900
H  50.80500 48.43300 41.89200
H  48.30000 49.83100 42.27100
H  51.13200 49.10100 44.06000
H  50.12700 47.72400 44.51100
H  49.35900 49.28300 44.30500
H  48.86900 48.38700 39.76000
H  49.85700 49.67200 40.32100
H  48.60000 50.93900 39.18500
H  47.15000 50.67700 40.29000
H  47.47100 49.66400 38.85500
H  43.50800 49.05100 42.39000
H  41.96200 48.41800 42.05600
H  43.09300 48.75000 40.67300
H  41.88800 42.76100 41.88400
H  40.72300 43.47100 46.18800
H  42.21800 44.19700 46.89000
H  42.17400 42.61100 46.49100
Mg 30.64300 59.17600 39.11800
C  27.61200 57.51700 37.95700
C  32.36700 56.61900 37.91300
C  33.23400 61.23700 39.27800
C  28.48000 62.15600 39.52200
N  30.03800 57.41800 37.96800
C  28.78800 56.91100 37.66000
C  28.87800 55.46500 37.09100
C  30.41900 55.11800 37.42900
C  30.94700 56.42800 37.89800
C  30.67600 53.98900 38.43700
C  28.70600 55.43000 35.56500
C  27.69100 54.38000 34.99600
H  26.78700 54.84400 33.81300
N  32.57400 58.90800 38.92200
C  33.15000 57.77500 38.35400
C  34.58200 57.94600 38.47800
C  34.80400 59.23600 39.03800
C  33.50600 59.87900 39.10500
C  35.63500 57.00800 38.06200
C  36.19100 59.75100 39.45900
O  37.20400 59.14900 39.23200
C  36.36600 61.08500 40.17200
N  30.81000 61.45600 39.37800
C  32.08100 62.04600 39.43700
C  31.98400 63.55200 39.57300
C  30.48300 63.71800 40.00800
C  29.83200 62.37300 39.60400
C  33.11900 64.24400 40.38800
C  29.88600 65.01400 39.45600
C  28.88400 65.80200 40.39200
N  28.45200 59.70000 38.96500
C  27.81700 60.87600 39.22500
C  26.43200 60.74300 38.89200
C  26.31000 59.36500 38.46100
C  27.55300 58.79400 38.45500
C  25.34700 61.81300 38.86100
C  25.28900 58.34200 37.99300
O  24.06200 58.35300 37.79500
C  26.11500 57.08600 37.71400
C  25.61100 56.11500 38.68900
O  25.98500 55.95000 39.90000
O  24.80400 55.23400 38.02300
C  24.33200 54.06100 38.83400
H  33.03100 55.79400 37.64600
H  34.06400 61.94600 39.28100
H  27.84600 63.04400 39.53000
H  28.24600 54.71000 37.55700
H  31.06700 54.92700 36.57400
H  30.94000 54.45500 39.38600
H  31.46700 53.28300 38.18500
H  29.78500 53.38700 38.61500
H  29.64300 55.32700 35.01800
H  28.30200 56.34800 35.13700
H  27.00900 54.13600 35.81000
H  28.17800 53.45400 34.69200
H  36.46100 56.76800 38.73100
H  36.11100 57.43800 37.18100
H  35.27600 56.04200 37.70800
H  37.26900 61.22500 40.76700
H  35.46400 61.19700 40.77300
H  36.30500 61.86900 39.41700
H  32.19000 63.76200 38.52300
H  30.35800 63.75000 41.09100
H  32.66800 64.87600 41.15300
H  33.81800 64.75600 39.72700
H  33.74200 63.54200 40.94200
H  29.35200 64.61800 38.59100
H  30.62900 65.64800 38.97200
H  29.04000 65.61400 41.45400
H  27.83500 65.92500 40.12500
H  29.31300 66.78800 40.21300
H  25.60900 62.71500 38.30900
H  25.11100 62.12700 39.87800
H  24.50200 61.40900 38.30200
H  25.88400 56.70700 36.71900
H  25.06200 53.70700 39.56100
H  24.11900 53.21700 38.17700
H  23.43100 54.23200 39.42300

