158

Mg 41.17900 9.31200 29.15100
C  42.65000 10.31000 32.28700
C  38.74800 7.89800 31.10900
C  39.71100 8.54000 26.39800
C  43.97300 10.53800 27.49900
N  40.79600 9.25700 31.47300
C  41.50000 9.64200 32.49900
C  40.82700 9.32500 33.85800
C  39.69300 8.29900 33.41700
C  39.70600 8.50300 31.92400
C  39.78900 6.86700 33.93800
C  40.35100 10.58000 34.63200
C  40.53300 10.54100 36.16600
H  41.49900 11.46600 36.83100
N  39.50700 8.30100 28.76500
C  38.62000 7.80900 29.65100
C  37.54200 7.13900 28.95900
C  37.66700 7.50900 27.59800
C  39.00100 8.11700 27.49600
C  36.43400 6.39100 29.67800
C  36.70600 7.38700 26.47600
O  36.84400 7.94500 25.38900
C  35.40300 6.73600 26.69000
N  41.85400 9.50000 27.25900
C  40.98400 9.17400 26.24000
C  41.57900 9.44500 24.80000
C  43.00600 10.01500 25.16600
C  42.99700 9.96600 26.76500
C  41.45800 8.20600 23.82700
C  43.38500 11.41400 24.64700
C  42.60600 12.66000 25.00100
N  43.06700 10.05400 29.76200
C  44.04800 10.61700 28.92000
C  45.10400 11.13900 29.76400
C  44.56700 11.07600 31.02200
C  43.34800 10.43900 31.00300
C  46.33900 11.67800 29.33300
C  44.87200 11.39400 32.40400
O  45.84900 11.88100 32.87400
C  43.63300 10.82500 33.33700
C  44.14800 9.93600 34.35400
O  44.10700 8.70200 34.29300
O  44.81100 10.67000 35.36700
C  45.67800 9.96500 36.31500
H  37.92500 7.56400 31.74500
H  39.25000 8.18200 25.47400
H  44.72800 11.10600 26.95200
H  41.54900 8.80400 34.48800
H  38.70800 8.65700 33.71400
H  38.81900 6.50000 34.27400
H  40.46700 6.72300 34.77900
H  40.07000 6.20500 33.11900
H  39.28900 10.72100 34.43000
H  40.67400 11.49800 34.14100
H  40.74800 9.54000 36.54000
H  39.59000 10.90700 36.57200
H  36.75600 5.99100 30.63900
H  36.11700 5.59600 29.00400
H  35.58300 6.99900 29.98300
H  35.55500 5.69900 26.99100
H  34.77700 6.73800 25.79800
H  34.84000 7.20300 27.49800
H  40.94100 10.24500 24.42400
H  43.82400 9.35900 24.86600
H  41.24700 7.27000 24.34300
H  42.41600 8.29000 23.31300
H  40.66500 8.40800 23.10700
H  43.32900 11.21400 23.57700
H  44.46800 11.46200 24.76400
H  41.73700 12.49600 25.63900
H  42.15000 13.05800 24.09500
H  43.29800 13.39100 25.41700
H  46.87000 12.18700 30.13800
H  46.07400 12.45300 28.61400
H  47.01100 10.97200 28.84500
H  43.30200 11.71500 33.87100
H  46.72700 10.26000 36.35600
H  45.71500 8.90600 36.06300
H  45.29900 10.04000 37.33400
Mg 48.22500 24.92000 28.60300
C  49.10900 27.21900 31.23300
C  47.19000 22.80400 31.05700
C  47.87200 22.72800 26.18400
C  49.59800 27.21700 26.36100
N  48.18300 25.10100 30.82400
C  48.47900 26.10300 31.67100
C  48.15300 25.71300 33.10700
C  47.65400 24.21400 33.03600
C  47.71400 24.02000 31.55500
C  48.40600 23.15500 33.88900
C  47.08400 26.67500 33.73000
C  47.30300 27.05700 35.22200
H  46.12900 26.98400 36.15000
N  47.67500 23.04400 28.58700
C  47.15400 22.39400 29.69200
C  46.62000 21.15400 29.25100
C  46.87700 21.01600 27.84900
C  47.50100 22.28400 27.45400
C  45.95700 20.17900 30.18000
C  46.44700 19.97700 26.79600
O  46.65100 20.03000 25.60600
C  45.63600 18.77100 27.37900
N  48.78500 24.96800 26.60400
C  48.35800 23.96100 25.79000
C  48.53500 24.26300 24.26300
C  48.95200 25.79500 24.32700
C  49.18900 25.99400 25.84100
C  49.58800 23.24500 23.62600
C  47.84300 26.76600 23.68000
C  46.49300 26.97300 24.42000
N  49.14400 26.88800 28.70700
C  49.70600 27.63500 27.70200
C  50.29900 28.83300 28.27900
C  50.05800 28.72300 29.63000
C  49.39500 27.51100 29.86600
C  50.94500 30.01600 27.54600
C  50.19700 29.41100 30.82300
O  50.77600 30.44500 31.05200
C  49.57900 28.49500 31.98200
C  50.73900 28.26300 32.97400
O  51.71000 27.54100 32.74600
O  50.65800 29.11900 34.01200
C  51.60100 28.95500 35.16200
H  46.66000 22.22900 31.82000
H  47.61400 22.11300 25.31900
H  49.93600 27.99000 25.66700
H  49.11600 25.80800 33.60700
H  46.59200 24.09500 33.25000
H  49.01800 23.66100 34.63500
H  49.03400 22.62900 33.17000
H  47.61600 22.51900 34.28900
H  46.12400 26.16300 33.65600
H  46.95000 27.61500 33.19500
H  47.58000 28.11000 35.16200
H  48.13900 26.48700 35.62700
H  45.01800 20.18900 29.62600
H  45.85400 20.54000 31.20400
H  46.60700 19.30500 30.22700
H  46.10100 18.29400 28.24200
H  45.57000 17.99600 26.61500
H  44.65600 19.18400 27.61900
H  47.59600 24.05300 23.75000
H  49.94800 25.91100 23.90000
H  49.23600 22.81300 22.69000
H  49.83100 22.46600 24.34900
H  50.47200 23.83500 23.38500
H  47.69900 26.35800 22.68000
H  48.31100 27.74500 23.58500
H  46.02300 27.93700 24.22500
H  46.75900 26.95100 25.47700
H  45.80600 26.17600 24.13800
H  51.12300 30.85600 28.21700
H  50.28700 30.28600 26.72000
H  51.87000 29.76100 27.03000
H  48.75500 28.98700 32.50000
H  52.40500 28.23800 34.99700
H  50.92300 28.65200 35.96000
H  51.89000 29.93100 35.55300

