158

Mg 42.75600 41.82600 26.12100
C  42.13900 44.11000 28.73600
C  44.28000 39.80100 28.44600
C  43.79300 39.97000 23.56600
C  41.70300 44.38500 23.88400
N  43.18200 42.03300 28.29800
C  42.78200 42.98600 29.16400
C  42.96900 42.52000 30.61200
C  43.88300 41.24500 30.52500
C  43.84000 41.00900 28.97000
C  45.39900 41.45700 31.04300
C  41.63300 42.35400 31.43000
C  41.50200 43.26300 32.71200
H  42.41000 42.77400 33.83200
N  43.77900 40.11800 26.00400
C  44.31000 39.40500 27.05900
C  44.95400 38.22100 26.55100
C  44.89600 38.30500 25.13000
C  44.07000 39.46500 24.81500
C  45.64500 37.19300 27.32600
C  45.51500 37.38100 24.15900
O  45.29200 37.43500 22.97000
C  46.49100 36.26400 24.51400
N  42.80100 42.18900 24.08200
C  43.08000 41.17200 23.24700
C  42.93800 41.59600 21.72900
C  42.23100 42.99100 21.91000
C  42.31500 43.24500 23.36400
C  44.26800 41.72900 20.93700
C  40.83000 43.04400 21.38500
C  39.81800 41.92900 21.87300
N  41.98800 43.86400 26.19800
C  41.52000 44.66600 25.22400
C  40.88100 45.89000 25.82700
C  41.15500 45.68400 27.22800
C  41.81300 44.44100 27.37400
C  40.54900 47.19300 25.20400
C  41.06800 46.27200 28.49600
O  40.63900 47.42600 28.82800
C  41.65300 45.31100 29.57100
C  42.81700 45.99500 30.15000
O  43.91300 46.18600 29.68000
O  42.46300 46.33100 31.40800
C  43.57300 46.74400 32.29400
H  44.72800 39.13300 29.18500
H  43.98100 39.28700 22.73500
H  41.42800 45.19200 23.20200
H  43.44500 43.38800 31.06900
H  43.48900 40.43500 31.13900
H  45.58600 42.47100 31.39700
H  46.14100 41.29600 30.26100
H  45.55700 40.87000 31.94700
H  41.68700 41.28200 31.62200
H  40.78600 42.66100 30.81700
H  40.48000 43.15700 33.07700
H  41.76100 44.30600 32.53100
H  46.71400 37.39600 27.26500
H  45.27200 36.21500 27.02100
H  45.30600 37.24400 28.36000
H  45.86900 35.44200 24.86900
H  47.20800 36.61200 25.25700
H  47.00600 36.01500 23.58500
H  42.24500 40.87300 21.29900
H  42.77300 43.73100 21.32200
H  45.09500 41.46900 21.59800
H  44.33100 42.67100 20.39200
H  44.31600 40.89600 20.23700
H  41.04100 42.96300 20.31900
H  40.39200 44.03500 21.49800
H  40.34200 41.45800 22.70500
H  39.48400 41.30000 21.04800
H  38.90700 42.34500 22.30400
H  40.39000 47.09100 24.13100
H  41.29600 47.95400 25.43300
H  39.63200 47.55000 25.67200
H  40.88900 45.05200 30.30300
H  43.95700 47.63600 31.79900
H  44.32100 45.95200 32.33900
H  43.07700 46.90300 33.25100
Mg 26.67000 49.98500 26.95100
C  24.79600 51.15600 29.70100
C  29.12600 49.24700 29.19500
C  28.52200 49.31400 24.25100
C  24.16000 51.22000 24.90500
N  26.87200 50.18800 29.18900
C  26.02700 50.64600 30.10000
C  26.42600 50.23200 31.55600
C  27.92900 49.69500 31.34800
C  28.01400 49.79400 29.82100
C  29.04300 50.53400 32.05500
C  25.41900 49.21600 32.12000
C  24.45500 49.73500 33.23400
H  24.37600 49.15000 34.56900
N  28.62700 49.46900 26.74700
C  29.49700 49.18300 27.78600
C  30.75900 48.80400 27.15300
C  30.62900 48.82500 25.74800
C  29.18900 49.19500 25.53300
C  31.94200 48.42600 27.95300
C  31.65200 48.63100 24.66700
O  31.33300 48.76800 23.45900
C  33.08400 48.17700 25.06200
N  26.37300 50.25600 24.84200
C  27.26000 49.78300 23.95200
C  26.63700 49.77000 22.50400
C  25.25600 50.44200 22.69200
C  25.23400 50.64400 24.23600
C  27.50500 50.39500 21.32800
C  24.18000 49.43100 22.23600
C  23.57300 49.76900 20.80300
N  24.85300 50.91000 27.18700
C  23.98800 51.45800 26.22400
C  22.85200 52.12500 26.85200
C  23.12500 51.95800 28.19500
C  24.32100 51.22700 28.33800
C  21.74900 52.85900 26.10800
C  22.63000 52.28400 29.53300
O  21.58700 52.85300 29.86400
C  23.61400 51.65700 30.52300
C  23.93200 52.69900 31.59800
O  24.77100 53.57200 31.41900
O  23.05300 52.64200 32.65100
C  23.04200 53.82000 33.48100
H  29.82300 48.77300 29.88900
H  29.19100 49.20600 23.39400
H  23.44500 51.62200 24.18400
H  26.46500 51.14400 32.15100
H  27.99200 48.67300 31.72000
H  28.55100 51.04000 32.88500
H  29.47400 51.27800 31.38400
H  29.86000 49.91600 32.42700
H  25.84200 48.31100 32.55500
H  24.73100 48.92100 31.32800
H  23.48200 49.54200 32.78100
H  24.49200 50.82000 33.33200
H  32.67500 49.21400 27.77900
H  32.27900 47.44800 27.60900
H  31.73900 48.43600 29.02400
H  33.20200 47.51700 25.92100
H  33.47100 49.15800 25.34000
H  33.67400 47.83000 24.21400
H  26.51900 48.75400 22.13000
H  25.20300 51.37700 22.13500
H  28.31100 50.89600 21.86400
H  26.83900 51.05400 20.77100
H  27.75700 49.61200 20.61300
H  23.39700 49.41500 22.99400
H  24.40500 48.36600 22.18100
H  23.48500 48.89600 20.15600
H  24.12000 50.60800 20.37400
H  22.58600 50.19700 20.97600
H  22.12200 53.76400 25.62900
H  20.87200 53.02800 26.73300
H  21.48300 52.19800 25.28300
H  22.95000 50.86100 30.85900
H  22.17000 53.80900 34.13500
H  22.92000 54.75200 32.92900
H  23.91900 53.93200 34.11800

