158

Mg 0.84800 8.41700 26.59300
C  1.45200 10.32700 29.45300
C  1.09100 5.52200 28.50400
C  0.72900 6.50700 23.80900
C  0.93500 11.29300 24.74400
N  1.30200 7.96800 28.79200
C  1.30000 8.96800 29.74800
C  1.22300 8.32000 31.15300
C  1.22300 6.79400 30.80000
C  1.31800 6.66800 29.26000
C  2.22400 6.01200 31.68800
C  -0.11400 8.64400 31.91200
C  -0.01500 8.95500 33.39500
H  1.12800 8.37500 34.19200
N  0.96400 6.28100 26.17300
C  1.05700 5.29900 27.09100
C  1.04200 3.97700 26.43900
C  0.81800 4.16500 25.02700
C  0.88500 5.69700 24.90800
C  1.16800 2.70000 27.32400
C  0.54900 3.09400 23.94800
O  0.56700 3.41900 22.75900
C  0.67600 1.58300 24.32800
N  0.80600 8.82100 24.61400
C  0.79800 7.89200 23.61700
C  0.67400 8.54200 22.22300
C  0.62400 10.10400 22.58200
C  0.69900 10.12200 24.07500
C  1.96200 8.11500 21.41700
C  -0.58300 10.83800 22.00700
C  -1.16900 10.42600 20.54600
N  1.17400 10.44900 26.92100
C  1.22200 11.51500 26.07500
C  1.59300 12.69400 26.79600
C  1.73100 12.24100 28.09100
C  1.40100 10.92200 28.17500
C  1.64800 14.07300 26.34600
C  2.10000 12.67900 29.44500
O  2.44800 13.78500 29.88700
C  1.64500 11.50700 30.35000
C  2.78600 11.27700 31.27100
O  3.94900 11.12600 30.95400
O  2.33400 11.46600 32.58200
C  3.27900 11.81500 33.59100
H  0.80700 4.67000 29.12500
H  0.68600 5.93300 22.88100
H  0.94700 12.17000 24.09500
H  2.17500 8.52300 31.64100
H  0.25600 6.33200 30.99700
H  3.04200 6.70100 31.90100
H  2.71700 5.23500 31.10400
H  1.75700 5.59800 32.58200
H  -0.89900 7.92200 31.68800
H  -0.54300 9.50600 31.40100
H  -0.95300 8.63300 33.84700
H  0.13000 10.02900 33.50900
H  1.20900 2.77500 28.41100
H  2.13000 2.27600 27.03400
H  0.32900 2.01100 27.22600
H  0.72600 0.94600 23.44500
H  -0.19700 1.49800 24.97500
H  1.60700 1.38000 24.85700
H  -0.24500 8.15700 21.78200
H  1.55800 10.50300 22.18700
H  2.19500 8.97700 20.79200
H  1.74100 7.31300 20.71400
H  2.78000 7.90900 22.10800
H  -0.30400 11.88600 21.90500
H  -1.49300 10.70600 22.59200
H  -2.12200 9.91400 20.67700
H  -0.47400 9.66700 20.18400
H  -1.22600 11.27700 19.86700
H  2.00200 14.13500 25.31700
H  2.36000 14.64800 26.93800
H  0.66000 14.52500 26.43600
H  0.69700 11.72000 30.84500
H  3.90600 12.70100 33.49900
H  4.07000 11.08300 33.75600
H  2.78000 12.00400 34.54200
Mg -5.23100 25.71500 26.23700
C  -4.11800 27.46500 28.97200
C  -6.61200 23.35800 28.34800
C  -6.07500 23.77900 23.48300
C  -2.93200 27.48000 24.20000
N  -5.33500 25.39100 28.40800
C  -4.89900 26.34000 29.33000
C  -5.33400 26.01400 30.69600
C  -5.88400 24.48900 30.52400
C  -5.93500 24.37900 29.01100
C  -5.12300 23.31700 31.09300
C  -6.36700 27.02100 31.28100
C  -7.07900 26.58400 32.59700
H  -6.45400 25.48300 33.45700
N  -6.43300 24.06200 25.92700
C  -7.02300 23.36700 26.96600
C  -7.92100 22.33700 26.36800
C  -7.77600 22.47700 24.92500
C  -6.70800 23.48500 24.71500
C  -8.84600 21.41500 27.22300
C  -8.41800 21.83100 23.80200
O  -8.27400 22.10900 22.64100
C  -9.63100 20.81700 24.00700
N  -4.43500 25.55600 24.17200
C  -5.05200 24.71800 23.27600
C  -4.48800 24.97300 21.88900
C  -3.61300 26.35600 22.08800
C  -3.69100 26.52700 23.56500
C  -3.77500 23.78400 21.26200
C  -4.18000 27.53600 21.21700
C  -3.21700 28.69100 21.00600
N  -3.82100 27.14400 26.50000
C  -2.99700 27.78800 25.59000
C  -2.26200 28.78300 26.31000
C  -2.66700 28.62900 27.67700
C  -3.59500 27.61500 27.70100
C  -1.26300 29.82900 25.77600
C  -2.35200 29.11500 28.94500
O  -1.63800 29.96400 29.44100
C  -3.36500 28.48100 29.86400
C  -2.76700 27.84100 31.00300
O  -1.94500 26.93700 31.00500
O  -3.30500 28.39600 32.16900
C  -2.80600 27.69600 33.35100
H  -7.16900 22.64300 28.95700
H  -6.25200 23.27200 22.53200
H  -2.16200 28.09300 23.72700
H  -4.47000 25.81200 31.32900
H  -6.92100 24.44400 30.85700
H  -4.57000 22.76100 30.33700
H  -5.84600 22.75400 31.68400
H  -4.33800 23.63700 31.77800
H  -7.14900 27.19700 30.54200
H  -5.84000 27.95600 31.47200
H  -8.08600 26.37800 32.23600
H  -7.02600 27.45000 33.25700
H  -8.50900 20.39800 27.02000
H  -9.89300 21.70700 27.13900
H  -8.65400 21.46400 28.29500
H  -9.84000 20.43900 23.00600
H  -10.44800 21.36900 24.47100
H  -9.19400 19.97700 24.54800
H  -5.34500 25.19600 21.25500
H  -2.58800 26.13500 21.79200
H  -3.80000 22.99100 22.00900
H  -2.70900 23.97200 21.13200
H  -4.26700 23.41800 20.36200
H  -5.12400 27.84300 21.66600
H  -4.39200 27.15000 20.22000
H  -2.74800 28.64600 20.02300
H  -2.49700 28.80400 21.81600
H  -3.85400 29.56800 21.12100
H  -0.76800 29.62900 24.82600
H  -0.44400 29.88000 26.49300
H  -1.77200 30.78400 25.64500
H  -3.99800 29.32900 30.12500
H  -2.55000 26.63900 33.27900
H  -3.58800 27.64100 34.10800
H  -2.01200 28.34500 33.71900

