158

Mg 16.22500 -2.89400 28.32500
C  15.15700 -0.76100 30.86600
C  18.64800 -4.17500 30.33400
C  17.65000 -4.56600 25.72400
C  14.32700 -0.99200 26.02400
N  16.83600 -2.48000 30.33700
C  16.20700 -1.64500 31.26500
C  16.87400 -1.75300 32.64400
C  18.04200 -2.81700 32.38100
C  17.87500 -3.14100 30.89100
C  19.53600 -2.35800 32.77600
C  15.79700 -2.13600 33.73100
C  15.68000 -1.29000 35.04100
H  16.89200 -0.51400 35.60500
N  17.73100 -4.44900 28.11100
C  18.58100 -4.81300 29.06500
C  19.50200 -5.82500 28.58000
C  19.29900 -5.96600 27.17000
C  18.13600 -4.98400 26.92200
C  20.58100 -6.39200 29.42000
C  19.84800 -6.94200 26.15800
O  19.50400 -6.93800 24.93800
C  20.94000 -7.86600 26.59800
N  16.08300 -2.74400 26.14400
C  16.83800 -3.45200 25.37600
C  16.65900 -2.94000 23.91000
C  15.48300 -1.97200 23.99200
C  15.20900 -1.92900 25.45200
C  17.89700 -2.27500 23.26200
C  14.22700 -2.37900 23.09500
C  13.98300 -1.44800 21.89100
N  15.11100 -1.20300 28.32300
C  14.25900 -0.64000 27.34200
C  13.41600 0.31000 27.97500
C  13.76600 0.33400 29.28100
C  14.77500 -0.63100 29.51100
C  12.30200 1.06500 27.28500
C  13.45300 0.94400 30.55200
O  12.69300 1.89200 30.87100
C  14.39000 0.33400 31.61900
C  15.33100 1.39300 32.14500
O  16.48800 1.51400 31.79900
O  14.76300 2.17100 33.16300
C  15.60000 3.20900 33.82200
H  19.52300 -4.46500 30.91900
H  18.13900 -4.97100 24.83500
H  13.69000 -0.42900 25.33800
H  17.35200 -0.84800 33.01800
H  17.91900 -3.71500 32.98700
H  20.15700 -3.24800 32.87500
H  19.46700 -1.73300 33.66600
H  20.06200 -1.88700 31.94500
H  16.07700 -3.13000 34.07800
H  14.81000 -2.17600 33.27200
H  15.55600 -2.00100 35.85800
H  14.71000 -0.79500 34.99900
H  20.92400 -7.35300 29.03700
H  20.31300 -6.52000 30.46900
H  21.34500 -5.62000 29.51200
H  21.77800 -7.22600 26.87700
H  21.24700 -8.54500 25.80300
H  20.70000 -8.42500 27.50200
H  16.35000 -3.74100 23.23800
H  15.76400 -0.96400 23.68700
H  18.12300 -2.61500 22.25100
H  18.73000 -2.54800 23.90900
H  17.78500 -1.19200 23.31900
H  13.30900 -2.43900 23.68100
H  14.29100 -3.36400 22.63200
H  12.91700 -1.57900 21.70800
H  14.57200 -1.82200 21.05300
H  14.23300 -0.40600 22.09000
H  11.91800 0.74300 26.31700
H  12.47000 2.13800 27.19800
H  11.42800 0.95400 27.92700
H  13.80700 -0.03500 32.46200
H  15.87000 3.85500 32.98600
H  16.53500 2.77200 34.17300
H  15.02900 3.59800 34.66500
Mg 45.70400 17.34100 29.17700
C  43.65800 16.90400 31.93300
C  47.61100 19.47400 31.23900
C  47.50900 18.45400 26.37800
C  43.39900 15.86600 27.06000
N  45.55700 18.18800 31.35200
C  44.78400 17.57000 32.31000
C  45.18600 17.97400 33.66300
C  46.27100 19.03900 33.34200
C  46.50600 18.87800 31.87200
C  46.05600 20.46500 33.80300
C  45.55100 16.85000 34.65200
C  46.30100 17.19300 35.84600
H  46.07000 18.57900 36.60200
N  47.30800 18.67300 28.91600
C  47.90100 19.47300 29.90200
C  48.95900 20.16900 29.30900
C  48.95000 20.01000 27.86300
C  47.91600 18.99600 27.65100
C  50.00200 21.01900 30.12400
C  49.77600 20.66200 26.82300
O  49.69300 20.44900 25.62800
C  50.78600 21.71900 27.25300
N  45.60200 17.08900 26.91700
C  46.43400 17.61000 26.07000
C  46.08500 17.19400 24.64500
C  44.87200 16.31900 24.87500
C  44.56800 16.41100 26.36600
C  45.89900 18.34000 23.54000
C  45.02000 14.90900 24.46900
C  45.68800 13.95700 25.49200
N  43.93700 16.54000 29.34600
C  43.13700 15.92000 28.43200
C  41.98300 15.50000 29.12800
C  42.17800 15.74300 30.45600
C  43.36300 16.43800 30.58900
C  40.77500 14.81400 28.61400
C  41.49200 15.66000 31.75100
O  40.39900 15.19500 32.05900
C  42.54000 16.33300 32.75600
C  41.88400 17.29900 33.67700
O  41.14600 18.26400 33.38900
O  42.18400 16.94500 34.93900
C  41.58800 17.76300 36.07000
H  48.12600 20.05600 32.00700
H  47.90200 18.83500 25.43300
H  42.57200 15.39300 26.52700
H  44.29200 18.42500 34.09200
H  47.24800 18.75900 33.73400
H  45.85900 21.07800 32.92400
H  46.94000 20.72900 34.38400
H  45.19700 20.46700 34.47300
H  46.02300 16.08600 34.03200
H  44.61000 16.44500 35.02400
H  47.36700 17.02100 35.70300
H  45.99700 16.42100 36.55300
H  49.84000 22.09500 30.05500
H  51.07900 20.97400 29.96500
H  49.82500 20.84100 31.18500
H  51.28000 22.11100 26.36400
H  51.65700 21.37400 27.81000
H  50.26800 22.59200 27.64800
H  46.84200 16.48800 24.30500
H  44.03400 16.71300 24.30000
H  46.00500 19.35500 23.92100
H  44.87800 18.24900 23.16800
H  46.60800 18.24400 22.71700
H  45.42100 14.83500 23.45800
H  44.05000 14.43200 24.33000
H  44.95800 13.28700 25.94400
H  46.28500 14.35400 26.31300
H  46.31700 13.17900 25.05800
H  40.79500 13.74300 28.81300
H  40.70200 15.08600 27.56100
H  39.90100 15.29500 29.05400
H  43.01200 15.52100 33.30900
H  40.86900 17.08900 36.53400
H  41.12200 18.67500 35.69700
H  42.38500 18.00800 36.77300

