158

Mg 1.99900 -1.61600 43.91200
C  5.32500 -1.39100 42.97900
C  1.25300 0.98500 41.71600
C  -1.29600 -2.52500 43.75900
C  2.79600 -4.61400 45.58500
N  3.18400 -0.30600 42.51900
C  4.57500 -0.33000 42.41800
C  5.04200 0.79300 41.53700
C  3.69900 1.59800 41.29700
C  2.62400 0.69100 41.87500
C  3.62300 2.94000 41.99400
C  5.75300 0.40300 40.15800
C  6.88900 1.36700 39.68300
H  6.69000 2.17800 38.35900
N  0.18800 -0.78000 43.01100
C  0.08100 0.25800 42.14700
C  -1.23200 0.65500 42.01100
C  -2.05400 -0.26900 42.68300
C  -1.08800 -1.32100 43.17700
C  -1.64600 1.98000 41.33900
C  -3.59600 -0.18000 42.80800
O  -4.21500 0.68400 42.20700
C  -4.28700 -1.17900 43.86500
N  0.95800 -3.23000 44.59800
C  -0.35900 -3.44900 44.27200
C  -0.79700 -4.90100 44.61200
C  0.40000 -5.53600 45.31200
C  1.45800 -4.40400 45.17300
C  -2.12600 -5.10600 45.28000
C  0.87600 -6.91300 44.77900
C  -0.05100 -8.07100 45.07400
N  3.75100 -2.65600 44.48500
C  3.96000 -3.86400 45.17600
C  5.37200 -4.13100 45.24900
C  5.93500 -3.17200 44.41100
C  4.94500 -2.35200 43.89000
C  6.02600 -5.30200 45.83500
C  7.18500 -2.73400 43.86000
O  8.37000 -2.99100 44.08700
C  6.77700 -1.64000 42.84900
C  7.56000 -0.49200 43.22400
O  7.57200 0.14900 44.25600
O  8.38200 -0.16200 42.20100
C  9.19100 1.03700 42.38500
H  1.06700 1.90400 41.15600
H  -2.33100 -2.86400 43.68200
H  3.08900 -5.58700 45.98600
H  5.73900 1.40400 42.11100
H  3.46400 1.69500 40.23700
H  4.37200 2.84900 42.78000
H  2.63200 3.01700 42.44200
H  3.93600 3.68300 41.26000
H  4.94700 0.36600 39.42500
H  6.29000 -0.54400 40.19600
H  7.85100 0.89200 39.48900
H  7.20800 2.06300 40.45900
H  -2.67100 2.24600 41.59500
H  -1.57100 1.98100 40.25200
H  -1.11300 2.77400 41.86300
H  -5.17800 -0.69600 44.26500
H  -3.59200 -1.32800 44.69200
H  -4.51800 -2.16600 43.46500
H  -0.86800 -5.43200 43.66300
H  0.26600 -5.62100 46.39000
H  -2.84900 -5.47400 44.55300
H  -2.56100 -4.17200 45.63700
H  -2.03100 -5.81100 46.10600
H  1.85700 -7.17400 45.17600
H  1.06700 -6.79000 43.71300
H  -0.96700 -7.87100 45.63000
H  0.45400 -8.77000 45.74000
H  -0.23100 -8.58100 44.12700
H  6.25100 -6.15200 45.19100
H  5.55800 -5.70000 46.73600
H  6.90400 -4.86800 46.31400
H  6.98400 -2.00600 41.84400
H  9.79900 0.85100 43.27000
H  8.55800 1.91300 42.24800
H  9.95900 1.06900 41.61200
Mg 26.08200 -0.75500 29.13800
C  27.81900 -0.92400 32.26500
C  23.17000 -0.56000 30.76900
C  24.56500 -0.68700 26.14000
C  29.12900 -1.57000 27.56200
N  25.57700 -0.78500 31.29600
C  26.45100 -0.61500 32.34400
C  25.69500 -0.25200 33.65900
C  24.20000 -0.22200 33.13900
C  24.28300 -0.51800 31.61200
C  23.27400 -1.23500 33.84200
C  26.29800 1.06600 34.37700
C  27.26200 0.81700 35.56200
H  27.19000 1.74000 36.84400
N  24.14400 -0.67300 28.54800
C  23.06300 -0.58900 29.33900
C  21.81700 -0.59200 28.55800
C  22.24600 -0.63200 27.23600
C  23.71800 -0.61400 27.24600
C  20.41100 -0.54200 29.22900
C  21.32000 -0.47800 26.04200
O  21.62900 -0.42700 24.85400
C  19.85600 -0.43600 26.25100
N  26.75800 -1.08400 27.16600
C  25.90700 -0.91800 26.08900
C  26.69300 -0.90700 24.77500
C  28.15700 -1.01500 25.25700
C  28.02200 -1.26400 26.75600
C  26.22500 -1.95200 23.74800
C  29.10300 0.08900 24.81800
C  28.85700 1.56300 25.08900
N  28.06100 -1.18600 29.73900
C  29.14200 -1.54400 28.97500
C  30.27600 -1.65500 29.79000
C  29.81300 -1.53000 31.07900
C  28.42800 -1.19400 31.04500
C  31.69300 -1.87000 29.23600
C  30.26900 -1.48500 32.40500
O  31.38200 -1.57300 32.91600
C  29.01800 -1.01900 33.29800
C  28.82600 -2.14600 34.28700
O  28.11200 -3.14200 34.11700
O  29.40200 -1.81300 35.50100
C  28.87200 -2.58500 36.58400
H  22.24400 -0.29600 31.28400
H  23.97600 -0.69600 25.22000
H  30.03500 -1.87200 27.03100
H  25.82000 -1.10600 34.32500
H  23.83300 0.80200 33.21100
H  22.39500 -1.38000 33.21400
H  23.00000 -0.77700 34.79200
H  23.82500 -2.17400 33.79500
H  25.61000 1.90000 34.51200
H  26.84400 1.59100 33.59200
H  28.25500 1.17000 35.28100
H  27.20500 -0.22600 35.87200
H  19.76500 0.28300 28.92800
H  20.35300 -0.56300 30.31800
H  19.91400 -1.48900 29.02200
H  19.50800 -1.20300 26.94200
H  19.39100 -0.70200 25.30100
H  19.61700 0.59400 26.51600
H  26.43500 0.11700 24.50300
H  28.64600 -1.85000 24.75500
H  25.51800 -2.68300 24.14000
H  27.08500 -2.50900 23.37500
H  25.77000 -1.41700 22.91400
H  29.17200 -0.02600 23.73600
H  30.03800 -0.22700 25.28200
H  28.14900 1.81600 25.87800
H  28.63100 2.15400 24.20100
H  29.82700 1.94300 25.40700
H  31.55300 -1.49500 28.22300
H  31.82600 -2.94500 29.11200
H  32.43100 -1.35100 29.84700
H  29.15100 -0.01400 33.69900
H  27.84500 -2.92700 36.46000
H  29.07900 -1.99000 37.47400
H  29.50900 -3.46900 36.61000

