158

Mg 44.06200 3.00600 47.46400
C  42.15900 5.79600 46.70500
C  41.29700 1.02800 47.36500
C  46.04800 0.31600 47.57200
C  46.95200 5.03900 47.17700
N  41.92300 3.39500 47.04300
C  41.40800 4.61600 46.72300
C  39.88700 4.42500 46.51200
C  39.61300 2.94400 46.91200
C  41.03600 2.40200 47.13300
C  38.68400 2.66100 48.11200
C  39.38700 4.63300 45.02200
C  37.98500 5.10700 44.63500
H  38.01400 5.99900 43.45500
N  43.73000 0.93600 47.39900
C  42.52200 0.31000 47.41700
C  42.72100 -1.03600 47.52900
C  44.11300 -1.34000 47.52400
C  44.73300 0.00100 47.52000
C  41.56400 -2.00000 47.72900
C  44.74100 -2.75700 47.61600
O  44.03700 -3.80300 47.65900
C  46.24100 -2.90200 47.73700
N  46.18800 2.71200 47.41300
C  46.74700 1.47400 47.54100
C  48.27500 1.56900 47.64100
C  48.57700 3.15500 47.74500
C  47.20100 3.64700 47.41300
C  48.97700 0.65100 48.69500
C  49.67100 3.55500 46.73000
C  49.09600 3.62600 45.25800
N  44.49800 5.00400 47.02300
C  45.71200 5.71200 47.04800
C  45.52600 7.11000 46.86500
C  44.14700 7.18400 46.74500
C  43.59300 5.89200 46.83000
C  46.62800 8.13300 46.76400
C  43.00500 8.03500 46.50900
O  42.93900 9.23900 46.25400
C  41.68600 7.23900 46.48700
C  40.78000 7.82000 47.62000
O  40.91000 7.39200 48.77700
O  39.87300 8.74400 47.21000
C  38.77500 8.97800 48.14600
H  40.40600 0.40200 47.45300
H  46.69800 -0.56200 47.56500
H  47.84000 5.67400 47.14700
H  39.35200 5.10000 47.18000
H  39.14900 2.41400 46.08100
H  38.09500 3.53000 48.40500
H  39.23800 2.17400 48.91500
H  38.01900 1.83700 47.85700
H  39.47400 3.67300 44.51300
H  40.13400 5.32000 44.62600
H  37.46100 5.49900 45.50600
H  37.55300 4.16000 44.31300
H  41.77700 -3.03700 47.47100
H  40.66800 -1.69300 47.19000
H  41.35200 -1.99100 48.79900
H  46.77600 -2.59300 46.83900
H  46.56400 -3.90900 48.00200
H  46.63000 -2.26800 48.53400
H  48.62800 1.20700 46.67500
H  48.70500 3.51400 48.76600
H  48.14200 0.12100 49.15400
H  49.40100 1.24800 49.50200
H  49.73400 0.02500 48.22300
H  50.54500 2.90400 46.72800
H  49.90100 4.57000 47.05500
H  48.67000 4.61000 45.06200
H  48.24300 2.95600 45.16100
H  49.87400 3.30300 44.56600
H  46.29400 9.08600 46.35400
H  47.44300 7.95200 46.06300
H  47.03700 8.38800 47.74100
H  41.31700 7.35300 45.46700
H  38.79700 9.93300 48.67100
H  38.67400 8.17200 48.87300
H  37.80500 8.86100 47.66400
Mg 16.39900 52.45800 25.21800
C  18.09700 51.00100 27.98100
C  13.67100 52.94900 27.29700
C  14.55200 53.27800 22.54000
C  19.02600 51.21700 23.20600
N  15.96500 52.09000 27.33400
C  16.85900 51.53100 28.30400
C  16.24500 51.71200 29.77400
C  14.79900 52.23400 29.52300
C  14.80700 52.45300 27.96600
C  13.59000 51.33900 29.90200
C  17.14100 52.69400 30.66000
C  17.32800 52.27600 32.09600
H  16.25000 51.30600 32.61400
N  14.36600 53.12600 24.95600
C  13.39400 53.21800 25.95000
C  12.18600 53.81800 25.26300
C  12.44800 53.83900 23.85400
C  13.82800 53.40800 23.74500
C  10.94200 54.12500 26.01900
C  11.53400 54.29900 22.71900
O  11.87000 54.33700 21.55900
C  10.13400 54.79300 22.97500
N  16.70400 52.17400 23.24100
C  15.82800 52.67000 22.33200
C  16.37400 52.76600 20.95800
C  17.79100 52.06200 21.03600
C  17.90500 51.85800 22.58100
C  15.49900 52.39100 19.71700
C  18.98200 52.89500 20.34900
C  19.86300 52.12100 19.37200
N  18.19800 51.37100 25.45200
C  19.16700 50.92400 24.57900
C  20.15400 50.15000 25.21800
C  19.75900 50.14300 26.55900
C  18.57100 50.87300 26.65400
C  21.28200 49.29300 24.57400
C  20.11700 49.70400 27.89400
O  21.04000 49.02300 28.36600
C  19.11500 50.32100 28.81200
C  18.45000 49.16800 29.58700
O  17.50200 48.45200 29.17500
O  18.99400 49.05500 30.90200
C  18.65400 47.93600 31.69600
H  12.79200 53.20000 27.89400
H  14.06600 53.64000 21.63200
H  19.89800 50.96000 22.60100
H  16.26100 50.72300 30.23200
H  14.60500 53.22000 29.94700
H  13.96300 50.37300 30.24200
H  12.95700 51.23800 29.02000
H  13.03300 51.77500 30.73200
H  16.62300 53.64300 30.79300
H  18.07100 52.84000 30.11000
H  17.38800 53.17000 32.71800
H  18.26600 51.72300 32.14400
H  10.17500 53.49000 25.57600
H  10.78900 55.17100 25.75400
H  11.04800 54.09500 27.10300
H  10.16200 55.69900 23.58200
H  9.50500 53.96700 23.30300
H  9.68700 55.12200 22.03700
H  16.74400 53.78900 20.88600
H  17.87600 51.03800 20.67300
H  14.57300 51.90800 20.03000
H  15.99800 51.79500 18.95300
H  15.13000 53.27000 19.18900
H  19.57400 53.32300 21.15800
H  18.63400 53.78200 19.81900
H  19.77800 51.03900 19.46800
H  20.88700 52.43500 19.57300
H  19.67100 52.38700 18.33300
H  22.11700 49.94100 24.30600
H  21.10000 48.84900 23.59500
H  21.62600 48.65700 25.38900
H  19.70700 50.90800 29.51300
H  17.57000 47.84300 31.75800
H  19.00500 48.08100 32.71800
H  19.13300 47.05100 31.27800

