158

Mg 25.11600 1.43000 29.35100
C  27.40600 1.34300 32.00100
C  22.63900 1.38800 31.57200
C  22.85800 1.68100 26.82100
C  27.71500 0.95600 27.14100
N  25.15400 1.52500 31.54400
C  26.07600 1.50000 32.43400
C  25.60100 1.54900 33.93100
C  24.12200 1.39900 33.70000
C  23.88700 1.46700 32.15600
C  23.40900 0.27000 34.49500
C  26.18100 2.67600 34.77100
C  25.21500 3.21500 35.86000
H  25.98900 3.68100 37.05000
N  23.00900 1.48300 29.23600
C  22.17000 1.44500 30.26100
C  20.77900 1.42200 29.76600
C  20.81700 1.58100 28.38900
C  22.22000 1.70500 28.06300
C  19.56500 1.35900 30.67000
C  19.68500 1.62900 27.39900
O  19.97100 1.78400 26.24700
C  18.15600 1.44600 27.71200
N  25.28100 1.28000 27.35600
C  24.23800 1.57500 26.51600
C  24.70600 1.67100 25.01900
C  26.24000 1.57800 25.19200
C  26.44600 1.25000 26.63700
C  24.02600 0.62100 23.99500
C  27.12200 2.64900 24.56400
C  27.34800 3.99400 25.40100
N  27.15500 1.15900 29.48100
C  28.10700 1.03400 28.49400
C  29.38200 0.85800 29.06900
C  29.19300 1.05700 30.42200
C  27.78000 1.19100 30.65400
C  30.56500 0.45200 28.28000
C  29.78000 1.14500 31.72200
O  30.95300 0.87300 31.97700
C  28.66800 1.29900 32.79000
C  28.76700 0.16700 33.84300
O  28.16000 -0.87200 33.69400
O  29.47800 0.59100 34.92900
C  29.52300 -0.35800 36.07400
H  21.82400 1.30500 32.29400
H  22.26900 1.60600 25.90400
H  28.41000 0.97300 26.29800
H  25.97600 0.62400 34.37000
H  23.53200 2.24200 34.06000
H  22.81200 0.72700 35.28400
H  24.18800 -0.36400 34.91800
H  22.75700 -0.31500 33.84700
H  26.41300 3.46000 34.05100
H  27.17500 2.49700 35.17900
H  24.46800 2.49000 36.18200
H  24.61700 4.07300 35.55300
H  19.20000 2.35500 30.92000
H  19.96000 0.88100 31.56700
H  18.77900 0.72700 30.25800
H  17.99100 0.48800 28.20500
H  17.56300 1.57500 26.80700
H  17.96400 2.24900 28.42400
H  24.62900 2.69500 24.65200
H  26.54800 0.61700 24.77900
H  24.87800 0.09600 23.56400
H  23.42400 1.22500 23.31700
H  23.39600 -0.08900 24.53100
H  26.58300 2.94900 23.66500
H  28.14500 2.32800 24.37000
H  26.87700 3.85800 26.37500
H  26.81900 4.76600 24.84100
H  28.38000 4.27000 25.61700
H  31.17700 1.35300 28.26900
H  30.39400 0.04500 27.28300
H  31.13200 -0.35600 28.74400
H  28.71900 2.27000 33.28100
H  29.64200 -1.37100 35.68900
H  28.63600 -0.23600 36.69500
H  30.36600 -0.18500 36.74300
Mg -5.35400 24.61600 26.08000
C  -4.09100 26.05600 29.04900
C  -7.16600 22.45500 28.19000
C  -5.99800 22.76600 23.43500
C  -3.37200 26.77900 24.27100
N  -5.52600 24.33500 28.31700
C  -5.03300 25.10300 29.32900
C  -5.40100 24.66400 30.67100
C  -6.29900 23.35400 30.40300
C  -6.35100 23.38200 28.83700
C  -5.79500 21.96700 30.96500
C  -6.19300 25.81900 31.43300
C  -5.78200 25.99400 32.89200
H  -5.36200 24.76600 33.74400
N  -6.45200 22.86200 25.80400
C  -7.18700 22.19400 26.80000
C  -7.98100 21.15100 26.14400
C  -7.73000 21.27100 24.74500
C  -6.59700 22.28900 24.61600
C  -8.98500 20.29600 26.85700
C  -8.34200 20.49200 23.54700
O  -7.97900 20.67400 22.38300
C  -9.55400 19.53600 23.70700
N  -4.79600 24.88400 24.19200
C  -5.17700 23.88800 23.27600
C  -4.61800 24.25300 21.85700
C  -4.00200 25.62100 22.13800
C  -4.06700 25.79500 23.62200
C  -3.79400 23.12400 21.05000
C  -4.56600 26.79200 21.24600
C  -3.47200 27.35700 20.38500
N  -4.04300 26.26200 26.55400
C  -3.27000 26.96900 25.65700
C  -2.43200 27.94300 26.40900
C  -2.67500 27.59600 27.78400
C  -3.71600 26.56500 27.80900
C  -1.46400 28.98200 25.91700
C  -2.33600 27.84400 29.16400
O  -1.65700 28.71600 29.67600
C  -3.27400 26.81800 30.05700
C  -2.26000 26.00200 30.85500
O  -1.78900 24.97300 30.38000
O  -1.99500 26.56200 32.06400
C  -1.21000 25.83700 33.09800
H  -7.73200 21.82600 28.88000
H  -6.20800 22.18000 22.53800
H  -2.65600 27.31000 23.64000
H  -4.45500 24.46200 31.17300
H  -7.28900 23.47500 30.84300
H  -6.73700 21.53100 31.29900
H  -5.04300 21.90500 31.75200
H  -5.36200 21.24400 30.27400
H  -7.20600 25.41800 31.44100
H  -6.22900 26.79500 30.94900
H  -6.64500 26.44700 33.38000
H  -4.91700 26.65500 32.93900
H  -8.82900 19.26500 26.53700
H  -10.01500 20.65200 26.84700
H  -8.67700 20.22000 27.90000
H  -10.28800 20.12600 24.25500
H  -9.18700 18.70200 24.30500
H  -9.73700 19.11900 22.71700
H  -5.49800 24.56100 21.29300
H  -2.93300 25.43200 22.03100
H  -3.69000 22.30300 21.75900
H  -2.79000 23.38200 20.71400
H  -4.47500 22.91800 20.22400
H  -4.99000 27.57900 21.87000
H  -5.44300 26.58900 20.63000
H  -3.74700 27.34100 19.33000
H  -2.50600 26.88500 20.56000
H  -3.33400 28.39700 20.67800
H  -1.90300 29.97900 25.87800
H  -1.02400 28.62200 24.98700
H  -0.63700 29.07700 26.62100
H  -3.73100 27.51900 30.75400
H  -1.78600 25.86900 34.02300
H  -0.21000 26.23500 33.27100
H  -1.12500 24.75400 33.00400

