158

Mg 46.78400 44.80800 43.51400
C  43.36800 44.15900 42.96200
C  47.30800 41.41000 43.27400
C  50.07600 45.38700 43.41600
C  46.06600 48.22000 43.22400
N  45.42700 43.01800 43.18600
C  44.13200 43.00000 42.98900
C  43.64900 41.56600 42.67400
C  44.85800 40.72800 43.15400
C  45.94600 41.76200 43.30400
C  44.51000 40.01100 44.53600
C  43.09900 41.20100 41.23100
C  43.33300 42.16000 39.95700
H  43.15600 41.46600 38.61300
N  48.43000 43.54700 43.50100
C  48.45100 42.19500 43.34200
C  49.86200 41.80300 43.49700
C  50.73600 42.92200 43.45000
C  49.76400 44.03300 43.48100
C  50.35600 40.34700 43.57700
C  52.27500 42.96500 43.30900
O  52.88000 41.97500 42.97700
C  53.10100 44.22300 43.51800
N  47.89500 46.52200 43.10200
C  49.26800 46.51100 43.38400
C  49.78200 48.00000 43.52600
C  48.51600 48.83500 43.27400
C  47.38100 47.79500 43.23600
C  50.49800 48.32700 44.87500
C  48.63400 49.79100 42.08000
C  47.83000 51.07500 42.18700
N  45.10900 45.99900 43.07800
C  44.94100 47.35200 43.11100
C  43.44400 47.72100 42.99200
C  42.81600 46.49300 42.91200
C  43.83500 45.52300 43.02700
C  42.89300 49.09900 42.91800
C  41.56700 45.84300 42.71300
O  40.41700 46.26000 42.56700
C  41.84900 44.29900 42.90200
C  41.13100 43.80800 44.08200
O  40.25900 42.94900 44.16900
O  41.65300 44.43700 45.22600
C  41.15300 43.96900 46.48200
H  47.56000 40.34800 43.28000
H  51.09500 45.64800 43.70900
H  45.83600 49.28300 43.32500
H  42.80000 41.49100 43.35300
H  45.08300 39.94700 42.42700
H  45.19800 40.47700 45.24100
H  44.78000 38.97500 44.33500
H  43.47300 39.95700 44.87000
H  42.01200 41.13300 41.23700
H  43.48300 40.21100 40.98200
H  44.32300 42.61500 39.93800
H  42.51700 42.88300 39.97500
H  49.56800 39.84400 44.13700
H  51.16900 40.33900 44.30200
H  50.57200 39.96600 42.57900
H  53.07400 45.05900 42.81900
H  54.15300 43.93600 43.51300
H  52.90300 44.54400 44.54000
H  50.41000 48.01300 42.63500
H  48.35600 49.33600 44.22900
H  51.56800 48.42900 44.69500
H  50.43400 47.46000 45.53400
H  50.03200 49.16200 45.39900
H  48.38700 49.19600 41.20100
H  49.69400 50.02700 41.98800
H  46.97500 50.93900 41.52500
H  48.50400 51.87700 41.88500
H  47.46600 51.25300 43.19900
H  43.59500 49.82000 42.49900
H  42.74200 49.46900 43.93200
H  41.96200 49.05900 42.35300
H  41.42100 43.82900 42.01600
H  40.20600 44.49900 46.58000
H  41.84000 44.40100 47.20900
H  41.05000 42.89800 46.65500
Mg 37.17600 50.14100 24.73200
C  36.86100 48.52400 27.91600
C  36.17000 53.08100 26.27300
C  37.29600 51.49600 21.72800
C  37.61600 46.96600 23.33600
N  36.53600 50.75500 26.89600
C  36.61400 49.93500 28.06100
C  36.24000 50.74000 29.34800
C  35.91400 52.19100 28.76300
C  36.19200 52.02700 27.21100
C  34.56000 52.75400 29.20200
C  37.34100 50.78800 30.39900
C  37.09500 50.01600 31.72100
H  35.80300 50.32900 32.36100
N  36.72200 52.02800 24.04100
C  36.41000 53.12400 24.80600
C  36.37700 54.27100 23.95500
C  36.76900 53.79600 22.67500
C  36.97900 52.38900 22.76500
C  36.02900 55.75200 24.40400
C  37.00300 54.61400 21.34300
O  37.58800 54.14700 20.35900
C  36.62300 56.04600 21.21000
N  37.34700 49.31700 22.87600
C  37.50900 50.10700 21.83400
C  37.78400 49.25200 20.51900
C  38.07300 47.88300 21.08400
C  37.64000 48.01500 22.51900
C  36.62100 49.29800 19.40700
C  39.61000 47.49600 21.06400
C  40.15700 46.24600 20.43400
N  37.25700 48.13300 25.37800
C  37.48500 46.90100 24.72300
C  37.60300 45.78900 25.65100
C  37.34500 46.42200 26.86900
C  37.14800 47.80400 26.68600
C  37.75300 44.40800 25.36500
C  37.34200 46.09600 28.29800
O  37.57100 45.01400 28.93500
C  36.95300 47.43200 28.98700
C  35.62600 47.27900 29.62100
O  34.52300 47.57400 29.13700
O  35.81200 46.47600 30.79600
C  34.60100 45.97200 31.46400
H  35.88500 54.06800 26.64200
H  37.43700 51.93700 20.73900
H  37.82700 46.03300 22.80800
H  35.38600 50.26500 29.83100
H  36.57700 52.99600 29.07800
H  33.89900 52.01900 29.66100
H  34.03000 52.90900 28.26200
H  34.64400 53.65100 29.81400
H  37.51900 51.80600 30.74600
H  38.28500 50.35700 30.06500
H  37.85400 50.25600 32.46500
H  37.20300 48.94100 31.57400
H  35.68300 55.92300 25.42300
H  35.33900 56.11500 23.64200
H  36.94400 56.34400 24.37400
H  36.77400 56.63800 22.11300
H  35.53800 56.01800 21.11600
H  37.18500 56.52300 20.40700
H  38.67500 49.76700 20.16200
H  37.45300 47.11800 20.61700
H  36.90600 49.81600 18.49100
H  35.78400 49.87500 19.79900
H  36.18500 48.31800 19.21300
H  39.97600 47.43500 22.08900
H  40.23500 48.28600 20.64600
H  40.00300 45.44700 21.15900
H  41.21900 46.30500 20.19600
H  39.64700 46.19100 19.47200
H  38.40000 44.25400 24.50100
H  36.81900 43.89000 25.14900
H  38.18400 43.88400 26.21800
H  37.64400 47.72100 29.77900
H  34.05200 46.71900 32.03700
H  34.63800 45.10000 32.11600
H  33.81600 45.73500 30.74500

