158

Mg 28.17400 56.54800 40.24200
C  25.99800 53.85200 39.55300
C  30.71600 54.57600 39.11100
C  30.10700 59.41000 39.76500
C  25.41000 58.60100 40.63200
N  28.22900 54.47900 39.23800
C  27.29100 53.53800 39.16300
C  27.81200 52.22000 38.54000
C  29.38100 52.37900 38.81300
C  29.49700 53.90700 39.04500
C  29.99500 51.54600 40.03200
C  27.39100 52.10800 37.00900
C  27.08200 53.35500 36.15000
H  27.30500 53.33400 34.70100
N  30.14900 56.94600 39.69100
C  31.02900 55.93500 39.31700
C  32.36100 56.56600 39.08000
C  32.21100 57.99300 39.29400
C  30.80600 58.19700 39.58900
C  33.54700 55.77700 38.57200
C  33.27800 59.05500 39.05600
O  34.34400 58.75400 38.58400
C  33.14600 60.44800 39.39800
N  27.86900 58.62200 40.23100
C  28.80800 59.62700 39.99800
C  28.20700 60.99300 40.13800
C  26.71900 60.73000 40.13300
C  26.62300 59.19800 40.38100
C  28.78800 61.81800 41.30400
C  25.91800 61.02000 38.78400
C  24.88000 62.16500 38.64000
N  26.09400 56.28300 40.20500
C  25.14000 57.23600 40.52400
C  23.86400 56.45700 40.77400
C  24.13600 55.13900 40.33900
C  25.51800 55.12500 40.01800
C  22.52700 56.95400 41.27300
C  23.67600 53.80000 40.13600
O  22.54500 53.35000 40.26900
C  24.82900 52.98800 39.60800
C  24.97300 51.83700 40.51900
O  24.49700 50.71300 40.44200
O  25.88200 52.11000 41.51800
C  26.19800 51.01700 42.48100
H  31.57000 53.92100 38.92400
H  30.62800 60.35500 39.60200
H  24.53000 59.23700 40.75000
H  27.44200 51.36200 39.10200
H  29.97400 52.08700 37.94700
H  29.97100 50.47100 39.85800
H  29.62000 51.79600 41.02500
H  31.06900 51.71700 39.96500
H  26.52500 51.44800 36.94900
H  28.20600 51.53600 36.56600
H  27.56000 54.21800 36.61400
H  26.01600 53.55700 36.25200
H  34.18100 56.26100 37.82900
H  33.23100 54.85800 38.07700
H  34.19700 55.56600 39.42100
H  32.83200 60.48200 40.44200
H  32.46700 60.94000 38.70100
H  34.03600 61.07100 39.31100
H  28.40300 61.56800 39.23300
H  26.24100 61.34500 40.89600
H  28.95900 62.85800 41.02200
H  29.68400 61.27400 41.60300
H  28.06800 61.58500 42.08700
H  25.34700 60.12300 38.54500
H  26.59900 61.13800 37.94100
H  24.76800 62.72300 39.56900
H  23.90500 61.77300 38.34900
H  25.35400 62.87100 37.95800
H  21.79800 56.93300 40.46200
H  22.75800 57.97400 41.58000
H  22.27100 56.28400 42.09300
H  24.71900 52.47300 38.65400
H  25.38200 50.96400 43.20200
H  27.16900 51.34400 42.85300
H  26.36600 50.02900 42.05300
Mg 26.66000 50.17200 25.91400
C  24.72000 51.38400 28.63100
C  28.80600 48.62200 28.16500
C  28.15600 48.86400 23.34600
C  24.43500 51.92000 23.79800
N  26.72200 50.07900 28.08500
C  25.79800 50.56600 28.99200
C  26.24600 50.22700 30.41600
C  27.69600 49.59800 30.21700
C  27.80200 49.47300 28.72800
C  28.90000 50.38500 30.85100
C  25.22000 49.31500 31.20700
C  24.66100 49.74900 32.54600
H  24.33800 48.81400 33.74300
N  28.44600 49.06600 25.74200
C  29.11100 48.50200 26.80100
C  30.20800 47.78900 26.27200
C  29.94100 47.62500 24.83700
C  28.78200 48.48800 24.57200
C  31.35600 47.31700 27.08200
C  30.77000 46.98400 23.86500
O  30.55200 47.10500 22.66200
C  31.96600 46.24800 24.25800
N  26.45300 50.48600 23.89000
C  27.04300 49.67900 23.03100
C  26.61900 49.82600 21.55300
C  25.37400 50.76500 21.76100
C  25.44500 51.14500 23.25500
C  27.77300 50.32800 20.66300
C  23.90100 50.09500 21.60300
C  22.95800 50.87600 20.67800
N  25.08800 51.59600 26.09200
C  24.22200 52.09400 25.12600
C  23.11900 52.76700 25.82600
C  23.28200 52.51400 27.16100
C  24.45200 51.73200 27.28600
C  21.85700 53.31100 25.25800
C  22.59000 52.63200 28.44100
O  21.59900 53.24400 28.74300
C  23.58500 51.95600 29.43500
C  24.12300 52.86000 30.56400
O  25.24400 53.37500 30.57400
O  23.26000 52.95400 31.63100
C  23.54600 53.66100 32.87900
H  29.33600 47.95300 28.84700
H  28.57300 48.25700 22.54000
H  23.57100 52.24800 23.21500
H  26.34300 51.10200 31.05800
H  27.81000 48.63900 30.72200
H  29.50000 50.66000 29.98400
H  29.41800 49.79800 31.60900
H  28.53000 51.30400 31.30500
H  25.70000 48.33800 31.27300
H  24.34000 49.26800 30.56500
H  23.65700 50.14300 32.38800
H  25.27900 50.52500 32.99800
H  32.27000 47.68000 26.61200
H  31.30000 46.22900 27.10500
H  31.34200 47.75900 28.07900
H  32.13600 45.81900 25.24600
H  32.74900 46.92900 23.92600
H  32.06400 45.44200 23.53100
H  26.16100 48.94400 21.10700
H  25.59400 51.64000 21.14900
H  28.75400 50.07500 21.06500
H  27.85300 51.40600 20.52100
H  27.69500 50.04200 19.61400
H  23.37300 50.04800 22.55600
H  24.05800 49.07900 21.24200
H  22.81500 50.17700 19.85400
H  23.35900 51.82600 20.32700
H  21.96200 51.11800 21.04700
H  21.55400 52.83400 24.32600
H  21.95400 54.37800 25.05700
H  21.05200 53.05400 25.94600
H  23.03900 51.12600 29.88200
H  23.52200 52.95700 33.71100
H  22.83800 54.48500 32.96500
H  24.53400 54.12000 32.91900

