158

Mg 23.74000 -5.80300 45.43100
C  26.09400 -3.58800 43.79500
C  21.43600 -4.57100 43.21600
C  21.91500 -8.49800 46.07900
C  26.45800 -7.24000 47.09100
N  23.80400 -4.23700 43.75700
C  24.86500 -3.50200 43.21200
C  24.39500 -2.64600 41.99300
C  22.82600 -2.62000 42.24800
C  22.64600 -3.94500 43.09300
C  22.30100 -1.34400 42.96500
C  24.88000 -3.18700 40.61100
C  25.53200 -2.30200 39.43800
H  24.94200 -2.37200 38.03800
N  21.87700 -6.43600 44.76500
C  21.00700 -5.75500 43.88100
C  19.70500 -6.42900 43.91500
C  19.83900 -7.64400 44.68400
C  21.26400 -7.57500 45.18200
C  18.57500 -5.82100 43.15900
C  18.80600 -8.74300 44.87500
O  17.64600 -8.47300 44.49400
C  18.94400 -9.98200 45.75300
N  24.11500 -7.71400 46.45500
C  23.19300 -8.59800 46.64500
C  23.67300 -9.82500 47.55100
C  25.12700 -9.26100 47.95400
C  25.28000 -8.00000 47.14500
C  22.67000 -10.15300 48.79600
C  26.26600 -10.30500 47.72300
C  27.16800 -10.61800 48.95200
N  25.80100 -5.42000 45.62800
C  26.72700 -6.09200 46.34300
C  27.99400 -5.42400 46.13300
C  27.85000 -4.49600 45.19500
C  26.48600 -4.52000 44.86300
C  29.32300 -5.86500 46.71000
C  28.51600 -3.49600 44.34900
O  29.77600 -3.35400 44.18200
C  27.36500 -2.80600 43.50000
C  27.33200 -1.39200 43.97500
O  26.54300 -0.90400 44.75300
O  28.19300 -0.58600 43.24800
C  27.70400 0.82600 43.11200
H  20.62100 -4.23300 42.57300
H  21.36300 -9.41100 46.31000
H  27.23800 -7.84100 47.56300
H  24.84300 -1.66200 42.12600
H  22.30300 -2.77200 41.30400
H  21.38000 -0.94100 42.54500
H  23.04700 -0.56900 43.14100
H  22.05700 -1.54600 44.00800
H  23.97200 -3.53800 40.12000
H  25.45600 -4.09100 40.80700
H  26.59100 -2.56100 39.40900
H  25.54000 -1.26200 39.76300
H  18.40600 -6.09600 42.11800
H  18.71000 -4.74600 43.27900
H  17.61900 -6.00700 43.64800
H  18.03200 -10.57000 45.85000
H  19.24300 -9.54500 46.70600
H  19.74400 -10.61600 45.37100
H  23.59800 -10.72000 46.93300
H  25.02400 -8.93800 48.99000
H  22.00500 -9.30200 48.94600
H  23.11700 -10.12500 49.79000
H  22.10300 -11.08000 48.71800
H  26.98400 -9.90400 47.00800
H  25.82200 -11.25300 47.42100
H  28.19800 -10.56900 48.59900
H  26.99800 -11.64000 49.29000
H  26.90700 -9.97200 49.79000
H  29.87300 -6.59800 46.12100
H  29.08600 -6.29700 47.68200
H  29.88900 -4.93400 46.76300
H  27.63400 -2.80300 42.44300
H  26.62400 0.81500 42.96400
H  28.03500 1.21800 42.15000
H  28.01500 1.40600 43.98000
Mg -1.59600 35.19600 27.28200
C  -3.73600 33.12600 29.33000
C  -0.80900 36.97600 30.10900
C  0.24500 37.20500 25.26800
C  -2.59600 33.30200 24.58400
N  -2.23900 35.03400 29.44500
C  -2.86500 33.97300 30.04200
C  -2.71000 34.02300 31.57600
C  -2.04200 35.45200 31.84700
C  -1.59200 35.78600 30.43500
C  -2.95700 36.57000 32.35400
C  -1.92600 32.84500 32.23500
C  -2.65600 32.10200 33.37500
H  -1.96600 31.86300 34.75600
N  -0.60700 36.92500 27.61100
C  -0.32600 37.48000 28.87600
C  0.53300 38.62700 28.67000
C  0.85600 38.72700 27.28500
C  0.17800 37.59100 26.69900
C  0.89000 39.55000 29.83800
C  1.64300 39.81100 26.46900
O  1.68300 39.82400 25.25700
C  2.37100 40.96200 27.12000
N  -1.20200 35.22400 25.20500
C  -0.38600 36.15600 24.61900
C  -0.37800 35.93700 23.05200
C  -1.11500 34.57400 22.93300
C  -1.74200 34.36100 24.30000
C  -1.02100 37.11800 22.07300
C  -0.09800 33.43500 22.41700
C  0.51300 32.49900 23.44800
N  -2.93800 33.57300 26.94200
C  -3.24300 32.90800 25.77200
C  -4.21000 31.84800 26.04400
C  -4.40100 31.93100 27.42700
C  -3.61400 32.99400 27.95400
C  -4.94800 30.97200 25.06300
C  -5.02800 31.24500 28.49100
O  -5.81800 30.32300 28.51900
C  -4.55500 31.97200 29.79300
C  -5.74800 32.38600 30.57100
O  -6.75800 32.93000 30.19400
O  -5.59800 32.00600 31.85300
C  -6.67700 32.20100 32.86000
H  -0.42000 37.40400 31.03500
H  0.88000 37.80500 24.61200
H  -2.79000 32.84400 23.61100
H  -3.73100 34.05800 31.95400
H  -1.24300 35.35600 32.58200
H  -2.59000 36.89900 33.32600
H  -3.92600 36.11200 32.55400
H  -3.03600 37.45600 31.72400
H  -0.96800 33.31900 32.45000
H  -1.73900 32.12500 31.43800
H  -2.67800 31.04900 33.09300
H  -3.70300 32.39900 33.43700
H  1.95800 39.58100 30.05100
H  0.49500 39.25800 30.81100
H  0.63700 40.59200 29.64200
H  1.70300 41.46800 27.81700
H  2.67400 41.62200 26.30700
H  3.22700 40.65700 27.72100
H  0.65900 35.85100 22.72900
H  -1.95500 34.64900 22.24300
H  -1.45400 37.87200 22.73200
H  -1.88500 36.87700 21.45400
H  -0.21600 37.59100 21.51000
H  0.81700 33.96900 22.16200
H  -0.50600 32.91600 21.55000
H  1.55500 32.78300 23.59600
H  0.38600 31.47000 23.11000
H  -0.13800 32.57900 24.31800
H  -5.90200 30.66700 25.49400
H  -4.23900 30.16700 24.86600
H  -5.15200 31.63700 24.22300
H  -3.84700 31.30800 30.29000
H  -7.43500 32.84800 32.41900
H  -6.25000 32.71900 33.71800
H  -7.03300 31.20600 33.12600

