158

Mg -2.17100 17.12800 26.63200
C  -2.90100 14.96100 29.29000
C  -2.97500 19.81500 28.81100
C  -2.00100 19.16800 24.06000
C  -2.11000 14.38600 24.49700
N  -2.78800 17.37800 28.82000
C  -3.04800 16.27200 29.70900
C  -3.50900 16.83100 31.01900
C  -3.44600 18.35300 30.87900
C  -3.04900 18.56200 29.43000
C  -4.69900 19.14800 31.21500
C  -2.83300 15.99500 32.20300
C  -2.63800 16.78300 33.54000
H  -2.50800 15.93400 34.84200
N  -2.36800 19.25200 26.51400
C  -2.61000 20.15200 27.52800
C  -2.37900 21.46300 26.94700
C  -2.16000 21.34400 25.56200
C  -2.22000 19.89400 25.27700
C  -2.62400 22.70000 27.80000
C  -1.86600 22.32700 24.59300
O  -1.59900 22.06400 23.40500
C  -1.82000 23.82500 24.86800
N  -2.23200 16.82900 24.57700
C  -2.07300 17.82400 23.70700
C  -1.81300 17.37100 22.28400
C  -1.55600 15.86600 22.52500
C  -1.94600 15.66400 23.96500
C  -2.95800 17.64600 21.29700
C  -0.16300 15.33600 22.15200
C  0.97700 15.77400 23.12800
N  -2.37400 15.09600 26.83000
C  -2.31000 14.11300 25.84900
C  -2.67100 12.83900 26.51600
C  -2.79800 13.12100 27.86100
C  -2.63500 14.50700 27.99300
C  -2.86100 11.53000 25.92900
C  -3.09300 12.57400 29.11200
O  -3.30600 11.41000 29.41100
C  -3.00900 13.67100 30.10200
C  -1.78300 13.43400 30.90700
O  -0.62300 13.79900 30.68600
O  -2.17700 12.60400 32.03800
C  -1.14400 12.32100 33.03600
H  -3.08700 20.68100 29.46700
H  -1.93600 19.76400 23.14800
H  -1.90800 13.49400 23.90000
H  -4.56900 16.57900 31.05300
H  -2.55400 18.71300 31.39300
H  -4.61500 20.07800 31.77800
H  -5.15000 18.55400 32.00900
H  -5.38500 19.35600 30.39400
H  -1.77600 15.81900 32.00500
H  -3.37100 15.08500 32.46700
H  -3.38100 17.55700 33.73600
H  -1.63800 17.21500 33.50300
H  -1.69000 23.13200 28.16000
H  -3.24300 22.57800 28.68900
H  -3.08300 23.40500 27.10700
H  -1.75100 24.48100 24.00000
H  -1.07800 23.96900 25.65300
H  -2.80200 24.18000 25.18100
H  -0.86200 17.81100 21.98300
H  -2.19700 15.18500 21.96400
H  -2.81400 17.05500 20.39300
H  -2.78500 18.66000 20.93700
H  -3.90300 17.50100 21.82100
H  0.08100 15.54300 21.11000
H  -0.26400 14.25300 22.08900
H  0.70900 16.05200 24.14700
H  1.39200 16.65200 22.63500
H  1.62500 14.90200 23.22000
H  -2.44700 10.84200 26.66600
H  -2.43700 11.51200 24.92500
H  -3.92700 11.32700 25.82300
H  -3.85500 13.54700 30.77900
H  -1.66400 12.03100 33.94900
H  -0.43100 13.11800 33.24700
H  -0.59600 11.46500 32.64400
Mg 24.71400 -4.63300 46.18400
C  26.50500 -2.31900 44.21400
C  21.81000 -3.75300 44.33600
C  23.21100 -7.39800 47.30200
C  27.72200 -5.49300 47.60500
N  24.33200 -3.18600 44.46300
C  25.16000 -2.29200 43.87000
C  24.41000 -1.44500 42.84400
C  22.95300 -1.54500 43.42700
C  23.02000 -2.98300 44.12200
C  22.47500 -0.48500 44.47100
C  24.51400 -2.10600 41.50400
C  25.30700 -1.41600 40.42700
H  25.03300 -2.02400 38.99700
N  22.77700 -5.46200 45.86900
C  21.68100 -4.93800 45.14500
C  20.51600 -5.73500 45.31100
C  20.90900 -6.78500 46.19200
C  22.34400 -6.54000 46.50200
C  19.14000 -5.48200 44.64200
C  19.92000 -7.83000 46.82000
O  18.80900 -7.93900 46.42900
C  20.36100 -8.75800 47.90000
N  25.46400 -6.35600 47.20000
C  24.59800 -7.29900 47.55700
C  25.34900 -8.37300 48.37200
C  26.82200 -7.74900 48.53600
C  26.69500 -6.45500 47.76300
C  24.63900 -8.75500 49.66800
C  27.88600 -8.54800 47.69200
C  28.90700 -9.18600 48.54700
N  26.67200 -4.01100 46.11300
C  27.79100 -4.29300 46.86600
C  29.01400 -3.60300 46.38700
C  28.51300 -2.73900 45.36600
C  27.06600 -3.07600 45.23000
C  30.49700 -3.81300 46.91600
C  28.84900 -1.67700 44.41600
O  29.92600 -1.15700 44.11900
C  27.54400 -1.34900 43.66100
C  27.31700 0.11700 43.65100
O  26.79800 0.69100 44.57500
O  27.87200 0.61800 42.53500
C  27.70100 2.02500 42.20500
H  20.99700 -3.40600 43.69500
H  22.67400 -8.25200 47.72000
H  28.70300 -5.83800 47.93700
H  24.90700 -0.47600 42.86600
H  22.23200 -1.58500 42.61100
H  23.15600 0.36100 44.38000
H  22.51000 -0.80500 45.51200
H  21.46500 -0.09900 44.33000
H  23.49300 -2.26500 41.15800
H  24.91500 -3.11200 41.63000
H  26.38900 -1.50700 40.51500
H  25.14200 -0.33900 40.45600
H  18.90200 -4.42900 44.48800
H  18.25300 -5.91500 45.10400
H  19.07700 -5.95400 43.66200
H  21.04700 -9.55100 47.60000
H  19.47100 -9.29300 48.23200
H  20.65900 -8.13800 48.74500
H  25.33700 -9.26200 47.74100
H  27.15100 -7.58500 49.56200
H  23.69600 -8.25600 49.88900
H  25.24600 -8.45100 50.52100
H  24.50100 -9.83000 49.78000
H  28.41900 -8.04700 46.88500
H  27.52000 -9.47100 47.24000
H  28.61900 -10.20000 48.82400
H  28.99500 -8.53000 49.41400
H  29.82400 -9.28300 47.96700
H  30.78800 -3.15000 47.73100
H  31.21100 -3.64700 46.10900
H  30.53500 -4.86700 47.19400
H  27.76000 -1.52300 42.60600
H  26.92400 2.41400 42.86300
H  27.51000 2.25000 41.15600
H  28.62300 2.56800 42.41600

