158

Mg 24.99100 1.41300 29.81600
C  27.49800 1.29900 32.61600
C  22.60300 1.43100 32.06100
C  23.11400 1.21000 27.28200
C  27.94500 0.99100 27.67500
N  25.19200 1.23700 32.07900
C  26.16500 1.41500 32.96400
C  25.61500 1.50400 34.42400
C  24.10800 1.25000 34.16800
C  23.92800 1.40800 32.67400
C  23.41100 -0.11800 34.73700
C  25.98500 2.87000 35.16600
C  26.72700 2.67800 36.53400
H  26.43900 3.66600 37.69300
N  23.07400 1.29800 29.70100
C  22.17000 1.28200 30.70900
C  20.80900 1.10600 30.13200
C  21.03900 1.00500 28.76600
C  22.47100 1.15100 28.47100
C  19.56000 1.06900 31.07600
C  19.95200 0.82500 27.66100
O  20.19500 0.79800 26.48900
C  18.56600 0.71400 28.03700
N  25.50900 0.96600 27.72800
C  24.43000 1.26500 26.84600
C  24.84100 1.54000 25.34800
C  26.41700 1.38800 25.57100
C  26.70400 1.11700 27.10400
C  24.27700 0.44800 24.26900
C  27.17800 2.56800 25.10000
C  26.87700 3.91300 25.88000
N  27.28400 1.06800 30.02100
C  28.25800 0.90700 29.05300
C  29.53100 0.79200 29.72400
C  29.29900 0.95200 31.07400
C  27.89700 1.12200 31.24400
C  30.78300 0.56100 29.08800
C  29.83800 0.87300 32.43700
O  30.95400 0.56400 32.80300
C  28.73900 1.26100 33.44200
C  28.76000 0.26500 34.54700
O  28.31400 -0.83400 34.45200
O  29.43100 0.80600 35.61100
C  29.53000 -0.17600 36.79800
H  21.78400 1.44800 32.78300
H  22.49300 1.31800 26.39000
H  28.78900 0.90400 26.98700
H  26.05000 0.67800 34.98700
H  23.53100 2.06600 34.60200
H  23.20900 -0.73100 33.85900
H  22.43700 -0.05000 35.22200
H  24.22900 -0.57800 35.29100
H  25.14800 3.54500 35.34300
H  26.67500 3.47200 34.57400
H  27.80800 2.81000 36.58200
H  26.72800 1.70100 37.01600
H  18.95200 1.95800 30.90600
H  19.74400 1.06900 32.15000
H  18.80900 0.31100 30.85100
H  18.26100 1.62600 28.55100
H  18.36300 -0.15900 28.65700
H  17.94300 0.70900 27.14300
H  24.68700 2.55500 24.98300
H  26.75800 0.51700 25.01100
H  25.06700 0.00800 23.66100
H  23.51000 0.86400 23.61700
H  23.80700 -0.18700 25.02100
H  27.07800 2.85100 24.05200
H  28.24400 2.34900 25.16400
H  26.15100 3.76800 26.68100
H  26.52600 4.76200 25.29400
H  27.82000 4.12200 26.38500
H  31.17600 -0.45400 29.14400
H  31.55700 1.20300 29.50800
H  30.75200 0.82300 28.03000
H  29.02600 2.17400 33.96300
H  29.75500 -1.18200 36.44200
H  28.58900 -0.03600 37.33000
H  30.39000 -0.01900 37.45000
Mg 37.10600 49.92000 24.50900
C  37.40500 48.38300 27.55800
C  35.56100 52.52300 26.12100
C  36.58500 51.18100 21.47900
C  38.67900 47.08400 22.98200
N  36.65000 50.46400 26.67700
C  36.83700 49.63900 27.71100
C  36.37400 50.35300 29.05800
C  35.77300 51.69100 28.52600
C  36.00600 51.59000 27.04500
C  34.30200 51.91600 28.75400
C  37.64200 50.50500 29.95400
C  37.53000 49.81400 31.35400
H  36.24600 49.86800 32.16100
N  36.16400 51.64700 23.85100
C  35.61200 52.60600 24.66000
C  35.07800 53.67500 23.87100
C  35.33100 53.31000 22.50800
C  35.98100 51.95200 22.51900
C  34.55500 54.96600 24.43300
C  34.97300 54.09400 21.25000
O  35.23100 53.69800 20.09200
C  34.51400 55.56400 21.24300
N  37.44600 49.09400 22.38800
C  37.24700 49.90400 21.36600
C  37.64400 49.18400 20.02700
C  38.55600 48.06500 20.62700
C  38.24200 48.08600 22.12000
C  36.36800 48.79700 19.25800
C  39.99900 48.12800 20.29800
C  40.98700 48.60900 21.38100
N  37.80900 48.12700 25.08800
C  38.46700 47.10200 24.42300
C  38.95500 46.12800 25.32600
C  38.53800 46.56200 26.53500
C  37.90600 47.79900 26.34800
C  39.62100 44.87000 25.13800
C  38.53700 46.15300 27.91200
O  39.01100 45.25900 28.50900
C  37.78800 47.29500 28.60400
C  36.61300 46.72900 29.42200
O  35.42100 46.65800 29.02900
O  37.08900 46.43800 30.66100
C  36.32100 45.56200 31.54800
H  35.01700 53.36200 26.56000
H  36.44200 51.59900 20.48100
H  39.34200 46.28500 22.64300
H  35.64300 49.63200 29.42600
H  36.34900 52.57200 28.80700
H  34.18800 52.78500 29.40200
H  33.91000 51.11200 29.37700
H  33.67200 52.11600 27.88700
H  37.66100 51.56500 30.20800
H  38.50700 50.18200 29.37600
H  38.17700 50.41000 31.99800
H  37.89500 48.79300 31.24300
H  35.03300 55.81700 23.94700
H  34.80700 55.11800 25.48300
H  33.47200 54.92200 24.31700
H  33.43600 55.40300 21.21200
H  34.72600 55.99300 20.26400
H  34.95800 56.20300 22.00500
H  38.20400 49.92500 19.45600
H  38.22600 47.10100 20.23900
H  35.48400 49.06900 19.83400
H  36.34300 47.74400 18.97800
H  36.40800 49.41300 18.36000
H  40.17900 48.63500 19.35000
H  40.32200 47.09300 20.18600
H  41.28400 47.79200 22.03700
H  40.49900 49.34900 22.01600
H  41.81400 49.08900 20.85700
H  40.36400 45.06700 24.36500
H  38.91800 44.07800 24.87600
H  40.17800 44.68200 26.05500
H  38.53100 47.80300 29.21900
H  35.77000 44.80800 30.98700
H  35.54100 46.03600 32.14400
H  37.02200 44.96700 32.13400

