158

Mg 43.26700 41.72000 26.30100
C  42.29500 43.70200 29.07100
C  44.50100 39.50700 28.76800
C  44.51000 39.92700 23.87600
C  42.60800 44.34200 24.14400
N  43.21400 41.63500 28.71400
C  42.78400 42.52000 29.49300
C  43.01400 42.15400 30.93800
C  43.88300 40.83700 30.85400
C  43.92900 40.65900 29.36000
C  45.38100 40.94500 31.45400
C  41.71700 41.86900 31.70900
C  41.66600 41.67500 33.26400
H  40.96400 42.81900 34.15900
N  44.31000 39.92700 26.26400
C  44.72700 39.17700 27.37900
C  45.28200 37.92400 26.84900
C  45.19800 38.04800 25.43400
C  44.64300 39.36000 25.12200
C  45.92000 36.86300 27.78700
C  45.55400 36.96200 24.34300
O  45.49600 37.09100 23.12000
C  45.99300 35.63000 24.83900
N  43.73300 42.18300 24.29400
C  44.17400 41.15000 23.48200
C  43.93200 41.57600 21.98900
C  43.35900 43.02500 22.05400
C  43.24600 43.21000 23.57400
C  45.19100 41.47000 21.02400
C  42.07500 43.26500 21.18500
C  41.95300 42.70200 19.76500
N  42.58800 43.58300 26.49900
C  42.32400 44.52600 25.52200
C  41.53300 45.58500 26.14800
C  41.56300 45.28600 27.51500
C  42.24600 44.10000 27.71900
C  40.85900 46.68200 25.46700
C  41.03800 45.77600 28.75800
O  40.44900 46.76900 29.11600
C  41.58400 44.78900 29.84100
C  42.54300 45.60400 30.63900
O  43.75100 45.84800 30.32700
O  41.92400 45.89100 31.78400
C  42.57100 46.92800 32.64800
H  44.91700 38.79800 29.48800
H  44.54200 39.30400 22.98000
H  42.37600 45.12300 23.41700
H  43.55300 43.02400 31.31300
H  43.25900 40.08500 31.33700
H  45.54600 41.87800 31.99300
H  46.10800 40.95300 30.64300
H  45.60800 40.08100 32.08000
H  41.24900 40.97100 31.30600
H  41.03600 42.68700 31.47400
H  42.64500 41.55400 33.72800
H  41.11500 40.76200 33.49200
H  45.88500 35.81000 27.50700
H  45.30000 36.79900 28.68100
H  46.89900 37.24800 28.07300
H  46.79400 35.81000 25.55600
H  46.36600 34.94100 24.08100
H  45.10300 35.24500 25.33500
H  43.19700 40.93000 21.50800
H  44.09800 43.80500 21.86900
H  44.97400 40.70600 20.27700
H  46.04600 41.16800 21.63000
H  45.38700 42.45400 20.60000
H  41.78200 44.31400 21.15400
H  41.31300 42.81400 21.82100
H  42.89800 42.29200 19.41000
H  41.60800 43.49600 19.10200
H  41.25800 41.87500 19.61700
H  41.58000 47.31100 24.94300
H  40.44100 47.29400 26.26600
H  40.04000 46.29000 24.86400
H  40.64900 44.47600 30.30800
H  41.80000 47.64800 32.91800
H  43.47200 47.33700 32.18900
H  42.83800 46.36200 33.54100
Mg -12.39500 37.92900 42.79700
C  -10.03400 35.46600 41.67400
C  -10.35100 40.26400 41.21100
C  -14.88600 40.00400 43.00900
C  -14.32300 35.22600 43.99100
N  -10.47700 37.80100 41.51000
C  -9.62000 36.71000 41.30200
C  -8.37200 37.04400 40.52200
C  -8.50700 38.60800 40.53200
C  -9.83000 38.94300 41.19400
C  -7.31500 39.26500 41.25700
C  -8.39000 36.32600 39.12500
C  -7.27400 35.30300 38.78100
H  -6.30600 35.56000 37.59000
N  -12.55400 39.91700 42.29400
C  -11.65000 40.75700 41.62800
C  -12.28400 42.13300 41.53800
C  -13.59200 42.02600 42.14000
C  -13.72700 40.60800 42.46200
C  -11.60500 43.34600 40.96400
C  -14.62300 43.13400 42.37300
O  -14.23000 44.27100 42.09400
C  -16.01200 43.03300 42.83500
N  -14.37800 37.60900 43.27300
C  -15.16700 38.66700 43.38000
C  -16.54900 38.16900 43.74100
C  -16.29400 36.78400 44.46300
C  -14.92500 36.45600 43.89300
C  -17.39200 39.14700 44.57600
C  -17.44700 35.73900 44.46200
C  -17.84500 35.40200 45.93100
N  -12.24000 35.75200 42.95000
C  -13.11200 34.81300 43.47600
C  -12.49800 33.47600 43.39500
C  -11.30800 33.69100 42.68400
C  -11.19900 35.09300 42.42000
C  -13.13000 32.20900 43.94300
C  -10.13800 33.01700 42.13200
O  -9.79800 31.88100 42.18900
C  -9.24600 34.15800 41.55200
C  -7.95300 34.17300 42.26200
O  -6.99300 33.52500 41.97200
O  -7.92300 35.14600 43.28700
C  -6.65500 35.59600 43.87300
H  -9.71000 40.97800 40.68800
H  -15.76200 40.65500 42.98200
H  -14.85900 34.38900 44.44200
H  -7.58600 36.63500 41.15700
H  -8.58600 38.92900 39.49400
H  -6.39300 38.69800 41.12600
H  -7.58900 39.35100 42.30800
H  -7.16500 40.19000 40.70000
H  -8.36400 37.08200 38.34000
H  -9.39600 35.90400 39.11900
H  -7.79300 34.36100 38.60500
H  -6.67900 35.17900 39.68600
H  -11.94600 43.71800 39.99800
H  -10.55000 43.10000 40.84200
H  -11.66000 44.10100 41.74800
H  -16.68500 42.64300 42.07200
H  -16.42100 44.02800 43.00800
H  -16.01900 42.52400 43.79900
H  -17.15500 37.86800 42.88700
H  -15.97000 36.95600 45.49000
H  -16.80700 40.05800 44.70400
H  -17.67900 38.69700 45.52600
H  -18.33700 39.46500 44.13500
H  -17.18900 34.79900 43.97300
H  -18.39100 36.18300 44.14800
H  -17.69100 34.35000 46.16900
H  -18.89800 35.43300 46.21300
H  -17.32900 36.04900 46.64000
H  -14.17200 32.41400 44.18700
H  -12.44900 31.86900 44.72300
H  -13.06000 31.40300 43.21200
H  -9.00800 33.91300 40.51700
H  -5.84300 34.87500 43.78600
H  -6.78000 35.85800 44.92400
H  -6.48700 36.56900 43.41100

