158

Mg 49.50100 35.77400 27.00800
C  47.02800 34.78100 29.29100
C  50.20400 38.50800 28.66000
C  51.63200 36.54100 24.51300
C  48.14800 33.21800 24.83600
N  48.68900 36.46500 28.76300
C  47.74900 35.92400 29.62400
C  47.52400 36.87300 30.81600
C  48.35800 38.15600 30.44000
C  49.25900 37.67100 29.25500
C  47.50600 39.46900 30.27200
C  47.86500 36.30600 32.22000
C  46.66500 36.20500 33.14600
H  46.48500 37.51200 33.92800
N  50.89900 37.29900 26.75000
C  51.10200 38.26800 27.58200
C  52.22600 39.08300 27.13300
C  52.65600 38.55800 25.86900
C  51.71200 37.48700 25.62700
C  52.66100 40.30300 27.84100
C  53.80700 38.96600 25.01400
O  54.15600 38.36400 23.97200
C  54.73700 40.11600 25.49000
N  49.65800 35.06300 24.93200
C  50.72800 35.56400 24.20400
C  50.99100 34.71300 22.88900
C  50.11700 33.40400 23.26500
C  49.22600 33.92200 24.33300
C  50.71900 35.27000 21.48600
C  50.97000 32.21200 23.74900
C  51.25400 31.12800 22.75600
N  47.96600 34.16000 26.99100
C  47.51000 33.25700 26.07200
C  46.37900 32.50200 26.64900
C  46.09500 33.14900 27.85000
C  47.14200 34.11500 28.07700
C  45.73800 31.22100 26.03900
C  45.25200 33.13500 28.97500
O  44.30900 32.44800 29.25200
C  45.85200 34.15100 29.95500
C  46.05900 33.42600 31.26200
O  47.10100 32.86800 31.66600
O  44.84100 33.50700 31.95800
C  44.90200 33.00700 33.36100
H  50.40600 39.46400 29.14600
H  52.41500 36.72700 23.77400
H  47.85000 32.39400 24.18400
H  46.44000 36.98700 30.79700
H  49.04700 38.30100 31.27300
H  47.89200 39.92800 29.36200
H  47.68900 40.14800 31.10500
H  46.46100 39.21400 30.09700
H  48.63800 36.91600 32.68700
H  48.30000 35.32000 32.05100
H  46.79400 35.36200 33.82400
H  45.75300 35.97800 32.59500
H  53.72200 40.27700 28.08900
H  52.22500 40.38900 28.83600
H  52.48600 41.18400 27.22200
H  54.15200 41.03500 25.54200
H  55.59000 40.16200 24.81300
H  55.04700 39.89400 26.51100
H  52.02000 34.35200 22.86900
H  49.48300 33.03900 22.45600
H  51.57600 35.14800 20.82400
H  50.63900 36.33900 21.68200
H  49.84300 34.84400 20.99600
H  50.46100 31.64900 24.53200
H  51.97800 32.47000 24.07200
H  50.76100 31.24300 21.79100
H  50.87700 30.16300 23.09400
H  52.31000 31.07300 22.49000
H  46.45900 30.41300 26.16600
H  45.62200 31.41700 24.97300
H  44.77600 30.96400 26.48200
H  45.17200 34.98700 30.12300
H  45.86600 32.75000 33.80000
H  44.33400 32.07900 33.29100
H  44.40800 33.72100 34.02000
Mg -11.80700 37.49600 41.85700
C  -9.31700 35.15400 40.92400
C  -9.65000 39.98700 40.62200
C  -14.33100 39.47300 42.11500
C  -13.81400 34.82100 42.95400
N  -9.72700 37.49000 40.90100
C  -8.92800 36.45400 40.60600
C  -7.65900 36.94400 39.92300
C  -7.59400 38.52800 40.15700
C  -9.05000 38.70300 40.65100
C  -6.50500 39.00100 41.13500
C  -7.66300 36.53300 38.42100
C  -6.40600 35.79500 37.84600
H  -5.90900 36.25900 36.45300
N  -12.01700 39.44300 41.41600
C  -11.02600 40.33900 40.91700
C  -11.71200 41.59000 40.74800
C  -12.99800 41.50100 41.29200
C  -13.12500 40.11500 41.64500
C  -10.99500 42.81000 40.16900
C  -14.05700 42.58400 41.27200
O  -13.77700 43.70200 40.97200
C  -15.47300 42.27900 41.63500
N  -13.86900 37.15700 42.29900
C  -14.68100 38.18800 42.38600
C  -15.98000 37.79600 43.00400
C  -15.85000 36.28200 43.33800
C  -14.44900 36.03300 42.87000
C  -16.47900 38.68500 44.17700
C  -16.85700 35.32400 42.62500
C  -17.71800 34.42400 43.54200
N  -11.62700 35.51600 41.94300
C  -12.49400 34.55800 42.50000
C  -11.95300 33.24600 42.43300
C  -10.78000 33.45100 41.74500
C  -10.53700 34.88000 41.57600
C  -12.47400 31.92500 42.91200
C  -9.47000 32.80000 41.27200
O  -9.14900 31.62800 41.24300
C  -8.60400 33.82700 40.70200
C  -7.32700 33.64600 41.40100
O  -6.46100 32.88100 41.03400
O  -7.28000 34.54100 42.47100
C  -5.98200 34.45800 43.13900
H  -9.07900 40.77100 40.12000
H  -15.25900 40.04100 42.20300
H  -14.48800 34.03400 43.30000
H  -6.85900 36.39500 40.41900
H  -7.40400 39.03500 39.21100
H  -5.58400 38.42900 41.01800
H  -6.72600 38.89500 42.19700
H  -6.28900 40.04300 40.90100
H  -8.05500 37.42900 37.94000
H  -8.47600 35.80800 38.39200
H  -6.66100 34.73600 37.88100
H  -5.51900 35.86100 38.47600
H  -11.44300 43.05500 39.20700
H  -9.92500 42.61900 40.07900
H  -11.09100 43.67100 40.83100
H  -16.00900 43.22800 41.61900
H  -15.62000 41.95500 42.66600
H  -15.95800 41.63300 40.90400
H  -16.67800 37.84800 42.16800
H  -15.61500 36.04300 44.37500
H  -17.44000 39.03800 43.80200
H  -15.76800 39.48200 44.39200
H  -16.68700 38.01700 45.01200
H  -16.29300 34.65500 41.97600
H  -17.66200 35.82700 42.09000
H  -18.77500 34.69000 43.54600
H  -17.31300 34.76500 44.49400
H  -17.47800 33.36200 43.48200
H  -11.76000 31.37500 43.52500
H  -12.79900 31.36800 42.03400
H  -13.27200 32.08400 43.63700
H  -8.47400 33.64600 39.63500
H  -5.28000 34.61200 42.32000
H  -5.87200 33.43600 43.50300
H  -6.07300 35.13700 43.98600

