158

Mg 25.98000 -0.21700 29.52800
C  27.73400 -0.64300 32.60300
C  23.14800 0.18000 31.28500
C  24.43400 -0.24100 26.55300
C  28.96100 -1.04900 27.91500
N  25.56700 -0.24200 31.71800
C  26.39100 -0.35000 32.82800
C  25.65400 -0.05000 34.14200
C  24.14400 0.09200 33.66100
C  24.24900 -0.00700 32.09900
C  23.14200 -0.86700 34.32700
C  26.22600 1.25900 34.90900
C  26.89100 1.05700 36.28500
H  26.38500 1.93800 37.41900
N  24.07400 -0.02700 29.00300
C  23.00700 0.02100 29.86400
C  21.81100 0.01500 29.10700
C  22.13700 0.14600 27.70800
C  23.60100 -0.09200 27.64500
C  20.46800 -0.11200 29.73400
C  21.25400 0.49500 26.47800
O  21.69600 0.77700 25.36400
C  19.72100 0.52500 26.63400
N  26.64300 -0.42400 27.48400
C  25.77700 -0.46600 26.46500
C  26.46000 -0.79300 25.14000
C  27.96500 -0.77000 25.54100
C  27.94400 -0.69100 27.02800
C  25.97300 -1.99200 24.41800
C  28.76500 0.46400 25.03400
C  28.92400 0.74000 23.47500
N  27.98000 -0.81600 30.07200
C  29.06400 -1.07600 29.29000
C  30.22500 -1.38500 30.11800
C  29.77300 -1.15400 31.37900
C  28.35200 -0.84900 31.36000
C  31.55800 -1.89400 29.58100
C  30.14600 -1.08200 32.80300
O  31.23600 -1.10400 33.41000
C  28.85800 -0.82100 33.61700
C  28.51900 -1.99400 34.47800
O  27.69800 -2.89000 34.26900
O  29.10700 -1.79500 35.66900
C  28.66600 -2.70400 36.76000
H  22.17900 0.41500 31.73000
H  23.90200 -0.34500 25.60500
H  29.92900 -0.93200 27.42300
H  25.71100 -0.94300 34.76400
H  23.79000 1.04500 34.05700
H  22.34300 -1.16900 33.64900
H  22.72900 -0.32900 35.18000
H  23.59400 -1.82500 34.58400
H  25.46900 2.03800 34.99400
H  26.89400 1.80600 34.24400
H  27.97500 1.16800 36.25100
H  26.83400 -0.00900 36.50200
H  19.93300 -0.87900 29.17400
H  19.95900 0.84400 29.85800
H  20.62100 -0.46900 30.75300
H  19.16100 1.11200 25.90600
H  19.63900 0.99600 27.61400
H  19.32200 -0.48800 26.59600
H  26.20500 0.13000 24.61900
H  28.43400 -1.72100 25.29000
H  26.75500 -2.71000 24.17000
H  25.43900 -1.68400 23.51900
H  25.18700 -2.40000 25.05300
H  29.75800 0.19200 25.39300
H  28.20700 1.30200 25.45300
H  28.68800 1.79500 23.33700
H  28.20800 0.06800 23.00100
H  29.93400 0.59200 23.09100
H  32.30300 -1.61400 30.32500
H  31.78200 -1.41200 28.62900
H  31.50300 -2.98000 29.50500
H  28.91900 0.10900 34.18400
H  29.38600 -3.50500 36.92500
H  27.71300 -3.19100 36.55100
H  28.52400 -2.02500 37.60100
Mg 25.34000 51.52600 26.19600
C  23.16400 52.35900 28.74000
C  27.73000 50.83200 28.54600
C  27.57400 51.18400 23.56100
C  23.07500 52.87000 23.90900
N  25.45300 51.84700 28.43400
C  24.36400 52.03600 29.23400
C  24.64700 51.79300 30.77400
C  26.21100 51.39400 30.58700
C  26.54800 51.30200 29.08400
C  27.21300 52.32200 31.43900
C  23.79800 50.64000 31.44700
C  23.23700 50.89500 32.87900
H  24.11800 51.49100 33.90300
N  27.26400 50.93500 26.11800
C  28.08400 50.69500 27.20100
C  29.38500 50.34500 26.73800
C  29.40400 50.54100 25.31300
C  28.01100 50.91800 24.92600
C  30.53600 49.98200 27.68600
C  30.57600 50.34100 24.40000
O  30.59400 50.63400 23.22900
C  31.82800 49.69700 24.91500
N  25.28200 51.89300 23.95700
C  26.37000 51.70900 23.16500
C  26.03000 52.08900 21.71200
C  24.45800 52.40300 21.82700
C  24.25200 52.38400 23.30500
C  26.86300 53.29200 21.12700
C  23.68500 51.25800 21.09900
C  23.67300 51.42100 19.52800
N  23.55700 52.41200 26.23300
C  22.75400 52.91100 25.27400
C  21.50500 53.43800 25.70900
C  21.65300 53.26000 27.11600
C  22.90700 52.66600 27.42200
C  20.36100 54.00000 24.91700
C  20.95400 53.40800 28.37500
O  19.80800 53.75700 28.64900
C  21.91600 52.86600 29.50500
C  22.10500 53.97800 30.49000
O  22.83100 54.95200 30.30500
O  21.31100 53.83400 31.58100
C  21.44300 54.89300 32.58600
H  28.44600 50.45000 29.27700
H  28.19800 51.07700 22.67100
H  22.35300 53.17000 23.14700
H  24.49300 52.75900 31.25500
H  26.53000 50.42600 30.97400
H  27.66100 51.71800 32.22800
H  26.69500 53.07300 32.03600
H  28.01400 52.78200 30.86100
H  24.45900 49.77600 31.38800
H  22.85000 50.50700 30.92500
H  23.05000 49.89300 33.26500
H  22.33500 51.50700 32.87700
H  31.47200 50.51600 27.52400
H  30.80700 48.98500 27.33900
H  30.28900 50.07100 28.74400
H  32.56300 49.48200 24.14000
H  31.83700 48.87400 25.63000
H  32.24600 50.55000 25.44900
H  26.21600 51.15600 21.18000
H  24.36500 53.39000 21.37300
H  27.72400 53.37900 21.78900
H  26.34700 54.24400 21.00000
H  27.24600 53.06600 20.13200
H  22.64600 51.22400 21.42600
H  24.13500 50.28700 21.30700
H  22.64600 51.52100 19.17600
H  24.25200 50.62200 19.06700
H  24.27700 52.28100 19.23800
H  20.50100 53.89000 23.84200
H  20.28500 55.04200 25.22800
H  19.46000 53.49100 25.26100
H  21.42300 52.02900 29.99900
H  22.33200 54.61400 33.15400
H  20.58700 54.97400 33.25500
H  21.62900 55.90600 32.22900

