158

Mg 1.44200 7.65400 25.72000
C  2.01600 9.71000 28.58700
C  2.00400 4.91800 27.98000
C  0.81100 5.68300 23.27100
C  1.39200 10.44200 23.74900
N  1.85600 7.38100 27.94800
C  1.86600 8.35700 28.93300
C  2.04600 7.76600 30.36800
C  2.55000 6.30700 30.01300
C  2.17500 6.14500 28.52600
C  4.02900 5.95900 30.22400
C  0.81100 7.88300 31.25800
C  0.55700 6.95400 32.44400
H  1.71400 6.48000 33.37100
N  1.42600 5.57500 25.68900
C  1.75600 4.60500 26.61200
C  1.59400 3.28300 25.99100
C  1.13700 3.45600 24.69900
C  1.06600 4.93200 24.53400
C  1.96600 2.03500 26.80000
C  0.80300 2.45600 23.65000
O  0.67800 2.77700 22.44800
C  0.73400 1.00700 24.01600
N  1.18900 7.97400 23.78900
C  0.79600 7.01500 22.94200
C  0.44000 7.66200 21.56100
C  0.67500 9.16400 21.67800
C  1.05700 9.20500 23.17700
C  1.24100 7.12000 20.37000
C  -0.58400 10.03700 21.30200
C  -0.33100 11.01500 20.13500
N  1.78000 9.58900 26.00400
C  1.71800 10.65500 25.12200
C  1.91200 11.88500 25.79200
C  2.03300 11.54500 27.14100
C  2.00100 10.20000 27.25300
C  1.89700 13.25000 25.13500
C  2.25200 12.21600 28.40900
O  2.39400 13.40100 28.74100
C  2.12100 11.07000 29.42300
C  3.20000 11.15600 30.36400
O  4.42200 11.23900 30.08200
O  2.70100 11.21500 31.62400
C  3.55400 11.60300 32.74800
H  2.19100 4.12000 28.70200
H  0.36100 5.09900 22.46600
H  1.35500 11.35300 23.14900
H  2.83600 8.30700 30.88800
H  1.93800 5.62200 30.59900
H  4.65500 6.78000 30.57400
H  4.47700 5.64700 29.28000
H  4.05400 5.16000 30.96500
H  -0.11500 7.86800 30.68300
H  0.86400 8.93100 31.55200
H  0.16200 6.08600 31.91600
H  -0.27200 7.36700 33.01900
H  1.06000 1.43600 26.70000
H  2.14000 2.20100 27.86200
H  2.77900 1.52400 26.28400
H  0.52800 0.43000 23.11400
H  -0.04900 0.73400 24.72300
H  1.70700 0.75200 24.43700
H  -0.57200 7.33400 21.32100
H  1.55600 9.60000 21.20800
H  1.21300 7.82400 19.53800
H  0.71200 6.24100 20.00200
H  2.23300 6.84500 20.73000
H  -0.82000 10.66200 22.16300
H  -1.40000 9.40400 20.95400
H  -1.11300 10.97300 19.37700
H  0.56700 10.60500 19.67100
H  -0.24900 12.02900 20.52600
H  1.86300 14.04300 25.88200
H  0.99300 13.34100 24.53400
H  2.82200 13.35500 24.56800
H  1.19700 11.20400 29.98600
H  4.44600 10.97800 32.79400
H  3.01500 11.42300 33.67900
H  3.93200 12.62200 32.66600
Mg 46.97000 45.67900 44.13800
C  43.71700 45.21000 43.26200
C  47.49100 42.25200 42.86500
C  50.39300 46.09600 43.68700
C  46.48700 49.05300 44.31000
N  45.74800 43.94400 43.08700
C  44.42000 43.99500 43.12500
C  43.87800 42.70000 42.46600
C  44.95800 41.68300 42.67500
C  46.13800 42.71300 42.91800
C  44.72500 40.62400 43.82600
C  43.49000 42.97600 40.94000
C  42.08800 42.37700 40.53000
H  41.91200 41.70000 39.19900
N  48.78500 44.31600 43.66000
C  48.70300 42.97200 43.14100
C  50.03300 42.41400 42.99000
C  50.90500 43.55000 43.33900
C  50.05200 44.73100 43.47400
C  50.31400 41.08300 42.46100
C  52.42400 43.41500 43.37700
O  52.94900 42.43200 42.95800
C  53.29700 44.50700 43.91900
N  48.21700 47.32200 44.17400
C  49.55800 47.23800 43.94200
C  50.17800 48.65700 44.20300
C  48.92200 49.65500 44.03500
C  47.80500 48.64000 44.18800
C  50.92500 48.91600 45.52400
C  48.68100 50.38000 42.67000
C  48.56700 51.89800 42.82000
N  45.36400 46.85400 44.07400
C  45.33200 48.21300 44.21800
C  43.91200 48.69900 43.99600
C  43.30200 47.59100 43.66200
C  44.16700 46.48200 43.72700
C  43.36800 50.08400 44.12400
C  41.98900 47.00800 43.27100
O  40.90600 47.65600 43.15600
C  42.22300 45.47300 43.02500
C  41.24100 44.73300 43.88700
O  40.29600 44.05800 43.43800
O  41.50700 45.04100 45.19400
C  40.54000 44.32900 46.08200
H  47.59700 41.21400 42.54300
H  51.45900 46.21900 43.48400
H  46.34700 50.11500 44.52500
H  42.97900 42.44900 43.03100
H  45.12400 41.17600 41.72500
H  43.65200 40.65400 44.01500
H  45.22500 40.99100 44.72200
H  45.08600 39.63200 43.55700
H  44.24000 42.52500 40.29000
H  43.54000 44.04800 40.75300
H  41.41000 43.23000 40.50500
H  41.73700 41.63900 41.25100
H  50.94600 41.22000 41.58300
H  49.46400 40.47300 42.15700
H  50.96700 40.57500 43.17000
H  53.44800 45.07600 43.00200
H  54.24400 44.12500 44.29900
H  52.92900 45.20500 44.67100
H  50.87300 48.81800 43.37900
H  48.77800 50.22600 44.95200
H  50.90600 48.04700 46.18200
H  50.47800 49.77500 46.02400
H  51.97500 49.16100 45.36400
H  47.86600 49.97100 42.07300
H  49.44400 50.16800 41.92100
H  48.57800 52.28300 43.83900
H  47.74300 52.26000 42.20500
H  49.49800 52.34800 42.47500
H  42.96100 50.44400 45.06900
H  42.61400 50.17500 43.34200
H  44.10200 50.84200 43.85100
H  42.04900 45.33100 41.95800
H  39.55800 44.67700 45.76200
H  40.79400 44.68100 47.08200
H  40.63500 43.25200 46.22000

