158

Mg 2.32800 -1.45200 43.89200
C  5.72400 -0.83200 43.38700
C  1.68300 1.49300 42.23200
C  -0.80200 -2.45000 44.05100
C  3.33800 -4.81600 45.00600
N  3.57300 0.20200 43.07800
C  4.92100 0.21100 42.95300
C  5.39600 1.57800 42.44100
C  4.05200 2.44000 42.40100
C  3.05100 1.25000 42.44600
C  3.84400 3.49600 43.58600
C  6.07300 1.59700 40.98300
C  5.45100 0.70200 39.90400
H  5.03400 1.48300 38.68800
N  0.71000 -0.63400 43.15000
C  0.57200 0.58600 42.51800
C  -0.81300 0.68900 42.07200
C  -1.57200 -0.22000 42.85800
C  -0.55700 -1.17300 43.41200
C  -1.41000 1.87000 41.26500
C  -3.01000 -0.29000 42.88000
O  -3.69500 0.52500 42.30300
C  -3.79400 -1.34000 43.54000
N  1.41000 -3.38800 44.46300
C  0.06000 -3.44500 44.39500
C  -0.39600 -4.86800 44.77500
C  0.93400 -5.66800 45.01500
C  1.94100 -4.54500 44.81500
C  -1.35300 -4.87300 46.04200
C  1.08500 -6.97300 44.17200
C  1.52400 -8.17500 44.98000
N  4.13500 -2.65300 44.21800
C  4.34300 -3.89700 44.73700
C  5.77600 -3.98900 44.88100
C  6.31500 -2.88300 44.23700
C  5.29500 -2.05800 43.90500
C  6.46300 -5.24300 45.44700
C  7.58000 -2.31000 43.77400
O  8.71700 -2.68600 43.80500
C  7.27800 -0.92400 43.19800
C  7.94100 0.11000 44.03200
O  8.73900 0.91100 43.56600
O  7.29800 0.28800 45.24700
C  7.39700 1.68800 45.81400
H  1.36900 2.36200 41.65100
H  -1.79800 -2.84600 44.26100
H  3.79500 -5.70200 45.45200
H  6.12400 2.16200 43.00400
H  3.94800 3.00800 41.47700
H  3.11900 3.05400 44.27000
H  3.22800 4.34200 43.28100
H  4.79900 3.69700 44.07000
H  7.10200 1.26100 41.10800
H  6.09500 2.62300 40.61600
H  4.63600 0.14900 40.37100
H  6.19400 -0.07000 39.70100
H  -1.88800 1.41100 40.39900
H  -0.62200 2.47900 40.82200
H  -2.06500 2.52700 41.83700
H  -3.37000 -1.47800 44.53400
H  -3.69200 -2.25200 42.95200
H  -4.84300 -1.04900 43.59900
H  -0.92200 -5.24100 43.89600
H  0.96000 -5.99000 46.05600
H  -1.41600 -5.81300 46.59200
H  -2.34700 -4.50000 45.79900
H  -0.90400 -4.10300 46.66900
H  1.85800 -6.92900 43.40500
H  0.11900 -7.29900 43.78700
H  1.01900 -9.09300 44.67900
H  1.38600 -8.14600 46.06100
H  2.59800 -8.27400 44.82500
H  7.35100 -4.92400 45.99300
H  6.77600 -5.86400 44.60800
H  5.77400 -5.65600 46.18400
H  7.63700 -0.96700 42.17000
H  7.96900 1.72600 46.74100
H  6.34300 1.83800 46.05100
H  7.71500 2.41100 45.06400
Mg 43.76100 3.90500 47.60000
C  41.59100 6.55200 46.74300
C  41.18800 1.76300 47.51700
C  46.09400 1.43200 47.88200
C  46.53100 6.16300 47.06500
N  41.66000 4.12300 46.87900
C  40.89900 5.27900 46.63300
C  39.47200 4.90200 46.31700
C  39.36700 3.49700 47.11100
C  40.83000 3.07300 47.22800
C  38.75700 3.63000 48.58500
C  39.22900 4.82700 44.77800
C  38.33200 5.95200 44.24800
H  38.89800 7.04400 43.29600
N  43.60200 1.87100 47.68700
C  42.46000 1.19900 47.64600
C  42.82700 -0.18000 47.64000
C  44.19100 -0.36400 47.69000
C  44.76100 1.01000 47.80100
C  41.79900 -1.31700 47.36800
C  44.98100 -1.65800 47.65500
O  44.45400 -2.79700 47.50900
C  46.50100 -1.72800 47.65300
N  46.01700 3.73100 47.28200
C  46.64300 2.66400 47.70900
C  48.20500 2.91300 47.60000
C  48.37800 4.41300 47.31300
C  46.87000 4.77700 47.15000
C  49.01500 2.36200 48.81800
C  49.24400 4.75500 46.05800
C  50.66900 4.15100 46.02300
N  44.07000 5.97000 47.16700
C  45.24400 6.72700 46.90600
C  44.83600 8.09700 46.48300
C  43.42100 8.02400 46.63300
C  42.97500 6.74800 46.94200
C  45.76300 9.19900 46.15300
C  42.22100 8.86300 46.51000
O  42.21600 10.04300 46.28900
C  40.98000 7.88200 46.52500
C  40.16600 8.32900 47.73400
O  40.55300 8.45000 48.89400
O  38.91400 8.60600 47.18300
C  37.89600 9.18100 48.08500
H  40.43400 0.98100 47.63400
H  46.90200 0.76100 48.18000
H  47.29400 6.94400 47.06300
H  38.83000 5.70100 46.68900
H  38.78400 2.77200 46.54200
H  39.48900 3.39400 49.35700
H  37.98300 2.86400 48.63000
H  38.27600 4.59600 48.73700
H  38.78800 3.85500 44.55900
H  40.16100 4.81300 44.21400
H  37.86900 6.47500 45.08400
H  37.51400 5.48500 43.69900
H  41.94000 -1.71200 46.36200
H  40.75800 -1.00200 47.44000
H  42.02700 -2.10700 48.08400
H  46.72000 -1.44700 48.68200
H  46.91800 -1.21200 46.78800
H  46.84200 -2.76300 47.61500
H  48.47600 2.34300 46.71100
H  48.72000 5.03700 48.13900
H  49.48900 1.39700 48.63700
H  48.30900 2.20200 49.63300
H  49.81500 2.98100 49.22300
H  49.41200 5.82500 45.93200
H  48.77400 4.41600 45.13500
H  50.80900 3.66400 46.98800
H  51.46500 4.88500 45.89700
H  50.85700 3.44800 45.21100
H  46.66800 9.11800 46.75500
H  45.25300 10.14400 46.34400
H  46.17000 9.01500 45.15900
H  40.31600 7.82900 45.66200
H  37.39300 8.30900 48.50400
H  37.14500 9.76600 47.55400
H  38.33800 9.75800 48.89800

