158

Mg 24.02900 -6.86500 45.47500
C  26.15900 -4.66400 43.86400
C  21.41400 -5.47800 43.41600
C  22.23200 -9.73500 45.82400
C  26.77800 -8.62700 46.80600
N  23.86600 -5.18000 43.81400
C  24.90700 -4.30100 43.48400
C  24.47200 -3.19500 42.47600
C  22.82200 -3.32000 42.69200
C  22.65600 -4.75600 43.28700
C  22.25400 -2.16700 43.57500
C  24.94500 -3.45300 40.98200
C  25.49900 -2.21600 40.18400
H  24.94500 -1.89300 38.79100
N  22.01100 -7.41500 44.89800
C  21.04900 -6.68900 44.10300
C  19.83300 -7.44800 44.03700
C  20.07400 -8.68500 44.71400
C  21.49700 -8.69100 45.15900
C  18.58800 -6.96900 43.37800
C  18.92700 -9.67700 44.86900
O  17.80200 -9.41400 44.44400
C  19.01600 -10.95700 45.74000
N  24.48100 -9.03600 46.00200
C  23.51900 -9.87800 46.31400
C  24.07300 -11.17200 46.91600
C  25.60100 -10.81500 47.35800
C  25.64300 -9.45700 46.59800
C  23.23900 -11.91600 48.02900
C  26.67200 -11.80100 46.85600
C  27.45400 -12.62100 47.93600
N  26.01400 -6.62600 45.54500
C  27.01500 -7.35600 46.12200
C  28.23500 -6.64200 45.93900
C  28.00800 -5.65600 44.99900
C  26.59900 -5.71800 44.71700
C  29.58000 -6.90100 46.61500
C  28.61000 -4.55500 44.26400
O  29.76900 -4.19500 44.32400
C  27.43200 -3.99300 43.29300
C  27.38700 -2.55500 43.41200
O  27.62000 -1.77400 42.46400
O  26.88100 -2.14900 44.63900
C  26.89100 -0.67700 44.83300
H  20.70600 -4.85100 42.86900
H  21.69300 -10.68000 45.91100
H  27.63900 -9.01000 47.35800
H  24.79800 -2.26400 42.93900
H  22.34300 -3.17100 41.72400
H  21.53800 -1.56900 43.01100
H  22.98400 -1.51900 44.06000
H  21.68800 -2.45000 44.46200
H  24.03700 -3.81300 40.49800
H  25.73200 -4.20300 40.89900
H  26.57800 -2.33500 40.08200
H  25.43900 -1.38400 40.88500
H  18.21700 -7.56100 42.54100
H  18.76400 -5.97000 42.97700
H  17.70700 -6.88200 44.01400
H  19.33600 -10.56900 46.70700
H  19.63400 -11.68800 45.21800
H  18.03800 -11.41400 45.89300
H  24.02100 -11.88200 46.09000
H  25.50500 -10.57500 48.41700
H  22.35100 -11.31000 48.21300
H  23.77300 -11.84500 48.97700
H  22.98900 -12.95700 47.82500
H  27.45100 -11.23000 46.35200
H  26.16200 -12.40100 46.10200
H  27.00200 -12.45400 48.91400
H  28.52900 -12.46000 47.84900
H  27.26900 -13.69200 47.85600
H  29.41000 -7.19700 47.65000
H  30.15900 -5.98500 46.73000
H  30.16500 -7.66300 46.09800
H  27.53700 -4.26600 42.24300
H  27.90000 -0.28200 44.70900
H  26.61400 -0.48300 45.87000
H  26.27600 -0.16300 44.09400
Mg -5.48400 24.58200 27.33800
C  -3.63200 26.26600 29.75800
C  -6.52500 22.23900 29.68600
C  -6.98200 22.75700 24.84100
C  -4.32300 26.77200 24.91100
N  -5.14600 24.39000 29.48100
C  -4.45200 25.23000 30.31800
C  -4.65700 24.90600 31.76700
C  -5.20000 23.46400 31.63800
C  -5.66800 23.32500 30.12200
C  -4.29100 22.32900 32.28700
C  -5.57800 25.76200 32.64600
C  -5.10700 25.81600 34.12100
H  -5.49700 24.79700 35.21400
N  -6.58500 22.73100 27.30300
C  -6.94000 21.89100 28.36000
C  -7.74900 20.79900 27.85200
C  -7.89100 20.91500 26.49700
C  -7.16500 22.22200 26.18200
C  -8.32200 19.78300 28.74800
C  -8.60300 20.08000 25.51400
O  -8.71400 20.45500 24.39300
C  -9.01900 18.69500 25.93000
N  -5.58500 24.73100 25.19300
C  -6.35100 23.96700 24.43600
C  -6.28600 24.32900 22.94600
C  -5.86600 25.79700 23.12300
C  -5.21700 25.79600 24.50500
C  -5.44500 23.51900 22.03100
C  -6.92500 26.81900 22.73100
C  -7.01000 27.17600 21.27300
N  -4.14700 26.17300 27.25100
C  -3.81400 27.00300 26.20100
C  -2.83200 28.03600 26.70100
C  -2.77000 27.76000 28.06300
C  -3.56200 26.65400 28.36300
C  -1.93700 28.88800 25.82200
C  -2.06700 28.16400 29.26400
O  -1.17800 29.00700 29.43500
C  -2.66200 27.23300 30.37700
C  -1.53000 26.59700 31.20200
O  -0.75900 25.77100 30.94800
O  -1.75900 27.03800 32.46900
C  -0.92000 26.44100 33.54400
H  -6.82700 21.54700 30.47500
H  -7.52000 22.24700 24.03900
H  -4.17600 27.64600 24.27200
H  -3.65200 24.80600 32.17700
H  -6.15500 23.34700 32.15100
H  -4.05600 21.63600 31.48000
H  -4.94800 21.77800 32.95900
H  -3.34600 22.61900 32.74600
H  -6.61500 25.43000 32.60100
H  -5.63800 26.76700 32.23000
H  -5.14100 26.86900 34.40200
H  -4.02300 25.73100 34.04200
H  -8.12200 18.78000 28.37000
H  -9.40000 19.90700 28.84400
H  -7.92300 19.87900 29.75800
H  -8.12000 18.17100 26.25500
H  -9.51800 18.09800 25.16700
H  -9.80000 18.80200 26.68300
H  -7.32000 24.22700 22.61700
H  -5.00100 26.07700 22.52100
H  -5.04700 22.58400 22.42500
H  -4.55100 24.07100 21.74100
H  -6.07000 23.31200 21.16100
H  -6.58500 27.67800 23.30900
H  -7.88100 26.51400 23.15600
H  -7.97200 27.24500 20.76500
H  -6.58500 26.43700 20.59400
H  -6.52200 28.13600 21.10500
H  -1.84700 29.96200 25.98300
H  -2.44300 28.85600 24.85800
H  -0.94200 28.44500 25.78100
H  -3.12800 27.94500 31.05800
H  0.14600 26.48100 33.32300
H  -1.15300 25.40800 33.80200
H  -1.21100 27.06000 34.39300

