158

Mg 46.41100 24.46200 28.48600
C  46.63900 26.83600 31.06400
C  45.37900 22.19400 30.88900
C  46.42500 22.09600 26.09700
C  47.62400 26.78300 26.34700
N  45.77600 24.57100 30.62800
C  46.13700 25.61800 31.50300
C  45.76500 25.25100 32.98600
C  45.43500 23.71900 32.89800
C  45.49600 23.46000 31.41700
C  46.42300 22.89300 33.71400
C  44.49100 26.08200 33.39600
C  44.56200 27.01400 34.60200
H  43.57000 26.83700 35.75400
N  45.98700 22.45300 28.50500
C  45.36900 21.74800 29.54900
C  45.11300 20.36800 29.11700
C  45.36500 20.33300 27.73000
C  45.90200 21.63600 27.35200
C  44.51400 19.34700 30.10100
C  45.18500 19.14400 26.71500
O  45.64800 19.29100 25.56100
C  44.52600 17.90300 27.08900
N  47.14300 24.37800 26.60000
C  46.93300 23.35900 25.74400
C  47.26900 23.72300 24.25700
C  47.46200 25.26600 24.43100
C  47.50500 25.48200 25.89600
C  48.49600 22.92800 23.70200
C  46.35300 26.15100 23.70900
C  45.08000 26.63300 24.54500
N  47.03300 26.45200 28.62800
C  47.46600 27.30100 27.66100
C  47.60600 28.61900 28.18100
C  47.35800 28.47000 29.51800
C  47.00900 27.15700 29.77200
C  48.00400 29.82100 27.42400
C  47.36700 29.15600 30.75700
O  47.82900 30.24900 30.99100
C  46.90500 28.08000 31.89300
C  48.04900 27.90100 32.86900
O  49.06300 27.27500 32.64400
O  47.76200 28.48400 34.04700
C  48.58000 28.14400 35.21500
H  45.14000 21.47100 31.67200
H  46.31600 21.40600 25.25800
H  48.03700 27.45300 25.59000
H  46.62100 25.40900 33.64200
H  44.43000 23.54400 33.28300
H  45.99500 22.78800 34.71000
H  47.33200 23.47800 33.85800
H  46.64600 21.90600 33.31000
H  43.72900 25.34300 33.64000
H  44.20600 26.67000 32.52400
H  44.59200 28.06700 34.32300
H  45.55800 26.97400 35.04300
H  43.58100 18.91800 29.73700
H  44.32800 19.68700 31.12000
H  45.23900 18.54400 30.23700
H  45.20200 17.09700 27.37500
H  44.12000 17.60400 26.12300
H  43.76500 17.93100 27.86800
H  46.42700 23.61000 23.57400
H  48.38300 25.70400 24.04800
H  49.17800 23.70000 23.34500
H  48.02600 22.37000 22.89200
H  48.82800 22.27400 24.50800
H  45.97300 25.69900 22.79200
H  46.94000 26.93400 23.22900
H  45.02300 26.22100 25.55300
H  44.14900 26.27600 24.10600
H  45.08600 27.72300 24.56000
H  47.28200 30.14300 26.67300
H  48.97100 29.56700 26.99100
H  48.21600 30.60600 28.15100
H  46.05600 28.50000 32.43300
H  49.62400 27.94700 34.97100
H  48.22700 27.11900 35.32600
H  48.48800 28.73700 36.12500
Mg -5.01700 25.10800 26.73200
C  -3.43900 26.58500 29.56000
C  -6.42200 22.92400 28.89900
C  -6.45700 23.70400 24.15000
C  -2.94000 27.21700 24.62200
N  -4.94100 24.81000 29.02200
C  -4.31300 25.58600 29.95500
C  -4.71300 25.19400 31.38400
C  -5.14300 23.66000 31.00600
C  -5.55100 23.77900 29.57800
C  -3.85500 22.72900 31.17800
C  -5.80800 26.16500 32.02000
C  -5.48200 26.91100 33.31300
H  -4.80600 26.05200 34.42900
N  -6.36200 23.62600 26.55600
C  -6.94100 22.84900 27.58100
C  -7.82700 21.81800 27.06100
C  -7.85400 22.10800 25.69300
C  -6.87200 23.17400 25.39500
C  -8.57800 20.75100 27.84100
C  -8.79900 21.51200 24.63300
O  -8.69800 21.81500 23.46600
C  -9.88100 20.42500 24.93100
N  -4.67300 25.38500 24.73700
C  -5.57300 24.76100 23.83900
C  -5.37800 25.30400 22.46600
C  -4.23600 26.42200 22.59900
C  -3.87400 26.36400 24.08300
C  -5.11200 24.25900 21.33300
C  -4.60000 27.89100 22.03400
C  -3.58300 28.49700 20.98100
N  -3.51700 26.65400 26.96100
C  -2.72800 27.35400 26.04600
C  -1.81500 28.16500 26.73100
C  -2.10700 27.92800 28.12200
C  -3.12900 26.96900 28.20400
C  -0.85300 29.21100 26.07000
C  -1.65300 28.23000 29.43600
O  -0.69500 28.90100 29.77400
C  -2.65500 27.44700 30.44300
C  -1.68200 26.81800 31.39200
O  -1.29900 25.65400 31.22900
O  -1.35300 27.64800 32.45900
C  -0.44200 27.01000 33.41600
H  -6.90200 22.18000 29.53800
H  -7.07000 23.51100 23.26700
H  -2.43500 27.85100 23.89000
H  -3.77700 25.24400 31.93900
H  -5.96500 23.41500 31.67900
H  -3.97500 22.28200 32.16500
H  -2.96000 23.35000 31.21900
H  -3.82000 21.88800 30.48500
H  -6.76300 25.66500 32.17900
H  -5.96200 26.80700 31.15300
H  -6.38700 27.36000 33.72100
H  -4.71700 27.64300 33.05600
H  -8.29200 20.80400 28.89200
H  -8.39100 19.71600 27.55800
H  -9.65500 20.91300 27.88300
H  -9.39900 19.46000 25.08800
H  -10.47900 20.40800 24.02000
H  -10.41000 20.68800 25.84700
H  -6.28100 25.85400 22.20100
H  -3.39300 26.05200 22.01700
H  -4.63500 24.62800 20.42500
H  -6.05900 24.04200 20.83800
H  -4.78300 23.28400 21.69300
H  -4.82000 28.64100 22.79500
H  -5.55500 27.80800 21.51500
H  -3.49300 29.58000 21.06600
H  -4.08100 28.22600 20.05000
H  -2.54200 28.17300 20.98500
H  -0.66600 28.93500 25.03200
H  0.06200 29.26800 26.66000
H  -1.20600 30.24100 26.01700
H  -3.22500 28.09200 31.11100
H  0.38400 26.60200 32.83400
H  -1.01000 26.28000 33.99300
H  -0.14800 27.78600 34.12200

