158

Mg 2.01700 -1.24900 44.07800
C  5.27600 -0.69800 43.32400
C  1.08500 1.46600 42.01000
C  -1.12300 -2.37900 44.02600
C  3.06800 -4.31900 45.57500
N  3.01700 0.13700 42.68700
C  4.40000 0.23800 42.73400
C  4.84500 1.53000 42.07400
C  3.51700 2.25200 41.75900
C  2.45200 1.25200 42.16400
C  3.30400 3.74200 42.14200
C  5.69200 1.15200 40.79900
C  6.95900 2.06800 40.67800
H  6.89500 3.10500 39.48000
N  0.13000 -0.47300 43.23100
C  -0.01300 0.63200 42.41400
C  -1.40100 0.82700 42.17700
C  -2.09100 -0.32600 42.77000
C  -1.01700 -1.09100 43.47800
C  -1.99300 2.05500 41.43900
C  -3.56300 -0.46600 42.66200
O  -4.31400 0.11800 41.85100
C  -4.22000 -1.61800 43.45800
N  1.09100 -3.16300 44.56600
C  -0.21500 -3.29300 44.59200
C  -0.52800 -4.66900 45.27600
C  0.75700 -5.01100 46.07200
C  1.72100 -4.16800 45.37500
C  -1.80100 -4.62000 46.12400
C  1.05200 -6.52400 46.15400
C  1.04500 -7.05000 47.58900
N  3.83500 -2.29200 44.39900
C  4.04800 -3.42500 45.18000
C  5.39600 -3.60200 45.33600
C  6.02800 -2.49400 44.69300
C  4.99900 -1.78700 44.11500
C  6.00800 -4.87900 45.77900
C  7.25700 -1.89100 44.35100
O  8.37100 -2.25000 44.70200
C  6.81500 -0.64100 43.48400
C  7.23400 0.54300 44.13900
O  6.76700 0.89300 45.22100
O  8.24000 1.29000 43.50100
C  8.55500 2.54300 44.21500
H  0.88400 2.38100 41.44900
H  -2.15300 -2.73700 44.09400
H  3.45600 -5.06600 46.27100
H  5.38800 2.03500 42.87300
H  3.43900 2.31600 40.67300
H  2.40700 3.96700 42.71900
H  3.22600 4.43500 41.30500
H  4.15200 4.16400 42.68200
H  5.07100 1.18500 39.90300
H  6.10800 0.14500 40.76100
H  7.86200 1.47200 40.54400
H  7.15600 2.71300 41.53400
H  -2.10100 1.76700 40.39300
H  -1.28200 2.87800 41.50700
H  -2.96200 2.31700 41.86400
H  -4.01400 -1.52600 44.52400
H  -3.87800 -2.55300 43.01300
H  -5.29600 -1.56100 43.29400
H  -0.68800 -5.34500 44.43600
H  0.79700 -4.53300 47.05100
H  -2.33900 -5.53200 45.86700
H  -2.39200 -3.70700 46.19600
H  -1.54100 -4.82900 47.16200
H  2.03100 -6.77000 45.74200
H  0.32600 -7.03800 45.52500
H  0.61500 -6.24100 48.17900
H  2.05100 -7.30600 47.92200
H  0.50500 -7.98200 47.75300
H  5.60100 -5.06200 46.77300
H  7.09100 -4.90100 45.89800
H  5.58900 -5.63900 45.12000
H  7.29400 -0.67900 42.50600
H  8.96000 3.15900 43.41200
H  9.27200 2.44000 45.03000
H  7.68100 3.03700 44.63900
Mg 9.35600 3.52900 28.31200
C  10.68600 1.93100 31.14800
C  7.82100 5.71400 30.30000
C  7.92900 4.68500 25.53200
C  10.82200 0.91700 26.35700
N  9.34900 3.74500 30.51800
C  9.91900 2.99700 31.43700
C  9.80800 3.72300 32.82900
C  8.76200 4.87100 32.54000
C  8.62900 4.79100 31.00900
C  7.44600 4.85600 33.38700
C  11.18200 4.14600 33.31300
C  11.65700 3.52400 34.63100
H  12.22300 4.30500 35.74600
N  7.98300 4.95500 28.01900
C  7.42000 5.71900 28.97700
C  6.42800 6.60200 28.39400
C  6.50100 6.43600 26.98600
C  7.48400 5.31000 26.79600
C  5.61500 7.57700 29.24400
C  5.80000 7.05900 25.77100
O  5.97800 6.73100 24.62900
C  4.95200 8.31700 26.03900
N  9.43000 2.88900 26.21300
C  8.80300 3.62800 25.27200
C  9.15200 3.08500 23.88400
C  10.06900 1.88300 24.15700
C  10.15000 1.90000 25.66100
C  7.91200 2.71800 23.13100
C  11.47800 1.67200 23.41500
C  11.57900 0.49800 22.51100
N  10.47900 1.80800 28.61900
C  10.94000 0.87500 27.77600
C  11.70900 -0.13100 28.47400
C  11.62400 0.23000 29.84300
C  10.90900 1.47300 29.86500
C  12.49400 -1.26300 27.89400
C  12.10500 -0.00800 31.21800
O  12.88900 -0.85000 31.62800
C  11.45100 1.13300 32.07500
C  10.63400 0.46200 33.15500
O  9.47300 0.00600 33.02300
O  11.42500 0.34800 34.29800
C  10.86500 -0.13000 35.55900
H  7.45700 6.43100 31.03800
H  7.48100 5.09900 24.62700
H  11.26400 0.09100 25.79400
H  9.49400 2.97500 33.55800
H  9.17400 5.88000 32.51800
H  6.77400 4.03400 33.14100
H  6.88200 5.77300 33.21800
H  7.51100 4.76700 34.47200
H  11.12700 5.23000 33.41500
H  11.94800 3.84200 32.59900
H  12.43700 2.79800 34.40200
H  10.89600 2.95700 35.16600
H  5.59000 7.26700 30.28900
H  4.61700 7.62200 28.80900
H  6.06200 8.54800 29.02700
H  4.22900 8.27700 26.85400
H  4.39300 8.55700 25.13500
H  5.60500 9.16900 26.22800
H  9.79400 3.80000 23.36900
H  9.66300 0.89900 23.92100
H  6.97300 3.02000 23.59400
H  7.84000 1.65500 22.89800
H  7.93000 3.36800 22.25600
H  12.33500 1.56500 24.08100
H  11.71000 2.52900 22.78200
H  12.13900 -0.23100 23.09600
H  12.23500 0.63900 21.65200
H  10.66100 0.01500 22.17600
H  11.94000 -1.77400 27.10600
H  12.51300 -1.99900 28.69800
H  13.51800 -1.12100 27.54900
H  12.23300 1.65500 32.62600
H  10.79500 0.76600 36.17600
H  11.59700 -0.88700 35.83900
H  9.89000 -0.61600 35.53100

