158

Mg 0.41500 7.45700 26.17200
C  1.18500 9.51800 28.85300
C  0.55400 4.71000 28.21200
C  0.04600 5.34700 23.56800
C  1.12100 10.12100 24.10000
N  1.21100 7.16700 28.16500
C  1.16600 8.16400 29.17800
C  1.13900 7.53600 30.58400
C  1.24900 6.02500 30.28900
C  1.02500 5.91800 28.79500
C  2.57700 5.37800 30.76400
C  -0.27800 7.88700 31.32900
C  -0.13700 8.19800 32.81200
H  0.99400 7.40800 33.54000
N  0.08800 5.27700 25.92200
C  0.13100 4.34600 26.93800
C  -0.30900 3.08600 26.38300
C  -0.61400 3.30100 25.00200
C  -0.21400 4.69800 24.78200
C  -0.54700 1.92600 27.16200
C  -1.15900 2.46900 23.94700
O  -1.55600 2.86400 22.88300
C  -1.37500 1.01600 24.22100
N  0.68900 7.69900 24.06800
C  0.39300 6.69600 23.21600
C  0.49400 7.24400 21.73000
C  0.35400 8.80500 21.98400
C  0.73400 8.90400 23.48100
C  1.80300 6.73600 20.97200
C  -1.00900 9.35500 21.59500
C  -1.16900 9.80100 20.15000
N  0.93500 9.42600 26.33000
C  1.18100 10.44900 25.43400
C  1.28700 11.79200 26.08500
C  1.26900 11.44000 27.42800
C  1.07900 10.02000 27.51300
C  1.45900 13.05700 25.30900
C  1.31300 12.00300 28.80500
O  1.38200 13.13400 29.19700
C  1.14900 10.79200 29.75300
C  2.29200 10.79800 30.75300
O  3.32200 10.15000 30.76100
O  1.89600 11.62200 31.80700
C  2.54900 11.45300 33.10400
H  0.52400 3.97200 29.01700
H  -0.13600 4.74300 22.67700
H  1.07600 10.99900 23.45300
H  1.94600 7.97300 31.17200
H  0.51400 5.48800 30.88800
H  3.33500 6.08600 31.09900
H  3.02900 4.81600 29.94700
H  2.38500 4.73800 31.62500
H  -0.83700 6.95200 31.29100
H  -0.81000 8.66700 30.78400
H  -1.07600 7.74200 33.12600
H  -0.08100 9.26600 33.02000
H  -0.49100 2.18900 28.21900
H  0.17700 1.14900 26.91800
H  -1.58000 1.57800 27.15500
H  -0.38900 0.64400 24.50000
H  -1.74100 0.57800 23.29300
H  -2.06600 0.86400 25.05000
H  -0.29000 6.82900 21.09800
H  1.16500 9.34300 21.49300
H  2.49200 7.54600 20.73400
H  1.53700 6.06000 20.15900
H  2.27300 6.15000 21.76100
H  -1.30800 10.23400 22.16700
H  -1.75400 8.56900 21.71800
H  -1.86100 9.17600 19.58700
H  -0.23100 9.90100 19.60300
H  -1.59400 10.80500 20.16800
H  2.01800 12.81300 24.40600
H  2.04700 13.76100 25.89800
H  0.42600 13.39900 25.24800
H  0.21800 11.00200 30.28100
H  1.76200 11.71800 33.81000
H  3.41700 12.10900 33.03000
H  2.88800 10.44500 33.34200
Mg 16.14600 51.16400 26.04900
C  18.36600 50.33600 28.61600
C  13.49200 51.24900 28.23900
C  13.96700 51.16000 23.32500
C  18.72200 50.35800 23.76300
N  15.93600 50.82100 28.12900
C  17.02700 50.69500 28.96300
C  16.67000 51.04800 30.38800
C  15.11400 50.90900 30.31600
C  14.79700 51.04900 28.81000
C  14.61300 49.64800 31.07800
C  17.21200 52.41400 30.95200
C  17.42900 52.48100 32.52600
H  16.56900 51.51900 33.43500
N  14.09200 51.37200 25.82300
C  13.18900 51.41100 26.91100
C  11.84700 51.42500 26.30400
C  11.95000 51.42200 24.86600
C  13.34900 51.34300 24.64500
C  10.65800 51.52200 27.22200
C  10.79300 51.35200 23.87900
O  11.00200 51.35900 22.64000
C  9.39200 51.13000 24.38700
N  16.32700 50.70300 23.85000
C  15.28900 50.97400 22.96800
C  15.82000 50.99200 21.55400
C  17.37300 50.94600 21.73600
C  17.48600 50.56600 23.17300
C  15.18500 49.79900 20.62800
C  18.18400 52.23100 21.32400
C  19.21400 52.08400 20.17100
N  18.14500 50.54800 26.15700
C  19.10100 50.33300 25.16600
C  20.35600 49.90600 25.80400
C  20.09300 49.97100 27.17800
C  18.74900 50.34900 27.31000
C  21.55000 49.57200 25.12500
C  20.72900 49.74100 28.48400
O  21.86400 49.32700 28.84200
C  19.57900 50.15100 29.55400
C  19.46000 48.98300 30.42900
O  19.26800 47.85400 30.06100
O  19.54700 49.37800 31.71000
C  19.37300 48.31700 32.65000
H  12.75000 51.21600 29.04000
H  13.35300 51.30900 22.43400
H  19.49200 50.22100 23.00100
H  17.10200 50.29500 31.04700
H  14.69800 51.70800 30.92900
H  13.81400 49.96600 31.74800
H  15.43300 49.19700 31.63700
H  14.22900 49.05100 30.25100
H  16.62400 53.27300 30.62800
H  18.16100 52.61700 30.45600
H  17.24300 53.53200 32.75000
H  18.51200 52.38200 32.60800
H  10.05200 50.61800 27.16000
H  9.98800 52.36100 27.03200
H  10.87700 51.63000 28.28400
H  8.93200 51.93900 24.95500
H  9.44500 50.21100 24.97100
H  8.82100 50.83300 23.50700
H  15.43800 51.93300 21.15900
H  17.81700 50.13500 21.16000
H  14.46600 49.20700 21.19500
H  16.02300 49.21900 20.24200
H  14.73300 50.25700 19.74800
H  18.56800 52.86500 22.12300
H  17.54800 52.94900 20.80600
H  18.68700 52.41100 19.27400
H  19.54400 51.04500 20.16500
H  20.05600 52.77000 20.25500
H  21.39400 48.60100 24.65500
H  22.50700 49.58400 25.64800
H  21.76800 50.23200 24.28600
H  19.75600 51.06400 30.12200
H  20.26700 47.70400 32.54000
H  18.44000 47.75400 32.69500
H  19.51100 48.84700 33.59200

