158

Mg 0.41500 7.57400 25.75100
C  1.23000 9.72600 28.51200
C  0.92200 4.88800 27.71800
C  -0.28100 5.78100 23.03000
C  0.74100 10.56500 23.65300
N  1.06800 7.35000 27.91100
C  1.18200 8.39200 28.83300
C  1.25000 7.74300 30.24600
C  1.38300 6.17500 29.95300
C  1.02000 6.11900 28.47500
C  2.72400 5.52200 30.34900
C  -0.08500 8.15400 31.08600
C  0.06700 8.16800 32.56000
H  1.33000 7.54400 33.20000
N  0.29800 5.69600 25.40600
C  0.61800 4.71800 26.35700
C  0.34700 3.42400 25.83200
C  -0.05400 3.56400 24.47300
C  -0.09100 5.04500 24.20200
C  0.62100 2.13700 26.61800
C  -0.39900 2.53800 23.38500
O  -0.67900 2.86600 22.25800
C  -0.29900 1.09500 23.69000
N  0.22400 8.18500 23.67700
C  -0.12800 7.16500 22.78900
C  -0.07600 7.75500 21.32300
C  0.22700 9.28000 21.56600
C  0.38000 9.39200 23.04500
C  1.02100 7.10300 20.41200
C  -0.80100 10.17300 20.88200
C  -2.17900 10.13000 21.50800
N  0.85100 9.68400 25.99200
C  0.94200 10.78600 25.06000
C  1.24600 12.05300 25.76600
C  1.26800 11.63500 27.12100
C  1.10400 10.23100 27.20400
C  1.28900 13.49200 25.23100
C  1.50900 12.17000 28.44300
O  1.76700 13.28300 28.83100
C  1.37100 10.94000 29.42900
C  2.57500 10.97000 30.25000
O  3.69800 10.79500 29.80200
O  2.15100 11.18000 31.61100
C  3.13900 11.11100 32.62100
H  1.00400 4.06900 28.43600
H  -0.52000 5.17400 22.15400
H  0.65300 11.44200 23.00900
H  2.04200 8.10000 30.90500
H  0.62200 5.67400 30.55100
H  3.42300 6.23800 30.78000
H  3.15500 4.95500 29.52400
H  2.55400 4.87500 31.21000
H  -0.80900 7.37100 30.86100
H  -0.49300 9.08800 30.70200
H  -0.81700 7.63900 32.91900
H  0.01900 9.13900 33.05200
H  0.69600 1.14500 26.17400
H  0.03800 2.09700 27.53800
H  1.59100 2.19500 27.11100
H  -0.85600 0.77400 22.80900
H  -0.91800 0.73500 24.51200
H  0.74600 0.78800 23.72300
H  -1.01700 7.54600 20.81500
H  1.24700 9.54300 21.28800
H  0.87900 7.46700 19.39500
H  1.03600 6.01600 20.33700
H  2.02200 7.35200 20.76500
H  -0.94900 9.89000 19.84000
H  -0.48000 11.21300 20.93800
H  -2.87200 10.62000 20.82500
H  -2.15800 10.74800 22.40600
H  -2.45800 9.09700 21.71700
H  1.08400 13.43500 24.16200
H  2.20600 13.94700 25.60700
H  0.40400 13.88900 25.72800
H  0.51000 11.16700 30.05900
H  3.44300 12.15400 32.71000
H  3.94700 10.44300 32.32000
H  2.75300 10.78500 33.58700
Mg 47.22000 16.66200 28.51900
C  45.17900 16.57700 31.37200
C  49.44600 18.65300 30.41300
C  48.74300 17.67500 25.62200
C  44.66200 15.31300 26.82200
N  47.25300 17.45100 30.70100
C  46.35700 17.23800 31.69300
C  46.91800 17.56500 33.02500
C  48.13300 18.51400 32.61600
C  48.33400 18.18100 31.13400
C  47.78500 19.99400 32.83800
C  47.38900 16.26800 33.78000
C  47.13900 16.16500 35.29900
H  46.70300 17.41700 36.02100
N  48.97200 17.77700 28.10400
C  49.71700 18.47100 29.01400
C  50.87000 19.12200 28.31000
C  50.66900 18.90100 26.94800
C  49.44000 18.08500 26.80800
C  51.85400 20.05100 29.07500
C  51.49100 19.52000 25.81400
O  51.17600 19.36400 24.64000
C  52.78600 20.36800 25.99200
N  46.79600 16.57600 26.49800
C  47.52200 17.00900 25.48100
C  46.79000 16.87900 24.10600
C  45.77400 15.82400 24.53200
C  45.72900 15.80200 26.06800
C  46.15200 18.16900 23.52100
C  46.02200 14.31900 23.96100
C  45.03600 13.76100 22.97100
N  45.34900 15.95400 28.98700
C  44.42800 15.41500 28.18000
C  43.29100 14.95300 28.91100
C  43.56500 15.41900 30.15400
C  44.75700 16.09500 30.17000
C  42.18900 14.17700 28.32500
C  42.99600 15.45200 31.51500
O  41.92800 15.05000 31.95000
C  44.13200 16.12900 32.39300
C  43.47000 17.27800 33.06700
O  43.31300 18.41400 32.60200
O  42.99800 16.92800 34.33400
C  42.38900 17.93800 35.17700
H  50.08400 19.25600 31.06300
H  49.30700 18.00100 24.74500
H  43.86600 14.75100 26.32800
H  46.15600 18.15400 33.53500
H  49.13800 18.37100 33.01400
H  47.83000 20.67500 31.98700
H  48.41400 20.32400 33.66500
H  46.74900 20.07200 33.16700
H  48.47100 16.16200 33.69900
H  46.95800 15.42300 33.24200
H  48.02900 15.71800 35.74400
H  46.37600 15.39500 35.41200
H  52.86700 19.80600 28.75600
H  51.92100 20.06000 30.16300
H  51.83400 21.04900 28.63700
H  53.27100 20.64200 25.05500
H  53.33400 19.61900 26.56400
H  52.68000 21.28700 26.56800
H  47.54300 16.49900 23.41500
H  44.80600 16.19700 24.19800
H  45.08800 18.29300 23.72200
H  46.30500 18.13700 22.44300
H  46.59600 19.06600 23.95200
H  46.07900 13.72300 24.87200
H  47.05200 14.36800 23.60600
H  44.76600 12.71400 23.10400
H  45.43900 13.72400 21.95900
H  44.15000 14.38700 22.87000
H  42.64700 13.39800 27.71500
H  41.60100 14.83100 27.68200
H  41.58300 13.81600 29.15700
H  44.34900 15.32000 33.09100
H  42.51700 17.65900 36.22300
H  41.34300 18.04300 34.89000
H  42.87300 18.90700 35.05900

