158

Mg 48.16200 25.08400 28.27800
C  49.33100 27.51100 30.69400
C  47.46200 23.14900 30.96900
C  47.71300 22.72900 26.04300
C  49.95200 27.02100 25.79300
N  48.33700 25.36200 30.62300
C  48.72000 26.49000 31.32700
C  48.55400 26.23500 32.79100
C  48.13500 24.72200 32.87200
C  48.01000 24.37100 31.38900
C  49.11300 23.81500 33.66000
C  47.55800 27.19700 33.42700
C  47.67100 27.36000 34.95000
H  46.40900 27.64500 35.74600
N  47.39800 23.26300 28.42200
C  47.16900 22.54900 29.64500
C  46.59800 21.23500 29.35200
C  46.62600 21.20200 27.91000
C  47.27600 22.41200 27.37800
C  46.16100 20.23900 30.45200
C  46.13700 20.12100 26.98400
O  46.37200 20.12300 25.77500
C  45.54200 18.97500 27.65500
N  48.83000 24.90300 26.28200
C  48.31400 23.86900 25.52700
C  48.78000 23.95800 24.05200
C  49.20700 25.47900 23.96500
C  49.38200 25.80300 25.42100
C  49.93700 22.98700 23.70100
C  48.20400 26.52200 23.31500
C  48.75200 27.90600 22.91100
N  49.35600 26.89000 28.14400
C  49.92100 27.53700 27.06600
C  50.55000 28.74700 27.49900
C  50.22300 28.86000 28.87600
C  49.55900 27.65200 29.24100
C  51.45400 29.61100 26.63100
C  50.38800 29.66000 30.04900
O  50.88100 30.78100 30.07800
C  49.77200 28.88100 31.30400
C  50.89300 28.76400 32.28000
O  51.83600 27.96300 32.20000
O  50.61800 29.45200 33.48700
C  51.37200 29.07000 34.71100
H  47.09900 22.49100 31.76200
H  47.38800 21.97300 25.32500
H  50.40900 27.63900 25.01800
H  49.51700 26.40400 33.27200
H  47.14100 24.58100 33.29700
H  49.77600 24.34900 34.34000
H  49.73800 23.26100 32.96000
H  48.44400 23.17000 34.23000
H  46.56700 26.76300 33.29200
H  47.62900 28.15400 32.90800
H  48.42600 28.13100 35.10500
H  48.21600 26.44900 35.19600
H  46.17600 20.65000 31.46200
H  46.69000 19.28600 30.45400
H  45.11800 19.95300 30.31900
H  44.63700 19.15100 28.23600
H  46.23100 18.28700 28.14200
H  45.02000 18.46200 26.84700
H  47.95500 23.68500 23.39500
H  50.17000 25.50600 23.45500
H  50.13500 22.32700 24.54500
H  50.79600 23.61600 23.46500
H  49.60500 22.30300 22.92000
H  47.39800 26.65900 24.03600
H  47.69600 26.02200 22.49000
H  48.37100 28.67000 23.58800
H  48.46700 28.24500 21.91500
H  49.83500 27.84800 22.80200
H  51.97700 28.97900 25.91300
H  52.07900 30.15000 27.34300
H  50.80700 30.30200 26.09000
H  49.02500 29.58700 31.66800
H  51.25200 27.98900 34.78300
H  50.97700 29.46900 35.64500
H  52.36900 29.50300 34.62600
Mg -6.03800 25.69800 25.95400
C  -4.67600 26.84700 28.90600
C  -7.65100 23.14900 27.86700
C  -7.07300 24.20100 23.11900
C  -3.57000 27.49300 24.16800
N  -5.92700 24.96600 28.05200
C  -5.53400 25.78000 29.08900
C  -6.10000 25.24100 30.39600
C  -6.82800 23.89500 30.06700
C  -6.78000 23.98400 28.56300
C  -6.07100 22.60200 30.55000
C  -6.99400 26.22700 31.09100
C  -6.79400 26.41300 32.62500
H  -6.18000 25.18800 33.40700
N  -7.35300 24.01100 25.57600
C  -8.00200 23.21000 26.45600
C  -8.94600 22.40500 25.74600
C  -8.81700 22.63300 24.36200
C  -7.69500 23.64000 24.28300
C  -10.13200 21.64500 26.46200
C  -9.57300 22.05300 23.24700
O  -9.20700 22.23300 22.07000
C  -10.71700 21.09200 23.37800
N  -5.54700 26.05500 23.92300
C  -6.10700 25.22800 22.95600
C  -5.37900 25.49800 21.59500
C  -4.34800 26.64300 21.90300
C  -4.46600 26.76600 23.42700
C  -4.67700 24.27100 20.95700
C  -4.74200 28.02800 21.22000
C  -3.69200 28.62000 20.33600
N  -4.55400 27.06700 26.36800
C  -3.63400 27.73600 25.56900
C  -2.95600 28.65100 26.35500
C  -3.28400 28.38600 27.69400
C  -4.27600 27.40700 27.66300
C  -1.90200 29.65200 25.86500
C  -2.96100 28.67800 29.09500
O  -2.17800 29.45100 29.60200
C  -3.97100 27.69600 29.92000
C  -3.20700 26.92500 30.94700
O  -2.74600 25.84800 30.85600
O  -3.14300 27.63900 32.08600
C  -2.36900 26.98200 33.18700
H  -8.16800 22.41400 28.48800
H  -7.24500 23.80400 22.11600
H  -2.76500 27.88100 23.54000
H  -5.32200 24.94000 31.09800
H  -7.84300 23.75800 30.43900
H  -5.73100 22.09800 29.64500
H  -6.87300 22.03500 31.02400
H  -5.15100 22.64900 31.13300
H  -8.01100 25.84600 31.00300
H  -6.96600 27.18500 30.57100
H  -7.73900 26.54800 33.15100
H  -6.16300 27.25200 32.91700
H  -11.03700 22.24000 26.33800
H  -10.00800 21.45200 27.52700
H  -10.24700 20.63500 26.07000
H  -11.34300 20.90300 22.50600
H  -11.39200 21.23300 24.22200
H  -10.16500 20.17900 23.60000
H  -6.09800 25.95100 20.91300
H  -3.33900 26.31200 21.65800
H  -5.34300 23.93800 20.16100
H  -4.52900 23.37300 21.55600
H  -3.70800 24.55200 20.54500
H  -4.90000 28.77900 21.99400
H  -5.67400 27.99300 20.65500
H  -3.24700 29.54300 20.70700
H  -4.23600 28.94100 19.44800
H  -2.98000 27.83200 20.08800
H  -1.09400 29.94900 26.53400
H  -2.53300 30.50100 25.59900
H  -1.46400 29.19300 24.97900
H  -4.67100 28.36100 30.42600
H  -1.35000 26.77700 32.86100
H  -2.67800 25.95100 33.36200
H  -2.42000 27.49900 34.14600

