158

Mg 44.59900 5.33300 47.49200
C  42.46400 8.17200 47.28100
C  41.77800 3.40100 47.01600
C  46.51500 2.72100 47.07400
C  47.34800 7.47100 47.57700
N  42.30900 5.74900 47.27200
C  41.73900 6.95700 47.12600
C  40.19300 6.86900 47.03300
C  40.00500 5.32100 46.92100
C  41.42700 4.72400 47.12300
C  39.02300 4.68300 47.90500
C  39.57900 7.62700 45.84400
C  40.23200 7.19100 44.53400
H  40.65000 8.16900 43.33100
N  44.22600 3.25800 47.14100
C  42.99200 2.66500 47.00300
C  43.19100 1.23700 46.91200
C  44.58600 1.03600 46.85400
C  45.17900 2.35600 47.01700
C  42.04900 0.22900 46.73600
C  45.33500 -0.31300 46.75700
O  44.67900 -1.34200 46.73900
C  46.70700 -0.55700 46.95800
N  46.64200 5.13200 47.30800
C  47.20600 3.93300 47.19400
C  48.78500 4.01100 47.39300
C  48.92600 5.57000 47.59200
C  47.53600 6.12400 47.50800
C  49.29200 3.16300 48.57100
C  49.95200 6.23600 46.59400
C  50.99800 7.11700 47.23600
N  44.90100 7.38300 47.42900
C  46.07900 8.12100 47.45500
C  45.79900 9.45400 47.36500
C  44.37700 9.53700 47.42400
C  43.84100 8.27700 47.34600
C  46.84500 10.55500 47.19600
C  43.25900 10.45200 47.27100
O  43.22000 11.61700 47.00500
C  41.97300 9.62600 47.18600
C  41.11100 9.84200 48.31800
O  41.00900 9.08800 49.28300
O  40.28000 10.88200 48.04900
C  39.14700 11.07600 48.95000
H  40.87100 2.82300 46.82100
H  47.24800 1.93000 46.90400
H  48.07400 8.27400 47.72100
H  39.73300 7.21400 47.95900
H  39.66000 4.99400 45.94000
H  38.33100 5.37100 48.39100
H  39.55400 4.16900 48.70600
H  38.28800 4.08900 47.36200
H  39.58800 8.71300 45.94400
H  38.53500 7.33400 45.73700
H  39.43500 6.52000 44.21300
H  41.15900 6.62700 44.63100
H  41.23000 0.83200 46.34500
H  41.80500 -0.19100 47.71200
H  42.24900 -0.58300 46.03700
H  47.33800 -0.01700 46.25200
H  46.97700 -1.61100 46.88800
H  46.99800 -0.16200 47.93200
H  49.34600 3.70800 46.50900
H  49.26100 5.72800 48.61700
H  48.44000 2.52400 48.79800
H  49.56200 3.79900 49.41400
H  50.15500 2.62000 48.18500
H  49.40500 6.76000 45.81000
H  50.50000 5.51300 45.98800
H  51.59200 6.44100 47.85100
H  50.53600 7.92400 47.80500
H  51.52100 7.59600 46.40900
H  47.67800 10.51600 47.89800
H  46.36400 11.53300 47.18200
H  47.33400 10.37400 46.23900
H  41.48900 9.82300 46.23000
H  39.17000 12.07800 49.37800
H  39.19300 10.42800 49.82400
H  38.27700 10.95300 48.30500
Mg 9.40800 48.71800 26.02400
C  7.28500 48.61500 28.73900
C  11.93500 49.68100 27.98900
C  11.27300 48.68800 23.22500
C  6.60000 47.57100 24.09500
N  9.58700 49.14100 28.14700
C  8.59100 49.03100 29.12700
C  9.08900 49.40300 30.54100
C  10.64500 49.76900 30.21800
C  10.79900 49.41700 28.71900
C  10.93000 51.23700 30.53900
C  8.97400 48.21600 31.55900
C  9.61100 48.41000 32.94100
H  8.65400 48.56300 34.14300
N  11.33300 49.22600 25.62000
C  12.23400 49.45300 26.59800
C  13.53700 49.49100 25.99400
C  13.42100 49.19800 24.57700
C  11.96600 49.06600 24.38900
C  14.78400 49.82300 26.79500
C  14.50000 49.09700 23.53700
O  14.16100 48.92400 22.36800
C  15.94200 49.02200 23.82800
N  8.93700 48.33800 24.02500
C  9.93000 48.36400 22.98200
C  9.39900 47.97400 21.60900
C  8.02000 47.34900 22.02300
C  7.86800 47.67300 23.49500
C  9.42900 49.06100 20.56800
C  8.10500 45.83000 21.79900
C  8.71700 44.90400 22.83200
N  7.32700 48.18400 26.26700
C  6.36400 47.81800 25.41000
C  5.04700 47.74300 26.11000
C  5.35400 48.06200 27.45300
C  6.72400 48.35900 27.48100
C  3.80600 47.15700 25.60500
C  4.83200 48.23800 28.85700
O  3.74800 48.00500 29.39000
C  6.08100 48.40800 29.68100
C  6.15800 47.19900 30.46700
O  6.95800 46.35400 30.24200
O  5.40100 47.24200 31.66000
C  5.85200 46.28600 32.68600
H  12.79700 49.87100 28.63200
H  11.94900 48.48400 22.39200
H  5.72500 47.17400 23.57500
H  8.52900 50.22300 30.99000
H  11.18300 49.01000 30.78600
H  11.71600 51.47300 29.82300
H  11.27900 51.30900 31.56900
H  10.06400 51.89200 30.44500
H  9.29600 47.25800 31.14900
H  7.89800 48.18000 31.72900
H  10.07100 49.39300 32.83500
H  10.33900 47.60900 33.06600
H  14.51000 50.33400 27.71800
H  15.51200 50.46300 26.29600
H  15.29000 48.87200 26.95900
H  16.16800 48.25800 24.57200
H  16.32000 50.01900 24.05300
H  16.35100 48.55100 22.93400
H  10.17400 47.30700 21.23300
H  7.24600 47.81800 21.41500
H  9.88500 49.95400 20.99500
H  8.42000 49.31900 20.24800
H  10.07300 48.85200 19.71400
H  8.68900 45.55900 20.91900
H  7.09800 45.53700 21.50100
H  7.90200 44.26800 23.17700
H  9.09800 45.36800 23.74100
H  9.34500 44.16600 22.33200
H  3.70700 46.11500 25.91100
H  3.81100 47.23600 24.51800
H  2.97300 47.72600 26.01700
H  5.93500 49.27700 30.32200
H  6.92100 46.47900 32.76900
H  5.55700 45.25900 32.47200
H  5.42600 46.62100 33.63200

