158

Mg 16.72300 -0.68300 27.46500
C  15.81900 1.24900 30.19300
C  18.83200 -2.48900 29.41400
C  18.18600 -1.76300 24.66600
C  14.82300 1.61400 25.36900
N  17.24000 -0.65900 29.61600
C  16.79200 0.23100 30.50900
C  17.20800 -0.18100 31.96000
C  18.25700 -1.28400 31.68600
C  18.10200 -1.55000 30.16500
C  19.69100 -0.97400 32.27700
C  16.02600 -0.69500 32.79700
C  15.95100 -0.48700 34.33000
H  17.08800 0.24600 35.07500
N  18.16500 -2.09900 27.08400
C  18.80400 -2.83000 28.02300
C  19.65000 -3.85200 27.27300
C  19.46300 -3.57700 25.85500
C  18.62100 -2.40700 25.85000
C  20.57800 -4.83000 28.01300
C  19.99300 -4.37600 24.67200
O  19.83200 -4.04800 23.52600
C  20.81700 -5.57400 24.92700
N  16.56300 -0.09000 25.35700
C  17.29900 -0.74500 24.42700
C  17.05500 -0.14700 23.05600
C  15.76600 0.71900 23.22300
C  15.67200 0.70900 24.73100
C  18.22400 0.59700 22.38800
C  14.49000 0.02800 22.64100
C  13.66100 0.93700 21.69600
N  15.47700 1.03800 27.67700
C  14.72400 1.84100 26.78400
C  13.92600 2.80600 27.50200
C  14.36100 2.62100 28.87500
C  15.33800 1.58900 28.92400
C  12.80700 3.67300 27.01200
C  14.20400 3.15200 30.19800
O  13.50000 4.04800 30.70900
C  15.11500 2.25100 31.14000
C  16.03300 3.00400 31.98200
O  17.12700 3.32300 31.62600
O  15.44600 3.41800 33.19100
C  16.28400 4.35600 33.99700
H  19.48600 -3.04200 30.09100
H  18.71200 -2.26100 23.84900
H  14.28900 2.30000 24.70800
H  17.73800 0.59800 32.50800
H  17.97400 -2.24800 32.11000
H  20.45100 -1.21000 31.53100
H  19.79700 -1.69500 33.08800
H  19.84100 0.00400 32.73400
H  15.96700 -1.78200 32.74500
H  15.15300 -0.42000 32.20400
H  15.84100 -1.46500 34.80000
H  15.02900 0.09400 34.34500
H  20.79500 -4.42700 29.00200
H  21.54000 -4.83300 27.50200
H  20.13300 -5.81100 28.18400
H  20.39600 -6.13100 25.76400
H  21.74700 -5.05100 25.15100
H  20.80100 -6.29100 24.10600
H  16.85800 -1.08000 22.52700
H  15.92200 1.72000 22.82100
H  17.95900 1.50500 21.84600
H  18.57900 -0.11500 21.64400
H  18.98400 0.85300 23.12700
H  13.78100 -0.13300 23.45400
H  14.55100 -0.98900 22.25200
H  14.13900 1.90800 21.56300
H  12.59000 1.07600 21.84100
H  13.95500 0.57600 20.71100
H  12.08900 3.78700 27.82400
H  12.30300 3.21500 26.16100
H  13.22100 4.60500 26.62600
H  14.46400 1.75500 31.86000
H  16.75400 3.77400 34.78900
H  15.49600 4.98800 34.40700
H  17.02900 4.92400 33.43900
Mg 48.01300 24.84300 27.98200
C  48.74400 27.06700 30.49500
C  47.53400 22.33700 30.49400
C  47.37000 22.49300 25.56100
C  48.69600 27.16700 25.62200
N  48.25400 24.71900 30.25800
C  48.54800 25.82900 31.08700
C  48.40200 25.54500 32.58100
C  48.08000 23.92200 32.54700
C  47.96100 23.60700 30.98100
C  49.04600 22.89500 33.32700
C  47.17300 26.36700 33.18700
C  47.45400 27.19500 34.51400
H  46.36600 27.19300 35.54000
N  47.40600 22.77700 28.00600
C  47.24800 21.94900 29.13600
C  46.80500 20.64400 28.61000
C  46.79800 20.62200 27.17000
C  47.21500 21.95300 26.85600
C  46.47600 19.51300 29.60500
C  46.35400 19.52100 26.14300
O  46.44100 19.65800 24.96300
C  45.82700 18.21700 26.62300
N  48.21800 24.72200 25.85200
C  47.84100 23.71000 25.02800
C  47.90400 24.06600 23.52700
C  48.13000 25.59700 23.60800
C  48.32800 25.88400 25.16300
C  48.90600 23.15300 22.67400
C  46.96900 26.38100 22.91000
C  45.76200 26.75500 23.75600
N  48.69000 26.77400 27.96100
C  48.95500 27.61500 26.95200
C  49.47400 28.87500 27.46500
C  49.25700 28.77400 28.92100
C  48.83600 27.43900 29.15600
C  50.06500 30.02900 26.65600
C  49.46900 29.39900 30.20800
O  49.87200 30.51100 30.46800
C  49.13100 28.28600 31.26300
C  50.28000 28.32000 32.19500
O  51.36700 27.83100 31.99500
O  49.92000 29.07700 33.29000
C  50.90200 29.01200 34.42800
H  47.38900 21.59800 31.28400
H  47.30000 21.80500 24.71500
H  49.07200 27.80000 24.81500
H  49.25700 25.81900 33.19800
H  47.05800 23.83700 32.91400
H  49.13300 21.96500 32.76400
H  48.55800 22.55200 34.24000
H  50.01500 23.38600 33.41400
H  46.39400 25.67200 33.50100
H  46.89000 27.05000 32.38600
H  47.58400 28.25400 34.29100
H  48.33800 26.64600 34.83900
H  46.80600 18.56000 29.19100
H  45.42800 19.54100 29.90600
H  46.94000 19.64000 30.58300
H  46.56900 17.61300 27.14600
H  45.54600 17.67300 25.72100
H  44.92700 18.50700 27.16600
H  46.96000 23.78800 23.06000
H  48.97000 25.75800 22.93200
H  48.50700 22.57400 21.84100
H  49.21100 22.34800 23.34200
H  49.79000 23.71200 22.36500
H  46.46500 25.89600 22.07400
H  47.39500 27.30000 22.50800
H  44.88600 26.29700 23.29600
H  45.67500 27.84000 23.81000
H  45.82300 26.41100 24.78800
H  50.33100 29.73300 25.64100
H  50.96500 30.24500 27.23200
H  49.43000 30.91400 26.65000
H  48.20500 28.61900 31.73200
H  50.39800 28.84600 35.38000
H  51.57100 29.86800 34.51400
H  51.48500 28.10600 34.26300

