158

Mg 10.21900 48.76500 25.18600
C  8.25400 48.78000 28.04200
C  12.84700 50.08200 26.94500
C  12.04700 48.32100 22.51100
C  7.30600 48.19700 23.34400
N  10.41300 49.30200 27.24500
C  9.57700 49.02400 28.30500
C  10.20300 49.56200 29.59500
C  11.49300 50.37100 29.10600
C  11.63000 49.87500 27.67900
C  11.39600 51.95400 29.06000
C  10.46300 48.35900 30.65900
C  9.77200 48.56500 31.98300
H  9.68600 47.28800 32.92800
N  12.14700 49.10600 24.82700
C  13.09800 49.62400 25.62100
C  14.40500 49.56300 24.98900
C  14.23300 48.99200 23.69800
C  12.77800 48.84300 23.63900
C  15.76000 49.88300 25.72000
C  15.24400 48.70200 22.61400
O  14.88000 48.35800 21.48800
C  16.69300 48.88000 22.79200
N  9.76500 48.57600 23.08200
C  10.71200 48.29100 22.17000
C  10.07700 47.81600 20.84400
C  8.56400 47.69400 21.17900
C  8.52400 48.24200 22.63300
C  10.43200 48.64600 19.57300
C  8.00900 46.19100 21.03300
C  7.97400 45.26900 22.28800
N  8.20100 48.58800 25.50200
C  7.15200 48.31800 24.71900
C  5.97100 48.14800 25.47200
C  6.39900 48.27100 26.80000
C  7.76100 48.54000 26.75600
C  4.58400 47.85800 24.98400
C  5.86200 48.32900 28.14200
O  4.70800 48.13600 28.56500
C  7.09800 48.58000 28.95500
C  7.32500 47.42000 29.85200
O  7.84400 46.37500 29.48300
O  6.75100 47.67300 31.11100
C  6.49300 46.46800 31.96700
H  13.64400 50.55300 27.52500
H  12.61100 48.18600 21.58600
H  6.37700 47.93200 22.83400
H  9.46300 50.21800 30.05300
H  12.43400 50.10200 29.58600
H  12.10700 52.34900 28.33400
H  11.56100 52.24400 30.09800
H  10.37400 52.21700 28.78500
H  11.53600 48.32300 30.84500
H  10.16900 47.36500 30.32300
H  8.78000 48.96500 31.77600
H  10.32200 49.38000 32.45500
H  15.72200 49.91800 26.80800
H  16.21600 50.81600 25.38800
H  16.35900 49.01400 25.44500
H  16.91500 49.93500 22.95300
H  17.07300 48.59700 21.81000
H  17.19700 48.27900 23.54800
H  10.42700 46.81200 20.60300
H  7.92400 48.33700 20.57400
H  11.22600 49.35100 19.82000
H  9.56700 49.21700 19.23400
H  10.74700 47.91400 18.83100
H  8.58900 45.72500 20.23500
H  6.99600 46.36500 20.67000
H  8.25700 44.27100 21.95400
H  6.94000 45.03800 22.54700
H  8.53600 45.68800 23.12300
H  3.81900 47.71000 25.74500
H  4.68400 47.11200 24.19400
H  4.33200 48.81400 24.52400
H  6.94900 49.43400 29.61500
H  5.44200 46.21900 31.82300
H  6.52200 46.81400 33.00000
H  7.09400 45.56100 32.03500
Mg -2.08100 35.18900 26.59800
C  -3.99000 33.44400 28.95000
C  -1.48000 37.53200 29.07300
C  -0.23500 36.84600 24.33700
C  -3.21200 33.04000 24.23700
N  -2.71600 35.41800 28.79600
C  -3.26800 34.43500 29.54900
C  -2.99700 34.76100 31.04800
C  -2.53300 36.21700 31.08400
C  -2.21500 36.40700 29.56100
C  -3.66400 37.12100 31.71700
C  -2.11100 33.64100 31.69500
C  -2.74300 32.80500 32.79200
H  -2.02300 32.79200 34.15200
N  -1.04300 36.98000 26.64600
C  -0.85300 37.77300 27.80600
C  0.17700 38.78700 27.46000
C  0.37300 38.75400 26.08400
C  -0.28000 37.49300 25.60100
C  0.85800 39.62900 28.53300
C  1.24600 39.67000 25.22500
O  1.54200 39.48500 24.06000
C  1.67200 40.91900 25.71100
N  -1.85300 35.08300 24.49700
C  -0.92800 35.77000 23.82700
C  -0.74000 35.22000 22.39000
C  -1.70400 33.94600 22.39500
C  -2.35200 34.00400 23.79400
C  -1.01800 36.21400 21.27200
C  -1.04500 32.56800 22.13200
C  -0.33800 31.88200 23.33000
N  -3.54700 33.66600 26.48500
C  -3.88300 32.87200 25.44300
C  -4.88900 31.82500 25.87600
C  -4.95700 32.04700 27.26400
C  -4.09400 33.15600 27.57700
C  -5.59300 30.82600 25.07400
C  -5.49100 31.63000 28.49800
O  -6.19900 30.66800 28.73300
C  -4.90700 32.45900 29.68500
C  -5.96900 33.15700 30.43300
O  -6.72100 33.93500 29.92500
O  -6.13400 32.56600 31.68200
C  -7.25200 32.99600 32.48400
H  -1.24000 38.26400 29.84800
H  0.38900 37.37600 23.61500
H  -3.43100 32.30300 23.46100
H  -3.95200 34.64300 31.55900
H  -1.59700 36.34100 31.62900
H  -3.31800 37.70100 32.57300
H  -4.43000 36.45600 32.11500
H  -4.07100 37.74100 30.91800
H  -1.29800 34.09100 32.26500
H  -1.70600 32.95600 30.95000
H  -2.70100 31.79900 32.37400
H  -3.78900 33.06700 32.94800
H  1.94500 39.61100 28.45800
H  0.57200 39.32500 29.54000
H  0.49700 40.65700 28.53500
H  0.92900 41.51100 26.24500
H  2.11400 41.52200 24.91800
H  2.51700 40.74700 26.37700
H  0.29400 34.88000 22.33000
H  -2.50100 34.06000 21.66000
H  -1.84300 35.77700 20.71000
H  -0.02500 36.35300 20.84500
H  -1.31300 37.22000 21.57100
H  -0.23400 32.70400 21.41500
H  -1.72800 31.87700 21.63800
H  -0.92000 30.97600 23.49900
H  -0.34500 32.42900 24.27200
H  0.73500 31.73200 23.20600
H  -5.28500 30.77300 24.03000
H  -6.64200 31.11500 25.14400
H  -5.42600 29.81800 25.45400
H  -4.30200 31.83600 30.34300
H  -7.89100 33.74500 32.01500
H  -6.85000 33.38100 33.42100
H  -7.84400 32.11900 32.74400

