158

Mg 46.63100 44.88300 44.83500
C  43.18500 44.77800 44.03300
C  46.93000 41.48200 44.24100
C  49.96900 45.23900 44.89200
C  46.24100 48.36200 45.16800
N  45.29200 43.40500 44.12800
C  43.88200 43.55700 43.83200
C  43.27400 42.25200 43.22800
C  44.40900 41.20000 43.60500
C  45.66000 42.06700 44.09200
C  44.09600 39.99900 44.64100
C  43.25800 42.44300 41.75200
C  41.89100 42.15300 41.09100
H  41.76000 41.29500 39.85800
N  48.23400 43.48700 44.77900
C  48.12800 42.15900 44.56700
C  49.44300 41.59800 44.35600
C  50.41100 42.63800 44.49300
C  49.53600 43.88900 44.80500
C  49.73500 40.12100 44.08400
C  51.89000 42.49000 44.43200
O  52.33500 41.36700 44.26400
C  52.83600 43.64900 44.57800
N  47.92000 46.54800 44.77300
C  49.28200 46.44700 44.83400
C  49.95300 47.82500 44.92500
C  48.76800 48.72400 45.34300
C  47.55800 47.86200 45.09700
C  51.22800 47.98300 45.87100
C  48.74500 50.14800 44.62900
C  48.74500 51.40500 45.47900
N  45.08400 46.30800 44.72400
C  45.00500 47.69900 44.92400
C  43.63200 48.18800 44.75600
C  42.90500 47.07800 44.36700
C  43.80400 45.96900 44.38300
C  43.14400 49.68600 44.73400
C  41.55900 46.58200 43.98300
O  40.41000 47.11500 43.97200
C  41.70600 44.99300 43.81300
C  40.84700 44.29300 44.76900
O  39.85100 43.63800 44.48300
O  41.29700 44.40000 46.08600
C  40.47600 43.63400 47.03900
H  46.97200 40.42500 43.96900
H  51.04100 45.44000 44.93000
H  46.26400 49.42200 45.43100
H  42.36100 42.13900 43.81300
H  44.66900 40.63200 42.71200
H  44.50000 39.06200 44.25700
H  43.04700 39.98400 44.93700
H  44.72300 40.17300 45.51600
H  44.04100 41.86400 41.26300
H  43.54000 43.46600 41.50200
H  41.44300 43.11300 40.83400
H  41.19400 41.52500 41.64600
H  48.80200 39.56600 43.98700
H  50.31600 39.66700 44.88700
H  50.26300 39.97100 43.14300
H  52.60300 43.99900 45.58400
H  52.61000 44.37000 43.79200
H  53.86600 43.29500 44.61500
H  50.24400 48.11500 43.91600
H  48.79200 48.81200 46.42900
H  52.18000 47.95300 45.34000
H  51.25200 47.26400 46.69000
H  51.29800 48.96800 46.33200
H  47.87900 50.27300 43.97800
H  49.64700 50.09200 44.02000
H  49.53200 52.12300 45.24800
H  48.83800 51.10400 46.52300
H  47.77700 51.90100 45.41200
H  42.45300 49.91600 43.92400
H  44.11600 50.17700 44.67200
H  42.59700 49.85600 45.66200
H  41.31800 44.78100 42.81600
H  40.97400 42.67200 47.16200
H  39.46700 43.29200 46.80900
H  40.40500 44.19200 47.97200
Mg 47.22400 35.10300 28.29800
C  45.38300 33.50700 30.72900
C  47.53400 37.72900 30.50000
C  48.80800 36.91000 25.75800
C  46.59000 32.60100 26.09300
N  46.66500 35.43700 30.40300
C  45.99500 34.58300 31.20500
C  45.97900 35.02500 32.65500
C  46.41700 36.58100 32.47700
C  46.88200 36.60100 31.04000
C  45.42600 37.68100 32.77400
C  47.04400 34.22600 33.45300
C  47.20300 34.50500 34.95700
H  46.15000 35.36600 35.78900
N  48.04800 36.94500 28.17200
C  48.08100 37.89700 29.21600
C  48.63300 39.09000 28.72300
C  48.97400 38.88900 27.35400
C  48.63000 37.47600 27.01600
C  49.06000 40.29300 29.55500
C  49.58000 39.95800 26.41300
O  50.15000 39.62400 25.35300
C  49.41800 41.37400 26.73200
N  47.70300 34.84100 26.29000
C  48.36300 35.64100 25.42700
C  48.29800 35.10800 23.96100
C  47.82100 33.61400 24.15100
C  47.31500 33.68200 25.56000
C  47.40200 36.07700 23.14700
C  48.92000 32.52500 24.01000
C  48.51000 31.38400 23.02100
N  46.14900 33.36300 28.39000
C  46.03100 32.42300 27.35400
C  45.25800 31.32200 28.00600
C  44.86200 31.75300 29.24800
C  45.53500 32.96600 29.47800
C  44.97800 29.96300 27.33400
C  44.14900 31.36200 30.43000
O  43.53500 30.34400 30.72000
C  44.36000 32.53100 31.38300
C  44.59100 32.02000 32.75000
O  45.41300 31.21100 33.11100
O  43.70000 32.60900 33.58300
C  43.77300 32.10500 34.95000
H  47.63100 38.57500 31.18200
H  49.14800 37.58200 24.96700
H  46.45300 31.68900 25.50700
H  44.98100 34.85300 33.05700
H  47.11700 36.83300 33.27400
H  44.43200 37.23400 32.78400
H  45.48400 38.51000 32.06900
H  45.55900 38.10100 33.77100
H  47.93100 34.48500 32.87500
H  47.05100 33.14000 33.35800
H  48.22300 34.88900 34.96900
H  47.16800 33.52700 35.43700
H  50.14100 40.38100 29.44500
H  48.77000 40.20500 30.60200
H  48.43300 41.12200 29.22700
H  49.52700 41.94600 25.81000
H  50.08200 41.71000 27.52900
H  48.38100 41.45700 27.05600
H  49.29200 34.97900 23.53200
H  46.88400 33.43500 23.62300
H  48.15100 36.33000 22.39600
H  46.98500 36.90800 23.71600
H  46.57500 35.57700 22.64200
H  49.23800 32.09800 24.96200
H  49.80200 32.96400 23.54300
H  49.27500 31.35200 22.24500
H  47.54200 31.59600 22.56700
H  48.48600 30.44400 23.57300
H  43.94500 29.69200 27.55100
H  45.66700 29.23200 27.75900
H  45.07400 29.99600 26.24900
H  43.44200 33.11800 31.34900
H  43.74800 31.01500 34.96600
H  42.97300 32.55100 35.54000
H  44.77000 32.39400 35.28400

