158

Mg 41.47200 9.13800 29.85800
C  43.27200 10.30300 32.72400
C  39.10900 7.93500 32.06000
C  39.72100 8.15100 27.27400
C  44.01000 10.40100 27.89300
N  41.23400 9.14300 32.16800
C  42.07700 9.66700 33.09200
C  41.52700 9.59000 34.48800
C  40.42000 8.52200 34.25200
C  40.21300 8.50300 32.75800
C  40.62800 7.11100 34.84700
C  40.91200 10.87500 35.04700
C  40.92400 10.89100 36.59400
H  41.71700 11.93100 37.43900
N  39.70900 8.18100 29.70900
C  38.83600 7.84900 30.70800
C  37.64600 7.22100 30.14600
C  37.74400 7.44900 28.74700
C  39.09000 7.88700 28.50500
C  36.64600 6.59500 31.05700
C  36.69200 7.34500 27.62800
O  36.93700 7.60300 26.42900
C  35.20100 7.10100 28.08200
N  41.92000 9.24300 27.92000
C  41.02100 8.69000 27.00200
C  41.46500 8.97300 25.54400
C  42.72800 9.81400 25.72600
C  42.90400 9.87200 27.25300
C  41.54000 7.72700 24.65400
C  42.62300 11.28900 25.08400
C  41.64600 12.25100 25.73800
N  43.33800 10.03700 30.19600
C  44.28100 10.49400 29.28700
C  45.46600 10.98800 29.89200
C  45.04400 11.02800 31.27100
C  43.75600 10.45300 31.42300
C  46.71000 11.42100 29.21100
C  45.44000 11.40300 32.63900
O  46.41000 12.00300 33.04800
C  44.33000 10.97200 33.60300
C  44.90000 10.15200 34.79700
O  45.34400 9.03100 34.72500
O  44.69100 10.88900 35.99500
C  45.13600 10.11000 37.14300
H  38.31500 7.90100 32.80900
H  39.22400 7.95800 26.32100
H  44.84500 10.67100 27.24200
H  42.28400 9.02800 35.03500
H  39.47700 8.87300 34.67100
H  39.69600 6.81200 35.32600
H  41.35300 7.20200 35.65600
H  41.06700 6.40900 34.13700
H  39.89100 11.12100 34.75600
H  41.46200 11.74000 34.67600
H  41.23500 9.91900 36.97800
H  39.84700 10.97700 36.74100
H  35.71500 7.13400 30.88100
H  36.70000 6.73600 32.13600
H  36.61400 5.51500 30.91400
H  34.84000 7.94300 28.67200
H  35.34700 6.18300 28.65200
H  34.64600 6.84900 27.17800
H  40.67100 9.59900 25.13700
H  43.56400 9.28100 25.27300
H  42.48600 7.68800 24.11300
H  40.75900 7.82600 23.90000
H  41.37900 6.80500 25.21100
H  42.24900 11.12900 24.07300
H  43.64300 11.66900 25.03200
H  41.48600 11.89000 26.75400
H  40.75300 12.17400 25.11800
H  42.05800 13.25900 25.77600
H  46.87300 10.82300 28.31500
H  47.47700 11.51700 29.98000
H  46.47200 12.42200 28.85200
H  43.97300 11.93800 33.95800
H  46.21500 9.97200 37.07600
H  44.65900 9.14800 37.33300
H  44.93800 10.66300 38.06200
Mg 48.18900 34.91000 27.81900
C  46.29700 33.28500 30.22900
C  48.34800 37.66800 30.07400
C  49.37100 36.99900 25.39700
C  47.62700 32.44800 25.60800
N  47.39800 35.35200 29.92100
C  46.79400 34.45500 30.74600
C  46.86300 35.02800 32.20600
C  47.06000 36.50600 31.93300
C  47.68100 36.50600 30.55300
C  45.80600 37.41500 32.22300
C  48.14700 34.34800 32.87600
C  48.44700 34.51700 34.36700
H  47.54100 35.48600 35.20300
N  48.84800 36.98100 27.74900
C  48.90000 37.88900 28.81400
C  49.66300 39.02000 28.43500
C  49.91000 38.93600 27.02700
C  49.28500 37.61400 26.63200
C  49.95600 40.16800 29.39200
C  50.65100 39.92300 26.02900
O  50.80500 39.62700 24.86200
C  51.12300 41.29000 26.50800
N  48.22200 34.89100 25.73700
C  48.88300 35.74900 24.94400
C  48.99300 35.21900 23.51400
C  48.63900 33.69600 23.69900
C  48.16500 33.66900 25.12900
C  48.07500 36.07100 22.54600
C  49.83900 32.82700 23.33600
C  49.39400 31.58200 22.52900
N  47.23800 33.09500 27.87700
C  47.04300 32.17500 26.94100
C  46.41100 30.96700 27.43800
C  46.08600 31.36800 28.72900
C  46.58700 32.71900 28.95900
C  45.93600 29.69800 26.76000
C  45.31600 31.07100 29.99100
O  44.61800 30.08700 30.24500
C  45.38500 32.29200 30.93200
C  45.76200 31.74800 32.33100
O  46.66700 31.00500 32.59300
O  44.82400 32.12300 33.21900
C  45.11100 31.79400 34.62700
H  48.48500 38.39600 30.87600
H  49.75300 37.54700 24.53300
H  47.49000 31.71300 24.81100
H  45.98400 34.69200 32.75600
H  47.71000 36.95500 32.68400
H  44.92100 36.87200 32.55400
H  45.40600 38.05900 31.44100
H  45.91900 38.04400 33.10600
H  49.07500 34.66700 32.40100
H  48.18100 33.26400 32.77200
H  49.44700 34.89800 34.57300
H  48.43500 33.58200 34.92800
H  50.97000 40.54500 29.25400
H  49.92700 39.87900 30.44200
H  49.27100 41.00400 29.25300
H  50.43200 41.71800 27.23400
H  51.13300 41.91000 25.61100
H  52.13900 41.23400 26.89900
H  50.04000 35.34900 23.24000
H  47.75000 33.39600 23.14400
H  47.18400 35.44600 22.50300
H  48.47400 36.42300 21.59500
H  47.98200 37.00300 23.10400
H  50.34500 32.48400 24.23800
H  50.62300 33.38200 22.82000
H  48.82100 31.83200 21.63600
H  48.71800 31.02600 23.17800
H  50.18800 30.91400 22.19600
H  44.98200 29.56600 26.25000
H  45.73300 28.92700 27.50300
H  46.71400 29.35600 26.07700
H  44.44100 32.82700 31.03800
H  46.05300 31.28400 34.82800
H  44.25700 31.14100 34.80700
H  45.14400 32.74800 35.15400

