158

Mg 43.58500 4.33000 46.69600
C  41.73900 7.41000 46.65000
C  40.58800 2.65600 46.60300
C  45.22500 1.62800 45.83200
C  46.61200 6.23700 46.36300
N  41.49500 5.01500 46.62200
C  40.95200 6.27100 46.64300
C  39.39500 6.27500 46.68200
C  39.11300 4.72600 46.78200
C  40.48100 4.05000 46.71900
C  38.20100 4.15600 47.93900
C  38.69400 6.94100 45.44000
C  39.20700 6.55100 44.08500
H  40.00500 7.56100 43.24200
N  42.99800 2.32700 46.57400
C  41.71300 1.81700 46.47100
C  41.73400 0.41100 46.22000
C  43.06900 0.00500 46.13300
C  43.84900 1.31000 46.13100
C  40.49900 -0.45400 46.18900
C  43.57500 -1.38600 45.96700
O  42.76700 -2.36000 45.88200
C  45.05800 -1.61100 46.16400
N  45.60100 4.03200 46.23700
C  46.05000 2.75200 46.03600
C  47.49900 2.66100 45.78700
C  48.03600 3.97900 46.29400
C  46.73100 4.81600 46.32300
C  48.24500 1.40800 46.32500
C  49.16800 4.65100 45.41300
C  50.18800 5.40300 46.23400
N  44.16300 6.39600 46.48800
C  45.41300 7.00000 46.43800
C  45.20400 8.46700 46.39500
C  43.80100 8.64600 46.58400
C  43.19300 7.35100 46.57700
C  46.27500 9.51700 46.35800
C  42.79000 9.62700 46.86000
O  42.90300 10.85200 47.06200
C  41.42600 8.87800 46.85300
C  40.65800 9.07100 48.14900
O  41.01500 8.77400 49.25300
O  39.47500 9.71700 47.96100
C  38.53300 9.74600 49.07200
H  39.61100 2.17500 46.52900
H  45.82200 0.80400 45.43600
H  47.50300 6.84200 46.54400
H  39.16600 6.81900 47.59800
H  38.63900 4.35200 45.87400
H  38.68900 3.49800 48.65900
H  37.43000 3.54800 47.46600
H  37.71700 4.92600 48.53900
H  38.77500 8.02400 45.53100
H  37.63900 6.66800 45.47000
H  38.32000 6.36800 43.47900
H  39.77200 5.62600 44.20200
H  40.82400 -1.47600 46.38300
H  40.17300 -0.49400 45.14900
H  39.74000 -0.25800 46.94600
H  45.46800 -0.85000 46.82900
H  45.59000 -1.66800 45.21400
H  45.10900 -2.54800 46.71800
H  47.68900 2.68000 44.71300
H  48.29100 3.77800 47.33500
H  47.75800 0.97600 47.20000
H  49.21700 1.73300 46.69500
H  48.45300 0.64400 45.57500
H  48.70200 5.38200 44.75200
H  49.75000 3.94200 44.82400
H  51.15100 4.89200 46.25000
H  49.85900 5.46700 47.27200
H  50.40600 6.41800 45.90300
H  45.87900 10.43300 45.92000
H  47.11700 9.21400 45.73600
H  46.61100 9.72700 47.37300
H  40.74800 9.31700 46.12100
H  38.64600 10.66300 49.65000
H  38.48600 8.89700 49.75500
H  37.53700 9.80500 48.63200
Mg 7.02900 53.33200 41.18300
C  5.82000 50.04100 40.97100
C  10.09200 52.18500 40.24300
C  7.97600 56.57100 40.46700
C  3.82100 54.48500 41.82600
N  7.78600 51.32800 40.54500
C  7.16000 50.13500 40.65400
C  8.15100 48.91900 40.62400
C  9.57100 49.70900 40.62700
C  9.10000 51.19300 40.48300
C  10.50000 49.55500 41.84100
C  8.02900 47.87000 39.53200
C  8.50800 48.22200 38.09800
H  7.63700 47.65700 36.93400
N  8.82400 54.24700 40.36900
C  10.00500 53.57900 40.10400
C  11.02400 54.54400 39.83100
C  10.41400 55.85500 39.82100
C  8.98600 55.60000 40.23700
C  12.46200 54.15600 39.56400
C  11.13700 57.18400 39.39600
O  12.33300 57.19800 39.00300
C  10.34400 58.40900 39.17300
N  6.06900 55.27300 41.21200
C  6.67800 56.43800 40.87900
C  5.83600 57.68500 41.30000
C  4.49700 56.98100 41.72700
C  4.76800 55.49100 41.53300
C  6.42600 58.64100 42.28300
C  3.16300 57.51700 41.00200
C  2.81300 59.03100 41.10100
N  5.17200 52.50100 41.37400
C  3.91300 53.08800 41.57200
C  2.91600 52.11500 41.55000
C  3.63200 50.90300 41.37400
C  4.99600 51.18600 41.25300
C  1.38100 52.24600 41.82500
C  3.43500 49.48700 41.30500
O  2.43000 48.81900 41.38200
C  4.87100 48.82800 40.99800
C  4.72300 47.93000 39.70700
O  4.57800 48.34200 38.55600
O  4.69800 46.58300 40.00900
C  4.82100 45.64000 38.86100
H  11.10500 51.83000 40.03700
H  8.36400 57.58200 40.32700
H  2.82600 54.74400 42.19400
H  8.06900 48.42900 41.59500
H  10.10100 49.48900 39.70100
H  10.44000 50.46500 42.43700
H  11.51000 49.39400 41.46300
H  10.36200 48.66000 42.44800
H  7.11500 47.28600 39.62900
H  8.67700 47.04100 39.81800
H  9.54700 47.99700 37.85600
H  8.41400 49.30000 37.96700
H  12.55300 53.19800 39.05300
H  13.03200 53.99200 40.47900
H  13.04100 54.88000 38.99100
H  9.48600 58.09900 38.57500
H  10.86100 59.10700 38.51500
H  10.14000 58.94600 40.09900
H  5.77900 58.30700 40.40700
H  4.52600 57.22400 42.79000
H  7.34500 58.19900 42.66800
H  5.73000 58.79700 43.10600
H  6.76800 59.51600 41.73000
H  2.29300 56.90200 41.23300
H  3.35500 57.25300 39.96200
H  3.60500 59.46600 41.71100
H  1.85300 59.20300 41.58700
H  2.72300 59.45300 40.10000
H  0.79300 51.46600 41.34300
H  1.10400 53.23900 41.47300
H  1.23100 52.14400 42.90000
H  5.24100 48.17900 41.79200
H  5.37400 46.07800 38.03000
H  3.85800 45.19100 38.61700
H  5.42600 44.82600 39.26100

