158

Mg 48.19300 16.28700 28.88000
C  45.85200 16.29300 31.50600
C  50.29100 18.07600 30.86000
C  50.30600 16.57700 26.20300
C  45.64100 15.17500 26.80400
N  48.07600 16.97200 30.95400
C  47.10200 16.71400 31.87100
C  47.58500 17.10000 33.25500
C  48.87300 18.02100 32.95400
C  49.10000 17.64300 31.48800
C  48.60000 19.53000 33.22500
C  47.93400 15.80200 34.06500
C  47.78600 15.83400 35.57500
H  47.75200 17.26100 36.14900
N  50.09000 17.11100 28.60900
C  50.71500 17.85300 29.60600
C  52.00800 18.25300 29.04500
C  52.06400 17.80100 27.71200
C  50.71200 17.16500 27.42500
C  52.99100 19.09900 29.78300
C  53.21900 17.82300 26.68900
O  53.15600 17.43000 25.52900
C  54.47600 18.57000 27.03200
N  47.90800 16.17400 26.76100
C  48.96600 16.04400 25.95100
C  48.55400 15.43400 24.64800
C  47.03500 15.06100 24.76400
C  46.80100 15.58600 26.24800
C  48.89500 16.23400 23.40100
C  46.71000 13.57900 24.49900
C  46.87000 13.16800 23.08100
N  46.14600 15.87500 29.04900
C  45.24000 15.35700 28.12100
C  44.02700 14.94900 28.72700
C  44.24100 15.26200 30.11400
C  45.48200 15.91400 30.17900
C  42.94800 14.14600 28.26300
C  43.58000 15.24700 31.41700
O  42.40200 14.89400 31.70700
C  44.66000 15.88700 32.43400
C  44.08800 17.03300 33.11000
O  43.98900 18.16200 32.66600
O  43.64400 16.60100 34.37000
C  43.15900 17.59700 35.28300
H  50.88700 18.67800 31.54900
H  50.99800 16.59800 25.35800
H  44.87800 14.82000 26.10700
H  46.83200 17.62000 33.84800
H  49.62000 17.69600 33.67800
H  47.57000 19.62700 33.56600
H  48.65400 19.90800 32.20500
H  49.42900 19.90600 33.82500
H  49.01500 15.66200 34.05200
H  47.47000 14.88100 33.71200
H  48.70300 15.39100 35.96400
H  46.93400 15.28400 35.97300
H  53.30300 19.94500 29.17100
H  53.92200 18.53200 29.79100
H  52.85800 19.42100 30.81600
H  54.29100 19.61800 27.26500
H  55.09100 18.68000 26.13900
H  54.92000 17.99200 27.84300
H  49.07700 14.49100 24.48200
H  46.33500 15.62600 24.14900
H  48.65100 15.62100 22.53400
H  49.96900 16.39000 23.29700
H  48.42200 17.21300 23.32600
H  45.66200 13.38200 24.72500
H  47.26700 12.91200 25.15700
H  46.96200 14.02800 22.41800
H  46.03900 12.57900 22.69300
H  47.72300 12.49200 23.03600
H  43.24500 13.15400 27.92300
H  42.35300 14.54900 27.44300
H  42.25200 13.79400 29.02500
H  44.87100 15.01700 33.05700
H  42.44400 18.24500 34.77600
H  43.95000 18.28900 35.57400
H  42.68100 17.10800 36.13100
Mg 31.26900 58.35800 38.99300
C  28.41100 56.51300 38.13600
C  33.18000 55.61400 38.27500
C  33.87100 60.37300 39.25000
C  29.16200 61.20400 39.20600
N  30.81400 56.32300 38.09600
C  29.60900 55.80900 37.88600
C  29.71700 54.31000 37.57800
C  31.25900 54.04000 37.60300
C  31.84300 55.41000 37.96200
C  31.75400 52.85900 38.50500
C  28.97400 53.84900 36.24900
C  29.38300 54.61000 34.97900
H  28.33700 55.24200 34.08300
N  33.30200 57.97600 38.91600
C  33.87600 56.78100 38.66600
C  35.25400 56.90300 38.66200
C  35.55200 58.28400 38.80600
C  34.22700 58.98500 39.06400
C  36.11600 55.66400 38.46500
C  37.00800 58.86100 38.70400
O  37.96300 58.11000 38.53600
C  37.23500 60.36200 38.74200
N  31.46200 60.46200 39.19900
C  32.68000 60.95900 39.47300
C  32.64100 62.50600 39.59900
C  31.06200 62.75500 39.87000
C  30.50400 61.42800 39.36600
C  33.49100 63.08900 40.79300
C  30.56900 64.09900 39.11600
C  29.76900 65.02400 39.96800
N  29.21700 58.82700 38.78800
C  28.51800 59.96000 38.92500
C  27.07600 59.74700 38.79800
C  27.02300 58.39200 38.54600
C  28.29200 57.84900 38.53200
C  25.94900 60.75500 38.61500
C  26.09600 57.28400 38.17200
O  24.86100 57.35800 37.96300
C  26.93000 55.98100 37.97600
C  26.44900 54.99900 38.97300
O  26.58500 55.07900 40.20900
O  25.74800 54.01000 38.31600
C  24.78600 53.29200 39.11300
H  33.81000 54.75600 38.03100
H  34.67600 61.11100 39.27300
H  28.49800 62.07100 39.20800
H  29.29800 53.79200 38.44000
H  31.62600 53.74500 36.62000
H  30.88300 52.42400 38.99500
H  32.38600 53.16600 39.33800
H  32.21600 52.12900 37.84000
H  27.92200 54.01400 36.48200
H  29.11900 52.77000 36.21100
H  29.90300 53.86000 34.38300
H  29.96300 55.49100 35.25300
H  36.53600 55.75000 37.46200
H  35.62900 54.69600 38.57800
H  36.95000 55.64900 39.16600
H  37.02800 60.86600 39.68600
H  36.70600 60.90900 37.96200
H  38.21400 60.56500 38.30800
H  33.07700 62.80300 38.64500
H  30.90700 62.89800 40.94000
H  34.18500 63.87200 40.48600
H  34.02100 62.32500 41.36200
H  32.88800 63.53000 41.58700
H  29.87800 63.81700 38.32200
H  31.44700 64.58100 38.68600
H  30.33100 65.93200 40.18500
H  29.59500 64.55300 40.93600
H  28.79800 65.29800 39.55500
H  24.97600 60.26600 38.56900
H  26.06800 61.35500 37.71300
H  25.93900 61.53600 39.37500
H  26.67700 55.63100 36.97500
H  25.29400 52.81300 39.95000
H  24.27200 52.54100 38.51300
H  24.08800 53.89000 39.69800

