158

Mg 0.80800 7.07800 25.63500
C  1.35000 9.02000 28.40100
C  0.82500 4.28000 27.55100
C  -0.43200 5.27900 23.05800
C  1.16100 9.81800 23.56600
N  1.06900 6.66800 27.71000
C  1.17000 7.66200 28.70000
C  1.16500 6.99900 30.07000
C  1.27500 5.45500 29.75100
C  1.02900 5.46700 28.21900
C  2.62400 4.78700 30.13600
C  -0.12000 7.39000 30.88300
C  0.20100 7.77900 32.38800
H  1.43200 7.31800 33.10200
N  0.37700 5.03200 25.28500
C  0.42500 4.08100 26.26100
C  0.09500 2.82500 25.62000
C  -0.41400 3.12700 24.33800
C  -0.22300 4.54900 24.15600
C  0.35700 1.52400 26.32000
C  -1.12400 2.20900 23.32100
O  -1.45300 2.43500 22.15400
C  -1.62200 0.84900 23.83300
N  0.62600 7.45200 23.59100
C  -0.00900 6.55700 22.75400
C  -0.18600 7.14200 21.39100
C  0.28000 8.62200 21.58200
C  0.82000 8.63900 22.99500
C  0.58800 6.41600 20.23600
C  -0.85400 9.70500 21.34300
C  -0.69400 10.55300 20.07500
N  1.36000 9.00900 25.86600
C  1.34300 10.07900 24.95300
C  1.52900 11.33100 25.67700
C  1.60700 10.90700 26.96800
C  1.43000 9.52900 27.05300
C  1.56700 12.72800 25.08800
C  1.83300 11.44700 28.36800
O  2.19200 12.60200 28.70900
C  1.55800 10.22800 29.29700
C  2.56400 10.07900 30.39600
O  3.63800 9.53000 30.35700
O  2.24700 11.01500 31.31000
C  3.32700 11.33800 32.22000
H  0.82200 3.40300 28.20000
H  -0.97000 4.79800 22.23900
H  1.20700 10.69300 22.91400
H  2.03600 7.30300 30.65000
H  0.46800 4.93200 30.26500
H  2.41400 3.77800 30.49000
H  3.16100 5.26000 30.95800
H  3.37600 4.70500 29.35100
H  -0.86000 6.59800 30.76600
H  -0.45100 8.27500 30.34000
H  -0.73000 7.48500 32.87200
H  0.19900 8.86800 32.42700
H  -0.57600 1.15700 26.74700
H  1.17500 1.56200 27.04000
H  0.74600 0.86000 25.54800
H  -0.81300 0.12600 23.73200
H  -2.32300 0.49000 23.08000
H  -2.15200 0.93500 24.78100
H  -1.27000 7.14100 21.27300
H  1.20100 8.89200 21.06500
H  1.40100 6.06100 20.86800
H  0.79300 7.10900 19.42000
H  0.06100 5.50200 19.96300
H  -0.96700 10.42300 22.15500
H  -1.84300 9.24500 21.35100
H  -1.69700 10.64300 19.65800
H  -0.09800 9.96800 19.37400
H  -0.25100 11.51000 20.34900
H  1.99000 12.72400 24.08400
H  2.13400 13.26100 25.85200
H  0.57900 13.15500 24.91600
H  0.63400 10.40700 29.84600
H  2.90400 11.99400 32.98100
H  4.29800 11.58900 31.79300
H  3.46300 10.35500 32.67200
Mg 25.93900 0.12000 29.56300
C  27.65000 0.06300 32.61200
C  23.04500 0.66500 31.15800
C  24.55000 0.29800 26.62900
C  29.09300 -0.56300 27.93300
N  25.48800 0.29100 31.64000
C  26.31000 0.39100 32.74100
C  25.48400 0.38900 34.04000
C  23.97600 0.22600 33.55800
C  24.13200 0.50100 32.02000
C  23.37300 -1.20200 33.81000
C  25.80500 1.52800 35.03500
C  25.94300 1.09400 36.53400
H  25.29000 2.00900 37.57900
N  24.04700 0.35900 28.99600
C  22.98200 0.59500 29.75800
C  21.78200 0.79900 28.97900
C  22.25700 0.75300 27.58300
C  23.70900 0.55100 27.68600
C  20.47200 1.08700 29.69700
C  21.46000 0.86600 26.26200
O  22.00500 0.70700 25.16700
C  19.90800 1.14200 26.27000
N  26.76600 -0.12600 27.57600
C  25.89200 0.02700 26.48900
C  26.54100 -0.19600 25.11600
C  28.06200 -0.26400 25.56600
C  27.98700 -0.33900 27.09300
C  26.22300 -1.50200 24.31400
C  28.89800 1.03300 25.19600
C  30.33200 0.70700 24.75900
N  28.01400 -0.21700 30.08000
C  29.13300 -0.46700 29.34200
C  30.25700 -0.57300 30.24200
C  29.76200 -0.40000 31.55400
C  28.34700 -0.20800 31.44000
C  31.70300 -0.75700 29.82100
C  30.08100 -0.30900 32.92700
O  31.14800 -0.28600 33.43800
C  28.76200 0.04600 33.67100
C  28.65300 -0.97900 34.69900
O  28.24000 -2.13700 34.53400
O  29.14600 -0.53900 35.92800
C  28.83800 -1.36700 37.05500
H  22.17400 0.97900 31.73700
H  24.24800 0.37200 25.58200
H  29.93000 -0.79300 27.27100
H  25.74600 -0.57900 34.46700
H  23.36300 0.88700 34.17000
H  22.83600 -1.59900 32.94900
H  22.70200 -1.21200 34.66900
H  24.16100 -1.88400 34.12900
H  25.08100 2.34100 35.08200
H  26.76400 1.91300 34.68600
H  26.96500 0.93300 36.87700
H  25.46800 0.12100 36.66000
H  19.77500 1.72100 29.15000
H  20.53700 1.40000 30.73900
H  20.05300 0.08100 29.66700
H  19.41300 0.30900 26.76900
H  19.46300 1.19400 25.27600
H  19.73600 2.06100 26.83100
H  26.37900 0.65200 24.45000
H  28.63300 -1.14600 25.27500
H  26.96800 -1.65100 23.53300
H  25.21400 -1.34600 23.93400
H  26.13100 -2.37900 24.95500
H  29.09300 1.68200 26.05000
H  28.48800 1.67400 24.41600
H  30.39600 -0.27400 24.29000
H  30.91500 0.82000 25.67300
H  30.68400 1.41600 24.01000
H  31.92900 -1.81800 29.93600
H  32.37400 -0.45600 30.62500
H  31.93500 -0.31500 28.85200
H  28.91000 1.05400 34.05800
H  27.78100 -1.21700 37.27400
H  29.42000 -1.10800 37.94000
H  29.04200 -2.38700 36.72800

