158

Mg -2.51300 17.57900 27.16300
C  -2.70100 15.53800 30.13300
C  -3.13800 20.28500 29.23400
C  -2.88500 19.47000 24.40500
C  -3.18300 14.77600 25.30800
N  -2.82100 17.85900 29.51600
C  -2.62300 16.95800 30.47400
C  -2.58300 17.61100 31.90300
C  -2.96800 19.10900 31.58000
C  -3.04100 19.10200 30.05400
C  -4.21800 19.67400 32.18800
C  -1.18300 17.42100 32.60900
C  -1.03200 18.19600 33.98200
H  -0.70700 17.43800 35.20100
N  -2.82800 19.54300 26.83700
C  -2.95500 20.48300 27.82500
C  -2.75200 21.79000 27.23300
C  -2.56400 21.52900 25.84700
C  -2.82900 20.14600 25.65200
C  -2.81500 23.10600 28.05700
C  -2.19200 22.51600 24.67200
O  -2.23200 22.28100 23.47200
C  -1.91500 23.97500 25.02600
N  -2.95200 17.15300 25.14700
C  -3.00400 18.11200 24.17100
C  -3.13900 17.49500 22.71100
C  -3.27500 15.96900 23.02300
C  -3.12500 15.97700 24.58000
C  -4.13900 18.13300 21.76400
C  -2.31800 15.00500 22.22700
C  -1.00000 14.72300 23.00400
N  -2.80200 15.60400 27.55600
C  -2.96700 14.55500 26.70400
C  -3.01100 13.28000 27.38100
C  -2.92100 13.64400 28.72800
C  -2.77000 15.03800 28.82000
C  -3.20500 11.86200 26.85000
C  -2.99800 13.09200 30.05300
O  -3.09000 11.94200 30.45800
C  -2.93100 14.30800 31.07700
C  -1.83600 14.14700 31.97900
O  -0.65100 14.10000 31.77800
O  -2.34200 14.13700 33.24300
C  -1.45400 13.87200 34.35400
H  -3.23000 21.18800 29.84200
H  -2.77500 19.96500 23.43800
H  -3.22700 13.82800 24.76700
H  -3.42500 17.25100 32.49300
H  -2.06400 19.67100 31.81300
H  -4.20400 20.75400 32.33400
H  -4.30800 19.15700 33.14300
H  -5.12200 19.57300 31.58700
H  -0.41200 17.84300 31.96500
H  -0.92600 16.37300 32.76000
H  -1.91200 18.83400 34.06700
H  -0.14500 18.80300 33.80200
H  -1.86700 23.64200 28.02000
H  -3.07200 22.99200 29.11000
H  -3.72900 23.63500 27.78500
H  -2.86100 24.44500 25.29500
H  -1.59900 24.49300 24.12000
H  -1.07900 23.98200 25.72500
H  -2.20100 17.70500 22.19600
H  -4.27800 15.67700 22.71300
H  -4.66700 18.95400 22.25000
H  -4.86500 17.39300 21.43000
H  -3.69200 18.60300 20.88800
H  -2.10700 15.48500 21.27100
H  -2.73800 14.05600 21.89300
H  -0.65300 15.52000 23.66200
H  -0.29600 14.45300 22.21600
H  -1.10100 13.73000 23.44200
H  -2.25500 11.37600 26.62700
H  -3.66100 11.80800 25.86200
H  -3.71700 11.25700 27.59900
H  -3.80600 14.46900 31.70600
H  -1.27200 12.80000 34.42000
H  -2.00600 14.09000 35.26800
H  -0.55200 14.47400 34.24700
Mg 49.15600 46.16600 42.60000
C  45.71300 46.77200 41.85700
C  48.93300 43.28800 40.97700
C  52.56200 45.95100 42.73300
C  49.32300 49.51000 43.83400
N  47.53300 45.11800 41.64300
C  46.16600 45.48900 41.44100
C  45.40100 44.39900 40.61900
C  46.44600 43.22800 40.56400
C  47.74300 43.90700 41.11400
C  46.02200 41.98300 41.49700
C  45.06200 44.93100 39.20300
C  43.69100 44.36900 38.59600
H  43.86600 43.78000 37.15900
N  50.55600 44.77500 41.92300
C  50.25900 43.64700 41.31500
C  51.42000 42.79400 41.07000
C  52.52500 43.58500 41.55400
C  51.94700 44.84800 42.14500
C  51.32000 41.51100 40.31000
C  54.02400 43.10700 41.50600
O  54.35700 42.01000 41.11200
C  55.12600 44.00900 41.92300
N  50.76700 47.52700 43.26300
C  52.05800 47.21800 43.12500
C  53.00700 48.31000 43.68600
C  51.95800 49.48300 43.91700
C  50.61300 48.87900 43.53200
C  53.78900 47.78100 44.92900
C  52.28300 50.81900 43.25100
C  52.99400 51.87900 44.19500
N  47.82200 47.80300 42.81000
C  48.04400 49.08600 43.35700
C  46.81300 49.84600 43.29900
C  45.86800 48.95900 42.82500
C  46.55800 47.73100 42.47600
C  46.67400 51.35200 43.76200
C  44.42700 48.79400 42.52900
O  43.54600 49.61700 42.66300
C  44.30900 47.33300 41.81700
C  43.48700 46.40400 42.72300
O  43.78700 45.95500 43.81300
O  42.36700 45.95100 42.06500
C  41.42700 45.03100 42.64400
H  48.89500 42.33500 40.44500
H  53.64300 46.00200 42.88000
H  49.42000 50.54800 44.15600
H  44.53700 44.11700 41.22000
H  46.65200 42.80400 39.58100
H  44.96300 42.10800 41.72300
H  46.61300 41.98500 42.41200
H  46.12900 41.08700 40.88600
H  45.89500 44.65100 38.55900
H  44.91400 46.00800 39.12400
H  43.07500 45.26700 38.54200
H  43.19400 43.63200 39.22700
H  52.32200 41.18000 40.03700
H  50.71900 41.53600 39.40100
H  50.72700 40.74900 40.81600
H  54.97200 44.08000 43.00000
H  54.98100 44.97100 41.43300
H  56.12800 43.58300 41.87300
H  53.66600 48.53000 42.84500
H  51.76200 49.75400 44.95500
H  53.67500 48.46300 45.77100
H  54.83900 47.57000 44.72400
H  53.30900 46.87100 45.28600
H  51.35000 51.12100 42.77600
H  52.97400 50.55100 42.45200
H  53.20100 51.39800 45.15100
H  52.48600 52.83900 44.28100
H  53.99100 51.98900 43.76800
H  47.39500 51.75600 44.47200
H  45.68800 51.44000 44.21800
H  46.75400 52.04500 42.92500
H  43.84200 47.41800 40.83600
H  40.46000 44.97400 42.14400
H  41.38400 45.14600 43.72700
H  41.81700 44.02600 42.48700

