158

Mg 46.38700 44.79900 43.80600
C  43.09100 43.69400 43.38600
C  47.51400 41.50300 43.27800
C  49.66200 45.85100 43.72400
C  45.26800 48.01900 43.93900
N  45.43000 42.81400 43.23100
C  44.10200 42.61400 43.19700
C  43.73000 41.08900 42.96400
C  45.12000 40.41000 43.23700
C  46.09200 41.64400 43.13200
C  45.16600 39.80900 44.61700
C  43.08800 40.77300 41.56400
C  43.64100 41.52500 40.34200
H  43.25400 40.97900 38.94100
N  48.37200 43.81600 43.53000
C  48.57800 42.42300 43.44000
C  49.98400 42.16600 43.48300
C  50.65700 43.43400 43.63900
C  49.53100 44.43700 43.66500
C  50.61200 40.82200 43.30800
C  52.16500 43.53800 43.78600
O  52.88100 42.57100 43.76600
C  52.84900 44.88300 43.84200
N  47.35600 46.74700 43.58500
C  48.64500 46.86100 43.89800
C  49.01100 48.31000 44.23800
C  47.58300 49.04000 44.03000
C  46.63900 47.86300 43.80800
C  49.63600 48.37500 45.73500
C  47.48500 50.13100 42.85400
C  47.58400 51.57000 43.28300
N  44.63800 45.70700 43.65900
C  44.28700 47.02300 43.75100
C  42.81300 47.18900 43.67200
C  42.32400 45.88800 43.52600
C  43.47600 45.02700 43.53600
C  42.02600 48.42600 43.67200
C  41.14900 45.05800 43.43200
O  39.98200 45.40000 43.42900
C  41.58400 43.59200 43.33300
C  40.98600 42.87800 44.50100
O  40.08700 42.02900 44.42100
O  41.54400 43.40300 45.67700
C  40.83900 42.86100 46.89900
H  47.74800 40.45200 43.45500
H  50.67800 46.24600 43.80000
H  44.90500 49.00300 44.24400
H  42.98700 40.68200 43.65100
H  45.41500 39.62100 42.54500
H  44.25900 39.24300 44.82500
H  45.44200 40.52700 45.39000
H  45.97500 39.07800 44.59700
H  42.05100 41.00700 41.80300
H  43.23400 39.72400 41.30600
H  44.72800 41.55500 40.41800
H  43.18700 42.50600 40.48100
H  51.16700 40.74200 42.37300
H  49.90500 39.99400 43.36300
H  51.11700 40.65900 44.26000
H  52.32900 45.26600 44.72000
H  52.82300 45.47100 42.92500
H  53.91600 44.78500 44.04600
H  49.66800 48.64900 43.43700
H  47.23000 49.48500 44.96100
H  49.14300 49.20500 46.24000
H  50.68900 48.65400 45.69800
H  49.47900 47.42700 46.25000
H  46.49000 50.12100 42.40900
H  48.18900 50.00300 42.03200
H  47.55600 51.70400 44.36400
H  46.70900 52.13100 42.95500
H  48.46600 52.13800 42.98900
H  41.49200 48.58100 44.61000
H  41.26100 48.27300 42.91000
H  42.48700 49.40100 43.51400
H  41.27800 43.13800 42.39100
H  40.90400 41.77300 46.90100
H  39.78000 43.11500 46.84000
H  41.26200 43.25000 47.82600
Mg -1.12900 43.96100 25.17900
C  1.28500 43.51700 27.57300
C  -3.59500 43.36300 27.60000
C  -3.38900 43.74900 22.77400
C  1.44700 44.24500 22.80600
N  -1.13300 43.40100 27.32300
C  -0.02800 43.53200 28.09500
C  -0.39000 43.50100 29.59200
C  -1.93700 43.26300 29.61000
C  -2.26500 43.34100 28.06200
C  -2.30900 41.97500 30.31700
C  -0.05800 44.79200 30.33600
C  0.12000 44.66300 31.85800
H  0.17000 43.26500 32.49500
N  -3.20000 43.62300 25.19800
C  -4.02000 43.37300 26.29900
C  -5.44900 43.24600 25.84000
C  -5.36700 43.26900 24.41000
C  -3.97500 43.52200 24.02900
C  -6.70900 43.18900 26.76000
C  -6.52300 43.17700 23.41700
O  -6.38400 43.49200 22.28300
C  -7.95200 42.74400 23.84900
N  -0.97300 44.15700 23.12900
C  -2.06800 43.92200 22.35300
C  -1.67600 43.90500 20.80100
C  -0.21700 44.48700 20.89700
C  0.15200 44.35000 22.33700
C  -1.94100 42.59500 19.98800
C  0.07400 45.92300 20.26500
C  -0.01900 47.16900 21.10300
N  0.94000 43.84500 25.10900
C  1.87300 44.01900 24.08900
C  3.22200 43.83700 24.62400
C  3.01600 43.65800 26.00300
C  1.68400 43.69400 26.17900
C  4.42000 43.74700 23.81000
C  3.69900 43.29600 27.28000
O  4.83800 43.00900 27.53700
C  2.56500 43.27300 28.35800
C  2.58400 41.94700 29.09500
O  1.97100 40.93400 28.77300
O  3.44900 41.95800 30.14300
C  3.67400 40.68100 30.78700
H  -4.40000 43.44300 28.33300
H  -4.09400 43.56000 21.96200
H  2.28100 44.28500 22.10200
H  0.12400 42.61500 29.96600
H  -2.41800 44.15300 30.01700
H  -3.11800 41.49800 29.76400
H  -2.75000 42.20700 31.28600
H  -1.49400 41.26400 30.45800
H  -0.78400 45.59800 30.22400
H  0.89300 45.15500 29.94700
H  -0.40300 45.52300 32.27500
H  1.04200 45.16500 32.14800
H  -6.48700 43.69200 27.70200
H  -6.98700 42.17200 27.03500
H  -7.56700 43.68600 26.30800
H  -8.68700 43.50400 24.11400
H  -7.85700 42.02000 24.65900
H  -8.40100 42.22800 23.00000
H  -2.33600 44.63400 20.33100
H  0.45100 43.77500 20.41300
H  -2.48000 41.95800 20.69000
H  -0.93700 42.26900 19.71400
H  -2.45300 42.86000 19.06300
H  -0.62000 46.03600 19.43300
H  1.08600 45.78300 19.88500
H  0.84800 47.80600 20.92800
H  -0.03800 46.91900 22.16400
H  -0.93500 47.73400 20.93100
H  4.51700 42.67600 23.63000
H  5.37900 43.96900 24.27700
H  4.37000 44.06000 22.76700
H  2.63200 44.02200 29.14800
H  3.92800 39.88300 30.09000
H  2.82500 40.45000 31.43100
H  4.54700 40.85400 31.41700

