158

Mg 42.01900 41.63900 27.97300
C  40.89000 44.02200 30.47500
C  43.11800 39.67000 30.44300
C  43.25900 39.69100 25.66000
C  41.41000 44.16600 25.52900
N  41.84600 41.82500 30.15600
C  41.40600 42.83200 30.98300
C  41.54400 42.40000 32.45000
C  42.38600 41.04000 32.46600
C  42.50400 40.85800 30.90700
C  43.75400 41.31400 33.11900
C  40.06900 42.28000 33.05100
C  39.92700 43.15000 34.32700
H  39.26900 42.42300 35.54400
N  42.99800 39.82100 28.03200
C  43.35700 39.18300 29.13400
C  43.99500 37.93400 28.78300
C  43.89300 37.86900 27.33500
C  43.32800 39.14900 26.96500
C  44.49900 36.92600 29.83400
C  44.38100 36.75900 26.36100
O  44.54300 36.96000 25.19200
C  44.66100 35.39400 26.92700
N  42.50500 41.98500 25.92600
C  42.92300 40.94300 25.21500
C  42.96000 41.30100 23.71800
C  42.37600 42.70600 23.65900
C  42.12900 43.03000 25.15800
C  44.36300 41.23400 23.03000
C  41.06500 42.81300 22.87200
C  39.87700 42.11800 23.41600
N  41.26200 43.67500 27.98000
C  41.04300 44.49800 26.89100
C  40.34400 45.63100 27.33900
C  40.25900 45.53100 28.73700
C  40.92600 44.36000 29.08700
C  39.74500 46.75500 26.50100
C  39.81400 46.13700 30.02100
O  39.08800 47.08300 30.22300
C  40.30100 45.22200 31.17800
C  41.33500 45.86800 31.94500
O  42.46100 46.19900 31.54900
O  40.89800 45.97100 33.25100
C  41.69300 46.75100 34.26100
H  43.49900 39.00500 31.22100
H  43.48300 39.01200 24.83500
H  41.25200 44.93100 24.76500
H  42.12900 43.19500 32.91300
H  41.95400 40.11800 32.85700
H  43.95300 40.53000 33.85100
H  43.74200 42.25100 33.67600
H  44.50500 41.16100 32.34500
H  39.88000 41.25400 33.36700
H  39.32700 42.67600 32.35800
H  39.30500 43.99200 34.02300
H  40.90700 43.50000 34.65100
H  45.54900 36.84800 29.55400
H  43.97600 35.97100 29.78900
H  44.46400 37.25700 30.87200
H  43.77000 35.01200 27.42500
H  45.43800 35.45700 27.68800
H  44.98800 34.68600 26.16500
H  42.26100 40.58700 23.28200
H  43.02600 43.52900 23.36000
H  44.72000 42.26300 23.06200
H  44.23300 40.81500 22.03200
H  44.96400 40.55700 23.63800
H  41.17800 42.44200 21.85300
H  40.84700 43.85700 22.64300
H  39.19900 42.95300 23.59500
H  39.98700 41.45700 24.27500
H  39.44800 41.58700 22.56600
H  39.16100 46.29500 25.70300
H  40.56600 47.32100 26.06000
H  39.11000 47.34200 27.16400
H  39.46700 44.81200 31.74800
H  41.10800 47.64900 34.46200
H  42.66300 47.17200 33.99500
H  41.85600 46.07400 35.09900
Mg 16.68000 52.49500 26.00300
C  18.51200 50.86800 28.64100
C  14.18500 52.97800 28.21700
C  14.99900 53.81700 23.50000
C  18.87600 50.97000 23.70400
N  16.46100 52.16800 28.24600
C  17.24100 51.39100 29.08100
C  16.72100 51.38500 30.51100
C  15.27400 51.82700 30.36700
C  15.29900 52.35500 28.86300
C  14.18800 50.77700 30.68100
C  17.57100 52.23100 31.37400
C  17.64600 51.84900 32.86700
H  16.91900 52.80400 33.82300
N  14.92700 53.41400 25.90000
C  14.06600 53.56700 26.96500
C  13.00900 54.48900 26.60000
C  13.16300 54.69300 25.19600
C  14.43500 53.98500 24.83100
C  12.00800 54.95200 27.63100
C  12.31600 55.51300 24.31100
O  12.57400 55.64200 23.09600
C  11.04900 56.18500 24.79200
N  16.93400 52.43900 23.83700
C  16.10200 53.16700 23.03300
C  16.58500 53.15700 21.54200
C  17.87400 52.22300 21.66000
C  17.97900 51.85100 23.15200
C  15.54300 52.55400 20.55800
C  19.29500 52.86100 21.32600
C  19.96200 53.67300 22.46800
N  18.46600 51.30400 26.06900
C  19.17100 50.74900 25.03600
C  20.15800 49.87900 25.59000
C  20.05100 49.98600 26.97500
C  18.92400 50.88900 27.25200
C  21.13800 49.01500 24.79700
C  20.55000 49.52500 28.24600
O  21.52200 48.80300 28.40400
C  19.54800 50.08900 29.37600
C  19.02500 48.88300 30.07100
O  18.06600 48.20800 29.74700
O  19.80600 48.71500 31.21600
C  19.09700 47.86500 32.26200
H  13.23000 52.97400 28.74600
H  14.43100 54.29600 22.70000
H  19.40800 50.45600 22.90100
H  16.70100 50.35000 30.85000
H  15.00500 52.65500 31.02200
H  13.55800 51.13800 31.49300
H  14.68300 49.90400 31.10600
H  13.71500 50.49200 29.74100
H  17.29300 53.27800 31.25000
H  18.59500 52.13000 31.01400
H  18.72000 51.74200 33.02000
H  17.25400 50.84300 33.01400
H  11.94200 56.03300 27.50700
H  12.16700 54.72000 28.68400
H  11.00700 54.57300 27.42600
H  10.45600 56.65400 24.00700
H  11.42000 56.98800 25.42900
H  10.38300 55.44100 25.22900
H  16.97600 54.11400 21.19700
H  17.78900 51.30500 21.07900
H  15.32400 53.33700 19.83300
H  14.59000 52.18600 20.93800
H  15.92000 51.65200 20.07600
H  19.17200 53.57400 20.51000
H  20.05200 52.11500 21.08600
H  20.78500 52.99500 22.69500
H  19.32300 53.87100 23.32900
H  20.48300 54.54900 22.08000
H  21.57900 48.22200 25.40100
H  21.85600 49.65600 24.28700
H  20.55000 48.52500 24.02100
H  20.23600 50.72300 29.93600
H  19.69800 46.98500 32.49100
H  18.13900 47.44500 31.95700
H  18.97400 48.29300 33.25700

