158

Mg 1.01300 7.76700 27.95200
C  1.46800 9.96300 30.55200
C  0.85300 5.22600 30.37200
C  0.57700 5.52600 25.42000
C  1.30700 10.25700 25.64400
N  1.32300 7.60700 30.22200
C  1.35300 8.70100 31.06200
C  1.03200 8.23500 32.53500
C  1.21400 6.70400 32.43100
C  1.10900 6.48200 30.89900
C  2.44000 6.18100 33.10800
C  -0.39700 8.64100 32.98700
C  -0.84400 8.46800 34.49400
H  0.20400 8.15900 35.61900
N  0.71600 5.72700 27.87100
C  0.69700 4.86900 28.97500
C  0.35800 3.55000 28.52000
C  0.28100 3.60600 27.08900
C  0.63500 4.98600 26.75600
C  -0.00900 2.40700 29.55600
C  -0.21500 2.48800 26.06700
O  -0.26600 2.56900 24.86200
C  -0.64800 1.18400 26.74100
N  0.87600 7.84300 25.83300
C  0.61400 6.87500 24.96000
C  0.63900 7.28300 23.37900
C  0.76900 8.80900 23.61800
C  1.02700 9.00700 25.13100
C  1.85000 6.73000 22.53300
C  -0.43400 9.59200 23.00700
C  -0.07500 10.52600 21.82500
N  1.36400 9.71700 27.99100
C  1.48200 10.62800 26.96000
C  1.59100 11.96900 27.54700
C  1.60100 11.72000 28.92300
C  1.45000 10.34700 29.16200
C  1.68400 13.27800 26.75500
C  1.64700 12.46100 30.13100
O  1.77800 13.68900 30.32500
C  1.42700 11.36900 31.27900
C  2.55100 11.62600 32.24800
O  3.70100 11.32000 32.08000
O  1.92100 12.06500 33.38800
C  2.83600 12.19500 34.57300
H  0.83000 4.51200 31.19800
H  0.55900 4.82300 24.58500
H  1.28100 11.02800 24.87100
H  1.80600 8.72400 33.12600
H  0.32400 6.23300 32.84800
H  3.14200 6.88000 33.56100
H  2.94200 5.58900 32.34300
H  2.09000 5.58300 33.95000
H  -0.99600 7.92000 32.42900
H  -0.57100 9.60800 32.51700
H  -1.57900 7.67000 34.38600
H  -1.25900 9.43700 34.77000
H  0.65800 1.54800 29.47900
H  -1.00100 2.02000 29.32200
H  -0.02100 2.70000 30.60600
H  -0.88900 0.37000 26.05800
H  -1.50800 1.29700 27.40200
H  0.12100 0.69300 27.33700
H  -0.23500 7.05200 22.77000
H  1.71100 9.18600 23.21900
H  2.12600 5.71200 22.80900
H  2.77800 7.27900 22.69400
H  1.65900 6.89900 21.47400
H  -0.81000 10.11400 23.88700
H  -1.22700 8.90000 22.72100
H  -0.71500 10.17400 21.01600
H  1.00500 10.43500 21.70500
H  -0.26500 11.55800 22.11800
H  2.59600 13.74100 27.13200
H  0.74600 13.82100 26.64600
H  1.92200 13.16100 25.69700
H  0.46700 11.60100 31.74100
H  2.45900 12.91400 35.30000
H  3.76700 12.62300 34.20300
H  2.97400 11.26000 35.11500
Mg 1.12000 42.36700 25.50200
C  2.64400 42.50600 28.73900
C  -1.71100 41.09400 27.01300
C  -0.02200 41.78800 22.53900
C  4.16800 43.77200 24.22200
N  0.53700 41.83000 27.72000
C  1.28100 42.11400 28.81000
C  0.47400 41.96400 30.10600
C  -0.88700 41.40500 29.50000
C  -0.70200 41.46200 27.97300
C  -1.21700 39.89900 29.98000
C  0.40600 43.10700 31.14300
C  0.68400 42.63100 32.62100
H  -0.45100 43.00500 33.67300
N  -0.59200 41.56400 24.89900
C  -1.64800 41.19900 25.63100
C  -2.71700 40.61500 24.72100
C  -2.26700 40.86800 23.38800
C  -0.92000 41.44600 23.57600
C  -3.95100 39.83700 25.17100
C  -2.91300 40.62100 22.07400
O  -2.37300 40.90700 21.00900
C  -4.21200 39.90900 21.89700
N  1.98300 42.71900 23.62300
C  1.33400 42.23100 22.49800
C  2.13400 42.55400 21.31300
C  3.22600 43.56300 21.77600
C  3.13100 43.40600 23.32700
C  2.51600 41.45800 20.31800
C  3.03900 44.95000 21.20100
C  3.31900 45.10400 19.75300
N  2.94900 43.03400 26.26100
C  4.11500 43.52000 25.59200
C  5.17200 43.73800 26.55700
C  4.63000 43.36900 27.76100
C  3.30800 42.86700 27.56400
C  6.62100 44.15700 26.23600
C  4.98800 43.09100 29.15200
O  6.02200 43.25200 29.74100
C  3.67100 42.69600 29.87500
C  3.79400 41.56300 30.81300
O  3.88900 40.37100 30.43900
O  3.67200 42.04400 32.08300
C  3.69300 41.12000 33.17700
H  -2.74100 40.95200 27.34700
H  -0.39000 41.77400 21.51100
H  5.05700 44.21200 23.76700
H  0.97000 41.07900 30.50400
H  -1.65100 42.09200 29.86300
H  -0.59000 39.51100 30.78200
H  -1.32600 39.22200 29.13200
H  -2.23000 39.84500 30.37700
H  -0.63800 43.41400 31.20700
H  0.92400 44.01100 30.82300
H  1.51500 43.19200 33.04700
H  0.79100 41.55400 32.74400
H  -3.85100 38.90500 24.61400
H  -4.93300 40.23000 24.90600
H  -3.99500 39.69900 26.25200
H  -3.85600 38.89100 22.05500
H  -4.54100 40.08400 20.87300
H  -5.05300 40.24700 22.50200
H  1.49300 43.23800 20.75600
H  4.21200 43.21600 21.46600
H  2.62200 40.48200 20.79300
H  3.44700 41.64500 19.78300
H  1.72800 41.42300 19.56600
H  3.71000 45.61600 21.74400
H  2.05400 45.21500 21.58600
H  3.90800 46.01900 19.68500
H  2.37800 45.24400 19.22000
H  3.79100 44.22300 19.31800
H  6.98300 44.01000 25.21900
H  7.17500 43.48700 26.89500
H  6.81700 45.17900 26.56100
H  3.55200 43.52900 30.56700
H  2.81300 41.40700 33.75200
H  4.63500 41.12300 33.72500
H  3.50900 40.10200 32.83300

