158

Mg -0.38100 18.13700 27.90500
C  -0.99400 15.62100 30.47500
C  -1.13300 20.51800 30.32600
C  -0.17900 20.45500 25.54900
C  -0.36200 15.53500 25.53000
N  -1.21700 18.00100 30.09000
C  -1.17900 16.93200 30.97600
C  -1.41900 17.33500 32.45900
C  -1.58400 18.93500 32.32000
C  -1.24700 19.18800 30.82800
C  -3.01100 19.45900 32.72800
C  -0.34100 16.87200 33.43500
C  -0.03600 17.75500 34.66300
H  0.72300 16.98600 35.77000
N  -0.56100 20.19200 27.92700
C  -0.83200 21.02300 29.00500
C  -0.75600 22.36400 28.62000
C  -0.50800 22.41200 27.19900
C  -0.39200 20.98300 26.82100
C  -1.03600 23.52400 29.55100
C  -0.21600 23.59400 26.25500
O  -0.05000 23.46900 25.06200
C  -0.24200 24.95600 26.88200
N  -0.26800 18.04700 25.86000
C  -0.11800 19.09700 25.05800
C  0.00200 18.67200 23.58000
C  0.23900 17.16900 23.69000
C  -0.15000 16.87100 25.11900
C  -1.20800 19.00700 22.71900
C  1.75700 16.68000 23.43600
C  2.74400 17.23100 24.50200
N  -0.56500 15.96300 27.88200
C  -0.66900 15.12000 26.82800
C  -0.90500 13.80200 27.38000
C  -1.07700 13.97900 28.81800
C  -0.80400 15.26200 29.08600
C  -0.95400 12.55400 26.62300
C  -1.38500 13.27400 30.10000
O  -1.69000 12.12700 30.34100
C  -1.28500 14.30200 31.25700
C  -0.23300 13.72100 32.14100
O  0.95600 13.84700 31.97400
O  -0.89300 13.04400 33.11700
C  -0.06400 12.15000 33.87400
H  -1.38100 21.30100 31.04600
H  0.05100 21.17200 24.75800
H  -0.30400 14.68400 24.84900
H  -2.32300 16.78300 32.71300
H  -0.90800 19.52500 32.93800
H  -2.99200 19.92400 33.71400
H  -3.58800 18.53500 32.76200
H  -3.36500 20.23900 32.05500
H  0.64700 16.84700 32.97500
H  -0.49100 15.82000 33.67600
H  -0.88900 18.10300 35.24500
H  0.53500 18.67300 34.52600
H  -1.72800 24.25100 29.12700
H  -0.14700 24.10800 29.78900
H  -1.43400 23.21400 30.51700
H  0.19300 24.98800 27.88100
H  -1.30700 25.17300 26.97000
H  0.22100 25.64400 26.17500
H  0.90000 19.20500 23.27000
H  -0.40300 16.51000 23.10500
H  -1.97800 19.44200 23.35700
H  -1.62500 18.12500 22.23300
H  -0.95100 19.76100 21.97400
H  2.14900 17.17100 22.54500
H  1.71500 15.59200 23.47900
H  2.25000 17.61100 25.39600
H  3.29400 18.06600 24.06800
H  3.36600 16.41700 24.87700
H  -0.22700 11.81300 26.95700
H  -0.77800 12.75600 25.56600
H  -1.93000 12.07900 26.72400
H  -2.24400 14.31700 31.77400
H  -0.70200 11.74000 34.65600
H  0.85200 12.63700 34.21100
H  0.22000 11.36000 33.18000
Mg -9.87000 17.40000 41.03000
C  -6.43900 17.31500 41.29600
C  -9.79000 20.72900 40.34200
C  -13.16600 17.24500 40.21800
C  -9.83700 13.94900 41.37600
N  -8.25400 18.83800 40.70100
C  -6.95900 18.61300 40.95100
C  -6.19800 19.91700 40.66700
C  -7.25600 21.05500 40.85500
C  -8.55500 20.19700 40.68300
C  -7.18500 21.80100 42.22600
C  -5.56200 19.92600 39.29300
C  -4.08100 19.78900 39.08300
H  -3.42900 18.68100 38.22700
N  -11.26600 18.79900 40.33600
C  -11.06000 20.14000 40.14500
C  -12.26500 20.80900 39.66000
C  -13.28500 19.79700 39.59700
C  -12.61700 18.54300 40.10900
C  -12.26300 22.25300 39.21600
C  -14.76200 20.01400 39.08700
O  -15.10100 21.10500 38.57200
C  -15.81200 18.89500 38.89400
N  -11.30200 15.72900 40.55000
C  -12.57100 15.95300 40.38900
C  -13.41700 14.64400 40.45600
C  -12.31100 13.60800 41.03300
C  -10.99700 14.45100 40.88800
C  -14.75400 14.66800 41.28600
C  -12.28400 12.20900 40.21100
C  -12.51300 10.99700 41.14900
N  -8.42500 15.84300 41.22100
C  -8.57200 14.51300 41.29400
C  -7.34600 13.87400 41.28800
C  -6.47100 14.94300 41.45700
C  -7.16500 16.12600 41.27100
C  -7.02900 12.34700 41.30400
C  -5.10600 15.29000 41.58000
O  -4.06300 14.60000 41.67000
C  -5.00400 16.86400 41.43700
C  -4.39200 17.53200 42.65800
O  -3.45000 18.29300 42.57500
O  -5.17500 17.23300 43.76600
C  -4.57300 17.96300 44.87300
H  -9.75800 21.78600 40.07000
H  -14.24700 17.32200 40.08400
H  -9.75100 12.87000 41.52100
H  -5.45300 20.03300 41.45400
H  -7.31700 21.77800 40.04100
H  -6.96800 21.16100 43.08200
H  -8.05400 22.40400 42.48600
H  -6.47500 22.59200 41.98800
H  -5.91700 20.85500 38.84800
H  -6.08400 19.10000 38.80800
H  -3.68900 19.75500 40.09900
H  -3.72300 20.67600 38.56000
H  -13.30300 22.57900 39.20500
H  -11.76500 22.29200 38.24700
H  -11.73100 22.80700 39.98900
H  -15.36300 18.18600 38.19900
H  -16.72300 19.33300 38.48500
H  -16.07900 18.39000 39.82200
H  -13.75300 14.29100 39.48100
H  -12.46300 13.43700 42.09900
H  -14.77900 13.94500 42.10100
H  -15.55300 14.36200 40.61100
H  -14.94500 15.59400 41.82800
H  -11.34900 12.19600 39.65100
H  -13.07700 12.24000 39.46300
H  -12.13600 10.19500 40.51400
H  -13.59000 10.87300 41.26100
H  -11.96400 11.10200 42.08400
H  -7.25800 11.98400 42.30700
H  -5.99100 12.06100 41.13500
H  -7.73900 11.75100 40.73100
H  -4.32400 17.09500 40.61800
H  -3.76800 17.40400 45.35200
H  -5.30900 17.94500 45.67700
H  -4.38500 19.02600 44.72300

