158

Mg 1.98200 -2.13900 45.10400
C  5.41500 -1.58900 44.56100
C  1.31200 0.57000 43.10100
C  -1.27600 -3.02000 45.08100
C  2.78400 -4.94100 46.93700
N  3.23700 -0.87300 43.79500
C  4.65200 -0.72900 43.78500
C  5.13000 0.56300 43.05300
C  3.74600 1.23600 42.75600
C  2.62200 0.27700 43.26600
C  3.46300 2.65100 43.35400
C  5.92400 0.19500 41.73900
C  6.41200 1.37200 40.91500
H  6.26400 1.32800 39.46500
N  0.21500 -1.35200 44.21000
C  0.18900 -0.24000 43.43300
C  -1.17700 -0.00100 42.96900
C  -1.96700 -1.03900 43.53900
C  -1.02300 -1.87200 44.30500
C  -1.58900 1.13400 42.14000
C  -3.47500 -1.22000 43.25600
O  -4.16400 -0.37500 42.66600
C  -4.29000 -2.42400 43.81400
N  0.89500 -3.92500 45.68700
C  -0.46100 -3.97900 45.79300
C  -0.91700 -5.26400 46.46100
C  0.39600 -5.74600 47.12500
C  1.45500 -4.78500 46.58700
C  -2.21000 -5.20400 47.37300
C  0.73900 -7.23500 46.81600
C  0.52700 -8.29900 47.93100
N  3.77000 -3.09400 45.75000
C  3.91300 -4.21600 46.49600
C  5.32200 -4.45400 46.74900
C  5.94800 -3.38400 46.04000
C  4.96200 -2.62200 45.41600
C  6.01800 -5.52700 47.52800
C  7.26500 -2.69600 45.73700
O  8.39700 -2.89800 46.22900
C  6.88100 -1.52600 44.69100
C  7.35400 -0.21600 45.19400
O  7.03300 0.26300 46.29000
O  8.20300 0.39200 44.28000
C  8.41000 1.88700 44.35100
H  1.07000 1.51400 42.60900
H  -2.32800 -3.31400 45.07500
H  3.16400 -5.83000 47.44400
H  5.64600 1.27700 43.69600
H  3.63600 1.29300 41.67300
H  2.83400 3.25300 42.69800
H  4.37800 3.21200 43.54700
H  2.95900 2.42000 44.29200
H  5.14500 -0.32100 41.17800
H  6.74200 -0.42000 42.11300
H  7.48000 1.49300 41.09800
H  6.04000 2.31700 41.31200
H  -2.14000 0.79000 41.26400
H  -0.76200 1.73700 41.76600
H  -2.22600 1.77800 42.74600
H  -5.29500 -2.47400 43.39700
H  -4.40400 -2.32900 44.89400
H  -3.76600 -3.33200 43.51400
H  -1.17700 -5.88200 45.60200
H  0.28400 -5.57800 48.19600
H  -1.88100 -5.56300 48.34800
H  -2.91000 -5.91100 46.93000
H  -2.61800 -4.19900 47.49000
H  1.79100 -7.47100 46.65800
H  0.44900 -7.65500 45.85300
H  -0.38000 -8.76300 47.54500
H  0.58400 -7.78700 48.89100
H  1.33800 -9.02400 47.86000
H  6.85900 -5.93700 46.96900
H  5.40500 -6.42100 47.63800
H  6.36200 -5.09700 48.46900
H  7.35300 -1.73900 43.73200
H  9.03100 2.19300 45.19300
H  7.46100 2.38800 44.54100
H  8.98600 2.17400 43.47100
Mg 49.72700 36.48400 27.52400
C  47.26300 34.84800 29.43100
C  50.05100 38.67400 29.97800
C  51.30000 38.35000 25.30500
C  48.72600 34.33900 24.72200
N  48.61400 36.77500 29.45800
C  47.99000 35.77100 30.13800
C  48.08000 36.03500 31.61200
C  48.60100 37.51100 31.73900
C  49.17700 37.72300 30.34500
C  47.52300 38.61100 32.02100
C  48.95200 35.02400 32.39700
C  48.65100 34.85700 33.87200
H  47.79400 35.94000 34.54700
N  50.55000 38.28400 27.62200
C  50.68000 39.03100 28.76400
C  51.57400 40.15200 28.50500
C  51.93000 40.04400 27.13500
C  51.25100 38.86300 26.59700
C  51.98400 41.12500 29.56400
C  52.76500 41.05600 26.32300
O  52.91400 40.96300 25.08800
C  53.62500 42.23700 27.02800
N  49.90400 36.41600 25.23500
C  50.61700 37.31700 24.63800
C  50.90700 37.01600 23.16500
C  50.35600 35.54200 23.05600
C  49.58000 35.37300 24.41500
C  50.16300 37.99000 22.15900
C  51.39700 34.34700 23.01700
C  51.02100 33.01100 22.31100
N  48.35900 34.85500 27.06000
C  48.06200 34.09100 25.92700
C  47.18000 33.02100 26.31200
C  46.70200 33.33600 27.63700
C  47.49700 34.49900 28.04100
C  46.76700 31.92100 25.40800
C  45.78200 32.96100 28.66600
O  45.02800 32.00600 28.76100
C  46.14000 34.00000 29.86100
C  46.21600 33.33400 31.18500
O  46.74500 32.25600 31.38600
O  45.41900 34.01300 32.07800
C  45.30800 33.36200 33.44600
H  50.36200 39.36600 30.76300
H  51.87900 38.85100 24.52700
H  48.50400 33.66200 23.89400
H  47.07100 35.93300 32.01100
H  49.32800 37.58300 32.54700
H  46.52700 38.24500 32.27200
H  47.51500 39.37300 31.24100
H  47.82200 39.07700 32.96000
H  50.02200 35.19200 32.27400
H  48.77900 34.02700 31.99300
H  49.62600 34.93400 34.35500
H  48.33400 33.84300 34.11400
H  51.53400 40.94200 30.54000
H  51.70900 42.13300 29.25400
H  53.06900 41.08800 29.65900
H  53.00600 42.95100 27.57100
H  54.12300 42.89300 26.31400
H  54.33900 41.77600 27.71000
H  51.98400 37.13400 23.04600
H  49.56300 35.34600 22.33400
H  50.75900 38.05600 21.24800
H  50.05400 38.93300 22.69400
H  49.17000 37.62000 21.90300
H  51.66400 34.00600 24.01700
H  52.28600 34.75300 22.53400
H  51.59200 32.81300 21.40400
H  49.97700 32.91500 22.01200
H  51.25000 32.07300 22.81600
H  46.24300 31.06500 25.83200
H  47.65100 31.46200 24.96700
H  46.24400 32.28100 24.52300
H  45.33600 34.72400 29.99100
H  44.47400 32.66300 33.51700
H  45.02300 34.20200 34.08000
H  46.22900 32.98300 33.88800

