158

Mg 47.64800 25.30000 29.06000
C  48.61600 27.33200 31.69300
C  46.13800 23.20300 31.38900
C  46.81700 23.21600 26.59300
C  48.87700 27.55200 26.84200
N  47.34100 25.34000 31.27300
C  47.86800 26.26800 32.13200
C  47.44100 26.01100 33.64000
C  46.78200 24.59100 33.47200
C  46.72600 24.37000 32.00600
C  47.53000 23.45100 34.27000
C  46.47800 27.07400 34.27400
C  47.03700 27.88700 35.36600
H  46.34900 27.94200 36.76700
N  46.63600 23.47500 29.03700
C  46.13600 22.74900 30.03100
C  45.51400 21.48600 29.51600
C  45.54300 21.63200 28.09400
C  46.34800 22.78800 27.86700
C  44.89800 20.43700 30.39200
C  44.86600 20.82100 26.95700
O  45.12100 21.01600 25.79200
C  43.74100 19.87500 27.30500
N  47.97500 25.31600 27.02600
C  47.60500 24.26600 26.25300
C  48.07900 24.54400 24.85600
C  48.61800 26.00700 24.83200
C  48.41500 26.36400 26.35000
C  49.01100 23.37200 24.22900
C  47.89300 26.92800 23.85800
C  48.78000 28.16400 23.43200
N  48.61200 26.99000 29.21300
C  49.00800 27.82400 28.18400
C  49.59800 29.10100 28.74600
C  49.40800 28.88700 30.08600
C  48.86700 27.66300 30.35700
C  50.24200 30.24800 28.00100
C  49.64500 29.53800 31.34400
O  50.17200 30.64000 31.60400
C  49.16400 28.57600 32.47700
C  50.38300 28.35800 33.33600
O  51.34000 27.65600 33.04100
O  50.21600 29.00000 34.52000
C  51.08600 28.64000 35.64100
H  45.62200 22.64200 32.17100
H  46.70600 22.63400 25.67600
H  49.33600 28.31200 26.20600
H  48.38200 25.84000 34.16300
H  45.80100 24.68900 33.93700
H  46.83000 22.72400 34.68300
H  48.18100 23.95800 34.98300
H  48.13200 22.85600 33.58300
H  45.64100 26.62200 34.80600
H  46.08500 27.75100 33.51500
H  46.95200 28.90800 34.99300
H  48.06200 27.56100 35.54000
H  45.18700 20.55300 31.43700
H  45.25000 19.48000 30.00500
H  43.81200 20.43300 30.29500
H  43.43900 19.34700 26.40000
H  42.85800 20.45400 27.57600
H  44.11900 19.21400 28.08600
H  47.12000 24.47800 24.34400
H  49.67700 25.96000 24.57800
H  49.99200 23.81400 24.05300
H  48.64400 22.95400 23.29100
H  49.10800 22.59400 24.98500
H  46.95100 27.24000 24.30900
H  47.56800 26.32100 23.01300
H  48.95000 28.15800 22.35500
H  49.76200 28.19100 23.90600
H  48.36500 29.12600 23.73300
H  49.46000 30.83800 27.52100
H  50.92400 29.99400 27.19000
H  50.71200 30.81100 28.80700
H  48.42900 29.13100 33.06000
H  51.16900 29.51600 36.28400
H  52.04400 28.21500 35.34300
H  50.54500 27.96600 36.30600
Mg -1.82200 34.26600 26.53800
C  -3.50600 32.60300 29.18600
C  -0.27800 36.30700 28.84600
C  -0.59800 36.15900 23.96800
C  -3.62300 32.46500 24.20600
N  -1.80800 34.39800 28.75300
C  -2.58600 33.61700 29.67100
C  -2.30400 33.95300 31.10500
C  -1.27300 35.25700 31.01800
C  -1.07500 35.36800 29.47400
C  -1.63600 36.49200 31.86200
C  -1.73800 32.69700 31.79400
C  -2.53900 32.10700 32.95500
H  -1.80400 31.91000 34.31800
N  -0.51300 35.89300 26.46000
C  0.00700 36.58900 27.54000
C  0.90600 37.55200 27.03500
C  0.70700 37.57700 25.59600
C  -0.13900 36.48900 25.28200
C  1.70800 38.50400 27.99800
C  1.30200 38.54500 24.55100
O  1.17500 38.58200 23.34200
C  2.26100 39.66200 25.08200
N  -2.22600 34.44400 24.39600
C  -1.53400 35.24100 23.54900
C  -1.81400 35.03400 22.00100
C  -2.75500 33.78400 22.14600
C  -2.90800 33.58000 23.65400
C  -2.45000 36.22600 21.33500
C  -2.19500 32.54500 21.30400
C  -0.99600 31.94100 21.92100
N  -3.25000 32.83600 26.65000
C  -3.87500 32.15300 25.64000
C  -4.83900 31.23900 26.14300
C  -4.75700 31.36300 27.54000
C  -3.76500 32.34400 27.76600
C  -5.58300 30.17500 25.35200
C  -5.23700 30.79300 28.77600
O  -6.07800 29.93900 28.96500
C  -4.47900 31.59500 29.93200
C  -5.46100 32.22300 30.85400
O  -6.15300 33.20500 30.55600
O  -5.59800 31.60000 32.06500
C  -6.69300 32.12600 32.87300
H  0.12100 36.90400 29.66800
H  -0.14500 36.69900 23.13400
H  -4.08600 31.77000 23.50200
H  -3.31300 34.14900 31.46900
H  -0.32300 34.95200 31.45600
H  -1.59600 37.42700 31.30400
H  -1.00700 36.57300 32.75000
H  -2.68500 36.33500 32.11300
H  -0.72800 32.97900 32.09300
H  -1.74000 31.88000 31.07200
H  -2.94200 31.12500 32.71100
H  -3.40700 32.73700 33.15200
H  1.31800 38.55000 29.01400
H  1.75700 39.51000 27.58000
H  2.75200 38.26500 28.20400
H  2.62200 40.34800 24.31500
H  3.12400 39.29900 25.64100
H  1.77100 40.33300 25.78700
H  -0.86000 34.75000 21.55800
H  -3.76500 34.00000 21.79800
H  -2.19400 36.22100 20.27600
H  -2.21000 37.07200 21.97900
H  -3.52600 36.07500 21.42100
H  -2.02800 32.87000 20.27800
H  -2.91300 31.73600 21.16800
H  -1.20600 30.88800 22.10800
H  -0.74500 32.25700 22.93400
H  -0.15500 32.01300 21.23100
H  -4.81900 29.63000 24.79800
H  -6.37100 30.66100 24.77700
H  -6.04700 29.47600 26.04800
H  -3.81600 30.89200 30.43500
H  -7.54700 32.44000 32.27300
H  -6.32900 33.05700 33.30700
H  -6.98600 31.47500 33.69600

