158

Mg 24.13400 -4.90200 45.97800
C  26.17500 -2.49300 44.39700
C  21.63800 -4.02100 43.85700
C  22.56200 -7.72900 46.92700
C  27.06800 -5.92000 47.74600
N  23.96000 -3.35800 44.42100
C  24.86400 -2.46100 43.91200
C  24.32400 -1.56500 42.81900
C  22.78100 -1.95000 42.88200
C  22.76200 -3.17300 43.78400
C  21.71800 -0.89700 43.30300
C  24.92100 -1.91300 41.38200
C  25.56000 -0.73900 40.53200
H  26.02200 -1.05200 39.07500
N  22.33200 -5.71700 45.45100
C  21.48200 -5.25500 44.52800
C  20.35800 -6.20400 44.47000
C  20.53800 -7.29200 45.41800
C  21.84000 -6.91000 46.01800
C  19.13000 -5.93100 43.55800
C  19.63100 -8.43300 45.76800
O  18.57800 -8.58300 45.15300
C  19.76100 -9.40700 46.94600
N  24.75200 -6.55400 47.18200
C  23.89300 -7.61100 47.39200
C  24.62400 -8.80200 48.06400
C  25.98500 -8.11400 48.42800
C  25.97400 -6.79900 47.69000
C  23.87500 -9.49400 49.20800
C  27.17700 -8.99300 48.21800
C  28.24000 -9.03200 49.31200
N  26.13300 -4.24600 46.26900
C  27.16100 -4.76600 47.04600
C  28.30800 -3.93600 46.85400
C  28.01000 -3.04400 45.82900
C  26.63500 -3.29400 45.50500
C  29.65000 -4.16600 47.53500
C  28.55300 -1.98400 44.95300
O  29.71100 -1.56500 44.90700
C  27.43600 -1.61500 44.00400
C  27.19200 -0.25600 44.17600
O  27.33800 0.57800 43.33000
O  26.80400 -0.03900 45.49700
C  26.41900 1.39100 45.83300
H  20.82500 -3.66700 43.22100
H  22.14500 -8.72500 47.09000
H  27.99000 -6.25500 48.22500
H  24.57700 -0.51500 42.97000
H  22.41600 -2.40600 41.96200
H  21.22700 -1.15100 44.24200
H  20.92700 -0.92700 42.55300
H  22.10200 0.12300 43.31800
H  24.16300 -2.50100 40.86400
H  25.78200 -2.56900 41.50800
H  26.46700 -0.31400 40.96100
H  24.77100 0.01000 40.47300
H  19.38400 -5.79400 42.50700
H  18.63400 -5.11000 44.07500
H  18.45600 -6.78600 43.59900
H  20.54800 -10.13900 46.76400
H  18.79200 -9.86300 47.14800
H  20.02600 -8.72700 47.75500
H  24.91300 -9.47700 47.25800
H  25.92200 -7.90100 49.49500
H  23.35000 -10.41500 48.95300
H  23.25800 -8.68000 49.58800
H  24.60300 -9.79700 49.96100
H  27.64800 -8.65600 47.29400
H  26.88400 -10.02100 48.00500
H  28.71400 -10.01400 49.30100
H  27.68500 -8.78500 50.21700
H  29.12100 -8.39400 49.24400
H  30.15800 -4.97500 47.01000
H  29.40700 -4.48800 48.54800
H  30.29300 -3.28900 47.45900
H  27.84300 -1.83700 43.01700
H  25.34900 1.50600 46.00800
H  26.72300 2.20200 45.17200
H  26.95800 1.49800 46.77500
Mg 48.41400 34.74800 26.55600
C  46.78700 33.46700 29.51100
C  48.93200 37.67200 28.48000
C  49.36500 36.34800 23.84000
C  47.41600 32.03100 24.93700
N  48.04500 35.41800 28.77200
C  47.39400 34.67300 29.79400
C  47.65500 35.32500 31.11700
C  47.76400 36.81000 30.55100
C  48.33700 36.66000 29.17000
C  46.54500 37.75400 30.56700
C  48.99000 34.76900 31.72900
C  48.97400 34.70800 33.32000
H  47.99800 35.55700 34.01000
N  49.12200 36.70500 26.21300
C  49.29700 37.73500 27.12500
C  50.01300 38.80800 26.52400
C  50.23700 38.41000 25.17000
C  49.52600 37.11800 24.95400
C  50.54300 40.04400 27.31000
C  50.95400 39.19000 24.07200
O  51.03100 38.74600 22.92200
C  51.47700 40.55700 24.33700
N  48.08500 34.35800 24.55300
C  48.86300 35.02500 23.63900
C  48.96800 34.21900 22.31000
C  48.21400 32.87000 22.66700
C  47.98700 33.08500 24.14500
C  48.43800 35.03300 21.03700
C  48.98300 31.51900 22.22100
C  50.48400 31.39100 22.62800
N  47.18900 33.13700 27.00500
C  46.94400 32.01200 26.23200
C  46.24700 30.97300 26.98700
C  46.01000 31.57600 28.27200
C  46.70300 32.86600 28.24000
C  45.82500 29.58600 26.64500
C  45.40300 31.49900 29.54500
O  44.76300 30.57200 30.01300
C  45.72900 32.82500 30.31700
C  45.86200 32.62200 31.73100
O  46.91000 32.32100 32.30000
O  44.61900 32.66700 32.31000
C  44.53000 31.95400 33.57600
H  48.91800 38.58900 29.07400
H  49.80800 36.76800 22.93500
H  47.22600 31.11700 24.36900
H  46.77900 35.27900 31.76400
H  48.46500 37.29400 31.23100
H  46.09800 37.85500 29.57800
H  46.80300 38.78100 30.82800
H  45.83700 37.29200 31.25500
H  49.89700 35.28000 31.40500
H  49.11100 33.73700 31.40000
H  49.94200 35.02600 33.70500
H  48.76800 33.69400 33.66400
H  51.62100 39.99100 27.46700
H  49.89700 40.15800 28.18100
H  50.30300 41.00700 26.85900
H  50.74500 41.19000 24.84000
H  51.82100 40.96700 23.38700
H  52.39000 40.44400 24.92200
H  50.03500 34.09500 22.12900
H  47.25900 32.88800 22.14200
H  48.20900 36.02000 21.44000
H  47.50400 34.69800 20.58500
H  49.21500 35.18600 20.28800
H  48.87700 31.40100 21.14200
H  48.42800 30.66300 22.60500
H  51.07300 31.35300 21.71200
H  50.73300 30.48900 23.18700
H  50.82100 32.27500 23.16900
H  46.32400 29.48000 25.68200
H  44.76300 29.34500 26.68900
H  46.40700 28.90500 27.26600
H  44.89200 33.51800 30.22900
H  44.74700 30.91100 33.34700
H  43.52800 31.96900 34.00400
H  45.14400 32.39900 34.35900

