158

Mg 35.24900 1.53600 30.19600
C  32.97100 2.88800 32.46200
C  37.67500 1.87000 32.36700
C  37.40800 0.94300 27.65800
C  32.69500 1.84600 27.70900
N  35.36200 2.47600 32.10200
C  34.28500 2.70400 32.96100
C  34.58300 2.63000 34.42500
C  36.14600 2.66100 34.36000
C  36.43100 2.29900 32.82300
C  36.95000 3.91600 34.79000
C  33.91000 1.49500 35.31500
C  33.39500 1.74900 36.73600
H  34.06000 2.81500 37.58000
N  37.24300 1.28700 30.06200
C  38.07600 1.37100 31.06400
C  39.43900 0.99000 30.70800
C  39.38200 0.75700 29.28300
C  37.98300 0.97600 28.89800
C  40.58900 0.94300 31.65600
C  40.43500 0.31800 28.33700
O  40.22500 0.34900 27.14200
C  41.81500 0.08700 28.78500
N  35.12300 1.52300 27.97500
C  36.13900 1.21700 27.22400
C  35.74500 1.16600 25.76800
C  34.22800 1.20800 25.83700
C  33.93900 1.50900 27.25100
C  36.36400 2.34200 24.97200
C  33.54000 -0.08100 25.34200
C  33.33700 -0.22000 23.90100
N  33.24900 2.24700 30.06200
C  32.33400 2.22800 29.01900
C  31.05500 2.59000 29.48000
C  31.18200 2.93000 30.80000
C  32.54700 2.68400 31.11800
C  29.75800 2.62000 28.66100
C  30.63500 3.39100 32.06600
O  29.51900 3.77000 32.37600
C  31.78400 3.34000 33.17800
C  31.92500 4.69700 33.75500
O  32.45600 5.68600 33.22200
O  31.25700 4.71300 34.94900
C  31.21700 5.98500 35.70500
H  38.42600 1.80700 33.15700
H  37.91400 0.62600 26.74300
H  31.84700 1.84500 27.02000
H  34.31700 3.54400 34.95600
H  36.63500 1.85500 34.90800
H  37.69300 3.57600 35.51200
H  36.26900 4.64200 35.23300
H  37.57100 4.39200 34.03100
H  34.50700 0.58400 35.28000
H  33.01100 1.18300 34.78300
H  33.77100 0.92200 37.33800
H  32.31700 1.91100 36.69900
H  41.36700 0.21200 31.43700
H  40.07900 0.63600 32.56900
H  41.02300 1.91600 31.88700
H  42.21900 0.98100 29.25900
H  42.44300 -0.18100 27.93600
H  41.80000 -0.82300 29.38600
H  36.06400 0.28000 25.21900
H  33.80200 1.99000 25.20900
H  36.89300 3.03000 25.63200
H  35.55900 2.92200 24.52100
H  36.90900 1.98000 24.10100
H  32.57800 -0.25900 25.82300
H  34.29000 -0.79000 25.69200
H  34.12000 -0.90000 23.56600
H  33.51600 0.73800 23.41400
H  32.37800 -0.72100 23.77100
H  29.70000 3.67800 28.40400
H  28.92100 2.42800 29.33100
H  29.78900 1.95800 27.79500
H  31.47900 2.62900 33.94600
H  30.31100 6.49600 35.37900
H  32.06500 6.63800 35.50000
H  31.14500 5.78900 36.77500
Mg 29.89700 57.73600 40.09800
C  26.89200 56.09500 39.55900
C  31.53000 54.92400 38.94100
C  32.74400 59.57400 39.72900
C  28.09300 60.65800 40.92900
N  29.25800 55.74200 39.45300
C  28.01100 55.26500 39.21800
C  27.93900 53.82500 38.62100
C  29.39900 53.37900 38.82500
C  30.12700 54.75600 39.10700
C  29.81300 52.37400 39.97300
C  27.26900 53.74000 37.19200
C  28.25600 53.53900 35.97200
H  27.73400 53.85400 34.53100
N  31.83700 57.32900 39.48700
C  32.30000 56.06500 39.03700
C  33.71500 56.20500 38.61100
C  34.09900 57.51900 38.89600
C  32.88400 58.18100 39.42500
C  34.49000 55.09700 37.99900
C  35.48700 58.04800 38.85600
O  36.37100 57.40500 38.34500
C  35.98200 59.37400 39.39600
N  30.34100 59.81800 40.29000
C  31.59200 60.27900 40.01000
C  31.63600 61.78900 40.12300
C  30.22700 62.14300 40.64600
C  29.47200 60.81400 40.57400
C  32.75600 62.42100 40.96500
C  29.50400 63.27600 39.83700
C  28.18200 63.89100 40.31900
N  27.91900 58.29100 40.45700
C  27.34100 59.54700 40.73500
C  25.97600 59.34900 40.78500
C  25.73200 58.06800 40.39200
C  26.97700 57.43400 40.07600
C  25.01500 60.46700 41.11300
C  24.66600 57.02300 40.13700
O  23.44600 57.09000 40.31200
C  25.37400 55.72900 39.55200
C  25.03600 54.52500 40.24700
O  25.02200 54.46600 41.48300
O  24.58900 53.54700 39.41300
C  24.58400 52.11300 39.73800
H  32.01000 54.07300 38.45500
H  33.54900 60.29200 39.55900
H  27.60200 61.57000 41.27500
H  27.22200 53.22000 39.17600
H  29.91800 53.01300 37.93900
H  30.09100 51.43800 39.48700
H  28.98500 52.28300 40.67500
H  30.74200 52.63200 40.48100
H  26.78700 54.69400 36.98300
H  26.59900 52.88400 37.11100
H  28.30200 52.45000 35.95900
H  29.23100 53.94800 36.23500
H  33.96800 54.14100 38.01700
H  35.32200 54.89700 38.67400
H  34.86400 55.42000 37.02800
H  35.40600 59.61600 40.28900
H  35.75600 60.19400 38.71400
H  37.05700 59.35700 39.57100
H  31.84800 62.03300 39.08200
H  30.27300 62.50100 41.67400
H  33.03000 61.71100 41.74600
H  32.53200 63.39100 41.40800
H  33.61100 62.76000 40.38100
H  29.23800 62.94300 38.83400
H  30.11900 64.17600 39.83200
H  27.35300 63.34300 39.87200
H  28.21400 64.96500 40.13300
H  28.16700 63.80200 41.40500
H  24.93000 60.98100 40.15500
H  25.39600 61.19100 41.83300
H  24.05700 60.13500 41.51100
H  25.08200 55.54200 38.51900
H  25.38600 51.59100 39.21800
H  23.72300 51.67000 39.23700
H  24.65100 51.77600 40.77300

