158

Mg 30.41200 58.28800 38.56600
C  27.66500 56.22700 37.29800
C  32.48100 55.38300 38.16200
C  33.04100 60.22800 38.76700
C  28.31400 60.98100 37.95600
N  30.06500 56.07100 37.77000
C  28.82600 55.50800 37.37400
C  29.09700 54.00700 37.12600
C  30.55300 53.71000 37.69100
C  31.05200 55.14900 37.91400
C  30.69400 52.82200 38.98600
C  28.93500 53.41200 35.66900
C  29.28100 54.41000 34.56600
H  28.32300 54.55600 33.30800
N  32.50300 57.82100 38.48900
C  33.14100 56.64100 38.27800
C  34.59700 56.81800 38.47600
C  34.79900 58.26100 38.55100
C  33.43400 58.85200 38.65900
C  35.63000 55.68100 38.36800
C  36.08500 58.91300 38.47600
O  37.14500 58.24300 38.42300
C  36.25000 60.41600 38.52400
N  30.61200 60.30800 38.45200
C  31.84300 60.95100 38.65100
C  31.75400 62.44800 38.30100
C  30.25800 62.65800 38.08700
C  29.69700 61.26100 38.01600
C  32.28800 63.32900 39.47400
C  29.95100 63.66600 36.87900
C  28.95600 64.83000 37.15600
N  28.32300 58.60100 38.04500
C  27.60800 59.69300 37.92600
C  26.19500 59.38000 37.57100
C  26.21400 58.00400 37.40200
C  27.54200 57.58800 37.58300
C  25.15300 60.36500 37.42000
C  25.35800 56.88800 37.09400
O  24.13400 56.80300 36.83000
C  26.27700 55.66000 37.01400
C  25.80200 54.62800 37.89900
O  25.91200 54.62900 39.11300
O  25.12500 53.67700 37.17000
C  24.49600 52.56500 37.89300
H  33.04900 54.45100 38.17700
H  33.82900 60.94500 39.00600
H  27.70800 61.85900 37.72300
H  28.47800 53.48100 37.85400
H  31.13000 53.31800 36.85300
H  31.50300 52.10300 38.85600
H  29.85000 52.16800 39.20600
H  30.94800 53.31400 39.92400
H  27.88300 53.13400 35.59800
H  29.55600 52.52600 35.53800
H  30.22100 54.07000 34.13200
H  29.46200 55.43600 34.88400
H  35.93300 55.69900 37.32100
H  35.16700 54.70700 38.53100
H  36.46100 55.86500 39.04800
H  35.89700 60.75500 39.49800
H  35.64300 60.75200 37.68200
H  37.26200 60.78800 38.36700
H  32.21800 62.67800 37.34300
H  29.83600 63.08000 38.99900
H  33.12300 63.96300 39.17700
H  32.65900 62.74000 40.31300
H  31.52500 63.98800 39.88900
H  29.67200 63.04800 36.02500
H  30.87100 64.16400 36.57100
H  27.97700 64.56400 36.75500
H  29.14000 65.76000 36.61800
H  28.84500 65.02300 38.22300
H  25.03900 60.59400 36.36000
H  25.41400 61.32400 37.86800
H  24.18500 60.10300 37.84600
H  26.30800 55.14900 36.05200
H  24.03100 51.97900 37.10000
H  23.63400 52.88300 38.48000
H  25.21500 51.94800 38.43200
Mg 9.13300 48.61100 25.02000
C  7.37600 48.82700 27.99900
C  12.01000 49.47000 26.64000
C  10.71300 47.82600 22.29500
C  5.97600 48.25500 23.41100
N  9.57400 49.15400 27.04000
C  8.75800 49.13600 28.15300
C  9.59300 49.55600 29.41900
C  10.83500 50.25300 28.77300
C  10.87000 49.59300 27.38400
C  10.64900 51.82700 28.62200
C  9.89500 48.36900 30.40600
C  9.79200 48.61600 31.86100
H  9.24200 47.40000 32.69700
N  11.13100 48.52300 24.55000
C  12.22300 48.94700 25.31300
C  13.42900 48.66400 24.54100
C  13.00800 48.28700 23.24800
C  11.56100 48.16800 23.31700
C  14.80900 48.86600 25.17000
C  13.88100 47.86300 22.08900
O  13.39800 47.82400 20.97000
C  15.41600 47.62900 22.27900
N  8.43200 48.34100 23.09100
C  9.30600 47.92200 22.14300
C  8.55000 47.44000 20.87100
C  7.06600 47.41100 21.33400
C  7.14500 48.08800 22.68900
C  8.86900 48.39800 19.72200
C  6.38400 46.01700 21.38600
C  7.24400 44.92800 22.05800
N  7.10200 48.65400 25.52700
C  5.90300 48.52300 24.82100
C  4.71700 48.53900 25.67900
C  5.29400 48.57100 26.97500
C  6.71300 48.68500 26.81800
C  3.29200 48.35200 25.28900
C  4.98100 48.55800 28.37900
O  3.91300 48.36200 28.96100
C  6.26000 48.78000 29.08900
C  6.43400 47.62900 29.93300
O  6.70400 46.45200 29.54400
O  6.07100 48.07100 31.22100
C  5.84200 47.00400 32.20500
H  12.88800 49.83400 27.17800
H  11.10800 47.46500 21.34400
H  4.98400 48.11700 22.97600
H  9.03300 50.32400 29.95200
H  11.73500 50.02400 29.34400
H  10.96100 52.01900 27.59600
H  11.23700 52.39700 29.34100
H  9.63300 52.16400 28.82600
H  10.89900 47.96900 30.26200
H  9.26800 47.54200 30.07300
H  9.15200 49.47600 32.05500
H  10.84000 48.72800 32.13700
H  15.48700 48.03400 24.97700
H  14.76300 48.99400 26.25100
H  15.31500 49.79200 24.89500
H  15.80200 48.64300 22.37800
H  15.76400 47.14800 21.36500
H  15.63400 47.01300 23.15100
H  9.01700 46.49500 20.59300
H  6.53600 48.21500 20.82200
H  9.62700 49.14100 19.97100
H  8.00200 48.97900 19.40400
H  9.12500 47.75200 18.88200
H  6.25100 45.71200 20.34800
H  5.44700 46.09500 21.93900
H  7.92900 45.24400 22.84500
H  7.78700 44.47400 21.23000
H  6.57000 44.17900 22.47400
H  2.76500 49.11700 24.71800
H  2.77200 48.22100 26.23800
H  3.04000 47.52200 24.62900
H  6.13400 49.67800 29.69500
H  5.88300 46.00700 31.76700
H  4.89200 47.25700 32.67500
H  6.59700 47.15200 32.97800

