158

Mg 2.35300 -1.12600 43.56700
C  5.69200 -0.56500 42.91400
C  1.71700 1.56800 41.33700
C  -0.85600 -1.95300 43.44700
C  3.15000 -4.15600 45.06900
N  3.59400 0.25700 42.23200
C  4.95400 0.34400 42.16300
C  5.49900 1.45400 41.22600
C  4.17300 2.20400 40.94500
C  3.03200 1.29300 41.50300
C  4.23300 3.59400 41.55700
C  6.11400 0.71600 39.94700
C  7.67300 0.77000 39.76900
H  8.38500 1.41200 38.57800
N  0.56600 -0.15400 42.75500
C  0.53300 0.93600 41.87600
C  -0.83900 1.15700 41.56400
C  -1.64500 0.23400 42.35000
C  -0.67400 -0.62000 42.98200
C  -1.30700 2.14400 40.60000
C  -3.14300 0.23000 42.43200
O  -3.78200 0.97500 41.74200
C  -3.89100 -0.63700 43.43400
N  1.32000 -2.76800 44.13300
C  -0.04700 -2.91900 43.98800
C  -0.64300 -4.24700 44.51700
C  0.61100 -4.82200 45.20700
C  1.76400 -3.90300 44.78000
C  -1.85700 -4.15000 45.48200
C  1.04400 -6.27600 44.77200
C  1.59600 -7.16000 45.89900
N  4.04900 -2.18500 43.97700
C  4.25000 -3.44300 44.62500
C  5.69100 -3.62300 44.80200
C  6.23900 -2.45500 44.24500
C  5.25000 -1.69700 43.66800
C  6.36600 -4.80300 45.41000
C  7.50300 -1.88200 44.02100
O  8.62500 -2.39000 44.28600
C  7.27500 -0.64400 43.16500
C  7.77200 0.55800 43.85000
O  7.35800 0.94300 44.95700
O  8.85700 1.13800 43.14600
C  9.53100 2.28400 43.90200
H  1.49600 2.36700 40.62700
H  -1.88000 -2.33100 43.41400
H  3.47700 -5.03900 45.62200
H  6.27400 1.97500 41.78800
H  3.97400 2.31500 39.87900
H  4.00400 3.48000 42.61600
H  3.34100 4.08600 41.16900
H  5.12000 4.21800 41.44800
H  5.81700 1.19600 39.01400
H  5.74900 -0.31100 39.94200
H  8.16300 -0.18900 39.94000
H  8.05600 1.41500 40.56000
H  -0.47900 2.35100 39.92200
H  -1.53000 2.92800 41.32400
H  -2.24400 1.88500 40.10800
H  -4.82300 -0.11200 43.64100
H  -3.43200 -0.76300 44.41500
H  -4.07600 -1.62100 43.00300
H  -0.83300 -4.82300 43.61200
H  0.64800 -4.76300 46.29400
H  -2.10600 -3.08900 45.47100
H  -1.61300 -4.49900 46.48500
H  -2.72300 -4.67300 45.07600
H  1.75700 -6.23400 43.94800
H  0.17100 -6.75400 44.32700
H  1.19400 -8.17300 45.90000
H  1.43600 -6.70600 46.87700
H  2.65200 -7.23100 45.64200
H  6.45500 -5.67700 44.76500
H  5.87100 -4.93300 46.37300
H  7.38000 -4.48000 45.64400
H  7.74800 -0.92700 42.22500
H  10.41600 1.92100 44.42400
H  8.84500 2.73000 44.62200
H  9.93100 2.97900 43.16400
Mg 47.14800 15.67300 28.06800
C  45.22500 15.27200 30.93100
C  49.41200 17.42100 29.90500
C  48.74800 16.52400 25.17200
C  44.41100 14.55600 26.12200
N  47.24300 16.38700 30.13000
C  46.42200 15.99000 31.14800
C  46.96100 16.51700 32.50900
C  48.17000 17.35700 32.16300
C  48.25000 17.08000 30.60500
C  48.17400 18.91700 32.57400
C  47.31500 15.33600 33.48400
C  46.92300 15.39100 35.03000
H  46.73500 16.85100 35.53900
N  48.91400 16.53400 27.65100
C  49.78300 17.12700 28.55100
C  51.00400 17.40800 27.91100
C  50.82700 17.24300 26.53700
C  49.47500 16.75200 26.39200
C  52.21100 17.76900 28.66000
C  51.82200 17.57400 25.34000
O  51.52400 17.44000 24.13800
C  53.18600 18.06400 25.61800
N  46.60300 15.66400 25.92900
C  47.44300 16.05300 24.94400
C  46.73700 16.00400 23.59200
C  45.45100 15.23100 23.89300
C  45.47400 15.13300 25.44400
C  46.53600 17.38700 23.04900
C  45.11600 13.89400 23.20900
C  45.72300 12.56500 23.79800
N  45.22600 15.10100 28.39400
C  44.27400 14.54000 27.56500
C  43.17400 13.99600 28.32100
C  43.54100 14.24400 29.65900
C  44.74500 14.92700 29.62800
C  41.84000 13.52000 27.73800
C  43.08500 14.14700 31.05600
O  42.04800 13.73500 31.57800
C  44.18800 14.88600 31.89900
C  43.59300 16.00400 32.58400
O  43.34000 17.10500 32.10500
O  43.21700 15.62100 33.83300
C  42.42600 16.51600 34.68100
H  50.15300 17.98500 30.47600
H  49.26100 16.76200 24.23800
H  43.66500 14.07200 25.48900
H  46.21500 17.16400 32.96900
H  49.14800 17.01000 32.49700
H  49.22700 19.15200 32.72600
H  47.51500 19.11100 33.42000
H  47.89800 19.55500 31.73500
H  48.38800 15.15200 33.43700
H  46.79200 14.44700 33.13100
H  47.62300 14.84800 35.66500
H  45.98700 14.84300 35.14300
H  52.61500 18.74300 28.38400
H  52.97700 17.02200 28.45300
H  52.17800 17.65500 29.74300
H  53.18200 18.99100 26.19100
H  53.67400 18.34300 24.68500
H  53.53800 17.20200 26.18500
H  47.41800 15.52400 22.88900
H  44.59800 15.87600 23.68100
H  47.12400 17.56700 22.14900
H  46.80200 18.17000 23.75900
H  45.51500 17.59700 22.72900
H  45.44600 13.96600 22.17200
H  44.02700 13.93900 23.23600
H  44.84400 12.05600 24.19400
H  46.44000 12.77400 24.59200
H  46.27700 11.99700 23.05200
H  41.86200 13.52600 26.64800
H  41.00900 14.18100 27.98300
H  41.60200 12.48800 27.99500
H  44.41700 14.06700 32.58000
H  41.90800 17.30600 34.13700
H  43.11100 17.02700 35.35700
H  41.68900 16.01400 35.30800

