158

Mg 40.73600 9.31300 29.98100
C  42.60100 10.79600 32.48700
C  38.27600 8.49900 32.28400
C  38.98000 7.76900 27.51700
C  43.37400 9.72300 27.78400
N  40.52000 9.60600 32.18300
C  41.38900 10.26000 32.99000
C  40.75400 10.31500 34.44400
C  39.57100 9.34400 34.38500
C  39.42700 9.15300 32.85800
C  39.72100 8.06700 35.26500
C  40.40600 11.76700 34.95100
C  41.24600 12.30300 36.07900
H  40.61600 13.12500 37.26600
N  38.81000 8.43300 29.94000
C  38.00500 8.12800 30.94800
C  36.82700 7.51400 30.49100
C  36.88800 7.45600 29.06100
C  38.24900 7.92700 28.73500
C  35.69900 6.97600 31.42600
C  35.93300 6.94600 28.08100
O  36.02000 6.97400 26.83900
C  34.63800 6.40800 28.51900
N  41.05500 8.89800 27.85100
C  40.25900 8.10600 27.08700
C  40.77400 7.85000 25.64700
C  42.27500 8.40100 25.77800
C  42.22400 9.08800 27.22400
C  40.67400 6.41100 24.96800
C  42.70700 9.40800 24.66200
C  42.14800 10.84300 24.59300
N  42.71200 9.94500 30.10300
C  43.65000 10.15400 29.09500
C  44.81900 10.86600 29.62000
C  44.37800 11.14400 30.93900
C  43.16500 10.54500 31.18300
C  46.05900 11.24600 28.94200
C  44.74400 11.84400 32.14500
O  45.86000 12.30600 32.38100
C  43.65200 11.58300 33.28600
C  44.24800 10.70800 34.31600
O  44.44300 9.48500 34.22600
O  44.42700 11.42500 35.50900
C  44.46800 10.58500 36.72900
H  37.65600 8.08800 33.08400
H  38.30900 7.35900 26.75900
H  44.25800 9.82200 27.15100
H  41.65200 9.94100 34.93500
H  38.75900 9.95500 34.77800
H  40.64700 8.06500 35.84000
H  39.73800 7.11200 34.73900
H  38.85300 8.09200 35.92300
H  39.37100 11.90500 35.26400
H  40.55700 12.42500 34.09500
H  42.13000 12.88600 35.82100
H  41.54700 11.35300 36.51900
H  34.82000 7.61300 31.33300
H  35.90800 7.00100 32.49500
H  35.50900 5.92000 31.23700
H  34.09200 6.07600 27.63500
H  34.22000 7.28200 29.01900
H  34.69900 5.57300 29.21600
H  40.19300 8.35800 24.87800
H  43.02000 7.61000 25.86500
H  41.63000 6.02800 24.61100
H  40.13300 6.53200 24.02900
H  39.97900 5.73900 25.47100
H  42.49000 8.92700 23.70900
H  43.77900 9.49900 24.83400
H  42.81900 11.54800 25.08300
H  41.30100 10.90400 25.27700
H  41.77600 11.11600 23.60600
H  45.85400 11.84300 28.05300
H  46.46800 10.32100 28.53800
H  46.69700 11.65600 29.72500
H  43.29500 12.51500 33.72500
H  44.21000 11.21700 37.57900
H  45.54500 10.43300 36.79800
H  43.89200 9.66800 36.60500
Mg 9.37000 48.34100 25.73300
C  7.12600 49.09100 28.37300
C  11.92300 49.23500 27.69900
C  11.36200 47.88600 23.04300
C  6.54800 48.20000 23.57400
N  9.47300 49.18200 27.79000
C  8.46600 49.22300 28.73400
C  9.05800 49.46300 30.17200
C  10.53000 49.87700 29.81600
C  10.66900 49.36000 28.36900
C  10.88800 51.38800 29.91800
C  8.75000 48.21300 31.13900
C  9.78500 48.01700 32.27500
H  9.41600 47.07800 33.41000
N  11.37600 48.52700 25.40200
C  12.29500 48.87000 26.36800
C  13.61800 48.62700 25.87000
C  13.44400 48.13000 24.55000
C  12.04100 48.20400 24.22400
C  14.90700 48.90600 26.64300
C  14.53600 47.67200 23.61000
O  14.36900 47.18100 22.51100
C  15.98300 47.83300 24.03500
N  8.99100 47.93900 23.67400
C  10.01400 47.73500 22.76400
C  9.32900 47.30600 21.44300
C  7.81000 47.45300 21.65700
C  7.81000 48.01100 22.97000
C  9.90900 48.02400 20.21700
C  7.15600 46.16400 21.49300
C  7.44300 45.00600 22.44600
N  7.25000 48.54500 25.88800
C  6.24500 48.37700 24.95900
C  4.95000 48.49100 25.64000
C  5.31400 48.79700 26.99700
C  6.68200 48.77200 27.08600
C  3.56800 48.26400 25.01000
C  4.75400 49.13600 28.27400
O  3.60500 49.29000 28.65200
C  5.88500 49.13900 29.26700
C  5.54000 47.89000 30.15500
O  5.62300 46.72000 29.77800
O  5.05200 48.31500 31.34700
C  4.26800 47.26400 32.11500
H  12.76500 49.54900 28.31900
H  11.99000 47.79300 22.15500
H  5.70500 48.09300 22.88900
H  8.53900 50.31700 30.60700
H  11.19000 49.21000 30.37000
H  10.12000 51.94200 30.45800
H  10.90200 51.64300 28.85900
H  11.87000 51.48100 30.38200
H  8.82200 47.32000 30.51800
H  7.72000 48.19700 31.49400
H  10.05800 48.86300 32.90600
H  10.66500 47.48100 31.92100
H  14.71200 49.15700 27.68600
H  15.42100 49.80400 26.30100
H  15.66900 48.12700 26.60200
H  16.08900 47.05700 24.79300
H  16.18300 48.84500 24.39000
H  16.61100 47.68700 23.15700
H  9.67500 46.27400 21.38600
H  7.43500 48.13700 20.89500
H  10.45300 47.33800 19.56700
H  10.56900 48.82000 20.56300
H  9.11700 48.48400 19.62600
H  7.43800 45.84500 20.49000
H  6.07600 46.31000 21.45400
H  8.10900 44.37200 21.86300
H  6.49500 44.50400 22.64000
H  7.93400 45.32500 23.36600
H  2.82500 47.65300 25.52300
H  3.72800 47.85300 24.01400
H  3.21700 49.28400 24.85500
H  5.75900 50.02900 29.88400
H  3.44700 46.82600 31.54800
H  3.87900 47.64300 33.06000
H  4.98400 46.46900 32.32300

