158

Mg -2.40400 17.19800 27.04200
C  -2.64600 14.68100 29.65100
C  -2.71500 19.58400 29.30000
C  -2.51500 19.37900 24.52100
C  -2.57800 14.48700 24.72600
N  -2.59500 17.03600 29.18500
C  -2.65000 15.97400 30.15400
C  -2.88400 16.61200 31.51000
C  -2.92600 18.17400 31.33400
C  -2.72000 18.25800 29.81100
C  -4.17700 18.88300 31.99100
C  -1.83300 16.15000 32.51400
C  -1.44000 16.94100 33.65300
H  -0.88600 16.17000 34.83400
N  -2.45600 19.22900 26.87800
C  -2.50900 20.06900 27.96100
C  -2.39500 21.43900 27.60200
C  -2.42600 21.43600 26.17600
C  -2.47200 19.98000 25.78400
C  -2.37600 22.56000 28.61600
C  -2.34500 22.55400 25.12200
O  -2.38900 22.39400 23.94600
C  -2.25200 23.94200 25.64500
N  -2.70800 16.91000 24.91200
C  -2.58700 18.01200 24.15000
C  -2.41600 17.63200 22.61300
C  -2.52600 16.10200 22.70200
C  -2.58600 15.76700 24.18300
C  -3.57600 18.15100 21.70500
C  -1.40000 15.33200 21.96400
C  -0.01000 15.34400 22.56400
N  -2.49500 15.06700 27.11000
C  -2.53800 14.14800 26.08000
C  -2.41600 12.77900 26.57800
C  -2.46300 12.96500 27.99800
C  -2.61200 14.35100 28.27300
C  -2.27000 11.49600 25.83300
C  -2.47300 12.21200 29.30000
O  -2.58900 11.03800 29.55400
C  -2.54300 13.37700 30.41100
C  -1.20000 13.23100 31.12300
O  -0.14100 13.45900 30.62500
O  -1.30000 12.61900 32.35400
C  -0.02000 12.48300 33.02500
H  -2.99300 20.32000 30.05700
H  -2.41900 20.11300 23.71800
H  -2.49400 13.63800 24.04300
H  -3.79400 16.12800 31.86400
H  -2.06500 18.70400 31.74000
H  -4.77000 19.45800 31.28100
H  -3.75600 19.72900 32.53500
H  -4.75000 18.27800 32.69400
H  -0.89700 16.09700 31.95700
H  -2.14600 15.13700 32.76500
H  -2.43500 17.33000 33.87200
H  -0.76000 17.76200 33.42700
H  -1.57900 23.26600 28.38300
H  -2.17100 22.26700 29.64500
H  -3.35600 23.03500 28.57100
H  -2.51200 24.57700 24.79700
H  -1.30900 24.29500 26.06000
H  -2.97800 23.84200 26.45200
H  -1.41800 18.00100 22.37600
H  -3.48700 15.82000 22.27100
H  -4.40400 18.44300 22.35000
H  -3.84100 17.38100 20.98000
H  -3.17100 18.91600 21.04300
H  -1.46600 15.65700 20.92600
H  -1.70000 14.28800 22.05800
H  0.31400 14.33200 22.80700
H  0.02200 15.87400 23.51600
H  0.69700 15.81400 21.87900
H  -3.25600 11.32900 25.39800
H  -2.01900 10.71600 26.55000
H  -1.50100 11.52500 25.06000
H  -3.28800 13.26000 31.19800
H  0.51900 13.42800 32.95800
H  0.61300 11.67000 32.66900
H  -0.30700 12.23900 34.04800
Mg 49.63500 46.89300 42.59100
C  46.37000 47.08300 41.24600
C  49.67600 43.51200 41.90600
C  53.04800 47.01100 42.88400
C  49.56900 50.41700 43.06700
N  48.20700 45.57100 41.64600
C  46.92300 45.76700 41.18600
C  46.18900 44.40500 40.81700
C  47.29400 43.36600 41.12500
C  48.51700 44.20300 41.64900
C  46.95200 42.26200 42.20900
C  45.79300 44.52700 39.27600
C  44.38600 43.97600 38.88200
H  43.97500 44.35600 37.44400
N  51.14500 45.48200 42.52900
C  50.89200 44.16600 42.30000
C  52.13600 43.43300 42.52100
C  53.14800 44.44700 42.72200
C  52.46100 45.74100 42.74200
C  52.26000 41.90700 42.62600
C  54.64200 44.08600 42.82700
O  55.02700 42.91600 42.74900
C  55.76500 45.12000 43.00400
N  51.05900 48.46900 42.91900
C  52.37300 48.22400 43.03700
C  53.18200 49.46800 43.53200
C  52.05700 50.67000 43.49900
C  50.82300 49.79900 43.21500
C  53.81800 49.27400 44.95600
C  52.35900 51.91300 42.55300
C  53.25900 53.04300 43.15900
N  48.20600 48.54300 42.29100
C  48.30600 49.89600 42.52300
C  46.98400 50.49800 42.23000
C  46.21600 49.43700 41.75900
C  46.99300 48.25400 41.77400
C  46.60700 51.85600 42.46300
C  44.92300 49.12600 41.14100
O  44.05600 49.86000 40.72900
C  44.93800 47.55800 40.89800
C  43.91300 46.90800 41.80700
O  44.06500 46.61100 42.95900
O  42.65700 46.88300 41.29100
C  41.55000 46.93200 42.15400
H  49.84300 42.45000 41.71800
H  54.12000 47.21700 42.90800
H  49.59700 51.49500 43.23900
H  45.31800 44.32500 41.46800
H  47.55200 42.83600 40.20800
H  47.19500 41.25300 41.87500
H  45.87200 42.36200 42.31700
H  47.36400 42.43800 43.20300
H  46.46200 43.80200 38.81300
H  46.01800 45.49100 38.82000
H  43.59800 44.51100 39.41200
H  44.27300 42.89900 39.00900
H  52.93800 41.69700 43.45300
H  52.66600 41.49000 41.70500
H  51.38300 41.40400 43.03400
H  55.75600 45.76600 42.12600
H  56.71500 44.60500 43.14300
H  55.60600 45.74300 43.88400
H  53.98000 49.63200 42.80800
H  51.84700 51.05900 44.49600
H  53.46900 49.98700 45.70200
H  54.88500 49.38400 44.76100
H  53.52700 48.30400 45.35900
H  51.40300 52.27400 42.17400
H  52.85200 51.57100 41.64200
H  53.87300 52.65000 43.96900
H  52.59900 53.90300 43.27300
H  54.00200 53.39000 42.44000
H  47.18500 52.61300 41.93300
H  46.66500 51.99400 43.54200
H  45.53800 51.98000 42.28900
H  44.74100 47.40700 39.83600
H  41.39400 47.98900 42.37100
H  41.43000 46.27700 43.01700
H  40.75700 46.56700 41.50100

