158

Mg 25.90700 -0.34400 29.22600
C  27.89400 -0.58300 32.04800
C  23.19000 -0.31000 31.45000
C  24.08200 -0.09200 26.53500
C  28.73000 -1.12400 27.32500
N  25.56300 -0.54900 31.53900
C  26.53900 -0.48000 32.43300
C  25.98000 -0.22100 33.84700
C  24.45700 -0.51600 33.68700
C  24.36200 -0.54100 32.12000
C  23.96000 -1.85400 34.27400
C  26.42600 1.26300 34.42800
C  27.05600 1.38200 35.80300
H  26.07300 1.90600 36.88000
N  23.91200 -0.25900 28.98200
C  22.92800 -0.20400 30.02400
C  21.66200 -0.18200 29.36500
C  21.92900 -0.12600 27.94700
C  23.33800 -0.17200 27.75700
C  20.40400 -0.16200 30.19700
C  20.97200 -0.13500 26.86100
O  21.25600 -0.12600 25.64600
C  19.52100 -0.15100 27.22300
N  26.32800 -0.64200 27.23500
C  25.41000 -0.42500 26.29900
C  25.95400 -0.48800 24.87800
C  27.45800 -0.76500 25.15400
C  27.51100 -0.85900 26.65200
C  25.37800 -1.51600 23.88200
C  28.27900 0.41000 24.59900
C  28.24300 1.69900 25.47000
N  27.96900 -0.73700 29.55300
C  28.99700 -1.09200 28.74200
C  30.24500 -1.23300 29.51400
C  29.81400 -0.89100 30.79300
C  28.43600 -0.73900 30.75600
C  31.53600 -1.64600 28.89100
C  30.39100 -0.90200 32.13100
O  31.49300 -1.12800 32.53900
C  29.13700 -0.57100 32.99300
C  29.05800 -1.36300 34.28800
O  28.43100 -2.42000 34.38600
O  29.64000 -0.73200 35.35800
C  29.55200 -1.49300 36.61600
H  22.42500 -0.31700 32.23000
H  23.55600 0.15900 25.61100
H  29.62700 -1.17300 26.70400
H  26.47000 -0.94700 34.49600
H  23.93400 0.23200 34.28300
H  23.19500 -1.58400 35.00200
H  24.79400 -2.30100 34.81600
H  23.65900 -2.52100 33.46700
H  25.54300 1.89800 34.35800
H  27.06200 1.79300 33.71900
H  27.94600 1.99500 35.66000
H  27.45700 0.44900 36.19900
H  19.98800 -1.16800 30.15400
H  19.69600 0.66000 30.09300
H  20.56000 -0.12700 31.27500
H  19.23800 -1.06800 27.74200
H  18.88000 0.08400 26.37400
H  19.32800 0.70000 27.87600
H  25.75000 0.47300 24.40500
H  27.87400 -1.64000 24.65500
H  24.53800 -2.04700 24.33100
H  26.07000 -2.25200 23.47300
H  24.95500 -1.01000 23.01400
H  27.87500 0.69800 23.62900
H  29.30300 0.11800 24.36800
H  27.90800 1.45300 26.47800
H  27.65300 2.52400 25.07200
H  29.26700 2.04100 25.62500
H  31.23700 -2.57100 28.39900
H  32.22900 -1.86000 29.70500
H  31.82400 -0.84400 28.21100
H  29.26000 0.45300 33.34800
H  29.34900 -2.56000 36.52400
H  28.79300 -1.05600 37.26500
H  30.41500 -1.33800 37.26300
Mg 30.39500 59.85200 39.22800
C  27.35900 58.40200 38.40600
C  32.05100 57.10100 37.98700
C  33.34200 61.55500 39.38800
C  28.70200 62.89900 39.70000
N  29.67900 57.96800 38.29500
C  28.43800 57.55200 38.10800
C  28.46400 56.13400 37.43900
C  29.91400 55.70600 37.66800
C  30.64700 57.03700 37.98300
C  30.29300 54.62800 38.74000
C  28.24900 56.26100 35.83200
C  27.00700 55.45900 35.32600
H  26.05600 56.12200 34.35300
N  32.41900 59.39000 38.82700
C  32.87700 58.15900 38.30100
C  34.34200 58.26800 38.22000
C  34.75500 59.51500 38.76400
C  33.45000 60.21500 39.00500
C  35.08600 57.02600 37.92100
C  36.16000 59.95300 38.90200
O  37.07700 59.20600 38.50200
C  36.68900 61.20700 39.71200
N  30.92800 61.86100 39.55000
C  32.21600 62.34200 39.60800
C  32.31300 63.81700 39.98000
C  30.85300 64.23400 40.15800
C  30.11000 62.98100 39.66900
C  33.24600 64.21300 41.12100
C  30.49300 65.57800 39.38000
C  29.97200 66.70800 40.27700
N  28.42200 60.56600 39.16600
C  27.90500 61.79200 39.38500
C  26.40600 61.69800 39.32900
C  26.23300 60.42700 38.82500
C  27.40700 59.70200 38.86600
C  25.43100 62.81800 39.45200
C  25.17700 59.42400 38.52300
O  23.94300 59.44100 38.56400
C  25.98400 58.19700 38.09900
C  25.43200 57.06400 38.81400
O  25.35200 56.94600 40.04300
O  24.91700 56.11900 37.99900
C  24.31200 54.98300 38.67100
H  32.50700 56.11700 37.86200
H  34.26000 62.14100 39.46400
H  28.11300 63.80800 39.84100
H  27.84200 55.40200 37.95400
H  30.40600 55.38900 36.74800
H  31.15900 53.99700 38.53700
H  29.44700 53.96700 38.93100
H  30.67100 55.15400 39.61700
H  29.10000 55.92200 35.24100
H  28.17000 57.31200 35.55200
H  26.41500 55.19000 36.20000
H  27.44300 54.55700 34.89600
H  34.56600 56.45000 37.15600
H  35.13800 56.43500 38.83500
H  36.07800 57.26300 37.53400
H  37.77000 61.23000 39.57000
H  36.38600 61.16500 40.75900
H  36.25800 62.05200 39.17500
H  32.66500 64.37100 39.10900
H  30.60700 64.31700 41.21700
H  33.93500 64.97000 40.74600
H  33.85700 63.38100 41.47000
H  32.73300 64.63900 41.98200
H  29.72100 65.41600 38.62800
H  31.34000 66.02200 38.85700
H  30.43200 67.66900 40.04800
H  30.14400 66.55300 41.34200
H  28.90600 66.65100 40.05500
H  24.73600 62.75200 38.61500
H  25.85000 63.82300 39.40700
H  24.79800 62.78800 40.33900
H  25.91100 58.07000 37.01900
H  23.27800 55.28000 38.84700
H  24.80000 54.72000 39.60900
H  24.44800 54.10600 38.03900

