158

Mg 3.21600 0.07900 44.43700
C  6.09100 1.85200 44.00600
C  1.44100 2.84900 43.22000
C  0.43000 -1.89600 44.11400
C  5.10100 -2.70900 45.29800
N  3.79500 2.10700 43.56400
C  4.99500 2.61200 43.52900
C  5.06400 3.98900 42.84400
C  3.54600 4.40700 42.99700
C  2.85100 3.04000 43.27600
C  3.27900 5.44000 44.00600
C  5.64500 4.00800 41.42400
C  5.51700 2.80000 40.44800
H  5.93700 3.14400 38.94500
N  1.16500 0.39600 43.77900
C  0.64100 1.69600 43.49700
C  -0.80600 1.56900 43.35800
C  -1.10300 0.25900 43.61900
C  0.18500 -0.50600 43.90300
C  -1.70900 2.76900 42.92100
C  -2.56700 -0.39200 43.77600
O  -3.50000 0.35600 43.64800
C  -2.85400 -1.86500 44.09900
N  2.89400 -1.99800 44.40600
C  1.64700 -2.59200 44.30200
C  1.71600 -4.13500 44.69600
C  3.24800 -4.38400 45.00100
C  3.75800 -2.94100 44.98500
C  0.70500 -4.60900 45.69500
C  3.91400 -5.36900 43.98900
C  4.87300 -6.21400 44.76600
N  5.16700 -0.32900 44.87500
C  5.76300 -1.48300 45.34400
C  7.18000 -1.23100 45.52400
C  7.33200 0.12500 45.10000
C  6.08900 0.57100 44.60900
C  8.20700 -2.22100 45.96900
C  8.26300 1.20000 44.87300
O  9.47100 1.17600 45.10700
C  7.50400 2.36000 44.13800
C  7.70800 3.64300 44.87000
O  8.68600 4.36300 44.84100
O  6.60700 3.91400 45.60600
C  6.79100 5.14000 46.45700
H  0.95000 3.76100 42.87600
H  -0.38100 -2.59400 43.89600
H  5.70700 -3.56600 45.59900
H  5.76900 4.67700 43.31000
H  3.15500 4.69700 42.02100
H  4.06600 5.77300 44.68300
H  2.42900 5.15800 44.62700
H  3.02400 6.32200 43.41900
H  6.68200 4.33100 41.51600
H  5.21000 4.89200 40.95700
H  4.49600 2.42300 40.38700
H  6.08300 1.93000 40.78100
H  -2.61200 2.38100 42.45000
H  -1.38400 3.35700 42.06300
H  -2.01000 3.36500 43.78200
H  -3.91100 -2.11200 44.00100
H  -2.69800 -2.15300 45.13800
H  -2.31100 -2.58300 43.48500
H  1.41700 -4.56300 43.73900
H  3.41900 -4.73000 46.02000
H  -0.01000 -5.28600 45.22600
H  0.17100 -3.76000 46.12200
H  1.21800 -5.15600 46.48500
H  4.49100 -4.87500 43.20700
H  3.19100 -6.04700 43.53600
H  4.96000 -6.04300 45.83900
H  5.85400 -5.99400 44.34600
H  4.58600 -7.23500 44.51400
H  9.20300 -1.81200 45.79900
H  8.08500 -3.16900 45.44400
H  7.93800 -2.42500 47.00600
H  7.99900 2.40900 43.16800
H  6.07800 5.21800 47.27800
H  6.84700 6.06800 45.88700
H  7.73100 4.97700 46.98300
Mg 46.63100 44.88300 44.83500
C  43.18500 44.77800 44.03300
C  46.93000 41.48200 44.24100
C  49.96900 45.23900 44.89200
C  46.24100 48.36200 45.16800
N  45.29200 43.40500 44.12800
C  43.88200 43.55700 43.83200
C  43.27400 42.25200 43.22800
C  44.40900 41.20000 43.60500
C  45.66000 42.06700 44.09200
C  44.09600 39.99900 44.64100
C  43.25800 42.44300 41.75200
C  41.89100 42.15300 41.09100
H  41.76000 41.29500 39.85800
N  48.23400 43.48700 44.77900
C  48.12800 42.15900 44.56700
C  49.44300 41.59800 44.35600
C  50.41100 42.63800 44.49300
C  49.53600 43.88900 44.80500
C  49.73500 40.12100 44.08400
C  51.89000 42.49000 44.43200
O  52.33500 41.36700 44.26400
C  52.83600 43.64900 44.57800
N  47.92000 46.54800 44.77300
C  49.28200 46.44700 44.83400
C  49.95300 47.82500 44.92500
C  48.76800 48.72400 45.34300
C  47.55800 47.86200 45.09700
C  51.22800 47.98300 45.87100
C  48.74500 50.14800 44.62900
C  48.74500 51.40500 45.47900
N  45.08400 46.30800 44.72400
C  45.00500 47.69900 44.92400
C  43.63200 48.18800 44.75600
C  42.90500 47.07800 44.36700
C  43.80400 45.96900 44.38300
C  43.14400 49.68600 44.73400
C  41.55900 46.58200 43.98300
O  40.41000 47.11500 43.97200
C  41.70600 44.99300 43.81300
C  40.84700 44.29300 44.76900
O  39.85100 43.63800 44.48300
O  41.29700 44.40000 46.08600
C  40.47600 43.63400 47.03900
H  46.97200 40.42500 43.96900
H  51.04100 45.44000 44.93000
H  46.26400 49.42200 45.43100
H  42.36100 42.13900 43.81300
H  44.66900 40.63200 42.71200
H  44.50000 39.06200 44.25700
H  43.04700 39.98400 44.93700
H  44.72300 40.17300 45.51600
H  44.04100 41.86400 41.26300
H  43.54000 43.46600 41.50200
H  41.44300 43.11300 40.83400
H  41.19400 41.52500 41.64600
H  48.80200 39.56600 43.98700
H  50.31600 39.66700 44.88700
H  50.26300 39.97100 43.14300
H  52.60300 43.99900 45.58400
H  52.61000 44.37000 43.79200
H  53.86600 43.29500 44.61500
H  50.24400 48.11500 43.91600
H  48.79200 48.81200 46.42900
H  52.18000 47.95300 45.34000
H  51.25200 47.26400 46.69000
H  51.29800 48.96800 46.33200
H  47.87900 50.27300 43.97800
H  49.64700 50.09200 44.02000
H  49.53200 52.12300 45.24800
H  48.83800 51.10400 46.52300
H  47.77700 51.90100 45.41200
H  42.45300 49.91600 43.92400
H  44.11600 50.17700 44.67200
H  42.59700 49.85600 45.66200
H  41.31800 44.78100 42.81600
H  40.97400 42.67200 47.16200
H  39.46700 43.29200 46.80900
H  40.40500 44.19200 47.97200

