158

Mg 40.42500 41.25200 27.27600
C  39.81900 43.64500 30.00100
C  41.45100 39.05800 29.79200
C  41.16100 39.30200 24.91500
C  39.49400 43.87300 25.01500
N  40.53400 41.34700 29.58100
C  40.22700 42.37100 30.42400
C  40.28800 41.96100 31.92900
C  41.04900 40.64700 31.76700
C  41.06200 40.31100 30.26600
C  42.47200 40.61000 32.45000
C  38.91100 41.88600 32.61300
C  38.80500 41.37900 34.09500
H  38.15900 42.28700 35.09700
N  41.10700 39.37400 27.34000
C  41.52800 38.61800 28.40800
C  42.03600 37.34700 27.91800
C  42.02100 37.39400 26.50600
C  41.42700 38.71100 26.13200
C  42.57600 36.29900 28.91400
C  42.52100 36.31600 25.46100
O  42.55200 36.40700 24.25500
C  43.03000 35.07800 26.07100
N  40.48100 41.61500 25.24400
C  40.81000 40.58500 24.40400
C  40.57300 40.93200 22.91500
C  39.95400 42.32300 22.97500
C  39.83300 42.64000 24.50700
C  41.88700 40.92200 22.01800
C  38.55500 42.36300 22.39700
C  37.44800 41.55500 23.11600
N  39.73800 43.31700 27.42800
C  39.52500 44.23900 26.42400
C  39.24800 45.53400 27.02100
C  39.33500 45.30200 28.39100
C  39.69000 44.00600 28.61500
C  38.93500 46.78300 26.29100
C  39.17200 46.02900 29.60000
O  38.90700 47.17700 29.80300
C  39.44900 44.92300 30.73800
C  40.46100 45.37400 31.71100
O  41.62700 45.72700 31.39000
O  39.89200 45.55300 32.99700
C  40.89400 45.97100 34.00100
H  41.70800 38.38400 30.61100
H  41.38500 38.53100 24.17500
H  39.27000 44.67600 24.30900
H  40.73400 42.75900 32.52300
H  40.53400 39.83900 32.28600
H  42.85100 41.62500 32.56400
H  43.28700 40.16500 31.87800
H  42.43700 40.06300 33.39300
H  38.16900 41.28700 32.08500
H  38.40200 42.84800 32.56900
H  39.77300 41.01000 34.43500
H  38.16400 40.49800 34.11600
H  43.52400 35.86500 28.59600
H  41.81800 35.52500 29.03600
H  42.76800 36.79500 29.86500
H  43.97100 35.38300 26.53000
H  43.31000 34.38400 25.27900
H  42.25700 34.59700 26.67000
H  39.79100 40.25200 22.57500
H  40.63200 43.07500 22.57000
H  41.57500 40.59300 21.02700
H  42.63000 40.26100 22.46600
H  42.36100 41.89800 21.91700
H  38.66500 42.03600 21.36300
H  38.24900 43.40700 22.33200
H  37.80200 41.04100 24.00900
H  37.01100 40.87800 22.38200
H  36.58100 42.14900 23.40500
H  38.71300 46.57300 25.24500
H  39.77700 47.47100 26.37100
H  38.14100 47.27600 26.85300
H  38.54000 44.66300 31.28200
H  41.76600 46.48000 33.59100
H  41.27900 45.10100 34.53200
H  40.36500 46.65300 34.66700
Mg -9.44100 18.39600 43.04500
C  -5.93000 18.10600 43.10200
C  -8.99000 21.73300 42.11500
C  -12.75000 18.56100 42.30700
C  -9.75300 14.89600 43.22900
N  -7.68000 19.75000 42.66000
C  -6.29400 19.43500 42.84700
C  -5.40500 20.56900 42.54300
C  -6.40600 21.81100 42.45100
C  -7.73700 21.07100 42.36100
C  -6.39500 22.93500 43.51800
C  -4.57700 20.39000 41.14300
C  -5.33200 19.88800 39.84700
H  -4.74100 20.07400 38.47100
N  -10.68200 19.98600 42.32800
C  -10.33000 21.21800 41.97200
C  -11.48200 21.96400 41.70700
C  -12.57200 21.11300 41.57400
C  -12.03000 19.80200 42.03200
C  -11.47600 23.38900 41.45400
C  -13.98600 21.41300 41.16900
O  -14.25900 22.59400 40.87000
C  -15.07300 20.39000 40.86300
N  -10.99900 16.82800 42.73800
C  -12.26900 17.24300 42.67200
C  -13.22600 16.10000 42.79700
C  -12.32100 14.91900 43.23200
C  -10.91200 15.56800 43.12100
C  -14.46700 16.33900 43.59700
C  -12.51200 13.60100 42.45800
C  -12.91000 12.39000 43.19800
N  -8.23000 16.87100 43.20900
C  -8.43600 15.49900 43.29500
C  -7.10700 14.88100 43.51200
C  -6.18300 15.89900 43.47900
C  -6.86100 17.08300 43.21700
C  -6.88000 13.44000 43.55400
C  -4.75100 16.11700 43.55000
O  -3.81400 15.27900 43.60700
C  -4.56000 17.58200 43.24800
C  -3.83200 18.12700 44.41200
O  -2.66200 18.44900 44.47500
O  -4.70300 18.36600 45.49400
C  -4.14100 19.16200 46.59700
H  -8.94100 22.81200 41.94900
H  -13.80300 18.76400 42.10000
H  -9.79500 13.82500 43.44100
H  -4.74400 20.67100 43.40400
H  -6.24600 22.32200 41.50200
H  -6.38600 23.92200 43.05600
H  -5.68100 22.69000 44.30500
H  -7.27300 22.93500 44.16300
H  -3.85800 19.59000 41.32200
H  -3.82200 21.14700 40.93500
H  -6.34100 20.29200 39.92700
H  -5.46500 18.80600 39.85100
H  -11.81300 23.47100 40.42100
H  -10.63100 24.03100 41.70500
H  -12.16500 23.87900 42.14100
H  -15.43000 19.92200 41.78000
H  -14.70900 19.65600 40.14500
H  -15.85600 20.95300 40.35500
H  -13.55500 15.92500 41.77200
H  -12.46900 14.70500 44.29000
H  -15.40100 16.23700 43.04400
H  -14.41800 17.36800 43.95500
H  -14.50400 15.78600 44.53500
H  -11.50000 13.30400 42.18200
H  -13.24000 13.59500 41.64700
H  -13.70700 11.86700 42.67000
H  -13.25200 12.70500 44.18400
H  -12.16000 11.62800 43.41000
H  -6.37200 13.33600 42.59500
H  -7.77700 12.83300 43.67500
H  -6.27400 13.34300 44.45500
H  -3.91800 17.70500 42.37600
H  -3.40700 18.53900 47.10800
H  -4.95700 19.28800 47.30800
H  -3.70300 20.10000 46.25700

