158

Mg 0.82900 7.73600 25.49400
C  1.49500 9.52900 28.30800
C  0.94100 4.87100 27.31700
C  0.48200 5.94900 22.55300
C  1.14700 10.58800 23.45700
N  1.12300 7.26900 27.56400
C  1.36700 8.14600 28.56800
C  1.49700 7.44900 29.99300
C  1.49900 5.99500 29.55100
C  1.11400 6.01400 28.07000
C  2.85700 5.14100 29.87200
C  0.32600 7.84900 30.99000
C  0.67300 7.87000 32.45400
H  1.92000 7.07100 32.94000
N  0.73700 5.69900 24.99600
C  0.72100 4.64600 25.86800
C  0.33700 3.40200 25.19100
C  0.20300 3.75100 23.82100
C  0.51700 5.17600 23.68700
C  0.14500 2.11700 25.93800
C  -0.15800 2.83300 22.71100
O  -0.28700 3.31300 21.58300
C  -0.50700 1.42400 22.85300
N  0.92600 8.21400 23.22600
C  0.63300 7.29700 22.28500
C  0.52300 7.93100 20.86600
C  0.68100 9.45900 21.17200
C  0.88500 9.44900 22.70800
C  1.74300 7.37300 19.94000
C  -0.65300 10.26800 20.86500
C  -0.56200 11.77600 20.36800
N  1.23700 9.66100 25.73700
C  1.28900 10.72100 24.82900
C  1.51500 11.96100 25.54100
C  1.58600 11.55000 26.90200
C  1.40600 10.17400 27.00700
C  1.57400 13.32300 24.88600
C  1.76000 12.06900 28.31300
O  2.11400 13.20800 28.57700
C  1.56000 10.79900 29.25600
C  2.68500 10.70300 30.22400
O  3.77700 10.32700 29.88900
O  2.35600 11.39900 31.39400
C  3.35200 11.28600 32.47200
H  1.12100 3.98000 27.92300
H  0.26700 5.46400 21.59800
H  1.10400 11.55000 22.94300
H  2.47600 7.73500 30.38000
H  0.62600 5.50900 29.98700
H  2.73500 4.13900 30.28500
H  3.55400 5.69200 30.50300
H  3.35500 5.12500 28.90200
H  -0.60900 7.29200 30.92800
H  0.04200 8.85100 30.67000
H  -0.27000 7.77500 32.99100
H  1.02800 8.89000 32.60200
H  -0.93000 1.94900 25.86300
H  0.45700 2.14000 26.98200
H  0.73100 1.29000 25.53800
H  -0.97000 1.09200 21.92400
H  -1.18800 1.20700 23.67700
H  0.35600 0.77900 23.01900
H  -0.37000 7.53400 20.38300
H  1.53100 9.99300 20.74700
H  1.44900 7.57200 18.91000
H  1.97900 6.31400 20.04600
H  2.67400 7.91500 20.10500
H  -1.29900 10.15000 21.73500
H  -1.29100 9.70500 20.18300
H  -1.20200 11.87600 19.49100
H  0.45700 12.00700 20.05900
H  -0.85000 12.48000 21.14900
H  2.44400 13.45800 24.24400
H  1.55700 14.15600 25.58900
H  0.70900 13.47500 24.24100
H  0.66700 11.12000 29.79200
H  3.73500 10.26900 32.55800
H  3.01100 11.64800 33.44200
H  4.17900 11.92200 32.15600
Mg 0.64900 43.63700 26.60200
C  3.08000 43.88100 29.17500
C  -1.65100 42.68800 28.86600
C  -1.48700 43.36500 24.01900
C  3.28300 43.83900 24.35400
N  0.69400 43.44300 28.83800
C  1.77000 43.55700 29.67600
C  1.28100 43.50700 31.16700
C  -0.09300 42.75200 30.98400
C  -0.40800 42.95500 29.48800
C  0.11200 41.24100 31.25300
C  1.21700 44.89700 31.73900
C  1.27000 44.86400 33.33300
H  0.99500 43.61600 34.20200
N  -1.30700 43.26200 26.47300
C  -2.13600 42.91600 27.50300
C  -3.51900 42.81800 27.00900
C  -3.49400 43.18900 25.63000
C  -2.07700 43.30800 25.31400
C  -4.70700 42.67600 27.91100
C  -4.68600 43.43200 24.65600
O  -4.56200 43.74500 23.44700
C  -6.16000 43.16400 25.12800
N  0.89400 43.82800 24.42600
C  -0.13500 43.49900 23.64100
C  0.27200 43.57600 22.12800
C  1.76600 43.89900 22.23200
C  2.02900 43.89600 23.72300
C  -0.09400 42.34600 21.23700
C  2.31200 45.22400 21.55700
C  2.05300 46.54000 22.24400
N  2.75100 43.80100 26.71800
C  3.69900 43.79900 25.70200
C  4.96900 43.95400 26.23100
C  4.82700 44.05400 27.64700
C  3.42600 43.98500 27.86300
C  6.16500 44.06300 25.50000
C  5.50800 43.99600 28.90000
O  6.69000 43.94700 29.18100
C  4.38500 44.02700 29.94700
C  4.59500 42.83000 30.77300
O  4.47600 41.66800 30.37700
O  4.98900 43.23900 31.99300
C  5.20700 42.21800 33.02100
H  -2.38800 42.32000 29.58200
H  -2.22600 43.29400 23.21800
H  4.07400 43.96600 23.61100
H  2.06400 42.95100 31.68100
H  -0.95100 43.22000 31.46600
H  0.92000 41.07600 31.96600
H  0.21500 40.78200 30.27000
H  -0.72600 40.76100 31.75900
H  0.29400 45.39200 31.43800
H  2.11000 45.44700 31.43900
H  0.64700 45.71200 33.61300
H  2.23900 45.21300 33.69000
H  -5.31500 41.88400 27.47400
H  -5.32800 43.54500 28.12800
H  -4.45100 42.28200 28.89400
H  -6.33200 42.24800 25.69400
H  -6.79500 43.22500 24.24500
H  -6.60400 43.94700 25.74300
H  -0.24900 44.48600 21.82900
H  2.33500 43.09600 21.76400
H  0.72900 41.81400 20.76000
H  -0.64400 42.69100 20.36100
H  -0.65700 41.55100 21.72600
H  1.75800 45.22900 20.61800
H  3.38400 45.07900 21.42300
H  1.59600 46.62600 23.23000
H  1.41400 47.19000 21.64700
H  3.04700 46.98100 22.31900
H  6.12100 45.03300 25.00500
H  6.33800 43.21200 24.84000
H  6.98500 44.25900 26.19100
H  4.50200 44.98300 30.45700
H  5.81500 42.50700 33.87900
H  5.72300 41.38700 32.54000
H  4.26100 41.79200 33.35400

