158

Mg -11.03800 40.47800 42.77900
C  -10.20900 37.24100 41.98100
C  -7.98300 41.50900 41.58100
C  -12.31900 43.56500 42.86800
C  -14.48400 39.25900 43.29500
N  -9.42800 39.53300 41.64000
C  -9.23600 38.16900 41.58700
C  -7.88400 37.82900 40.92000
C  -7.09200 39.27100 40.90300
C  -8.18900 40.16900 41.34300
C  -5.68800 39.22700 41.65600
C  -8.07100 37.20100 39.45500
C  -7.04100 36.21100 39.09500
H  -5.96800 36.68200 38.09800
N  -10.15500 42.22300 42.53000
C  -8.86800 42.49600 42.06100
C  -8.69100 43.95600 42.00200
C  -9.83200 44.54800 42.59000
C  -10.86200 43.41800 42.65200
C  -7.36800 44.55200 41.51700
C  -10.09400 46.05000 42.92600
O  -9.27700 46.88800 42.51500
C  -11.17300 46.41800 43.78400
N  -13.15000 41.27400 43.02600
C  -13.32800 42.62600 43.03200
C  -14.82500 43.01500 42.93800
C  -15.54200 41.61000 43.06900
C  -14.31700 40.62700 43.08800
C  -15.28300 44.06300 43.97400
C  -16.64900 41.39500 41.99700
C  -18.15100 41.25100 42.38300
N  -12.17300 38.57900 42.81100
C  -13.46500 38.30500 43.06900
C  -13.64800 36.88000 43.11100
C  -12.38000 36.37600 42.71100
C  -11.53100 37.47600 42.46500
C  -14.92800 36.17800 43.34500
C  -11.64400 35.24800 42.33400
O  -11.90500 34.06900 42.40300
C  -10.21900 35.75800 41.79400
C  -9.23200 35.00300 42.55000
O  -9.03900 35.05000 43.80200
O  -8.45600 34.26900 41.72800
C  -7.48700 33.48000 42.32900
H  -7.02700 41.76100 41.11900
H  -12.58200 44.62200 42.79500
H  -15.52200 38.95800 43.45300
H  -7.25400 37.20700 41.55500
H  -6.87900 39.61200 39.89000
H  -4.94200 39.67100 40.99600
H  -5.53800 38.20600 42.00700
H  -5.76900 39.91900 42.49400
H  -8.19900 38.04900 38.78300
H  -8.92200 36.52300 39.38600
H  -7.57700 35.37600 38.64300
H  -6.59000 35.77600 39.98700
H  -6.70200 43.80800 41.08100
H  -6.88200 45.04500 42.35900
H  -7.54300 45.32300 40.76600
H  -12.04600 46.73500 43.21300
H  -10.80500 47.20800 44.43700
H  -11.43000 45.55400 44.39700
H  -15.07000 43.45900 41.97300
H  -16.00000 41.47800 44.05000
H  -14.41000 44.46600 44.48900
H  -16.12200 43.71900 44.57700
H  -15.61500 44.99100 43.50700
H  -16.42500 40.47700 41.45200
H  -16.63200 42.20400 41.26700
H  -18.62100 41.94000 41.68200
H  -18.27400 41.65500 43.38800
H  -18.65800 40.29700 42.23900
H  -15.26300 36.42400 44.35200
H  -14.76800 35.10100 43.40000
H  -15.73200 36.44400 42.65900
H  -10.28300 35.52600 40.73100
H  -8.02700 32.88200 43.06300
H  -6.75300 34.20500 42.68200
H  -7.12800 32.82200 41.53700
Mg -10.54100 17.27800 42.69600
C  -7.08600 16.64700 42.53000
C  -9.95800 20.40100 41.39200
C  -13.78600 17.83900 42.65200
C  -11.14000 13.82000 43.09600
N  -8.71600 18.26200 41.90800
C  -7.40800 17.91600 42.19500
C  -6.32300 19.05100 41.91000
C  -7.35500 20.30900 41.72900
C  -8.75800 19.66500 41.63600
C  -7.20700 21.54100 42.66100
C  -5.34200 18.85900 40.70400
C  -5.77500 18.10100 39.43700
H  -5.54400 18.86600 38.11100
N  -11.69900 18.92500 42.04500
C  -11.29700 20.11000 41.56000
C  -12.39700 20.97400 41.39200
C  -13.59100 20.24300 41.69200
C  -13.08200 18.96200 42.13500
C  -12.18900 22.38700 40.96900
C  -15.01300 20.78800 41.56200
O  -15.18600 21.96100 41.22100
C  -16.12100 19.96400 42.04200
N  -12.24900 15.99200 42.61900
C  -13.47100 16.55100 42.92500
C  -14.48000 15.50400 43.43600
C  -13.71900 14.15000 43.12900
C  -12.24300 14.65800 42.93100
C  -14.93000 15.73400 44.92200
C  -14.21800 13.40400 41.89200
C  -15.19600 12.22500 42.25900
N  -9.38000 15.55000 42.91400
C  -9.73000 14.22600 43.03900
C  -8.49600 13.42600 43.36200
C  -7.42800 14.32300 43.11700
C  -8.02200 15.59900 42.82700
C  -8.46400 11.96400 43.76200
C  -5.99100 14.53600 43.14600
O  -5.02200 13.76100 43.34000
C  -5.73300 16.02100 42.65400
C  -4.80300 16.65200 43.75200
O  -3.61100 17.00700 43.53100
O  -5.47500 16.74900 44.88200
C  -4.74300 17.48000 45.96100
H  -9.66100 21.43100 41.18800
H  -14.85400 17.81500 42.88100
H  -11.29800 12.77400 43.36800
H  -5.68400 19.14300 42.78800
H  -7.25100 20.78600 40.75500
H  -8.19000 21.82400 43.03800
H  -6.83400 22.38900 42.08700
H  -6.53400 21.38800 43.50400
H  -4.37400 18.52800 41.08000
H  -5.20600 19.90300 40.42100
H  -6.78000 17.68800 39.52900
H  -5.16700 17.21200 39.27300
H  -13.04900 23.00300 41.23000
H  -12.09400 22.39900 39.88300
H  -11.38300 22.96100 41.42400
H  -15.97200 18.94000 41.69900
H  -16.96000 20.37100 41.47700
H  -16.21700 20.16100 43.10900
H  -15.36700 15.58700 42.80700
H  -13.68600 13.60100 44.07000
H  -15.93200 16.16100 44.88600
H  -14.24200 16.44500 45.37900
H  -15.00600 14.75800 45.40100
H  -13.38500 12.97500 41.33500
H  -14.75600 14.10000 41.24800
H  -14.79200 11.28300 41.88700
H  -16.16000 12.44100 41.79800
H  -15.21900 12.03300 43.33200
H  -7.63900 11.94200 44.47400
H  -8.28100 11.32800 42.89600
H  -9.33400 11.57000 44.28700
H  -5.25800 15.95100 41.67500
H  -3.77600 17.96300 45.81500
H  -4.51100 16.79300 46.77400
H  -5.44000 18.17400 46.43200

