158

Mg 34.53000 49.17200 26.47800
C  34.92600 46.80300 28.95900
C  33.66800 51.46600 28.71700
C  33.54500 51.09900 23.90100
C  35.30600 46.63700 24.10800
N  34.44200 49.12000 28.58600
C  34.59700 48.03500 29.45200
C  34.68200 48.48100 30.89400
C  34.15300 50.02600 30.83000
C  34.13700 50.28700 29.28000
C  32.86200 50.46500 31.63400
C  36.05900 48.37200 31.52100
C  36.15800 48.05100 32.95600
H  36.28200 49.21800 33.93100
N  33.84500 51.10700 26.31400
C  33.54100 51.86700 27.36000
C  33.35800 53.25800 26.84400
C  33.39500 53.17500 25.39600
C  33.53800 51.74800 25.17800
C  33.31400 54.47900 27.70400
C  33.21900 54.29400 24.38500
O  33.28700 54.12000 23.18300
C  32.70900 55.53300 24.89300
N  34.38800 48.94600 24.40000
C  33.97500 49.88400 23.54900
C  34.12700 49.48200 22.05600
C  34.97200 48.20500 22.20000
C  34.86800 47.90000 23.66800
C  32.75900 49.23400 21.23600
C  36.41200 48.38100 21.72400
C  37.21800 47.10200 21.36800
N  35.01900 47.12000 26.45500
C  35.21700 46.18700 25.45700
C  35.45900 44.86200 26.03200
C  35.45500 45.07000 27.44400
C  35.07700 46.40200 27.57200
C  35.97200 43.63700 25.24700
C  35.68500 44.47800 28.75400
O  35.89300 43.33000 29.07900
C  35.36000 45.58300 29.76800
C  34.27300 45.10500 30.61400
O  33.13300 44.83100 30.21700
O  34.73000 44.89900 31.85700
C  33.67800 44.72800 32.87600
H  33.49700 52.21000 29.49700
H  33.36300 51.77300 23.06200
H  35.48200 45.89100 23.33000
H  33.97300 47.87800 31.46100
H  34.87000 50.74400 31.22900
H  32.03300 50.57800 30.93500
H  33.08400 51.38700 32.17100
H  32.46300 49.76800 32.37000
H  36.44300 49.39200 31.50600
H  36.70100 47.77000 30.87900
H  37.08000 47.48300 33.08100
H  35.25700 47.47800 33.17800
H  34.14600 55.12100 27.41500
H  33.70400 54.22800 28.69000
H  32.35300 54.99200 27.66200
H  32.36700 56.05300 23.99800
H  33.62100 56.05000 25.19100
H  31.89300 55.44100 25.60900
H  34.64100 50.31100 21.56900
H  34.51900 47.45600 21.55000
H  32.97000 49.88700 20.38800
H  31.99000 49.67100 21.87400
H  32.57500 48.22800 20.86000
H  36.92800 48.85000 22.56200
H  36.42500 49.02600 20.84500
H  37.57000 47.26100 20.34900
H  36.60100 46.21000 21.48000
H  38.14600 46.93900 21.91700
H  36.87900 44.04100 24.79700
H  35.30300 43.27900 24.46500
H  36.34500 42.83900 25.88800
H  36.25200 45.75800 30.36800
H  33.98500 45.54200 33.53200
H  33.84800 43.77800 33.38400
H  32.66000 44.92600 32.54200
Mg 0.31500 43.36600 26.54200
C  2.40400 43.19500 29.41800
C  -2.31600 42.83200 28.52700
C  -1.36200 42.62700 23.85100
C  3.28300 43.54200 24.67900
N  0.14600 43.02200 28.63100
C  1.02300 43.15200 29.68200
C  0.38600 43.16000 31.03900
C  -1.02600 42.61600 30.71400
C  -1.09400 42.72800 29.20200
C  -1.45500 41.21700 31.30500
C  0.32700 44.56200 31.68900
C  0.94500 44.52300 33.10100
H  0.54400 43.34000 33.92600
N  -1.55500 42.97900 26.18300
C  -2.53400 42.76400 27.18000
C  -3.77500 42.57900 26.53600
C  -3.58800 42.58800 25.14600
C  -2.13400 42.74800 25.03300
C  -5.11600 42.36500 27.26900
C  -4.54900 42.45800 23.94600
O  -4.28100 42.29000 22.76600
C  -6.04000 42.45700 24.34700
N  0.85900 43.17500 24.51700
C  -0.02900 42.87700 23.58600
C  0.62600 42.53600 22.25500
C  1.98700 43.29600 22.38600
C  2.07000 43.36200 23.91200
C  0.87500 41.03800 22.05700
C  2.05600 44.79200 21.85700
C  2.54900 44.93500 20.40200
N  2.43100 43.43100 26.90700
C  3.53500 43.62600 26.05900
C  4.77300 43.78600 26.72700
C  4.39200 43.48700 28.03900
C  2.96100 43.30100 28.11300
C  6.12700 44.13100 26.09100
C  4.85600 43.22600 29.44000
O  5.95400 43.08400 29.94200
C  3.58500 43.26900 30.33400
C  3.65200 42.19800 31.27600
O  3.17000 41.03500 31.10500
O  4.23700 42.54700 32.37000
C  4.34700 41.54600 33.51600
H  -3.17500 42.70100 29.18800
H  -1.82200 42.39800 22.88800
H  4.19500 43.78800 24.13200
H  0.87700 42.34800 31.57600
H  -1.85000 43.24800 31.04500
H  -0.75300 40.67300 31.93700
H  -1.56400 40.48800 30.50200
H  -2.39100 41.38500 31.83800
H  -0.70800 44.90300 31.73200
H  0.93100 45.25200 31.10000
H  0.49100 45.33800 33.66600
H  2.01300 44.66000 32.93200
H  -5.59800 43.34200 27.30400
H  -4.91400 42.00900 28.27900
H  -5.82300 41.61600 26.91100
H  -6.29500 43.19600 25.10700
H  -6.22300 41.44600 24.71200
H  -6.64500 42.59600 23.45100
H  -0.05600 42.91000 21.49200
H  2.85900 42.76700 21.99900
H  1.87900 40.74600 21.74800
H  0.15700 40.57000 21.38300
H  0.77500 40.53300 23.01700
H  2.69200 45.41700 22.48500
H  1.01700 45.12000 21.87500
H  1.88900 45.58800 19.83100
H  2.69900 43.94600 19.96900
H  3.49700 45.47300 20.43700
H  6.20000 45.18700 25.83100
H  6.31900 43.61100 25.15300
H  6.86900 43.85400 26.84100
H  3.69200 44.26300 30.77000
H  4.01600 40.54300 33.24700
H  3.70000 41.79100 34.35800
H  5.39500 41.52100 33.81500

