158

Mg 41.44400 8.79900 30.11200
C  43.30900 10.13800 32.76800
C  39.11300 7.65400 32.49000
C  39.51000 7.67100 27.57600
C  43.96900 9.62600 27.89700
N  41.24700 8.74900 32.34400
C  42.12100 9.43700 33.22800
C  41.68600 9.29800 34.69700
C  40.42800 8.46800 34.57000
C  40.25200 8.24300 33.06100
C  40.39800 7.09900 35.45800
C  41.46800 10.71700 35.33500
C  40.39600 10.90500 36.36500
H  40.77400 11.99800 37.32800
N  39.50800 8.05600 30.00300
C  38.69300 7.54100 31.07000
C  37.48600 6.99200 30.59500
C  37.56700 7.15000 29.14400
C  38.88700 7.59800 28.82300
C  36.38000 6.28700 31.42500
C  36.49900 6.88100 28.09500
O  36.63000 6.94300 26.87800
C  35.11300 6.63200 28.54900
N  41.72500 8.53000 27.95600
C  40.83100 7.93000 27.13500
C  41.43500 7.91200 25.70900
C  42.69900 8.82100 25.76900
C  42.86400 8.90800 27.30700
C  41.65600 6.45000 25.23700
C  42.54700 10.20500 25.07000
C  41.27400 10.94800 25.39300
N  43.26400 9.58800 30.22700
C  44.23600 9.87300 29.27200
C  45.19500 10.77300 29.81700
C  44.89700 10.86500 31.14400
C  43.73300 10.14600 31.40000
C  46.38500 11.32000 29.01200
C  45.28500 11.60800 32.37200
O  46.15800 12.42200 32.52100
C  44.38100 11.06700 33.46800
C  45.17300 10.39000 34.47500
O  45.80100 9.37100 34.41500
O  45.11600 11.10500 35.61500
C  46.02400 10.80400 36.65900
H  38.24800 7.43900 33.12100
H  38.91100 7.27000 26.75600
H  44.71400 9.95700 27.17100
H  42.49700 8.87800 35.29200
H  39.57900 9.05300 34.92400
H  39.96400 7.37000 36.42000
H  41.39500 6.72700 35.69200
H  39.89800 6.29900 34.91300
H  41.31100 11.42500 34.52200
H  42.41300 10.95100 35.82500
H  40.18300 9.95100 36.84700
H  39.50200 11.24200 35.84000
H  36.75700 6.08700 32.42800
H  36.21600 5.30200 30.98800
H  35.42100 6.80300 31.47600
H  35.06500 5.63800 28.99200
H  34.29000 6.78500 27.85100
H  34.86600 7.40800 29.27400
H  40.72400 8.29200 24.97500
H  43.57400 8.37100 25.29900
H  40.86800 5.83100 25.66600
H  42.60500 6.02300 25.56200
H  41.50600 6.41000 24.15800
H  42.78100 10.17500 24.00500
H  43.33100 10.87500 25.42100
H  40.77100 10.41400 26.19900
H  40.67600 11.03100 24.48600
H  41.48400 11.92000 25.84000
H  46.79200 12.20300 29.50400
H  46.09100 11.53300 27.98400
H  47.15300 10.56900 28.82900
H  43.97500 12.02500 33.79000
H  45.57100 10.16900 37.42100
H  46.46300 11.62600 37.22400
H  46.91800 10.27600 36.32800
Mg 47.23300 24.51300 27.52100
C  48.32400 26.80400 30.04500
C  46.54700 22.25400 30.06300
C  46.50200 22.42900 25.02300
C  48.67200 26.73900 25.21700
N  47.27600 24.62500 29.83600
C  47.74100 25.69500 30.63400
C  47.57300 25.27000 32.13400
C  47.22700 23.69400 32.09600
C  46.97100 23.50000 30.56000
C  48.30400 22.73200 32.75000
C  46.57600 26.13100 32.94000
C  46.29700 25.65700 34.38800
H  46.81400 26.54500 35.60500
N  46.57900 22.62200 27.50400
C  46.40000 21.78800 28.66000
C  46.12400 20.44100 28.15800
C  46.06400 20.49400 26.70300
C  46.30300 21.88200 26.32800
C  46.01200 19.30400 29.15600
C  45.80500 19.29900 25.77400
O  45.65800 19.42900 24.54600
C  45.68900 17.89900 26.30700
N  47.68100 24.53200 25.42200
C  47.20500 23.57700 24.57800
C  47.33800 24.04500 23.13200
C  48.02500 25.44500 23.13200
C  48.11600 25.57500 24.68300
C  48.00700 23.04800 22.14900
C  47.28100 26.57400 22.45100
C  48.13700 27.71100 21.77800
N  48.31300 26.40300 27.47300
C  48.82200 27.16400 26.49900
C  49.53500 28.36300 26.99000
C  49.29000 28.17700 28.41900
C  48.57400 27.04400 28.63300
C  50.20500 29.48900 26.19500
C  49.51700 28.91200 29.62000
O  50.09500 29.91900 29.86400
C  48.81300 28.05600 30.74800
C  49.79800 27.83400 31.83500
O  50.69800 26.96300 31.80900
O  49.51000 28.60000 32.94500
C  50.37200 28.52200 34.15200
H  46.30900 21.50500 30.82200
H  46.24200 21.75700 24.20200
H  48.95600 27.52700 24.51700
H  48.55800 25.43500 32.57200
H  46.24400 23.44000 32.49200
H  48.76700 22.24600 31.89100
H  47.79700 21.99500 33.37300
H  48.92500 23.26800 33.46700
H  45.65300 26.23700 32.37100
H  46.96900 27.14500 33.01200
H  46.69600 24.66100 34.58200
H  45.23200 25.64100 34.62200
H  46.57100 19.47400 30.07600
H  46.51000 18.39700 28.81300
H  45.00400 18.95600 29.37700
H  44.96700 17.96500 27.12100
H  46.70700 17.62400 26.58600
H  45.34900 17.25200 25.49900
H  46.28900 24.19100 22.87200
H  49.05800 25.43200 22.78600
H  48.42700 23.62600 21.32600
H  47.26600 22.36700 21.73200
H  48.66300 22.30800 22.60700
H  46.67800 27.11600 23.17900
H  46.70000 26.16000 21.62800
H  47.70200 28.61600 22.20100
H  48.06800 27.54200 20.70400
H  49.19600 27.69700 22.03600
H  49.65900 29.71600 25.27900
H  51.22500 29.24200 25.90000
H  50.20100 30.30100 26.92200
H  47.95700 28.59800 31.15000
H  49.93300 27.90600 34.93700
H  50.69600 29.48700 34.54100
H  51.25900 27.96700 33.84700

