158

Mg 45.25700 3.09100 47.94100
C  42.99800 5.67900 47.28800
C  42.71500 0.78300 47.48900
C  47.58000 0.54400 47.84700
C  47.87000 5.41200 47.69500
N  43.04200 3.24600 47.57800
C  42.40200 4.40800 47.25100
C  40.88700 4.13700 46.86900
C  40.83600 2.58900 46.93100
C  42.28500 2.17900 47.30600
C  39.69600 2.10600 47.92000
C  40.51600 4.63600 45.42000
C  39.31700 5.47900 45.31700
H  38.40100 5.42600 44.09600
N  45.09900 0.87600 47.86900
C  44.00400 0.16400 47.71600
C  44.33100 -1.29700 47.80800
C  45.72000 -1.36500 47.89700
C  46.23100 0.06800 47.91400
C  43.25500 -2.34600 47.66800
C  46.58700 -2.68600 48.04300
O  46.01700 -3.81100 47.92800
C  48.02700 -2.59700 48.15100
N  47.44900 3.01500 47.57600
C  48.12900 1.83900 47.75700
C  49.61200 2.13100 47.99300
C  49.73200 3.65800 47.83600
C  48.30800 4.08400 47.66400
C  50.07300 1.58700 49.36700
C  50.73800 4.15000 46.74700
C  51.94200 4.93500 47.19200
N  45.43300 5.11100 47.64400
C  46.54400 5.89400 47.63400
C  46.14900 7.31300 47.27500
C  44.75100 7.22100 47.27600
C  44.36800 5.89000 47.44600
C  47.10200 8.51800 47.14500
C  43.52500 8.01900 47.20200
O  43.35700 9.21900 47.19400
C  42.27100 7.00600 47.13600
C  41.27400 7.32100 48.15600
O  41.30500 7.08800 49.33700
O  40.23500 7.97100 47.54800
C  39.14200 8.37600 48.53100
H  41.96800 0.01000 47.29700
H  48.34800 -0.21500 48.01000
H  48.66600 6.15600 47.61900
H  40.26100 4.66700 47.58600
H  40.62400 2.04500 46.01000
H  40.11300 1.57000 48.77300
H  39.00500 1.49900 47.33500
H  39.27400 3.02200 48.33500
H  40.37200 3.75500 44.79400
H  41.37500 5.18100 45.02800
H  39.66400 6.50200 45.17000
H  38.93500 5.58200 46.33300
H  43.60400 -3.31700 48.01800
H  42.91800 -2.21600 46.64000
H  42.53600 -2.09000 48.44700
H  48.48100 -2.24600 47.22400
H  48.51800 -3.53800 48.40100
H  48.25800 -2.04800 49.06400
H  50.07900 1.53200 47.21100
H  50.15000 3.98300 48.79000
H  49.15700 1.32100 49.89300
H  50.67100 2.25100 49.99100
H  50.71400 0.73500 49.13600
H  50.26100 4.68000 45.92100
H  51.19900 3.23100 46.38600
H  51.70200 5.97900 46.98800
H  52.70400 4.64800 46.46800
H  52.27500 4.75300 48.21400
H  47.21800 8.62400 46.06600
H  48.01100 8.32700 47.71500
H  46.58200 9.36200 47.59800
H  41.86100 7.06200 46.12700
H  38.45800 9.06200 48.03100
H  39.43400 8.93100 49.42200
H  38.41700 7.59100 48.74400
Mg 41.29600 7.16200 29.48600
C  42.54100 8.70000 32.47100
C  38.65100 6.05200 31.30600
C  40.08100 5.78100 26.65000
C  44.09100 8.37300 27.86400
N  40.77300 7.17600 31.73900
C  41.39000 7.92100 32.74300
C  40.49700 7.92600 34.03200
C  39.32200 7.01100 33.66200
C  39.52000 6.80400 32.10900
C  39.39500 5.57600 34.34000
C  39.99300 9.38400 34.42700
C  40.06300 9.63700 35.95400
H  40.70500 10.93600 36.57300
N  39.58700 6.11300 29.02800
C  38.60000 5.76300 29.95600
C  37.47700 5.16600 29.33200
C  37.79600 5.21800 27.87900
C  39.24600 5.67300 27.78900
C  36.21100 4.66000 30.04600
C  36.99500 4.81400 26.72200
O  37.53400 4.72200 25.60500
C  35.47500 4.47200 26.83900
N  41.96900 7.08400 27.57600
C  41.30800 6.44600 26.54100
C  42.11300 6.58300 25.28800
C  43.38200 7.33600 25.68700
C  43.18100 7.63700 27.16600
C  42.34600 5.35300 24.42400
C  43.80300 8.44700 24.75800
C  42.79500 9.56100 24.49300
N  43.06900 8.27400 30.04300
C  44.09600 8.60200 29.25400
C  45.04600 9.36100 30.08000
C  44.42700 9.49300 31.34700
C  43.23600 8.74500 31.23900
C  46.30400 9.93600 29.64300
C  44.57200 10.00600 32.66100
O  45.55900 10.64500 33.08500
C  43.47100 9.42100 33.47500
C  44.09700 8.61200 34.47900
O  44.43300 7.43500 34.32100
O  44.30600 9.35600 35.66500
C  44.90800 8.66600 36.78700
H  37.86000 5.62400 31.92500
H  39.80400 5.35200 25.68500
H  44.97200 8.76200 27.35000
H  41.12200 7.64800 34.88000
H  38.37300 7.49100 33.89900
H  39.40500 4.81200 33.56300
H  38.57400 5.42800 35.04200
H  40.29700 5.36900 34.91400
H  38.94600 9.54200 34.16700
H  40.65000 10.01100 33.82500
H  40.40300 8.73400 36.46100
H  39.00800 9.78800 36.18000
H  36.34000 4.59800 31.12700
H  36.12400 3.64300 29.66500
H  35.41200 5.33200 29.73300
H  34.95800 5.23200 27.42300
H  35.49300 3.53200 27.39000
H  35.15000 4.33400 25.80700
H  41.49200 7.31500 24.77200
H  44.19900 6.62800 25.54800
H  43.20100 5.54400 23.77600
H  41.53800 5.31200 23.69300
H  42.22900 4.48300 25.07000
H  44.06000 7.94800 23.82400
H  44.80600 8.83100 24.94700
H  41.95400 9.59300 25.18600
H  42.32700 9.52300 23.51000
H  43.10900 10.60300 24.55600
H  46.39100 11.00500 29.83300
H  46.38600 9.69500 28.58300
H  47.08800 9.43400 30.21100
H  43.11900 10.35900 33.90400
H  45.21800 9.52400 37.38200
H  45.64800 7.91300 36.51700
H  44.20600 8.12300 37.42100

