158

Mg 46.69600 15.82800 28.42800
C  44.93100 15.23700 31.40400
C  49.01500 17.67500 30.23700
C  48.19500 16.94600 25.51000
C  44.07400 14.48000 26.52800
N  46.88100 16.39300 30.56300
C  46.09200 16.02400 31.60500
C  46.61300 16.55400 32.95100
C  47.77800 17.44900 32.53500
C  47.91900 17.13700 31.02100
C  47.59200 19.00900 32.90000
C  46.98200 15.47600 33.99800
C  46.24100 15.44000 35.32700
H  45.98600 16.75300 35.99500
N  48.39400 17.06400 27.96000
C  49.26600 17.61200 28.88100
C  50.36000 18.26200 28.22500
C  50.14600 18.13800 26.80800
C  48.90200 17.33200 26.69000
C  51.55600 18.71400 29.03500
C  50.98200 18.69300 25.70900
O  50.73800 18.40200 24.52100
C  52.15600 19.54800 25.98700
N  46.22700 15.63800 26.30600
C  46.94400 16.24500 25.30700
C  46.36100 15.90800 23.88600
C  45.18100 14.93500 24.29100
C  45.12900 15.03000 25.79500
C  45.88600 17.20800 23.15400
C  45.21300 13.44800 23.84100
C  46.53900 12.81500 24.12500
N  44.89200 14.91600 28.86000
C  43.91300 14.39200 27.99300
C  42.83200 13.84700 28.77000
C  43.24700 14.10100 30.12900
C  44.46700 14.80000 30.17400
C  41.54200 13.15900 28.31800
C  42.78800 13.93900 31.43900
O  41.72200 13.51700 31.86800
C  43.86400 14.57800 32.33800
C  43.16300 15.56800 33.22700
O  43.05400 16.80100 32.99900
O  42.69400 14.95200 34.35400
C  42.08900 15.85200 35.29900
H  49.67400 18.18900 30.94100
H  48.50100 17.31900 24.53000
H  43.26400 13.94400 26.02800
H  45.88700 17.28200 33.31300
H  48.73800 17.25600 33.01400
H  46.57900 19.26700 33.20900
H  47.73800 19.66300 32.04100
H  48.29300 19.33700 33.66700
H  48.04400 15.50200 34.24300
H  46.83000 14.52200 33.49400
H  46.86500 14.88200 36.02600
H  45.24800 14.99200 35.35200
H  51.71700 19.79200 29.02300
H  52.33300 18.14200 28.52700
H  51.53200 18.37900 30.07100
H  53.00300 18.88300 26.15600
H  51.79600 20.05800 26.88000
H  52.45900 20.23400 25.19600
H  47.13600 15.43300 23.28500
H  44.24500 15.22200 23.81100
H  46.61600 17.56100 22.42600
H  45.71000 18.02900 23.84900
H  45.11600 16.98800 22.41400
H  44.92400 13.35600 22.79400
H  44.42500 12.87800 24.33200
H  47.29900 13.54900 24.39400
H  46.74900 12.31200 23.18100
H  46.46700 12.06300 24.91000
H  41.29100 13.48600 27.30900
H  40.72900 13.49900 28.96000
H  41.64100 12.07300 28.32000
H  44.41900 13.81400 32.88200
H  42.00100 15.43800 36.30400
H  41.12300 16.24600 34.98500
H  42.72600 16.69200 35.57700
Mg -5.59000 25.73500 26.08000
C  -3.86300 27.13700 28.89300
C  -7.02200 23.54700 28.23000
C  -6.69400 24.22500 23.45500
C  -3.86500 28.05700 24.00100
N  -5.46600 25.38900 28.28900
C  -4.72200 26.04400 29.19900
C  -4.97100 25.51600 30.64500
C  -5.99600 24.35800 30.40900
C  -6.15300 24.45200 28.88900
C  -5.56200 23.02500 30.95800
C  -5.53400 26.60300 31.60500
C  -6.73300 26.28800 32.55300
H  -6.51400 25.05000 33.51700
N  -6.78000 24.15700 25.87800
C  -7.33200 23.36100 26.86900
C  -8.22200 22.36300 26.27900
C  -8.17300 22.59600 24.84600
C  -7.19900 23.70600 24.68900
C  -9.09300 21.43500 27.14600
C  -8.91200 21.89600 23.81700
O  -8.72900 22.04500 22.60700
C  -10.06600 21.02100 24.17400
N  -5.44900 26.14900 24.08400
C  -5.96800 25.32800 23.18300
C  -5.42400 25.67100 21.78100
C  -4.85000 27.07000 21.92200
C  -4.71800 27.09500 23.43000
C  -4.49600 24.52800 21.21900
C  -5.92300 28.16400 21.44400
C  -5.54700 28.95500 20.17400
N  -4.06600 27.20200 26.36200
C  -3.51800 28.09200 25.43000
C  -2.76800 29.09800 26.14800
C  -2.87800 28.79600 27.49000
C  -3.59000 27.59000 27.59200
C  -2.21800 30.32200 25.41900
C  -2.51400 29.17100 28.83200
O  -1.95500 30.12800 29.17700
C  -3.09300 28.07000 29.83500
C  -1.90800 27.55600 30.57000
O  -0.93100 26.96200 30.05900
O  -2.11800 27.74400 31.95900
C  -0.96000 27.37600 32.77400
H  -7.50700 22.87300 28.94000
H  -7.03200 23.67500 22.57500
H  -3.44000 28.78600 23.30800
H  -4.00300 25.12200 30.95500
H  -6.97400 24.55600 30.84900
H  -4.76200 22.62900 30.33200
H  -6.37500 22.35100 31.22500
H  -5.01500 23.08100 31.89900
H  -5.77300 27.51800 31.06300
H  -4.62100 26.75000 32.18100
H  -7.58300 26.15400 31.88400
H  -6.84500 27.19200 33.15100
H  -8.90000 20.37800 26.96600
H  -10.10400 21.76100 26.89900
H  -9.07300 21.59100 28.22500
H  -10.37000 20.40200 23.33000
H  -10.95100 21.58100 24.47600
H  -9.76800 20.23400 24.86700
H  -6.24500 25.62300 21.06700
H  -3.88800 27.06500 21.40900
H  -3.53800 24.93500 20.89700
H  -4.87500 23.94000 20.38300
H  -4.30800 23.80100 22.00900
H  -6.15500 28.92400 22.19100
H  -6.89900 27.77400 21.15500
H  -4.53700 28.67600 19.87400
H  -5.42600 30.00700 20.43300
H  -6.33600 28.88000 19.42500
H  -1.35600 30.06100 24.80500
H  -2.02100 31.13700 26.11500
H  -2.95200 30.64100 24.67900
H  -3.83500 28.64200 30.39100
H  -1.18800 27.52300 33.82900
H  -0.15600 28.05400 32.48700
H  -0.67200 26.35400 32.52500

