158

Mg 43.82100 3.72200 47.06200
C  41.92900 6.76100 47.13800
C  40.97400 2.01700 46.94400
C  45.76000 1.07800 46.66700
C  46.76100 5.82900 46.82700
N  41.69900 4.35300 47.00700
C  41.13200 5.61300 47.08400
C  39.64100 5.46000 47.26700
C  39.38300 3.87500 47.49800
C  40.74700 3.36500 47.09300
C  39.07600 3.57400 48.97400
C  38.76100 6.00000 46.05200
C  39.20500 5.53600 44.58100
H  39.35200 6.72300 43.62100
N  43.42700 1.84100 46.76000
C  42.16000 1.33900 46.72000
C  42.31700 -0.16200 46.60300
C  43.68500 -0.55200 46.60800
C  44.36800 0.85600 46.68700
C  41.04300 -1.07800 46.49800
C  44.23100 -1.99200 46.58400
O  43.56900 -2.99700 46.32400
C  45.67400 -2.18000 46.76700
N  45.95800 3.44200 46.76800
C  46.53800 2.24100 46.61000
C  48.09400 2.26200 46.53300
C  48.35900 3.81500 46.36400
C  46.93800 4.41300 46.64000
C  48.75000 1.75500 47.79800
C  48.87500 4.28500 45.00000
C  49.77700 3.47800 44.06000
N  44.34000 5.91400 46.99000
C  45.55100 6.55700 46.92100
C  45.24600 7.97700 46.99200
C  43.86300 8.12700 47.09700
C  43.35800 6.89200 47.03800
C  46.30600 9.07000 46.94000
C  42.77600 9.11800 47.14000
O  42.74400 10.32500 47.04000
C  41.53400 8.26600 47.23600
C  40.78500 8.58000 48.46800
O  40.87800 7.98300 49.52500
O  39.94200 9.64500 48.30600
C  38.97300 9.91500 49.37500
H  40.12400 1.33200 46.94700
H  46.28400 0.16400 46.37800
H  47.64900 6.44900 46.68500
H  39.30800 6.05800 48.11500
H  38.59400 3.42300 46.89600
H  39.90800 3.07100 49.46500
H  38.24000 2.87800 48.90400
H  38.82700 4.48500 49.52000
H  38.70200 7.08400 46.14500
H  37.74200 5.61700 46.08900
H  38.44400 4.85600 44.19700
H  40.17000 5.03300 44.62800
H  40.34500 -0.86700 47.30800
H  41.13300 -2.14000 46.26800
H  40.53600 -0.65800 45.63000
H  45.93900 -1.54500 47.61300
H  46.17600 -2.03000 45.81100
H  45.82000 -3.16400 47.21200
H  48.48800 1.65800 45.71600
H  49.08800 4.25900 47.04200
H  49.42100 0.96700 47.45700
H  47.98600 1.37400 48.47600
H  49.30300 2.46500 48.41200
H  49.42400 5.21800 45.12900
H  48.04700 4.66100 44.40000
H  49.43900 3.75200 43.06100
H  49.61300 2.41700 44.25000
H  50.81400 3.73800 44.27600
H  46.51000 9.55600 47.89400
H  46.00900 9.89800 46.29600
H  47.22000 8.62100 46.55000
H  40.94300 8.52400 46.35800
H  38.93800 10.96200 49.67400
H  39.09900 9.34500 50.29600
H  37.99900 9.75300 48.91400
Mg 29.90000 58.21600 40.10700
C  27.05900 56.17200 39.68000
C  31.87600 55.56600 39.17600
C  32.68200 60.28500 39.85800
C  27.91100 61.02600 40.15500
N  29.48500 56.03900 39.80300
C  28.24200 55.44800 39.59400
C  28.44000 53.99800 39.01200
C  30.02200 53.81800 39.27500
C  30.48100 55.25500 39.27700
C  30.42000 53.19900 40.65100
C  28.16500 53.98800 37.50200
C  28.20900 55.32800 36.68000
H  27.42700 55.41100 35.37600
N  31.99400 57.95400 39.71600
C  32.58800 56.79300 39.36900
C  33.97700 56.98900 39.34500
C  34.28000 58.33700 39.59900
C  32.93800 58.93100 39.76300
C  35.04200 55.86700 39.24700
C  35.72900 58.93200 39.61400
O  36.69900 58.22200 39.41300
C  35.90300 60.38100 40.12400
N  30.26700 60.27400 40.05500
C  31.48600 60.91800 39.95200
C  31.40800 62.43100 39.82500
C  29.81100 62.67800 40.07000
C  29.30500 61.27600 40.07700
C  32.29500 63.19800 40.85500
C  29.05200 63.70600 39.15300
C  28.47700 64.95200 39.91300
N  27.86600 58.52100 40.14800
C  27.19200 59.77400 40.11200
C  25.78300 59.56300 39.96400
C  25.67500 58.17000 39.73600
C  26.97400 57.59600 39.93600
C  24.72700 60.57900 39.91100
C  24.76300 57.05900 39.48000
O  23.55200 56.98200 39.28900
C  25.65100 55.79200 39.32300
C  25.08800 54.66600 40.11000
O  24.89700 54.78300 41.29800
O  24.86400 53.57600 39.35600
C  24.24100 52.38700 40.00400
H  32.45700 54.67600 38.92700
H  33.46400 61.04500 39.79500
H  27.37400 61.97600 40.17000
H  27.85200 53.23900 39.52800
H  30.58600 53.29300 38.50400
H  29.48600 52.77500 41.01900
H  30.80400 53.97700 41.31000
H  31.14500 52.39300 40.53500
H  27.18100 53.52700 37.41500
H  28.98000 53.44500 37.02400
H  29.27600 55.44100 36.48700
H  27.98600 56.22400 37.25800
H  35.63000 56.17100 38.38100
H  34.64600 54.92400 38.86800
H  35.74200 55.66100 40.05600
H  35.79200 61.04500 39.26800
H  36.87400 60.61600 40.55900
H  35.14600 60.51700 40.89700
H  31.69800 62.77900 38.83400
H  29.67600 62.99300 41.10500
H  31.64900 63.67100 41.59500
H  32.90800 63.92200 40.31800
H  32.88000 62.51400 41.47100
H  28.25400 63.31400 38.52200
H  29.82100 64.07600 38.47400
H  29.20300 65.73000 39.67700
H  28.40900 64.69800 40.97100
H  27.51000 65.19200 39.47300
H  24.61300 61.03200 40.89600
H  23.81100 60.07400 39.60600
H  25.05600 61.31300 39.17500
H  25.62600 55.53000 38.26500
H  24.58200 51.49000 39.48700
H  23.15300 52.43600 39.94900
H  24.38300 52.43400 41.08400

