158

Mg 8.69500 4.20300 27.90400
C  9.97300 2.56600 30.84600
C  6.94300 6.35400 30.04700
C  7.40000 5.60700 25.24500
C  10.27900 1.82400 25.98300
N  8.47700 4.46500 30.18900
C  9.12300 3.68000 31.09100
C  8.85300 4.20500 32.51700
C  7.67800 5.27800 32.31600
C  7.74800 5.44900 30.76000
C  6.30500 4.75600 32.74200
C  10.10800 4.89500 33.13900
C  10.50700 4.26800 34.52400
H  10.89200 5.15900 35.72000
N  7.37800 5.79900 27.70000
C  6.79800 6.59900 28.66300
C  6.01200 7.65000 28.03000
C  6.12200 7.47400 26.56800
C  6.95300 6.24100 26.41900
C  5.27000 8.80800 28.75800
C  5.44400 8.08200 25.38100
O  5.52400 7.65800 24.24800
C  4.58600 9.30000 25.71800
N  8.71400 3.70300 25.92200
C  8.14600 4.49000 24.99100
C  8.47500 3.98100 23.53900
C  9.65800 2.96400 23.71800
C  9.53000 2.76500 25.28300
C  7.25800 3.44100 22.79200
C  11.06700 3.44900 23.32500
C  11.93900 2.37100 22.51500
N  9.78200 2.48000 28.24900
C  10.40700 1.61500 27.37600
C  11.28000 0.72700 28.12700
C  11.15600 1.08900 29.47600
C  10.21400 2.18000 29.48000
C  12.15600 -0.34100 27.60900
C  11.63700 0.80400 30.82300
O  12.50300 0.05000 31.24800
C  10.92400 1.79900 31.70400
C  10.14700 0.98900 32.70500
O  9.21100 0.26900 32.35400
O  10.73200 1.15100 33.91300
C  10.17500 0.31000 34.99200
H  6.40700 6.96500 30.77700
H  7.06800 6.01700 24.28800
H  10.90100 1.22200 25.31700
H  8.45600 3.39500 33.12900
H  7.91600 6.26400 32.71400
H  6.40400 3.72500 33.08300
H  5.68400 4.67900 31.84900
H  5.89800 5.38500 33.53300
H  9.96300 5.97400 33.20000
H  10.94700 4.91600 32.44300
H  11.43500 3.74000 34.30600
H  9.80700 3.52000 34.89600
H  5.81600 9.75100 28.74500
H  5.08700 8.62900 29.81800
H  4.28100 8.96400 28.32500
H  3.73000 9.02900 26.33600
H  4.15400 9.60800 24.76600
H  5.27300 10.05000 26.11000
H  8.71400 4.75900 22.81300
H  9.53200 1.96300 23.30400
H  7.50900 2.48700 22.32800
H  7.23100 4.15700 21.97000
H  6.35700 3.51700 23.40100
H  11.51200 3.78200 24.26200
H  11.03200 4.35000 22.71300
H  12.21700 2.74900 21.53100
H  11.45200 1.40700 22.65800
H  12.91300 2.28200 22.99500
H  12.61900 -0.07500 26.65900
H  11.57200 -1.25900 27.66000
H  13.01300 -0.39200 28.28200
H  11.62900 2.49600 32.15700
H  9.23200 -0.18400 34.75900
H  9.96700 1.00300 35.80700
H  10.92000 -0.42200 35.30500
Mg 55.28800 23.95100 44.64600
C  52.67700 26.24300 43.94400
C  53.22600 21.55300 43.39200
C  57.89300 21.91400 44.57200
C  57.42100 26.75600 44.92800
N  53.27200 23.94400 43.78300
C  52.30700 24.93200 43.67200
C  50.96700 24.37200 43.12400
C  51.12100 22.84500 43.36700
C  52.59900 22.76600 43.57800
C  50.20600 22.26800 44.47000
C  50.64000 24.81100 41.66800
C  49.19800 25.28400 41.30900
H  48.63100 24.54800 40.07700
N  55.50600 22.03700 44.02000
C  54.49800 21.17500 43.61300
C  55.02300 19.80200 43.58400
C  56.37800 19.85800 44.09200
C  56.67900 21.27900 44.19900
C  54.12300 18.55000 43.32500
C  57.36600 18.69800 44.50300
O  56.92100 17.57000 44.76300
C  58.74200 18.89700 44.89400
N  57.36000 24.33100 44.70100
C  58.20500 23.23000 44.75000
C  59.64700 23.67200 45.06800
C  59.50500 25.24200 45.07800
C  58.03200 25.50700 44.81700
C  60.27200 23.03800 46.30300
C  60.59900 26.00900 44.28600
C  61.88000 26.28700 45.15100
N  55.08500 26.08800 44.81600
C  56.03500 27.07900 44.83900
C  55.39200 28.34300 44.86200
C  54.04900 28.05900 44.54400
C  53.94200 26.67000 44.42400
C  56.02200 29.64900 45.02400
C  52.74000 28.63500 44.37000
O  52.41900 29.84500 44.36800
C  51.80300 27.46200 43.74900
C  51.72500 27.88600 42.29600
O  52.57500 27.66500 41.43200
O  50.59900 28.57200 42.02500
C  50.29000 28.77800 40.63200
H  52.55400 20.71200 43.20400
H  58.78800 21.30300 44.70400
H  58.05000 27.62700 45.12100
H  50.20100 24.70300 43.82600
H  50.96000 22.13800 42.55300
H  49.26800 21.88900 44.06300
H  49.85900 23.04900 45.14700
H  50.66800 21.49900 45.08900
H  50.91000 23.93700 41.07500
H  51.29900 25.67100 41.55200
H  49.14300 26.35100 41.09400
H  48.57400 25.12700 42.18900
H  54.56300 17.84600 42.61900
H  53.09500 18.86400 43.14200
H  54.10000 17.93200 44.22300
H  59.19400 19.24900 43.96700
H  59.22400 17.96700 45.19300
H  58.70600 19.61800 45.71100
H  60.11800 23.28700 44.16400
H  59.67100 25.70700 46.05000
H  59.43600 22.58600 46.83500
H  60.73200 23.78700 46.94700
H  60.95500 22.22600 46.05000
H  60.20300 26.97200 43.96600
H  60.85700 25.40600 43.41500
H  62.63600 25.68200 44.65100
H  61.78000 25.82200 46.13100
H  62.23900 27.31400 45.07600
H  56.65800 29.76400 45.90200
H  55.17900 30.33800 44.97300
H  56.54900 29.82400 44.08600
H  50.87000 27.59100 44.29600
H  50.66200 27.95300 40.02400
H  50.76700 29.64900 40.18200
H  49.20900 28.84400 40.51500

