158

Mg 17.76700 -1.59600 27.99600
C  16.69600 0.25100 30.66300
C  19.86300 -3.32000 30.17600
C  19.33800 -2.93500 25.32800
C  15.80500 0.52200 26.01100
N  18.16500 -1.53400 30.17400
C  17.62200 -0.71500 31.04800
C  18.11100 -0.94000 32.47800
C  19.37700 -1.85700 32.23600
C  19.10300 -2.28600 30.78200
C  20.68000 -1.11500 32.40800
C  17.01200 -1.56700 33.35700
C  17.03400 -1.21900 34.89700
H  18.20200 -0.45100 35.49000
N  19.25700 -2.98700 27.71600
C  19.89800 -3.62500 28.77800
C  20.63400 -4.73600 28.28800
C  20.59400 -4.62000 26.87800
C  19.74300 -3.49900 26.52600
C  21.24500 -5.68800 29.23000
C  21.26600 -5.62200 25.90700
O  21.23600 -5.38900 24.70400
C  22.02500 -6.90700 26.30900
N  17.66500 -1.11900 25.92100
C  18.39700 -1.97100 25.05700
C  18.07600 -1.45100 23.65500
C  16.76900 -0.54000 23.86500
C  16.67300 -0.38200 25.35600
C  19.36200 -0.82600 22.98600
C  15.46700 -0.93300 23.12600
C  14.59000 0.19400 22.44100
N  16.37000 -0.08300 28.21900
C  15.67000 0.68500 27.35700
C  14.88800 1.68400 28.05000
C  15.20800 1.50000 29.36600
C  16.17300 0.50700 29.36500
C  13.88600 2.58700 27.43600
C  14.94200 1.92800 30.64700
O  14.14600 2.77600 30.99000
C  15.91400 1.23600 31.60100
C  16.72800 2.25000 32.33800
O  17.58900 2.91800 31.78800
O  16.33400 2.28000 33.63200
C  16.98700 3.32500 34.43300
H  20.57900 -3.78900 30.85500
H  19.81800 -3.36400 24.44600
H  15.14500 1.02000 25.29700
H  18.34100 0.04200 32.89100
H  19.38100 -2.66700 32.96600
H  21.23700 -1.67200 33.16100
H  20.48400 -0.12900 32.82900
H  21.25500 -1.13400 31.48200
H  16.97300 -2.64800 33.22300
H  16.05800 -1.36100 32.87200
H  16.99900 -2.13400 35.48800
H  16.13100 -0.63900 35.09200
H  20.73700 -5.66100 30.19400
H  22.33200 -5.61300 29.26900
H  21.12900 -6.67700 28.78700
H  21.27900 -7.63400 26.63200
H  22.75900 -6.64200 27.07000
H  22.54700 -7.39600 25.48700
H  17.82400 -2.32300 23.05200
H  16.99800 0.48900 23.58800
H  20.06200 -0.69400 23.81100
H  19.05700 0.14500 22.59400
H  19.80300 -1.40600 22.17600
H  14.75100 -1.37000 23.82200
H  15.76200 -1.73500 22.45000
H  13.57600 0.07700 22.82300
H  14.53400 0.02500 21.36500
H  15.03400 1.18200 22.56300
H  13.49400 3.26000 28.19900
H  13.01600 2.09900 26.99800
H  14.41500 3.04300 26.59900
H  15.23300 0.74800 32.29800
H  16.78000 3.26000 35.50100
H  16.62400 4.31500 34.15600
H  18.07600 3.33100 34.47100
Mg -2.01100 35.36500 26.40900
C  -3.11300 33.62100 29.27300
C  -0.53700 37.74100 28.37500
C  -1.11100 37.04300 23.65000
C  -3.68900 32.91800 24.44400
N  -1.91600 35.64500 28.57800
C  -2.38700 34.80500 29.61800
C  -1.85500 35.27700 30.97900
C  -1.18900 36.71100 30.70800
C  -1.17300 36.72500 29.12700
C  -1.94900 37.95500 31.35000
C  -0.98200 34.25900 31.70900
C  -1.36800 33.78600 33.14400
H  -0.29500 33.70000 34.29300
N  -1.06800 37.20800 26.05600
C  -0.56900 38.00900 27.02700
C  0.00700 39.11400 26.43600
C  -0.05100 38.95200 25.02200
C  -0.72500 37.64100 24.81700
C  0.67500 40.24500 27.24700
C  0.38900 39.93000 23.87100
O  0.20900 39.59500 22.72000
C  1.00600 41.27000 24.10000
N  -2.42500 35.11300 24.31300
C  -1.88400 35.88500 23.40300
C  -1.91300 35.25400 22.05000
C  -2.73700 33.91100 22.21500
C  -2.97900 33.94300 23.77200
C  -2.46700 36.04900 20.82400
C  -2.04300 32.73700 21.53300
C  -1.04600 31.93800 22.39000
N  -3.15900 33.61000 26.71200
C  -3.80500 32.76500 25.80800
C  -4.53000 31.79400 26.55100
C  -4.23400 32.08200 27.89200
C  -3.34100 33.10900 27.93700
C  -5.41200 30.77500 25.92100
C  -4.54200 31.65900 29.21300
O  -5.31200 30.81600 29.63600
C  -3.70600 32.54000 30.19000
C  -4.61000 33.00700 31.22200
O  -5.54200 33.76900 31.03100
O  -4.21300 32.45500 32.49500
C  -5.12800 32.77300 33.62900
H  0.02400 38.42700 29.01300
H  -0.86100 37.50200 22.69100
H  -4.26500 32.16900 23.89500
H  -2.72200 35.42700 31.62200
H  -0.17200 36.88800 31.05700
H  -2.61500 37.57800 32.12700
H  -2.57300 38.40500 30.57800
H  -1.33300 38.82500 31.57500
H  -0.02000 34.74900 31.86000
H  -0.88900 33.34600 31.12100
H  -1.61500 32.74300 32.94200
H  -2.26600 34.34300 33.41000
H  1.75100 40.20200 27.07800
H  0.58800 40.25500 28.33300
H  0.38000 41.17500 26.76100
H  1.57100 41.66400 23.25500
H  1.72900 41.24000 24.91600
H  0.15200 41.89600 24.35600
H  -0.85100 35.01200 22.01200
H  -3.66400 34.07100 21.66400
H  -1.84300 36.06300 19.93000
H  -2.47400 37.10900 21.07700
H  -3.49500 35.80300 20.55600
H  -1.64900 33.07800 20.57500
H  -2.85600 32.02000 21.41400
H  -1.38300 30.91300 22.54800
H  -0.94000 32.42300 23.36000
H  -0.09000 31.90000 21.86800
H  -5.28300 30.44300 24.89100
H  -6.38900 31.25700 25.94200
H  -5.42400 29.90900 26.58300
H  -3.02400 31.78000 30.56900
H  -6.05800 33.26400 33.34400
H  -4.57800 33.36200 34.36300
H  -5.40000 31.79900 34.03700

