158

Mg -1.91000 33.27100 27.59000
C  -3.87000 31.57900 29.99200
C  -0.81300 35.33300 30.13000
C  -0.30300 35.05300 25.22600
C  -3.31400 31.23200 25.11200
N  -2.32400 33.46400 29.82500
C  -3.11900 32.64100 30.59000
C  -3.06000 33.00100 32.03500
C  -2.29600 34.36600 31.99700
C  -1.73600 34.41200 30.53200
C  -3.07200 35.65000 32.41300
C  -2.26500 31.93600 32.87800
C  -3.09200 31.31000 33.95000
H  -2.42600 31.24400 35.35700
N  -0.59600 34.89700 27.68500
C  -0.24400 35.57700 28.83900
C  0.57200 36.68400 28.46200
C  0.83900 36.56400 27.03700
C  -0.03600 35.45100 26.58300
C  1.13700 37.57300 29.54500
C  1.78300 37.38300 26.22700
O  1.96100 37.17200 25.03300
C  2.56000 38.47700 26.91600
N  -1.76500 33.14800 25.51500
C  -1.14200 34.03000 24.75800
C  -1.49900 33.83700 23.30900
C  -2.11900 32.40600 23.25500
C  -2.42200 32.20500 24.74700
C  -2.49000 34.76600 22.75500
C  -1.22300 31.31300 22.62400
C  -0.31500 30.29900 23.38600
N  -3.33800 31.75100 27.52000
C  -3.79600 31.03400 26.42900
C  -4.65700 30.02200 26.89700
C  -4.82900 30.21300 28.29800
C  -3.87200 31.22100 28.60100
C  -5.35100 29.00700 26.14400
C  -5.44500 29.70400 29.47100
O  -6.10800 28.73300 29.65000
C  -4.79800 30.54700 30.71700
C  -5.89800 31.23500 31.51300
O  -6.51000 32.23300 31.20200
O  -6.26000 30.48000 32.64800
C  -7.35600 31.05900 33.45000
H  -0.47800 35.92500 30.98400
H  0.08200 35.82500 24.55600
H  -3.77800 30.67100 24.29800
H  -3.99900 33.29400 32.50500
H  -1.39900 34.30000 32.61300
H  -2.61500 35.93500 33.36100
H  -4.16100 35.64800 32.43300
H  -2.89000 36.48800 31.73900
H  -1.41000 32.44900 33.31800
H  -1.91900 31.14600 32.21200
H  -3.30800 30.31700 33.55600
H  -4.03500 31.84700 34.04300
H  0.72900 38.56900 29.37300
H  2.21300 37.57000 29.37100
H  0.93400 37.26600 30.57200
H  1.90400 39.06400 27.55800
H  2.70400 39.16400 26.08200
H  3.44700 38.04600 27.38000
H  -0.62600 33.91900 22.66200
H  -3.03700 32.44800 22.66800
H  -1.89400 35.49100 22.20100
H  -3.01400 35.32600 23.52900
H  -3.14600 34.30900 22.01400
H  -0.64300 31.86900 21.88700
H  -1.97600 30.73700 22.08600
H  -0.58300 29.29300 23.06400
H  -0.30400 30.35400 24.47400
H  0.64900 30.32700 22.87700
H  -6.30800 29.34000 25.74200
H  -5.57500 28.14100 26.76700
H  -4.77200 28.68700 25.27700
H  -4.34400 29.82600 31.39600
H  -6.89000 31.70600 34.19300
H  -7.82000 30.23500 33.99100
H  -8.13800 31.53900 32.86100
Mg -12.63200 16.30500 42.79600
C  -9.38300 15.08100 42.18100
C  -11.88500 19.17200 41.23300
C  -16.06100 17.08000 42.44900
C  -13.65500 13.13100 43.95700
N  -10.82000 17.04300 41.88100
C  -9.54600 16.41900 41.85400
C  -8.45600 17.43700 41.34400
C  -9.29000 18.78100 41.31900
C  -10.74400 18.29900 41.51200
C  -9.01100 19.84300 42.32300
C  -7.88600 17.00600 39.97200
C  -6.33000 16.89800 39.77400
H  -5.79400 15.66400 39.11400
N  -13.86200 17.98500 41.99300
C  -13.23100 19.05700 41.48900
C  -14.24100 20.05000 41.19700
C  -15.48200 19.40800 41.40100
C  -15.16500 18.04800 41.89700
C  -14.02200 21.38400 40.59800
C  -16.83500 20.05200 41.15600
O  -16.91800 21.15100 40.61300
C  -18.12600 19.34600 41.49200
N  -14.64600 15.20100 43.13700
C  -15.82600 15.79000 42.96400
C  -16.95700 14.85500 43.36900
C  -16.21100 13.51000 43.90300
C  -14.79400 13.96100 43.70000
C  -18.04200 15.32900 44.30400
C  -16.65500 12.25800 43.12800
C  -15.74200 11.81400 41.98700
N  -11.77900 14.48300 43.08400
C  -12.26100 13.23800 43.53300
C  -11.18100 12.25600 43.65700
C  -10.10700 12.93400 43.03900
C  -10.46100 14.29800 42.76000
C  -11.28600 10.84900 44.29700
C  -8.68400 12.80800 42.67200
O  -7.95400 11.80100 42.84300
C  -8.17700 14.18800 42.08700
C  -7.14200 14.72900 43.09000
O  -7.30500 15.50900 43.99600
O  -5.95300 14.08600 42.81700
C  -4.78200 14.49300 43.58600
H  -11.53200 20.09700 40.77300
H  -17.12600 17.29700 42.34600
H  -13.73800 12.13300 44.39200
H  -7.56800 17.54400 41.96700
H  -8.96400 19.29900 40.41700
H  -8.06500 19.57000 42.79000
H  -9.76800 19.93400 43.10200
H  -9.06600 20.79300 41.79200
H  -8.20700 17.66900 39.16800
H  -8.36000 16.10700 39.57700
H  -5.84800 16.95100 40.75000
H  -5.88800 17.76100 39.27600
H  -14.34700 21.34900 39.55800
H  -12.95600 21.57000 40.72700
H  -14.59100 22.12100 41.16400
H  -19.04500 19.91500 41.35800
H  -17.99400 19.18700 42.56200
H  -18.07400 18.41900 40.92000
H  -17.50900 14.79300 42.43100
H  -16.41100 13.30800 44.95600
H  -17.66500 16.24400 44.76300
H  -18.38500 14.64300 45.07900
H  -18.94800 15.52800 43.73200
H  -17.63700 12.34500 42.66400
H  -16.67300 11.43200 43.83900
H  -15.15100 10.94500 42.27700
H  -15.01700 12.55900 41.66100
H  -16.38800 11.68900 41.11800
H  -11.63600 10.88900 45.32800
H  -10.29800 10.40300 44.18100
H  -12.07800 10.25600 43.84100
H  -7.75600 14.16100 41.08200
H  -4.34300 15.45000 43.30500
H  -3.98100 13.78800 43.35900
H  -5.05900 14.49800 44.64000

