158

Mg 3.03300 -0.92600 42.92500
C  6.49400 -0.34100 42.49300
C  2.32200 1.87500 41.11100
C  -0.28400 -1.98600 42.59800
C  3.87400 -4.15900 44.29500
N  4.30100 0.51000 41.85400
C  5.67500 0.60000 41.82200
C  6.14800 1.94600 41.15700
C  4.79300 2.61600 40.79500
C  3.71900 1.63600 41.25300
C  4.67700 4.10700 41.19300
C  7.03400 1.66500 39.96900
C  6.49800 0.74400 38.85700
H  6.23900 1.25400 37.40100
N  1.35600 -0.07300 42.20200
C  1.23000 1.13000 41.62100
C  -0.19800 1.54000 41.60000
C  -0.96900 0.46300 41.96100
C  0.04100 -0.62100 42.25700
C  -0.63700 2.89000 41.05200
C  -2.52600 0.43400 42.04400
O  -3.27700 1.35800 41.64400
C  -3.23800 -0.78100 42.66900
N  2.00800 -2.82500 43.33100
C  0.57100 -2.93000 43.11700
C  0.09000 -4.36500 43.50900
C  1.34400 -4.98600 44.15100
C  2.50600 -3.96400 43.92200
C  -1.21500 -4.44000 44.42000
C  1.57300 -6.47400 43.66200
C  1.45900 -7.58400 44.72600
N  4.72900 -2.00600 43.40500
C  4.89100 -3.25900 43.98600
C  6.27500 -3.41200 44.30400
C  6.92500 -2.33800 43.75300
C  5.94700 -1.52000 43.17300
C  6.93800 -4.54600 45.07000
C  8.25900 -1.66200 43.65800
O  9.41900 -1.90100 44.02100
C  7.97400 -0.38300 42.72100
C  8.42100 0.90000 43.27000
O  9.14100 1.67800 42.71100
O  7.95100 1.08800 44.58700
C  8.32000 2.42900 45.14700
H  2.11900 2.87200 40.71600
H  -1.25600 -2.39600 42.31200
H  4.12900 -5.14500 44.68800
H  6.70800 2.53500 41.88400
H  4.63900 2.56000 39.71800
H  3.94400 4.25100 41.98700
H  4.30700 4.63600 40.31500
H  5.62800 4.53900 41.50500
H  7.95100 1.18800 40.31600
H  7.36200 2.63900 39.60800
H  5.54100 0.32800 39.17000
H  7.16200 -0.12100 38.84400
H  -1.17600 2.88100 40.10500
H  0.23600 3.54000 40.99200
H  -1.24200 3.33700 41.84100
H  -2.68300 -1.23600 43.48900
H  -3.27400 -1.49400 41.84400
H  -4.22300 -0.57500 43.08700
H  -0.18100 -4.84900 42.57100
H  1.14300 -5.00200 45.22200
H  -1.59600 -3.42800 44.56000
H  -0.96800 -4.86600 45.39200
H  -1.95900 -5.07600 43.94000
H  2.56100 -6.47400 43.20100
H  0.86100 -6.64800 42.85400
H  2.37800 -8.15200 44.86600
H  0.73700 -8.31900 44.37100
H  1.16700 -7.19800 45.70400
H  6.45100 -4.56000 46.04500
H  8.02300 -4.55300 45.16600
H  6.59300 -5.49900 44.66900
H  8.54000 -0.71300 41.85000
H  7.35300 2.91400 45.27800
H  8.78300 3.16400 44.48900
H  8.89000 2.35800 46.07300
Mg 0.31400 7.26500 25.78800
C  1.16800 9.41200 28.73000
C  0.90000 4.62100 27.93900
C  0.08200 5.48900 23.20500
C  0.48000 10.25400 23.89000
N  1.03600 7.10300 28.05500
C  1.11500 8.02500 29.04400
C  1.23100 7.47000 30.44000
C  1.38600 5.95000 30.08400
C  1.12900 5.85900 28.56200
C  2.78800 5.30900 30.44400
C  -0.07900 7.84800 31.27000
C  -0.09600 7.53800 32.73600
H  1.29700 7.39900 33.43100
N  0.46600 5.30900 25.63400
C  0.60200 4.34700 26.60200
C  0.46600 3.07600 25.98800
C  0.05900 3.31900 24.65600
C  0.19500 4.74500 24.41900
C  0.92500 1.80400 26.71500
C  -0.18800 2.20700 23.63100
O  -0.19900 2.49900 22.47500
C  -0.36100 0.74400 23.87000
N  0.47600 7.83700 23.84800
C  0.15500 6.84300 22.93800
C  -0.26000 7.46300 21.57600
C  -0.23200 8.99500 21.83000
C  0.23300 9.07700 23.26000
C  0.53900 6.93500 20.33200
C  -1.56800 9.80000 21.59400
C  -1.34000 11.09700 20.74800
N  0.69100 9.45900 26.19700
C  0.77300 10.48400 25.24000
C  1.08400 11.73200 25.93800
C  1.16500 11.30200 27.24400
C  1.03100 9.93900 27.40700
C  1.20300 13.09400 25.25100
C  1.47700 11.81800 28.56300
O  1.81400 12.92400 28.86400
C  1.40500 10.59900 29.63800
C  2.71200 10.57900 30.32400
O  3.79700 10.49700 29.75700
O  2.48100 10.77400 31.66900
C  3.64000 10.87700 32.50900
H  0.95600 3.76700 28.61700
H  -0.19400 4.78800 22.41400
H  0.35700 11.13200 23.25200
H  2.08600 7.88400 30.97500
H  0.67800 5.37900 30.68600
H  2.70200 4.45700 31.11800
H  3.25700 5.98300 31.16000
H  3.45100 5.07100 29.61200
H  -0.86000 7.31000 30.73400
H  -0.26100 8.92200 31.23900
H  -0.68200 6.61900 32.73300
H  -0.71700 8.28100 33.23600
H  1.39600 1.05200 26.08300
H  0.06400 1.46900 27.29500
H  1.80100 2.08300 27.30100
H  -0.69500 0.68400 24.90600
H  0.59100 0.25900 23.65300
H  -1.18300 0.47300 23.20800
H  -1.26200 7.06700 21.41100
H  0.51900 9.46100 21.19300
H  1.17300 7.71400 19.90900
H  -0.09300 6.57900 19.51900
H  1.20200 6.09100 20.52100
H  -2.04200 10.04700 22.54300
H  -2.19300 9.23700 20.90000
H  -1.44700 10.86700 19.68800
H  -0.34900 11.53800 20.85700
H  -2.15600 11.71400 21.12300
H  0.58400 13.02100 24.35600
H  2.23100 13.34200 24.98900
H  0.77600 13.86900 25.88700
H  0.54300 10.68400 30.29900
H  4.30000 10.05200 32.24400
H  3.44300 10.82700 33.58000
H  4.28600 11.73400 32.31700

