158

Mg -1.73900 17.78500 27.53200
C  -2.40100 15.50500 30.15000
C  -2.00100 20.23800 29.67300
C  -1.56100 19.74400 24.82100
C  -2.39000 14.94900 25.33200
N  -2.02400 17.78100 29.64400
C  -2.22600 16.78900 30.57600
C  -2.20700 17.32900 32.02700
C  -2.27800 18.90500 31.84100
C  -2.14400 19.00400 30.29600
C  -3.47300 19.70700 32.46300
C  -1.04500 16.82400 32.90400
C  -0.71000 17.70700 34.08100
H  -0.37800 16.91000 35.32100
N  -1.47800 19.69800 27.26000
C  -1.66600 20.62500 28.29800
C  -1.37100 21.93800 27.73300
C  -1.24700 21.79000 26.27000
C  -1.39900 20.37300 26.02900
C  -1.44000 23.21000 28.58500
C  -0.96000 22.97400 25.24300
O  -0.94600 22.75800 24.05400
C  -0.61000 24.33500 25.75200
N  -2.07400 17.43400 25.35800
C  -1.83000 18.41700 24.46400
C  -2.13100 17.89900 22.96700
C  -2.23400 16.32900 23.18600
C  -2.17600 16.16400 24.69300
C  -3.42700 18.54100 22.27900
C  -1.02000 15.53600 22.55100
C  0.25400 15.36600 23.34500
N  -2.22400 15.65900 27.64000
C  -2.41700 14.66700 26.67400
C  -2.83400 13.48700 27.34200
C  -2.77400 13.72000 28.67100
C  -2.42000 15.06600 28.84300
C  -3.09200 12.12400 26.80100
C  -2.96000 13.08200 30.00400
O  -3.28900 11.97200 30.31900
C  -2.67900 14.27200 31.01600
C  -1.37800 13.93200 31.60500
O  -0.32700 14.13300 31.04000
O  -1.53200 13.43500 32.88700
C  -0.37600 13.07000 33.71500
H  -1.98900 21.10000 30.34300
H  -1.56500 20.45400 23.99200
H  -2.46800 14.01700 24.76900
H  -3.13800 16.97500 32.46900
H  -1.33500 19.37400 32.11800
H  -3.06700 20.63900 32.85400
H  -3.96700 19.19300 33.28800
H  -4.11000 19.97800 31.62100
H  -0.19500 16.47100 32.31900
H  -1.44900 15.93600 33.38900
H  -1.38600 18.55000 34.22800
H  0.21800 18.14700 33.71600
H  -0.52300 23.78400 28.44900
H  -1.55400 23.02300 29.65300
H  -2.30900 23.73000 28.18100
H  -1.41100 24.78100 26.34200
H  -0.41500 24.92300 24.85500
H  0.28500 24.33300 26.37500
H  -1.23200 18.13500 22.39900
H  -3.18600 15.97500 22.78900
H  -3.85700 19.32200 22.90600
H  -4.19500 17.79500 22.07200
H  -3.13800 19.00200 21.33400
H  -0.50100 16.10500 21.77900
H  -1.45200 14.55100 22.37500
H  0.12700 15.59700 24.40300
H  1.18300 15.72100 22.90100
H  0.52000 14.31000 23.39800
H  -2.13700 11.75500 26.42700
H  -3.73400 12.11700 25.92000
H  -3.48300 11.47400 27.58400
H  -3.46700 14.45000 31.74800
H  -0.40200 11.98000 33.71200
H  -0.59200 13.38500 34.73600
H  0.60400 13.43100 33.40200
Mg 35.96200 48.63400 24.62500
C  36.41500 46.83700 27.58500
C  34.77600 51.32600 26.44100
C  35.65200 50.32200 21.81500
C  37.31200 45.94500 22.92100
N  35.52600 48.93400 26.80900
C  35.85800 48.10100 27.84200
C  35.59600 48.77500 29.14700
C  34.90400 50.11700 28.74800
C  35.06900 50.17800 27.27200
C  33.36600 50.25900 29.02100
C  36.86000 48.98800 30.04000
C  36.76000 48.73800 31.53500
H  35.43700 48.82200 32.29600
N  35.24100 50.47000 24.19000
C  34.82700 51.42800 25.06500
C  34.54800 52.65700 24.33700
C  34.70300 52.28600 23.00100
C  35.18200 50.95200 22.94000
C  34.18900 53.92600 25.07300
C  34.39900 53.21200 21.78800
O  34.59300 52.89600 20.62200
C  34.02100 54.60500 21.98600
N  36.44600 48.23100 22.67000
C  36.09400 49.04800 21.67900
C  36.46800 48.49900 20.33600
C  37.00500 47.07100 20.66600
C  36.90800 47.06400 22.17600
C  35.40200 48.53900 19.25700
C  38.45800 46.59300 20.13200
C  39.67300 47.05300 20.93300
N  36.72700 46.77700 25.05700
C  37.10800 45.72400 24.29100
C  37.59200 44.64000 25.07600
C  37.31600 45.03600 26.38200
C  36.71800 46.36600 26.30200
C  38.24600 43.41700 24.50200
C  37.44300 44.56500 27.73700
O  37.86700 43.52300 28.16200
C  36.72800 45.66600 28.60500
C  35.46100 45.27600 29.15900
O  34.43800 44.86000 28.57400
O  35.62100 45.35200 30.56400
C  34.54300 44.68000 31.33000
H  34.46000 52.16900 27.05900
H  35.73500 50.95400 20.92800
H  37.72600 45.10500 22.36000
H  35.04600 48.00300 29.68600
H  35.44500 50.97600 29.14700
H  32.86900 49.43600 29.53400
H  32.74300 50.42300 28.14200
H  33.25000 51.03200 29.78100
H  37.27400 49.98500 29.88600
H  37.59400 48.26500 29.68400
H  37.47900 49.41500 31.99700
H  37.03200 47.70300 31.74300
H  33.37400 54.48000 24.60600
H  35.13300 54.45100 25.21900
H  33.75400 53.78200 26.06200
H  34.56700 55.14400 22.76000
H  33.01500 54.57900 22.40400
H  34.00200 55.17100 21.05500
H  37.32900 49.10300 20.04800
H  36.22000 46.42200 20.27800
H  34.43600 48.53800 19.76000
H  35.31900 47.66000 18.61800
H  35.58900 49.44200 18.67500
H  38.54800 46.94900 19.10600
H  38.62500 45.52100 20.02700
H  39.40200 48.00200 21.39600
H  40.59200 47.35100 20.42900
H  39.99900 46.36600 21.71400
H  38.28200 42.52100 25.12200
H  39.10500 43.78500 23.94200
H  37.55300 42.97200 23.78800
H  37.34100 46.03200 29.42900
H  34.86500 44.79600 32.36400
H  34.50400 43.62800 31.04700
H  33.58900 45.18400 31.17700

