158

Mg 40.97200 7.99500 29.35600
C  42.68500 9.41900 32.12700
C  38.51600 6.87200 31.60100
C  39.60500 6.25300 26.83000
C  43.77300 8.72400 27.33600
N  40.63000 8.23300 31.61400
C  41.46800 8.77300 32.49500
C  40.94500 8.70800 33.97000
C  39.71200 7.70100 33.72400
C  39.60900 7.55200 32.25000
C  39.81400 6.35200 34.56600
C  40.60700 10.11300 34.54300
C  39.62100 10.17400 35.72400
H  40.18700 10.91800 36.90000
N  39.28100 6.68600 29.26100
C  38.41200 6.42100 30.27200
C  37.37200 5.64000 29.75500
C  37.63300 5.49100 28.39700
C  38.94500 6.11200 28.08600
C  36.26800 5.24400 30.57700
C  36.84000 4.83700 27.35600
O  37.21800 4.71900 26.19100
C  35.44900 4.30200 27.72800
N  41.67800 7.49800 27.37600
C  40.84900 6.77000 26.52800
C  41.50900 6.58600 25.16400
C  42.81600 7.49000 25.31500
C  42.75800 7.92600 26.77100
C  41.77800 5.08600 24.71300
C  42.80100 8.61600 24.30900
C  42.01000 9.84800 24.83200
N  42.79800 8.87800 29.60600
C  43.82500 9.12100 28.70300
C  44.81600 9.99000 29.33700
C  44.48800 10.04800 30.70500
C  43.20900 9.43800 30.78500
C  46.07200 10.53600 28.76300
C  44.94100 10.51100 32.04600
O  45.89900 11.14200 32.48500
C  43.74100 10.15900 32.98000
C  44.21100 9.29000 34.17500
O  44.72600 8.15900 34.10100
O  44.11100 10.00600 35.32000
C  44.49400 9.22300 36.41500
H  37.68800 6.61800 32.26600
H  39.26600 5.77100 25.91100
H  44.60900 9.00900 26.69500
H  41.70800 8.23400 34.58700
H  38.80300 8.22100 34.02800
H  40.39000 5.60300 34.02100
H  38.76500 6.06200 34.50800
H  40.11000 6.40000 35.61400
H  40.24500 10.60800 33.64300
H  41.51900 10.59000 34.90200
H  39.45400 9.13900 36.02400
H  38.71800 10.70000 35.41500
H  36.37500 4.18800 30.82700
H  35.32400 5.40100 30.05600
H  35.95600 5.86300 31.41900
H  35.47300 3.65700 28.60700
H  35.04000 3.68600 26.92800
H  34.69600 5.08700 27.78700
H  40.71600 6.82500 24.45400
H  43.73800 6.92000 25.20200
H  42.71400 4.70900 25.12500
H  41.89100 5.12100 23.63000
H  40.98600 4.38300 24.97000
H  42.27500 8.29000 23.41200
H  43.86200 8.81200 24.15000
H  41.46500 9.66900 25.75800
H  41.26600 10.18400 24.11100
H  42.73400 10.66300 24.84000
H  46.38000 11.48600 29.20000
H  45.82900 10.64800 27.70600
H  46.88800 9.82400 28.88300
H  43.44700 11.11800 33.40700
H  45.55900 9.00400 36.33500
H  43.75300 8.43000 36.51400
H  44.43900 9.70600 37.39000
Mg -9.68500 40.38800 42.08800
C  -8.72300 37.00300 40.90900
C  -6.76100 41.51800 40.81100
C  -11.04300 43.38800 42.21300
C  -12.95900 38.80800 42.56600
N  -8.03900 39.36700 40.85500
C  -7.72900 38.00200 40.75900
C  -6.31600 37.83500 40.06200
C  -5.65700 39.20800 40.36400
C  -6.83300 40.11100 40.72700
C  -4.61200 39.30400 41.56100
C  -6.44000 37.43200 38.58900
C  -5.80900 36.12000 37.99300
H  -5.58000 36.21300 36.49500
N  -8.98900 42.26600 41.69000
C  -7.75600 42.53300 41.12900
C  -7.56800 43.94300 41.16100
C  -8.81900 44.50500 41.48700
C  -9.68000 43.41600 41.81100
C  -6.32000 44.62900 40.71000
C  -9.21100 46.06000 41.50700
O  -8.48100 46.98200 41.19700
C  -10.52000 46.51500 42.06100
N  -11.65700 40.97300 42.29100
C  -11.96100 42.33500 42.39700
C  -13.44600 42.64500 42.74600
C  -14.07100 41.18500 42.94900
C  -12.87300 40.25700 42.51200
C  -13.61400 43.58600 44.00800
C  -15.48300 40.91800 42.30000
C  -16.46000 40.04500 43.06700
N  -10.61400 38.33700 42.01700
C  -11.95500 37.89300 42.22700
C  -12.02200 36.39900 42.07800
C  -10.75300 36.01000 41.63900
C  -9.94900 37.20100 41.57100
C  -13.23500 35.54700 42.17500
C  -10.04800 34.87400 41.14400
O  -10.33600 33.70200 41.09400
C  -8.56600 35.51000 40.73200
C  -7.57900 34.79500 41.57400
O  -7.10600 35.21400 42.65200
O  -7.33100 33.64400 40.89300
C  -6.53700 32.62200 41.47900
H  -5.79300 41.92800 40.51800
H  -11.54300 44.31700 42.49300
H  -13.88600 38.26200 42.75400
H  -5.77100 37.02000 40.53800
H  -5.12000 39.60400 39.50200
H  -3.58700 39.27200 41.19200
H  -4.83100 38.44200 42.19100
H  -4.77400 40.18200 42.18700
H  -5.92200 38.24700 38.08500
H  -7.50800 37.45000 38.37000
H  -6.46400 35.26200 38.14500
H  -4.92600 35.82700 38.56100
H  -5.97600 44.23500 39.75300
H  -5.56500 44.39700 41.46100
H  -6.29700 45.71600 40.62700
H  -10.71700 46.05600 43.03000
H  -11.29500 46.09700 41.41800
H  -10.49500 47.60200 42.13400
H  -13.77600 43.22100 41.88100
H  -14.19500 41.15600 44.03200
H  -12.71700 43.62900 44.62600
H  -14.49000 43.22600 44.54800
H  -13.82700 44.63000 43.77800
H  -15.40900 40.51800 41.28900
H  -15.84800 41.92700 42.11300
H  -17.39900 40.58500 43.18400
H  -16.13300 40.04200 44.10700
H  -16.63400 38.99500 42.83200
H  -13.96000 35.59800 41.36300
H  -13.73400 35.84600 43.09700
H  -12.81500 34.57100 42.41700
H  -8.30100 35.21900 39.71600
H  -5.85800 33.01500 42.23700
H  -6.00900 32.05600 40.71200
H  -7.21700 31.94700 41.99900

