158

Mg 47.37600 25.42700 28.02600
C  48.56600 27.38300 30.76600
C  45.87500 23.32000 30.28600
C  46.69100 23.38400 25.57800
C  49.29200 27.58800 25.96400
N  47.34700 25.33400 30.20500
C  47.91300 26.24200 31.14900
C  47.35700 25.82700 32.58500
C  46.73200 24.42800 32.35100
C  46.62200 24.37000 30.85500
C  47.46200 23.24900 32.83300
C  46.42200 26.94100 33.19000
C  46.91100 27.51500 34.52000
H  45.89700 27.76700 35.67700
N  46.36200 23.57400 27.93900
C  45.79000 22.88100 29.04300
C  45.20800 21.67400 28.51900
C  45.50200 21.62900 27.13300
C  46.18000 22.85400 26.81800
C  44.55500 20.59300 29.31400
C  45.06500 20.63600 26.04800
O  45.37600 20.69000 24.89400
C  44.27900 19.46300 26.52400
N  48.01700 25.41800 26.07000
C  47.41500 24.52600 25.17200
C  47.76600 24.93100 23.70300
C  48.61900 26.23400 23.94800
C  48.64300 26.45900 25.44900
C  48.46700 23.87200 22.90000
C  48.02500 27.45600 23.22100
C  48.91300 28.20700 22.35200
N  48.71000 27.20200 28.24500
C  49.45800 27.92100 27.32100
C  50.14400 29.00100 27.96100
C  49.74800 28.87200 29.32300
C  48.93400 27.74300 29.41000
C  50.99500 30.11300 27.34400
C  49.87600 29.41300 30.63400
O  50.46600 30.39700 31.11400
C  49.07700 28.45000 31.57700
C  50.17700 28.10300 32.58400
O  51.14600 27.40300 32.33300
O  49.95200 28.72300 33.81800
C  51.01400 28.55800 34.90700
H  45.43900 22.59500 30.97600
H  46.43300 22.90500 24.63100
H  49.75500 28.26200 25.24100
H  48.09800 25.60500 33.35200
H  45.73100 24.36400 32.77500
H  48.33800 23.39000 33.46600
H  48.02200 22.74900 32.04300
H  46.66200 22.66800 33.29200
H  45.43100 26.51600 33.34900
H  46.24900 27.81100 32.55600
H  47.36100 28.48900 34.32500
H  47.76400 26.99800 34.95900
H  43.64300 20.19200 28.87200
H  44.28600 20.82400 30.34500
H  45.36100 19.88100 29.49200
H  44.88000 18.81900 27.16500
H  44.33100 18.76700 25.68700
H  43.21700 19.64800 26.69100
H  46.81400 25.08400 23.19400
H  49.63600 26.03900 23.60700
H  48.03100 23.77900 21.90500
H  48.71400 22.97600 23.46900
H  49.44900 24.20300 22.56200
H  47.60700 28.19500 23.90500
H  47.12900 27.14000 22.68600
H  49.32800 29.00100 22.97400
H  48.24200 28.66100 21.62300
H  49.69200 27.56700 21.93700
H  50.52300 31.09400 27.40000
H  51.32800 29.86700 26.33600
H  51.83200 30.32500 28.00900
H  48.25100 28.97000 32.06200
H  50.63600 27.83200 35.62700
H  51.26000 29.48300 35.42900
H  51.89900 28.01700 34.57300
Mg -5.13000 25.17900 25.96300
C  -3.72000 26.78900 28.92400
C  -7.04300 23.26800 28.15900
C  -5.99700 23.31800 23.30400
C  -2.75600 27.01600 24.09900
N  -5.14900 24.90500 28.23800
C  -4.61100 25.67700 29.27300
C  -5.24900 25.36400 30.67700
C  -6.09400 24.11700 30.33500
C  -6.13300 24.06200 28.76600
C  -5.49900 22.76800 30.95300
C  -6.09300 26.56900 31.22000
C  -5.56600 27.04600 32.63100
H  -5.08000 25.98100 33.68300
N  -6.45200 23.76200 25.73800
C  -7.17200 23.14700 26.75000
C  -8.18000 22.28900 26.13800
C  -8.02000 22.44200 24.76700
C  -6.70400 23.16800 24.53200
C  -9.08400 21.31700 26.84900
C  -8.88400 21.83100 23.61000
O  -8.66700 22.07800 22.44200
C  -10.09000 20.97800 23.88900
N  -4.50400 25.23300 23.91500
C  -4.93100 24.25700 23.03700
C  -4.12800 24.35400 21.68700
C  -3.15400 25.61300 22.01200
C  -3.40300 25.93800 23.48400
C  -3.32900 23.06700 21.33200
C  -3.46300 26.84200 21.09600
C  -2.18400 27.61600 20.63200
N  -3.65400 26.67400 26.38500
C  -2.84700 27.38300 25.44300
C  -2.13100 28.41500 26.15700
C  -2.45500 28.20400 27.53800
C  -3.33100 27.11100 27.59700
C  -1.27500 29.47700 25.49900
C  -2.26200 28.73500 28.85100
O  -1.61800 29.67800 29.19600
C  -3.01000 27.81000 29.87200
C  -1.90700 27.07700 30.65500
O  -1.17700 26.26600 30.14300
O  -1.77400 27.51600 31.92200
C  -0.77000 26.74800 32.70700
H  -7.63200 22.58500 28.77500
H  -6.22200 22.64000 22.47800
H  -2.01500 27.48300 23.44700
H  -4.40400 25.19400 31.34400
H  -7.05700 24.22000 30.83700
H  -5.17000 22.13100 30.13200
H  -6.21600 22.25200 31.59200
H  -4.53600 22.97500 31.41900
H  -7.16900 26.40500 31.26800
H  -5.98100 27.41100 30.53700
H  -6.46600 27.40400 33.13100
H  -4.86600 27.86800 32.48100
H  -10.15000 21.47000 26.68100
H  -8.94600 21.42000 27.92500
H  -8.79100 20.31700 26.53100
H  -9.82400 20.26800 24.67100
H  -10.43600 20.54400 22.95100
H  -10.91000 21.58200 24.27900
H  -4.75500 24.61100 20.83400
H  -2.12500 25.26700 21.92200
H  -2.24400 23.04300 21.43600
H  -3.64200 22.83600 20.31400
H  -3.77800 22.30200 21.96500
H  -4.00700 27.54900 21.72300
H  -4.12300 26.59100 20.26500
H  -2.05400 27.45100 19.56300
H  -1.30700 27.30000 21.19800
H  -2.32000 28.65500 20.93100
H  -0.26500 29.39300 25.90100
H  -1.75400 30.41400 25.78300
H  -1.28000 29.33300 24.41900
H  -3.66800 28.43400 30.47600
H  0.14000 26.53000 32.14700
H  -1.30400 25.88700 33.10900
H  -0.48100 27.35100 33.56800

