158

Mg 27.51400 51.20000 25.78600
C  25.72500 52.30900 28.69100
C  30.15900 50.25500 27.80800
C  29.01000 50.04300 23.09700
C  25.05100 52.73900 23.70900
N  27.86400 51.30900 28.02700
C  26.92800 51.67700 28.97300
C  27.64000 51.61200 30.43300
C  29.04100 50.97800 30.14000
C  29.00300 50.87200 28.52100
C  30.27900 51.80800 30.57000
C  26.82000 50.91300 31.53300
C  26.80500 51.48800 32.98000
H  25.74300 50.92100 33.97900
N  29.30400 50.21100 25.56700
C  30.29800 49.87300 26.48800
C  31.38500 49.11300 25.75700
C  30.99000 49.04300 24.41200
C  29.74100 49.74400 24.29000
C  32.58800 48.52200 26.56400
C  31.72500 48.26200 23.27800
O  31.25100 48.18400 22.16000
C  33.15700 47.76400 23.53900
N  27.10800 51.38800 23.71000
C  27.85700 50.78100 22.82100
C  27.09700 50.68900 21.49100
C  25.68300 51.26500 21.80800
C  25.97900 51.91900 23.12200
C  27.88000 51.43300 20.32400
C  24.58400 50.23400 21.99700
C  23.40400 50.25400 21.01800
N  25.79200 52.33300 26.06900
C  24.95600 52.88700 25.11100
C  23.98100 53.63700 25.85600
C  24.18500 53.36500 27.26500
C  25.30900 52.57800 27.35000
C  22.90200 54.48300 25.32400
C  23.66000 53.61300 28.54300
O  22.64800 54.26000 28.86400
C  24.64800 52.97800 29.52400
C  25.01100 53.98300 30.52200
O  25.99300 54.73900 30.40900
O  24.19100 53.84600 31.59600
C  24.50700 54.74700 32.72200
H  30.98300 49.92000 28.44100
H  29.50800 49.67200 22.19900
H  24.34600 53.20000 23.01300
H  27.75600 52.65400 30.72900
H  29.23500 49.98400 30.54300
H  30.00800 52.42800 31.42500
H  30.85900 52.38100 29.84700
H  30.93700 51.10200 31.07700
H  27.23000 49.91500 31.68600
H  25.85300 50.59500 31.14500
H  26.83900 52.57700 32.95100
H  27.78200 51.22000 33.38200
H  32.53900 48.52800 27.65300
H  33.56400 48.96000 26.35600
H  32.55800 47.47600 26.25600
H  32.91000 46.88300 24.13100
H  33.75800 48.50200 24.07100
H  33.65700 47.48800 22.61100
H  26.92400 49.61600 21.40700
H  25.41800 52.09100 21.14900
H  28.96100 51.53100 20.41900
H  27.47100 52.43100 20.16400
H  27.67500 50.84200 19.43100
H  24.16600 50.30100 23.00100
H  25.03300 49.24700 21.89400
H  23.75100 49.77400 20.10300
H  22.98200 51.24700 20.85700
H  22.69400 49.46100 21.25200
H  23.40100 55.21500 24.68800
H  22.44400 54.97900 26.17900
H  22.11600 53.88100 24.86700
H  24.11100 52.21100 30.08200
H  23.57100 54.72400 33.27900
H  24.83900 55.69700 32.30100
H  25.35800 54.22100 33.15500
Mg -11.08800 38.94500 41.36300
C  -8.74000 36.12100 40.96100
C  -9.04200 40.80000 39.51300
C  -13.63700 41.07800 40.99500
C  -13.36500 36.43500 42.38300
N  -9.17000 38.46500 40.21600
C  -8.40800 37.30800 40.24300
C  -7.10300 37.54400 39.51400
C  -7.15700 39.07100 39.09500
C  -8.53500 39.48900 39.67200
C  -5.96600 39.97600 39.61800
C  -7.05900 36.62600 38.26500
C  -5.72400 35.89100 38.20900
H  -4.95700 36.11900 36.93900
N  -11.19900 40.73700 40.47800
C  -10.22800 41.33900 39.84400
C  -10.61500 42.69700 39.51200
C  -11.98400 42.80600 39.83500
C  -12.35100 41.51400 40.48000
C  -9.73400 43.83200 38.79000
C  -12.87400 43.98600 39.55300
O  -12.40200 45.01700 38.97400
C  -14.31500 44.04400 39.81200
N  -13.21000 38.76900 41.67600
C  -14.02300 39.86000 41.54800
C  -15.50700 39.48800 41.96500
C  -15.36500 37.95200 42.36400
C  -13.91700 37.70400 42.13600
C  -16.14400 40.32100 43.15100
C  -16.30100 37.02700 41.59500
C  -17.06900 36.02600 42.55600
N  -11.14500 36.74700 41.72000
C  -12.10400 35.92700 42.20100
C  -11.57300 34.61900 42.47600
C  -10.33400 34.66600 41.97700
C  -10.05000 35.97500 41.51700
C  -12.37700 33.59200 43.10400
C  -9.13000 33.85800 41.81400
O  -8.96500 32.67600 41.99600
C  -8.07800 34.78700 41.05500
C  -6.72600 34.78500 41.70400
O  -5.83800 33.95100 41.61300
O  -6.55700 36.00900 42.38600
C  -5.25800 36.25900 43.14700
H  -8.28500 41.45700 39.07900
H  -14.54800 41.67300 40.90000
H  -14.04000 35.74700 42.89600
H  -6.17000 37.50400 40.07600
H  -7.20400 39.23000 38.01800
H  -6.41300 40.62000 40.37600
H  -5.56700 40.60700 38.82400
H  -5.10500 39.54800 40.13200
H  -7.34100 37.20400 37.38400
H  -7.87000 35.89800 38.24200
H  -5.92400 34.82700 38.32700
H  -5.05700 36.19300 39.01800
H  -10.16800 43.99300 37.80400
H  -8.71800 43.47500 38.62800
H  -9.65500 44.79700 39.29200
H  -14.31700 43.94200 40.89700
H  -14.83900 43.23000 39.31100
H  -14.73200 44.98600 39.45700
H  -16.20600 39.59300 41.13500
H  -15.53400 37.82300 43.43400
H  -16.51500 41.28600 42.80600
H  -15.54600 40.43600 44.05500
H  -16.90200 39.65600 43.56500
H  -15.79000 36.43300 40.83700
H  -17.05900 37.57700 41.03700
H  -17.00100 35.02500 42.13000
H  -18.01500 36.47600 42.85800
H  -16.55600 35.93200 43.51300
H  -13.04400 33.91300 43.90500
H  -11.60300 33.07200 43.66900
H  -12.78200 32.97100 42.30600
H  -8.06200 34.46900 40.01300
H  -5.24800 35.57700 43.99700
H  -5.04800 37.30200 43.38200
H  -4.51200 36.15600 42.35900

