158

Mg 42.64700 41.70000 26.64800
C  41.60400 44.09400 29.03700
C  43.56900 39.75300 29.34300
C  43.32400 39.45800 24.44300
C  41.66000 44.01000 24.17400
N  42.49100 41.86800 28.93600
C  42.08300 42.94000 29.70000
C  42.13600 42.66100 31.26400
C  42.92000 41.30600 31.22800
C  42.99000 40.93000 29.77900
C  44.44400 41.27400 31.86500
C  40.70300 42.52500 31.95000
C  40.18700 43.44800 33.10200
H  39.96900 42.81100 34.46700
N  43.45800 39.94400 26.83300
C  43.76500 39.25200 28.01100
C  44.35900 38.01200 27.67500
C  44.37000 37.88000 26.29000
C  43.75400 39.11800 25.79000
C  44.71600 36.90000 28.77800
C  44.91500 36.74900 25.42200
O  44.79400 36.74900 24.23200
C  45.61800 35.55500 26.00000
N  42.54800 41.75300 24.58600
C  42.80500 40.62500 23.86200
C  42.57900 40.90200 22.36200
C  41.94700 42.32300 22.24600
C  42.01600 42.73600 23.74200
C  43.76000 40.59900 21.38600
C  40.54100 42.38000 21.50300
C  40.43400 43.48900 20.41200
N  41.91000 43.65000 26.58200
C  41.56600 44.51100 25.45800
C  40.93600 45.76000 25.96100
C  40.91100 45.56800 27.30500
C  41.57000 44.30600 27.65200
C  40.13700 46.81900 25.18500
C  40.56300 46.16200 28.60000
O  39.96500 47.19000 28.77300
C  41.09300 45.23800 29.86300
C  42.16500 45.97600 30.63300
O  43.27900 46.10200 30.31100
O  41.61100 46.44800 31.73600
C  42.44500 46.89400 32.86600
H  43.84600 39.06400 30.14300
H  43.63000 38.81300 23.61700
H  41.32100 44.59900 23.32000
H  42.61200 43.48600 31.79500
H  42.33400 40.55300 31.75400
H  44.28400 40.73700 32.80000
H  44.76800 42.29900 32.04300
H  45.10700 40.69200 31.22400
H  40.76600 41.60200 32.52600
H  39.92600 42.39300 31.19700
H  39.23100 43.94000 32.92500
H  40.93600 44.23600 33.18400
H  44.33400 36.97400 29.79700
H  45.78800 36.72000 28.84400
H  44.17700 36.08300 28.30000
H  46.04100 35.00700 25.15800
H  44.82600 34.94200 26.43100
H  46.43500 35.96500 26.59400
H  41.81300 40.17500 22.09000
H  42.68400 42.86200 21.65100
H  43.42800 39.94100 20.58200
H  44.54700 40.10400 21.95500
H  44.18300 41.53100 21.01000
H  39.81600 42.64600 22.27200
H  40.12800 41.44600 21.12200
H  41.42300 43.91000 20.23000
H  39.82700 44.29300 20.82800
H  39.95100 43.03100 19.54900
H  40.70500 47.74500 25.27100
H  39.23400 46.97600 25.77500
H  39.97800 46.49200 24.15800
H  40.28500 44.96200 30.54100
H  42.36000 47.95800 33.08900
H  43.50300 46.70200 32.68800
H  42.14100 46.32000 33.74100
Mg 0.96000 42.95900 26.10500
C  2.08000 43.03600 29.43400
C  -2.25900 42.75100 27.35700
C  -0.13600 42.49900 22.92000
C  4.14400 43.05200 25.01800
N  0.08300 42.91000 28.27100
C  0.68600 42.99300 29.41200
C  -0.30700 42.79200 30.57500
C  -1.67600 42.82200 29.88800
C  -1.27700 42.80800 28.41000
C  -2.69000 41.74300 30.18200
C  -0.21300 43.89700 31.67000
C  -0.15600 43.36000 33.11600
H  -0.95300 42.10100 33.55200
N  -0.94700 42.73400 25.30000
C  -2.15000 42.72800 25.92800
C  -3.23500 42.54600 24.99400
C  -2.65500 42.60900 23.63500
C  -1.17600 42.66200 23.88900
C  -4.64200 42.47800 25.33200
C  -3.27900 42.46800 22.28400
O  -2.69800 42.58300 21.15400
C  -4.76900 42.24100 22.19500
N  1.82100 42.89600 24.17900
C  1.22300 42.65900 22.98200
C  2.24700 42.46100 21.85500
C  3.53900 42.87700 22.58100
C  3.19400 42.90600 24.04600
C  2.17500 40.94900 21.37600
C  4.11800 44.16000 22.01200
C  3.21200 45.42600 21.95200
N  2.75900 43.10800 26.95800
C  3.96300 43.16000 26.42800
C  5.03800 43.28000 27.40800
C  4.30700 43.24900 28.55900
C  2.92200 43.12800 28.30500
C  6.47600 43.37700 27.33200
C  4.45100 43.24300 29.99100
O  5.50800 43.30000 30.64200
C  3.07700 43.05800 30.66500
C  3.22100 41.76400 31.49100
O  3.48100 40.69400 31.00400
O  2.90900 41.92200 32.84000
C  3.05000 40.76200 33.73800
H  -3.31600 42.84500 27.61500
H  -0.35000 42.29800 21.86800
H  5.15200 43.17400 24.61400
H  -0.01200 41.85600 31.04900
H  -2.22000 43.73900 30.11100
H  -2.32600 40.75800 30.47500
H  -3.30000 41.56800 29.29600
H  -3.32800 42.18300 30.94800
H  -1.08700 44.54800 31.62700
H  0.63600 44.53700 31.42900
H  -0.46600 44.17400 33.77100
H  0.92100 43.23300 33.22000
H  -5.02400 41.47300 25.15400
H  -5.26900 43.15600 24.75200
H  -4.85700 42.87300 26.32400
H  -4.94000 42.26700 21.11900
H  -5.36100 43.07400 22.57700
H  -4.80200 41.25400 22.65600
H  1.94100 43.08500 21.01500
H  4.27000 42.07500 22.48100
H  3.10800 40.41500 21.20100
H  1.76200 40.97100 20.36700
H  1.62400 40.42200 22.15400
H  4.44900 44.01800 20.98300
H  4.94200 44.52200 22.62700
H  2.30800 45.22900 22.52800
H  3.03000 45.71200 20.91600
H  3.72900 46.32700 22.28200
H  6.75500 44.41000 27.12500
H  6.90200 42.78700 26.52000
H  6.77600 43.03300 28.32100
H  2.91500 43.93000 31.29900
H  2.94500 41.01200 34.79400
H  3.92200 40.13100 33.56500
H  2.14200 40.20600 33.50700

