158

Mg 49.47000 44.72600 42.93500
C  46.07800 45.44500 41.81100
C  49.03900 41.65700 41.94100
C  52.78000 44.58600 43.10600
C  49.66200 48.27600 43.60100
N  47.78800 43.78000 41.86600
C  46.52500 44.14600 41.53500
C  45.64500 43.05100 40.93800
C  46.59000 41.79000 41.13100
C  47.89100 42.41200 41.70600
C  45.95600 40.73400 42.05300
C  45.32400 43.37600 39.41400
C  44.44100 42.35800 38.63700
H  44.93600 41.71500 37.28400
N  50.71100 43.27300 42.65900
C  50.38100 42.00900 42.30300
C  51.50900 41.21600 42.30300
C  52.65100 42.02500 42.62900
C  52.11600 43.37100 42.80100
C  51.45700 39.79800 41.94500
C  54.03500 41.57600 42.70900
O  54.41400 40.38800 42.52300
C  55.24900 42.54500 43.18100
N  51.05300 46.22300 43.51400
C  52.33100 45.89400 43.43000
C  53.26500 47.09500 43.58200
C  52.24700 48.26200 43.96600
C  50.86900 47.56000 43.66100
C  54.73500 47.04100 44.30300
C  52.31900 49.54800 43.06200
C  51.90800 50.87900 43.63500
N  48.16800 46.49800 42.87200
C  48.38600 47.82300 43.26800
C  47.17800 48.60200 43.11400
C  46.33000 47.70600 42.50000
C  46.90300 46.44300 42.41500
C  47.02900 50.08800 43.48000
C  45.00000 47.59800 41.87500
O  44.19600 48.50300 41.72200
C  44.77700 46.09300 41.54700
C  43.69200 45.58500 42.31300
O  42.69300 45.07500 41.82000
O  43.86200 45.58800 43.65800
C  42.60400 45.20400 44.28800
H  48.91800 40.60200 41.69000
H  53.86100 44.45000 43.02900
H  49.69900 49.32300 43.91000
H  44.70100 42.94200 41.47100
H  46.94600 41.37500 40.18800
H  44.93500 40.98300 42.34000
H  46.56400 40.57900 42.94500
H  46.06900 39.84900 41.42700
H  46.26700 43.45600 38.87300
H  44.81600 44.34000 39.43100
H  43.44800 42.80200 38.56100
H  44.38700 41.48200 39.28400
H  51.09000 39.27500 42.82800
H  52.42800 39.40200 41.64700
H  50.76600 39.46100 41.17300
H  56.05900 41.83400 43.34100
H  55.11000 42.91800 44.19500
H  55.51400 43.26600 42.40700
H  53.65000 47.27200 42.57800
H  52.20300 48.56800 45.01100
H  55.00000 46.08800 44.76100
H  54.84500 47.88600 44.98300
H  55.57900 47.23200 43.64000
H  51.71900 49.43000 42.16000
H  53.33900 49.64900 42.69200
H  52.76500 51.53200 43.46800
H  51.62200 50.88300 44.68700
H  50.97400 51.09500 43.11600
H  47.23500 50.62800 42.55600
H  47.75000 50.30400 44.26900
H  45.99700 50.26200 43.78600
H  44.55900 46.15400 40.48100
H  41.86900 45.80400 43.75100
H  42.54000 45.36300 45.36400
H  42.53300 44.12200 44.18100
Mg 26.41200 50.78100 26.96200
C  24.44900 51.93900 29.59500
C  28.89200 50.14900 29.22900
C  28.53100 50.10800 24.39600
C  23.99000 51.65200 24.66200
N  26.58100 51.00400 29.11100
C  25.62600 51.30700 30.04600
C  25.97000 50.85100 31.50000
C  27.52300 50.53200 31.31800
C  27.68000 50.54100 29.78500
C  28.55200 51.41100 31.96900
C  25.10700 49.63400 32.00400
C  23.99700 49.97600 33.05600
H  24.08500 49.45100 34.52700
N  28.40000 50.25200 26.88800
C  29.25300 49.99000 27.94000
C  30.54000 49.61300 27.42900
C  30.50500 49.82500 25.97900
C  29.10200 50.10800 25.65400
C  31.63900 49.22500 28.39200
C  31.60800 49.64100 24.91800
O  31.41000 49.72500 23.75900
C  32.98500 49.39200 25.41700
N  26.30700 50.97600 24.78700
C  27.24100 50.51300 23.96400
C  26.73900 50.21800 22.54600
C  25.26400 50.74600 22.61600
C  25.14000 51.06200 24.08800
C  27.61000 50.79900 21.42300
C  24.14700 49.78100 22.11000
C  23.01100 50.39500 21.34400
N  24.66100 51.74000 27.09700
C  23.76400 52.04000 26.03400
C  22.53200 52.62600 26.68000
C  22.85000 52.53100 28.07100
C  24.11100 52.11200 28.25100
C  21.28400 53.05600 26.08900
C  22.21900 52.88700 29.36100
O  21.10400 53.33000 29.63600
C  23.22400 52.46400 30.47000
C  23.61800 53.45200 31.46100
O  24.59600 54.11300 31.51500
O  22.59800 53.42400 32.40100
C  22.80600 54.33700 33.49800
H  29.61300 49.96400 30.02800
H  29.14100 49.81300 23.54100
H  23.13900 51.79200 23.99200
H  25.81800 51.68600 32.18400
H  27.71300 49.49900 31.60600
H  29.41700 51.61500 31.33800
H  28.99100 50.85200 32.79600
H  28.11500 52.32500 32.36900
H  25.80100 48.95400 32.49800
H  24.58000 49.30700 31.10800
H  23.00600 49.75000 32.66100
H  23.95700 51.06400 33.10100
H  31.06100 48.83400 29.22900
H  32.04400 50.14900 28.80600
H  32.45100 48.54600 28.13100
H  33.04600 48.41100 25.88700
H  33.28800 50.08900 26.19900
H  33.72800 49.44600 24.62100
H  26.72200 49.14300 22.36200
H  25.22600 51.72600 22.14000
H  28.37300 51.46600 21.82500
H  27.04400 51.34100 20.66500
H  28.16900 49.97000 20.98900
H  23.59300 49.29000 22.91000
H  24.55000 48.94600 21.53600
H  23.04300 50.14600 20.28400
H  23.08300 51.47700 21.46000
H  22.06300 50.05000 21.75600
H  21.33600 54.12100 25.86500
H  20.46000 52.89100 26.78300
H  21.06300 52.46000 25.20400
H  22.85700 51.59300 31.01200
H  23.13100 55.34700 33.24700
H  23.59800 53.97900 34.15500
H  21.83500 54.56800 33.93700

