158

Mg 17.37200 -2.34800 28.01400
C  16.35400 -0.39800 30.84000
C  19.48500 -4.13300 30.09100
C  18.89900 -3.65400 25.36900
C  15.41300 -0.31000 26.07300
N  17.89000 -2.23700 30.21500
C  17.30100 -1.41100 31.18900
C  17.60400 -1.96700 32.60500
C  18.75700 -3.01000 32.29700
C  18.71300 -3.12700 30.77900
C  20.10600 -2.61900 32.82800
C  16.31600 -2.60000 33.17300
C  15.93500 -2.21000 34.56500
H  17.00400 -1.64400 35.54200
N  18.91200 -3.81000 27.76500
C  19.56600 -4.48700 28.76700
C  20.32900 -5.56500 28.19100
C  20.16200 -5.48700 26.77100
C  19.33100 -4.27400 26.52800
C  21.06500 -6.55900 29.07200
C  20.80100 -6.30600 25.68400
O  20.64800 -6.11000 24.50600
C  21.95300 -7.29100 26.05900
N  17.37200 -1.80100 26.04400
C  18.03600 -2.55500 25.09600
C  17.64600 -2.11000 23.71100
C  16.49300 -1.07000 23.87700
C  16.38800 -1.06100 25.43300
C  18.82000 -1.68200 22.86200
C  15.20100 -1.47400 23.07000
C  14.75600 -0.55200 21.91200
N  16.20200 -0.67400 28.36000
C  15.32100 -0.05300 27.47100
C  14.48700 0.92400 28.14100
C  14.89200 0.89100 29.47000
C  15.83400 -0.13000 29.55400
C  13.53600 1.76200 27.49500
C  14.72700 1.43800 30.81700
O  14.04500 2.42000 31.20700
C  15.63800 0.57600 31.75800
C  16.62500 1.46200 32.42400
O  17.66900 1.91700 31.83800
O  16.17300 1.81600 33.68700
C  16.99100 2.90300 34.26500
H  20.01000 -4.74800 30.82500
H  19.22700 -4.28000 24.53600
H  14.65700 0.16100 25.44100
H  18.04100 -1.24300 33.29200
H  18.61700 -4.04200 32.61700
H  20.47500 -1.95700 32.04500
H  20.69100 -3.49800 33.10200
H  19.99200 -1.99700 33.71600
H  16.45800 -3.68100 33.15100
H  15.54100 -2.28200 32.47600
H  15.63300 -3.08000 35.14800
H  15.07000 -1.54900 34.52200
H  21.06500 -7.59100 28.72300
H  20.59400 -6.57100 30.05500
H  22.09800 -6.22100 29.15100
H  21.63100 -8.26400 26.43100
H  22.54100 -6.80200 26.83600
H  22.56400 -7.46700 25.17400
H  17.18600 -3.00300 23.28600
H  16.92800 -0.14500 23.49900
H  18.94500 -2.43200 22.08100
H  19.75400 -1.56200 23.41100
H  18.58900 -0.75100 22.34400
H  14.39500 -1.31800 23.78800
H  15.05300 -2.50200 22.73700
H  14.33300 -1.19100 21.13700
H  15.45600 0.15800 21.47100
H  13.84800 -0.00400 22.16700
H  12.75800 2.02100 28.21300
H  13.26900 1.23000 26.58200
H  14.08200 2.68300 27.29100
H  15.04800 0.11400 32.55000
H  17.17600 3.67400 33.51800
H  17.94300 2.55700 34.66800
H  16.45700 3.35500 35.10100
Mg 30.31200 58.13900 40.37200
C  27.26700 56.47400 39.36700
C  32.12500 55.46500 39.21700
C  33.19600 60.03300 40.62500
C  28.40400 61.03300 40.80700
N  29.74000 56.15000 39.56000
C  28.48700 55.74300 39.21400
C  28.57900 54.46400 38.42800
C  30.12700 53.95500 38.77700
C  30.71900 55.24800 39.27700
C  30.14900 52.81800 39.82900
C  28.37000 54.76600 36.95500
C  27.32300 53.77300 36.37200
H  26.53200 54.22500 35.20400
N  32.34200 57.84200 39.91600
C  32.88400 56.67600 39.45500
C  34.29600 56.71600 39.49800
C  34.66500 58.04000 39.90000
C  33.39600 58.71400 40.12200
C  35.17300 55.63700 39.13500
C  36.08200 58.59800 40.01300
O  37.06400 57.87400 39.80000
C  36.30700 59.97800 40.40700
N  30.72400 60.29000 40.48100
C  32.01100 60.76200 40.78200
C  31.87800 62.33500 41.07400
C  30.37300 62.59300 41.22200
C  29.78700 61.23800 40.74000
C  32.71600 62.88100 42.29300
C  29.84600 63.76200 40.42700
C  29.56500 63.63200 38.89700
N  28.30800 58.65600 40.17600
C  27.68900 59.86400 40.44900
C  26.28100 59.76700 40.25900
C  26.05300 58.47900 39.78600
C  27.29000 57.78600 39.80300
C  25.34200 60.95100 40.39200
C  25.08900 57.54500 39.35000
O  23.87400 57.74200 39.17800
C  25.80600 56.19100 39.03000
C  25.14100 55.06200 39.89300
O  24.71900 55.16600 41.02600
O  25.23200 53.88200 39.14500
C  24.61700 52.82100 39.89000
H  32.61700 54.56300 38.84800
H  34.06300 60.61600 40.94400
H  27.79200 61.91800 40.99300
H  27.91300 53.70000 38.82900
H  30.72000 53.69600 37.90000
H  30.97100 52.13500 39.61300
H  29.23700 52.22100 39.86000
H  30.34100 53.27000 40.80200
H  29.34100 54.50200 36.53800
H  28.16100 55.77900 36.61000
H  26.60500 53.33800 37.06600
H  27.87400 52.87900 36.08200
H  35.61700 55.05300 39.94200
H  35.87500 56.15600 38.48200
H  34.69600 54.88800 38.50300
H  35.97400 60.12400 41.43400
H  35.80600 60.61600 39.67900
H  37.38900 60.07400 40.49700
H  32.29000 62.90700 40.24300
H  30.18100 62.69100 42.29100
H  33.18800 62.06200 42.83500
H  32.05700 63.19400 43.10300
H  33.34900 63.70600 41.96500
H  30.57700 64.56800 40.36100
H  28.95000 64.24300 40.81800
H  29.65400 62.60700 38.53900
H  30.38700 64.17200 38.42700
H  28.66000 64.06700 38.47300
H  25.78400 61.81200 40.89300
H  24.52200 60.49500 40.94700
H  24.87600 61.21700 39.44300
H  25.59000 55.83800 38.02200
H  25.00000 52.69600 40.90300
H  24.82000 51.85800 39.42100
H  23.53200 52.88400 39.96800

