158

Mg 2.05700 -1.50700 44.27000
C  5.47300 -0.93200 43.23800
C  1.08700 0.90600 42.13200
C  -1.13800 -2.68400 44.51500
C  3.07800 -4.03700 46.30900
N  3.17400 -0.28400 42.76900
C  4.51800 -0.14800 42.55300
C  4.84200 0.95700 41.51600
C  3.41200 1.60600 41.36900
C  2.47900 0.73200 42.24500
C  3.39200 3.12700 41.74000
C  5.41500 0.43600 40.16400
C  6.57100 1.13000 39.39800
H  6.29700 1.57700 37.89300
N  0.19500 -0.94900 43.46400
C  0.00100 0.13600 42.67600
C  -1.40900 0.29500 42.45400
C  -2.08000 -0.77700 43.10000
C  -1.03800 -1.48300 43.76200
C  -1.97400 1.49500 41.60800
C  -3.62600 -1.09500 43.09300
O  -4.35800 -0.31000 42.50200
C  -4.23700 -2.28900 43.70500
N  1.09500 -3.28700 45.12200
C  -0.21400 -3.52500 45.16200
C  -0.58600 -4.72600 46.10200
C  0.85600 -5.05200 46.67100
C  1.75300 -4.06800 46.00300
C  -1.66300 -4.37200 47.21400
C  1.25100 -6.52000 46.38800
C  2.18100 -7.16700 47.34000
N  3.91400 -2.25900 44.89600
C  4.13900 -3.27100 45.71200
C  5.55500 -3.47400 45.84900
C  6.08700 -2.57900 44.86900
C  5.04300 -1.87400 44.28900
C  6.29700 -4.50800 46.78000
C  7.35900 -2.01200 44.31700
O  8.52400 -2.21000 44.64100
C  6.90700 -0.99500 43.19600
C  7.59100 0.32900 43.44300
O  8.61700 0.53700 42.77100
O  7.21700 1.12500 44.52200
C  8.31600 1.87200 45.15600
H  0.86100 1.80400 41.55200
H  -2.06500 -3.23800 44.67000
H  3.27200 -4.83400 47.03000
H  5.44200 1.69300 42.05200
H  3.13900 1.56600 40.31500
H  2.57400 3.36700 42.41900
H  3.23100 3.80500 40.90200
H  4.19300 3.50700 42.37500
H  4.61100 0.33500 39.43400
H  5.74500 -0.57200 40.41400
H  7.44900 0.50200 39.24900
H  7.00000 1.90300 40.03500
H  -2.87800 1.25100 41.05100
H  -1.20400 1.74900 40.87900
H  -2.27200 2.27700 42.30700
H  -3.90200 -2.42400 44.73400
H  -4.05800 -3.07100 42.96700
H  -5.32700 -2.31400 43.71600
H  -1.02900 -5.47200 45.44200
H  0.85700 -4.98100 47.75900
H  -2.37600 -5.18500 47.34900
H  -2.24600 -3.52200 46.85800
H  -1.29000 -4.24800 48.23000
H  1.65900 -6.55400 45.37700
H  0.29600 -7.04500 46.41800
H  1.73500 -8.13500 47.56800
H  2.39700 -6.64200 48.27000
H  3.05400 -7.33800 46.71000
H  7.16100 -3.98400 47.18600
H  6.57800 -5.39500 46.21200
H  5.56200 -4.77700 47.53800
H  7.19900 -1.46000 42.25500
H  8.69200 2.61800 44.45600
H  9.14900 1.18100 45.29200
H  8.06100 2.34200 46.10600
Mg 46.96200 16.57000 27.98300
C  45.45300 16.14400 31.10200
C  49.36900 18.56800 29.47200
C  48.20400 17.20800 24.91100
C  44.21700 15.07900 26.54200
N  47.40100 17.20500 30.05300
C  46.66300 16.86700 31.17100
C  47.34900 17.27300 32.45400
C  48.42200 18.27500 31.90800
C  48.42800 18.03400 30.39000
C  48.19700 19.81900 32.26400
C  47.93200 16.14900 33.35400
C  47.38200 16.05300 34.80000
H  46.96300 17.38900 35.45400
N  48.67200 17.64000 27.31800
C  49.42900 18.47400 28.06800
C  50.49200 19.01400 27.22100
C  50.25400 18.48600 25.92600
C  49.02800 17.71500 25.98500
C  51.48100 19.94500 27.68000
C  51.04900 18.81800 24.67900
O  50.71900 18.26900 23.60000
C  52.20900 19.81100 24.67800
N  46.18100 16.33900 25.94500
C  47.03800 16.52900 24.85600
C  46.38900 16.13200 23.58400
C  45.17100 15.24900 24.08800
C  45.19200 15.51600 25.60600
C  46.07400 17.32000 22.67300
C  45.28900 13.73600 23.74600
C  45.84000 12.82100 24.81500
N  45.15900 15.80100 28.64600
C  44.13900 15.21900 27.93100
C  43.09800 14.82700 28.79700
C  43.58500 15.13300 30.07800
C  44.82400 15.75800 29.91300
C  41.94100 14.01900 28.36900
C  43.22400 14.98000 31.49500
O  42.25600 14.47400 32.05000
C  44.53800 15.63100 32.23400
C  44.10000 16.81500 33.07400
O  44.08100 18.00100 32.76500
O  43.49100 16.30800 34.21600
C  42.55100 17.22600 34.79400
H  50.08100 19.26500 29.91800
H  48.58900 17.34000 23.89800
H  43.43000 14.47700 26.08300
H  46.73100 17.87700 33.11700
H  49.33700 17.95900 32.41000
H  47.70400 19.89300 33.23300
H  47.62000 20.22100 31.43100
H  49.19200 20.25500 32.35200
H  49.02200 16.16000 33.36400
H  47.48900 15.30400 32.82700
H  48.11000 15.48600 35.38000
H  46.50800 15.43600 35.00500
H  51.31100 20.89300 27.17000
H  52.44800 19.48600 27.47700
H  51.44600 20.31000 28.70700
H  52.65900 19.90000 23.68900
H  52.94800 19.44600 25.39100
H  51.78500 20.75600 25.01900
H  47.07400 15.52600 22.99100
H  44.22300 15.55200 23.64200
H  46.27700 18.23800 23.22600
H  44.99600 17.33700 22.51300
H  46.52300 17.46800 21.69100
H  45.80000 13.62100 22.79000
H  44.27400 13.37200 23.58500
H  46.57900 12.09000 24.48700
H  45.01700 12.23300 25.22000
H  46.28400 13.39000 25.63200
H  41.33800 13.77600 29.24400
H  42.31500 13.17400 27.79000
H  41.35000 14.58300 27.64700
H  45.01100 14.88700 32.87500
H  41.79100 17.59300 34.10400
H  43.00500 18.06200 35.32600
H  42.02800 16.61100 35.52600

