158

Mg 16.78100 51.65400 26.59700
C  18.98400 50.56500 29.24300
C  14.60000 52.70000 29.13400
C  14.91000 52.96700 24.22400
C  19.33500 51.05200 24.36100
N  16.77500 51.60700 28.86400
C  17.72200 51.14500 29.72300
C  17.36600 51.39300 31.19100
C  15.91200 51.75000 31.10600
C  15.74000 52.03500 29.58400
C  15.00600 50.59600 31.64100
C  18.33900 52.46700 31.83100
C  18.64600 52.36400 33.30400
H  17.65800 51.58600 34.22100
N  15.01700 52.71400 26.67500
C  14.25100 53.07900 27.75300
C  13.03700 53.84200 27.32900
C  13.05400 53.81800 25.89600
C  14.33500 53.12000 25.53500
C  12.03600 54.29500 28.37400
C  12.09800 54.43200 24.87000
O  12.25700 54.46900 23.65800
C  10.99500 55.13300 25.46400
N  16.97500 51.86500 24.52900
C  16.08000 52.42300 23.74300
C  16.49500 52.31500 22.25500
C  17.95800 51.95600 22.33300
C  18.17000 51.73300 23.88900
C  15.56600 51.38100 21.54100
C  18.96100 53.17100 21.92600
C  20.15200 52.89800 21.03000
N  18.64100 50.73800 26.67600
C  19.53100 50.50700 25.66800
C  20.64900 49.81500 26.17300
C  20.42300 49.72900 27.59000
C  19.30100 50.38700 27.85000
C  21.96500 49.44800 25.49500
C  21.10000 49.34900 28.86100
O  22.15400 48.72500 29.01700
C  20.22500 49.97900 30.00100
C  19.87300 48.84500 30.90600
O  19.22100 47.88400 30.59000
O  20.22800 49.14500 32.22200
C  20.10800 48.06200 33.26500
H  13.91200 53.00000 29.92700
H  14.33700 53.48700 23.45300
H  20.13000 50.98300 23.61600
H  17.55600 50.48800 31.76800
H  15.85700 52.74300 31.55200
H  15.52500 49.74700 32.08600
H  14.29900 50.21500 30.90500
H  14.42000 50.99700 32.46800
H  17.87500 53.42700 31.60500
H  19.29300 52.46700 31.30400
H  18.85800 53.31700 33.79000
H  19.58400 51.81600 33.21200
H  11.07200 53.78700 28.40700
H  11.83200 55.35500 28.21900
H  12.44800 54.22900 29.38100
H  10.49900 55.45500 24.54900
H  11.38900 55.99400 26.00400
H  10.38900 54.51500 26.12600
H  16.37500 53.35300 21.94700
H  18.22300 51.08800 21.72800
H  14.66800 51.02600 22.04600
H  16.09900 50.45600 21.31800
H  15.32900 51.82700 20.57500
H  19.41800 53.70300 22.76000
H  18.37600 53.90800 21.37500
H  20.17900 51.86500 20.68500
H  21.12500 53.08300 21.48500
H  20.18500 53.50800 20.12700
H  22.13400 50.29800 24.83400
H  21.96300 48.52100 24.92100
H  22.70900 49.38800 26.28900
H  20.79300 50.73300 30.54500
H  20.09800 47.05400 32.85000
H  19.40600 48.32700 34.05500
H  21.07200 48.20200 33.75500
Mg 10.20300 47.51500 26.05000
C  8.17200 47.80000 28.89400
C  12.82000 48.77300 27.84400
C  12.02600 47.22100 23.28000
C  7.29500 46.55900 24.26400
N  10.46500 48.16100 28.09400
C  9.52700 48.12200 29.12200
C  10.18900 48.44400 30.47100
C  11.40000 49.28700 29.95400
C  11.63400 48.79600 28.58200
C  11.17600 50.88800 30.02200
C  10.61400 47.17000 31.26900
C  10.73400 47.28800 32.74500
H  10.46300 46.12700 33.74200
N  12.23500 47.94600 25.59700
C  13.16400 48.44000 26.48900
C  14.50800 48.35900 25.85700
C  14.22100 47.91800 24.51500
C  12.79200 47.65100 24.37100
C  15.71600 48.76500 26.63800
C  15.20100 47.78900 23.31300
O  14.87000 47.60800 22.12300
C  16.73600 47.94500 23.63600
N  9.70600 47.16400 23.94400
C  10.67100 46.97600 23.06200
C  10.01200 46.68700 21.64600
C  8.56200 46.31600 22.01800
C  8.50900 46.66700 23.47500
C  10.08500 47.93600 20.75300
C  8.10800 44.85100 21.70800
C  8.20600 43.67900 22.77900
N  8.09100 47.30000 26.45600
C  7.02300 46.89600 25.59900
C  5.81200 46.97800 26.36700
C  6.21500 47.19200 27.68200
C  7.59600 47.48100 27.69600
C  4.35400 46.58700 26.01900
C  5.77400 47.31900 29.06600
O  4.69600 47.06300 29.61400
C  7.07500 47.65700 29.97000
C  7.23400 46.42300 30.75100
O  7.34000 45.27800 30.30500
O  7.25800 46.76800 32.08900
C  7.20000 45.58400 33.02600
H  13.59900 49.18900 28.48600
H  12.48500 47.16500 22.29100
H  6.41000 46.30000 23.68000
H  9.43900 49.04700 30.98400
H  12.37800 49.19100 30.42400
H  12.12600 51.32300 30.33300
H  10.47900 51.14100 30.82100
H  10.85200 51.28600 29.06100
H  11.63000 46.93400 30.95500
H  9.98100 46.29200 31.13900
H  10.18500 48.08200 33.25100
H  11.75300 47.65000 32.88200
H  15.51200 48.53200 27.68300
H  16.01000 49.80300 26.48400
H  16.50500 48.06500 26.36400
H  16.91200 47.32700 24.51600
H  16.84300 48.93200 24.08600
H  17.34900 47.77200 22.75100
H  10.65100 45.87000 21.30900
H  7.80200 46.92700 21.53100
H  9.10300 48.13500 20.32300
H  10.83200 47.80400 19.97000
H  10.24900 48.89500 21.24400
H  8.66000 44.47500 20.84700
H  7.06500 44.89100 21.39400
H  8.38500 43.82700 23.84400
H  8.94400 42.90200 22.57800
H  7.26800 43.14500 22.63000
H  4.38100 45.60100 25.55400
H  4.02400 47.32900 25.29200
H  3.67200 46.61100 26.86800
H  6.89500 48.53500 30.59100
H  6.46700 44.80900 32.80600
H  6.99700 45.98900 34.01700
H  8.12200 45.00400 33.07100

