158

Mg -2.41000 33.90500 26.32000
C  -4.05700 32.42300 29.07000
C  -0.71700 35.95900 28.50200
C  -1.21200 35.40500 23.67200
C  -4.08300 31.64300 24.28400
N  -2.36700 34.07400 28.56300
C  -3.11200 33.42900 29.44100
C  -2.88700 33.85900 30.87100
C  -1.98200 35.18600 30.61000
C  -1.65400 35.13300 29.16000
C  -2.57500 36.59800 31.02900
C  -2.33700 32.79700 31.82000
C  -3.08200 32.52700 33.12400
H  -2.18600 32.57700 34.37400
N  -1.09000 35.45900 26.10500
C  -0.47200 36.10600 27.15300
C  0.46300 36.98100 26.53500
C  0.25200 36.92800 25.08000
C  -0.69600 35.89700 24.93600
C  1.24200 38.05700 27.35600
C  0.90800 37.76100 24.02800
O  0.69400 37.72900 22.86400
C  2.02300 38.69700 24.48900
N  -2.77700 33.69300 24.35800
C  -2.14200 34.42800 23.41700
C  -2.46900 34.05700 21.95400
C  -3.11500 32.65600 22.15500
C  -3.26700 32.59200 23.70900
C  -3.41400 35.11200 21.29300
C  -2.29700 31.54900 21.48500
C  -1.24700 30.83200 22.39800
N  -3.76000 32.32400 26.58800
C  -4.33800 31.49700 25.66100
C  -5.26500 30.59300 26.25700
C  -5.14300 30.88100 27.61700
C  -4.29100 32.00700 27.73800
C  -6.07600 29.41500 25.65400
C  -5.55900 30.44600 28.89600
O  -6.26400 29.51400 29.19500
C  -4.92200 31.52700 29.90600
C  -5.97500 32.28700 30.64600
O  -6.78000 32.93900 30.08800
O  -5.92000 32.03700 32.04900
C  -6.99600 32.77000 32.75800
H  -0.16300 36.60100 29.19100
H  -0.59300 35.72600 22.83200
H  -4.60000 31.07400 23.50800
H  -3.84500 34.19700 31.26700
H  -1.15800 35.06900 31.31300
H  -2.52700 37.18100 30.10900
H  -2.03000 37.03800 31.86500
H  -3.63900 36.63200 31.26500
H  -1.42500 33.29300 32.15200
H  -2.10900 31.79900 31.44700
H  -3.60000 31.56900 33.14300
H  -3.75600 33.36700 33.29300
H  0.81000 39.01400 27.06400
H  2.28000 38.04800 27.02400
H  1.19600 38.03700 28.44500
H  2.37700 39.15700 23.56600
H  2.85100 38.18000 24.97400
H  1.53100 39.43800 25.11800
H  -1.47400 34.09000 21.50900
H  -4.09200 32.49700 21.69800
H  -3.13300 36.11000 21.62800
H  -4.42700 35.02900 21.68500
H  -3.27700 34.94600 20.22400
H  -1.70600 31.91800 20.64700
H  -2.96300 30.76500 21.12400
H  -0.22500 31.17900 22.24600
H  -1.27100 29.79100 22.07500
H  -1.45200 30.71200 23.46100
H  -7.04900 29.81000 25.36200
H  -6.11100 28.70000 26.47600
H  -5.48400 28.96900 24.85400
H  -4.32300 30.90100 30.56800
H  -6.46000 33.45400 33.41600
H  -7.53800 32.04100 33.36000
H  -7.72400 33.32900 32.17000
Mg -12.41800 15.83200 41.65500
C  -9.51200 14.26500 40.72200
C  -11.51400 18.66400 39.86300
C  -15.60700 16.91900 41.82700
C  -13.62400 12.61200 42.66800
N  -10.71100 16.38100 40.36000
C  -9.54800 15.59800 40.25000
C  -8.43700 16.40400 39.57500
C  -9.11700 17.87000 39.50700
C  -10.53000 17.70800 39.98100
C  -8.39400 18.93500 40.44700
C  -7.87800 15.79800 38.23500
C  -6.34700 15.94400 38.07100
H  -5.99700 16.42000 36.65200
N  -13.33200 17.63700 41.07700
C  -12.87300 18.63600 40.23200
C  -13.84600 19.70000 40.14500
C  -15.07000 19.20000 40.69700
C  -14.70800 17.88700 41.34000
C  -13.78200 21.02200 39.46600
C  -16.44700 19.92100 40.79200
O  -16.66200 20.97600 40.21900
C  -17.48700 19.42400 41.74200
N  -14.37000 14.88800 42.35100
C  -15.51400 15.56800 42.26200
C  -16.75400 14.76500 42.71800
C  -16.08300 13.30100 42.84200
C  -14.57500 13.60800 42.67400
C  -17.51000 15.34600 43.92500
C  -16.58700 12.35900 41.69000
C  -18.01500 11.99000 41.68300
N  -11.66500 13.86700 41.96200
C  -12.27300 12.70900 42.38400
C  -11.33700 11.64600 42.34800
C  -10.18400 12.21000 41.77000
C  -10.51600 13.56800 41.46000
C  -11.51400 10.25900 42.78000
C  -8.85600 11.84500 41.31200
O  -8.16300 10.79800 41.46600
C  -8.32600 13.27400 40.71100
C  -7.07000 13.72900 41.49200
O  -7.05900 14.21500 42.63200
O  -5.95300 13.79800 40.62900
C  -4.78600 14.31000 41.28300
H  -11.29400 19.57800 39.30700
H  -16.67400 17.14700 41.78000
H  -14.00500 11.59900 42.80700
H  -7.57100 16.37400 40.23700
H  -9.12800 18.25700 38.48800
H  -8.05200 18.42200 41.34500
H  -9.14200 19.66200 40.76500
H  -7.61000 19.41100 39.85800
H  -8.36500 16.39500 37.46400
H  -8.22700 14.77200 38.12400
H  -5.83600 15.01200 38.31100
H  -6.08600 16.78800 38.70900
H  -13.60300 21.74700 40.26000
H  -14.67700 21.13300 38.85500
H  -12.88900 21.04800 38.84200
H  -18.12400 20.28200 41.95600
H  -16.97900 19.09400 42.64800
H  -18.10200 18.63200 41.31500
H  -17.44500 14.93200 41.89200
H  -16.23400 12.93400 43.85800
H  -18.48100 15.64500 43.52900
H  -17.08900 16.25100 44.36100
H  -17.53300 14.67100 44.78000
H  -16.00600 11.43700 41.66000
H  -16.36900 12.86500 40.74900
H  -18.50100 12.32700 40.76800
H  -18.39200 12.53500 42.54900
H  -18.19400 10.91900 41.78500
H  -11.25400 9.54300 42.00000
H  -12.54800 10.15900 43.10800
H  -10.80300 10.14000 43.59800
H  -8.04600 13.01500 39.69000
H  -4.87300 15.38600 41.43300
H  -3.96800 14.35900 40.56500
H  -4.41000 13.66800 42.08000

