158

Mg 47.29400 16.23700 28.68800
C  45.03600 16.21400 31.27600
C  49.29900 18.30300 30.51400
C  49.13700 16.56500 25.91600
C  44.69600 14.83100 26.65000
N  47.16100 17.07600 30.66000
C  46.27100 16.73800 31.63200
C  46.69200 17.19900 33.02700
C  47.84500 18.23800 32.70400
C  48.09300 17.87300 31.17700
C  47.46200 19.77600 32.98400
C  47.06600 15.93800 33.89500
C  46.44700 15.97100 35.28200
H  46.35100 17.32100 36.10700
N  49.07800 17.20100 28.30400
C  49.75300 17.99000 29.17600
C  51.04700 18.36300 28.57400
C  51.03400 17.91700 27.20700
C  49.69600 17.21200 27.06400
C  52.07300 19.07000 29.44000
C  52.07300 18.09400 26.11300
O  51.90500 17.58800 25.01400
C  53.41800 18.85700 26.31200
N  46.99000 15.75900 26.59900
C  47.92700 15.89100 25.67200
C  47.57600 15.37100 24.27200
C  46.19700 14.65400 24.66100
C  45.88800 15.15500 26.09200
C  47.54800 16.60200 23.27600
C  46.48700 13.13100 24.62100
C  46.62700 12.42500 23.24200
N  45.28800 15.62100 28.78500
C  44.39100 14.98100 27.94800
C  43.16700 14.62500 28.72000
C  43.37100 15.17700 29.98700
C  44.65100 15.76700 29.98100
C  42.05000 13.83800 28.08100
C  42.74500 15.33700 31.28000
O  41.68100 14.92200 31.64100
C  43.84900 15.87400 32.18900
C  43.28300 16.86600 33.08000
O  42.78300 17.88100 32.69600
O  43.32300 16.37500 34.36000
C  42.40300 17.08500 35.23900
H  50.01500 18.82400 31.15400
H  49.75900 16.63900 25.02200
H  43.94200 14.29700 26.06900
H  45.82500 17.69100 33.46800
H  48.76700 18.06600 33.25900
H  46.42700 19.83700 33.32200
H  47.64500 20.21900 32.00400
H  48.23500 20.21600 33.61300
H  48.13400 15.83000 34.08000
H  46.74600 15.03200 33.37900
H  47.12800 15.33100 35.84300
H  45.44300 15.55200 35.21400
H  51.67400 19.98900 29.86800
H  52.97800 19.46100 28.97500
H  52.39800 18.47500 30.29300
H  54.04000 18.41200 27.08900
H  53.17600 19.79000 26.82000
H  53.97900 19.15300 25.42500
H  48.35700 14.64700 24.03800
H  45.44200 14.95200 23.93400
H  47.83500 17.54300 23.74400
H  46.53500 16.79600 22.92400
H  48.25700 16.41400 22.46900
H  45.56000 12.72700 25.02900
H  47.32900 12.93700 25.28500
H  47.68400 12.17600 23.14900
H  46.25400 13.03300 22.41800
H  46.09200 11.48700 23.09700
H  42.40100 12.84300 27.80800
H  41.72400 14.25500 27.12800
H  41.21700 13.83100 28.78300
H  44.23000 14.98500 32.69200
H  41.34900 16.97400 34.98400
H  42.68600 18.13700 35.22800
H  42.45500 16.67400 36.24800
Mg 30.05100 58.07000 39.75000
C  27.28700 56.02600 38.79300
C  32.05900 55.40200 38.77800
C  32.68900 60.17900 39.71900
C  27.75700 60.74800 40.03500
N  29.68800 56.02400 38.79200
C  28.48800 55.43800 38.65900
C  28.70300 53.93500 38.36500
C  30.21900 53.63100 38.71800
C  30.69500 55.08100 38.84200
C  30.49000 52.81300 39.99800
C  28.21200 53.46000 36.93800
C  28.65500 54.39600 35.84300
H  28.28000 53.82100 34.45300
N  32.08800 57.80700 39.53300
C  32.74000 56.62600 39.05400
C  34.17700 56.91300 38.99600
C  34.38400 58.28800 39.42600
C  32.98400 58.82500 39.55700
C  35.23400 55.87500 38.69500
C  35.69000 58.93400 39.63700
O  36.68700 58.35500 39.35400
C  35.82800 60.25700 40.37700
N  30.14600 60.21900 39.95100
C  31.37700 60.82500 39.83800
C  31.16800 62.36700 40.03300
C  29.62600 62.49200 40.30500
C  29.11100 61.09500 40.09100
C  32.13800 63.14000 41.04800
C  28.90500 63.71600 39.50200
C  28.13600 64.72900 40.33900
N  28.01900 58.40700 39.50000
C  27.24500 59.51500 39.68000
C  25.82900 59.18000 39.39500
C  25.83900 57.81800 39.05200
C  27.17300 57.36900 39.15400
C  24.67000 60.07800 39.46900
C  25.00200 56.67900 38.63100
O  23.81700 56.60800 38.45100
C  25.95600 55.47000 38.48900
C  25.62300 54.20000 39.14700
O  25.58800 54.11600 40.39100
O  25.17800 53.24300 38.29400
C  24.67400 51.98100 38.85000
H  32.72100 54.54100 38.89200
H  33.48200 60.89200 39.48400
H  26.98400 61.50700 40.17200
H  28.04700 53.37800 39.03400
H  30.84000 53.30000 37.88500
H  29.54900 52.60900 40.50900
H  31.19100 53.39500 40.59600
H  30.97500 51.90100 39.65100
H  27.17000 53.14000 36.93300
H  28.82000 52.60400 36.64400
H  29.74100 54.40700 35.74400
H  28.31600 55.43000 35.90300
H  34.82000 54.92800 38.34700
H  35.63400 55.45900 39.62000
H  36.07100 56.29000 38.13500
H  36.65300 60.29200 41.08800
H  34.98500 60.69100 40.91400
H  36.13200 61.03700 39.68000
H  31.45800 62.76800 39.06200
H  29.38400 62.57400 41.36400
H  32.80100 63.79800 40.48500
H  32.73500 62.39300 41.57000
H  31.54400 63.63000 41.81900
H  28.11200 63.25200 38.91400
H  29.65800 64.16600 38.85600
H  28.53800 64.67600 41.35000
H  27.06900 64.50600 40.30300
H  28.29700 65.75300 40.00000
H  24.74500 60.86400 38.71700
H  24.52900 60.57500 40.42900
H  23.84400 59.40100 39.25000
H  26.05400 55.33900 37.41100
H  24.58800 51.29100 38.01000
H  23.71000 52.09400 39.34600
H  25.41400 51.64400 39.57600

