158

Mg 24.56800 -5.77300 46.14300
C  26.67200 -3.64400 44.54400
C  22.02900 -4.64500 44.20800
C  22.79500 -8.60700 46.98600
C  27.35900 -7.14200 47.95100
N  24.43400 -4.20500 44.56600
C  25.41800 -3.47600 44.06000
C  24.91600 -2.44600 43.05700
C  23.30700 -2.67100 43.15800
C  23.24600 -3.95000 44.02200
C  22.46800 -1.50200 43.67100
C  25.56300 -2.61500 41.67000
C  25.70900 -1.28600 40.92900
H  25.10800 -1.21800 39.44800
N  22.59400 -6.47800 45.71900
C  21.69200 -5.83400 44.87600
C  20.51300 -6.63100 44.78600
C  20.73700 -7.82000 45.53300
C  22.08300 -7.73900 46.09900
C  19.30100 -6.27300 43.96800
C  19.68300 -8.90600 45.72800
O  18.64900 -8.84700 45.10000
C  19.86100 -10.05900 46.64900
N  24.96400 -7.62400 47.24700
C  24.12200 -8.61700 47.47600
C  24.69700 -9.75000 48.37300
C  26.10200 -9.20200 48.75000
C  26.17400 -7.89300 47.86100
C  23.78000 -10.02000 49.58800
C  27.39800 -10.11900 48.70200
C  28.14800 -10.20200 49.95200
N  26.61400 -5.36700 46.32800
C  27.61100 -5.95800 47.16700
C  28.83700 -5.25500 46.96900
C  28.57700 -4.30700 45.88000
C  27.15400 -4.50900 45.51800
C  30.13100 -5.54200 47.71800
C  29.16200 -3.28600 45.02000
O  30.27600 -2.76100 45.14600
C  27.96300 -2.85900 44.06200
C  27.85800 -1.35200 44.24500
O  27.23700 -0.70300 45.07600
O  28.81800 -0.82900 43.37200
C  28.68900 0.68500 43.18100
H  21.16600 -4.19700 43.71100
H  22.27800 -9.49700 47.35200
H  28.17300 -7.60400 48.51300
H  25.29800 -1.49600 43.43000
H  22.84100 -2.83100 42.18600
H  21.89000 -1.19600 42.79900
H  23.08500 -0.75700 44.17300
H  21.72500 -1.87000 44.37800
H  24.79900 -3.07900 41.04500
H  26.41400 -3.29600 41.69900
H  26.75900 -0.99400 40.91800
H  25.08200 -0.53800 41.41400
H  19.05700 -7.06100 43.25600
H  19.37900 -5.28600 43.51300
H  18.35400 -6.16600 44.49700
H  19.81900 -9.80000 47.70700
H  20.76600 -10.60100 46.37300
H  18.94500 -10.61200 46.44300
H  24.79100 -10.72700 47.89800
H  26.07300 -8.74400 49.73900
H  24.25600 -9.64200 50.49300
H  23.65900 -11.10300 49.59100
H  22.89700 -9.41700 49.37500
H  28.07100 -9.78400 47.91200
H  27.06600 -11.07800 48.30500
H  29.07300 -9.66900 49.73500
H  28.22400 -11.24900 50.24400
H  27.62300 -9.68800 50.75700
H  30.83200 -4.73400 47.50700
H  30.52800 -6.46100 47.28800
H  29.91000 -5.61300 48.78300
H  28.17000 -2.94000 42.99500
H  27.60900 0.82300 43.13100
H  28.96300 1.02600 42.18200
H  29.04100 1.26300 44.03500
Mg 48.92900 34.97200 27.62400
C  46.78500 33.43800 29.93800
C  49.36600 37.64500 29.97300
C  50.88700 36.50400 25.42800
C  48.22300 32.40900 25.39300
N  48.18600 35.48900 29.64600
C  47.42500 34.58700 30.45400
C  47.50600 35.08600 31.84700
C  47.73500 36.61300 31.67300
C  48.49500 36.60600 30.37000
C  46.47300 37.46200 31.59900
C  48.59800 34.35300 32.68700
C  48.25000 33.91300 34.10200
H  47.08100 34.68900 34.80800
N  49.92900 36.77400 27.67900
C  50.04600 37.69700 28.74200
C  50.98100 38.75100 28.39500
C  51.53600 38.37500 27.13900
C  50.79600 37.15900 26.71600
C  51.34700 40.00300 29.16400
C  52.74900 38.98300 26.28700
O  53.14800 38.56500 25.21700
C  53.58800 40.15000 26.78200
N  49.22600 34.67500 25.57700
C  50.20800 35.42300 24.92500
C  50.57400 34.77600 23.58400
C  49.87400 33.35900 23.62900
C  49.07000 33.41600 24.96800
C  50.18700 35.76800 22.35900
C  50.92800 32.25000 23.56600
C  50.45100 31.00200 22.79800
N  47.66300 33.32000 27.56500
C  47.54100 32.35300 26.61700
C  46.58100 31.32200 27.11400
C  46.24000 31.76100 28.37600
C  46.90900 32.90200 28.63500
C  46.09400 30.11900 26.37700
C  45.39600 31.49900 29.45600
O  44.50700 30.71500 29.66300
C  45.73200 32.52300 30.54700
C  46.10700 31.79100 31.76200
O  46.99200 30.97000 31.78500
O  45.28500 31.99200 32.79400
C  45.33700 31.02400 33.94800
H  49.38000 38.42100 30.74100
H  51.61900 36.89900 24.72000
H  48.27900 31.58400 24.68000
H  46.50800 34.99400 32.27500
H  48.42300 37.05300 32.39500
H  46.37900 37.92300 30.61600
H  46.38900 38.13000 32.45700
H  45.60000 36.81500 31.68300
H  49.52200 34.92600 32.61300
H  48.88400 33.47100 32.11400
H  49.07000 34.07400 34.80200
H  47.94500 32.87100 34.20500
H  50.72700 39.87600 30.05100
H  51.15000 40.86400 28.52500
H  52.37100 39.88500 29.51600
H  53.09600 40.95800 27.32400
H  54.09200 40.68600 25.97900
H  54.43300 39.80700 27.37900
H  51.65000 34.71200 23.42500
H  49.14700 33.29300 22.82000
H  49.70300 36.63200 22.81300
H  49.64100 35.21000 21.59700
H  51.10200 36.13200 21.89200
H  51.09700 32.05900 24.62600
H  51.86100 32.59100 23.11800
H  50.55100 30.04000 23.29900
H  50.98300 30.99700 21.84600
H  49.38200 31.02600 22.59000
H  46.63400 30.01700 25.43500
H  45.07500 30.15800 25.99100
H  46.37900 29.31000 27.04800
H  44.88400 33.13500 30.85700
H  44.85300 31.57800 34.75300
H  46.30800 30.70500 34.32800
H  44.90700 30.08600 33.59900

