158

Mg 35.98200 48.16500 25.51900
C  36.40800 46.31000 28.61600
C  35.07300 50.86000 27.43300
C  35.19200 49.53700 22.66000
C  36.68000 45.08800 23.87500
N  35.72400 48.49300 27.77300
C  36.01500 47.66400 28.84000
C  35.86500 48.33000 30.18500
C  35.51800 49.87800 29.78800
C  35.41500 49.73800 28.25700
C  34.06300 50.27300 30.35000
C  37.18100 48.29400 31.01400
C  36.96300 47.67600 32.43700
H  35.64900 47.76600 33.29800
N  35.40800 50.05000 25.12400
C  35.04500 51.04400 26.02300
C  34.76000 52.24700 25.27100
C  34.79500 51.89500 23.88400
C  35.13600 50.37500 23.79400
C  34.39700 53.45400 25.99800
C  34.41400 52.73300 22.69100
O  34.52300 52.29000 21.58800
C  34.12500 54.25800 22.84700
N  35.98700 47.41700 23.63100
C  35.54400 48.20800 22.64800
C  35.50800 47.43300 21.32600
C  36.40500 46.20200 21.62100
C  36.36700 46.20000 23.11100
C  34.03500 46.96100 20.87000
C  37.88400 46.29800 21.08600
C  38.91300 47.11000 21.93100
N  36.41500 46.09100 26.04100
C  36.74800 45.04200 25.24500
C  37.02700 43.97800 26.06300
C  36.92300 44.39700 27.40400
C  36.46000 45.68600 27.33200
C  37.46000 42.61600 25.56900
C  37.11900 44.02700 28.81900
O  37.52500 42.98400 29.29600
C  36.62200 45.20900 29.64300
C  35.47100 44.86200 30.34200
O  34.36000 45.00400 29.91400
O  35.71800 44.23500 31.53800
C  34.49400 43.78900 32.23200
H  34.81000 51.71000 28.06600
H  34.91000 49.86900 21.65900
H  37.00200 44.19300 23.33800
H  34.98100 47.92000 30.67300
H  36.31500 50.55100 30.10400
H  34.11700 51.28600 30.74800
H  33.91600 49.67200 31.24700
H  33.19600 50.17500 29.69600
H  37.69800 49.25200 31.05900
H  37.85500 47.67700 30.41900
H  37.84900 47.97900 32.99400
H  37.12900 46.61300 32.26200
H  33.33000 53.62100 26.15200
H  34.75400 54.28600 25.39100
H  35.05800 53.67100 26.83700
H  33.65500 54.49400 21.89300
H  34.98600 54.91900 22.95500
H  33.36800 54.52100 23.58500
H  35.98100 48.08900 20.59600
H  36.04100 45.25300 21.22800
H  33.29000 47.45700 21.49200
H  33.87200 45.88400 20.81400
H  33.88500 47.34800 19.86200
H  37.78900 46.81900 20.13400
H  38.32200 45.34000 20.80700
H  39.15100 46.49700 22.80000
H  38.66000 48.13400 22.20700
H  39.76900 47.14100 21.25700
H  38.31200 42.19200 26.09900
H  37.72400 42.62800 24.51200
H  36.62000 41.94700 25.75500
H  37.42500 45.51800 30.31300
H  33.83600 43.21100 31.58400
H  33.95400 44.56900 32.76900
H  34.85600 43.15200 33.03900
Mg 8.62300 48.52600 25.32700
C  6.23400 49.11700 27.82100
C  11.07400 49.42700 27.59700
C  10.75000 48.01600 22.95800
C  5.93800 48.16700 23.04400
N  8.60000 49.21400 27.47300
C  7.52600 49.30400 28.31500
C  8.01000 49.59000 29.73900
C  9.44500 50.28800 29.44400
C  9.77000 49.53500 28.11700
C  9.39700 51.85500 29.08200
C  8.25300 48.34700 30.62500
C  8.51100 48.71400 32.09900
H  8.09800 47.72100 33.16900
N  10.65200 48.65500 25.32800
C  11.52900 49.04900 26.35800
C  12.89300 48.94400 25.86100
C  12.86000 48.44300 24.55200
C  11.40800 48.24500 24.23000
C  14.15400 49.38900 26.68500
C  13.95000 48.19900 23.40300
O  13.73800 47.96100 22.21600
C  15.32800 48.42600 23.83000
N  8.35600 48.14800 23.35300
C  9.45700 47.98900 22.56000
C  9.05800 47.69900 21.07900
C  7.51800 47.74400 21.17100
C  7.24100 48.03500 22.56900
C  9.65500 48.75400 20.07700
C  6.78800 46.52300 20.67100
C  5.66800 46.87300 19.61900
N  6.55900 48.71500 25.33900
C  5.57100 48.44500 24.37300
C  4.28000 48.47200 24.99300
C  4.51300 48.76700 26.28600
C  5.90300 48.83200 26.48200
C  2.80800 48.34500 24.37800
C  3.78500 48.97400 27.59000
O  2.57700 48.93300 27.92100
C  4.92900 49.34000 28.57000
C  4.73400 48.54100 29.80700
O  5.05200 47.45100 30.02200
O  4.11000 49.36300 30.71600
C  3.94500 48.80700 32.13500
H  11.83900 49.78700 28.28800
H  11.41000 47.70800 22.14500
H  5.23200 48.05300 22.21800
H  7.29200 50.26200 30.20800
H  10.27200 50.08000 30.12300
H  8.35700 52.16100 29.20200
H  9.64400 51.98100 28.02800
H  10.14700 52.42200 29.63300
H  8.94700 47.65900 30.14300
H  7.29300 47.83300 30.57900
H  8.16500 49.74100 32.21600
H  9.58900 48.87800 32.09100
H  13.96100 49.39200 27.75800
H  14.46300 50.36700 26.31800
H  15.04100 48.79200 26.47400
H  15.32700 49.37900 24.35800
H  16.01500 48.26200 23.00000
H  15.56500 47.61100 24.51300
H  9.46200 46.70000 20.91900
H  7.16800 48.63700 20.65300
H  10.44300 49.28500 20.61300
H  8.79300 49.38300 19.85800
H  10.01400 48.21100 19.20300
H  6.49200 45.95700 21.55400
H  7.51700 45.96600 20.08200
H  5.51800 45.96400 19.03700
H  5.98500 47.65300 18.92600
H  4.79300 47.23600 20.15900
H  2.59300 47.31600 24.09200
H  2.80500 48.96300 23.47900
H  2.07600 48.55000 25.16000
H  4.85100 50.38600 28.86800
H  2.90500 48.50300 32.25700
H  4.24200 49.58300 32.84100
H  4.56200 47.95400 32.41300

