158

Mg 6.61500 53.50200 40.70300
C  6.19100 50.01200 39.99500
C  9.88400 53.15100 39.56800
C  6.84800 56.79500 40.92700
C  3.12100 53.62100 41.27700
N  7.87200 51.74500 39.75400
C  7.52600 50.40200 39.60200
C  8.76300 49.54100 39.08600
C  9.91000 50.46200 39.49400
C  9.20300 51.85100 39.56600
C  10.54900 50.07600 40.89000
C  8.70600 48.91500 37.59900
C  8.61000 49.83200 36.39500
H  7.51900 49.72200 35.36000
N  8.17000 54.77700 40.28900
C  9.44300 54.46000 39.84700
C  10.20100 55.66900 39.74800
C  9.37100 56.70100 40.15900
C  8.07400 56.12900 40.50300
C  11.59500 55.79800 39.24300
C  9.84900 58.17000 40.13000
O  10.95500 58.51800 39.68700
C  9.01000 59.29400 40.80700
N  5.19300 54.96300 41.01400
C  5.55400 56.29000 41.01400
C  4.31400 57.24600 41.14100
C  3.20600 56.13100 41.34500
C  3.83600 54.80800 41.19600
C  4.24900 58.39300 42.26300
C  2.03200 56.48100 40.23900
C  0.89300 57.46300 40.55200
N  4.98800 52.15900 40.88000
C  3.66100 52.32900 41.24200
C  3.01300 51.08600 41.27600
C  4.02200 50.15800 40.88100
C  5.15100 50.84900 40.63000
C  1.55800 50.70900 41.61800
C  4.29400 48.69100 40.68900
O  3.59900 47.71300 40.86500
C  5.70200 48.56900 40.01300
C  5.37000 48.07300 38.61500
O  5.02400 48.78600 37.71000
O  5.52200 46.66700 38.49200
C  5.24900 46.10200 37.19900
H  10.95600 52.95000 39.51900
H  6.93200 57.88000 41.01700
H  2.05300 53.60200 41.50700
H  8.68200 48.63500 39.68700
H  10.73500 50.41900 38.78400
H  10.80900 50.84100 41.62200
H  11.41000 49.45900 40.63300
H  9.93000 49.31400 41.36400
H  7.83500 48.26200 37.53100
H  9.54600 48.25800 37.37500
H  9.61800 49.69600 36.00300
H  8.56300 50.87800 36.69900
H  12.21200 56.18400 40.05400
H  11.76300 56.40200 38.35200
H  12.02900 54.83500 38.97400
H  9.70100 60.12500 40.94500
H  8.67900 59.09700 41.82600
H  8.14100 59.57500 40.21300
H  4.31800 57.74500 40.17200
H  2.78400 56.27500 42.33900
H  5.21800 58.50000 42.75100
H  3.51900 58.19700 43.04900
H  4.08300 59.40700 41.89800
H  1.58900 55.53400 39.93100
H  2.47700 56.92500 39.35000
H  0.91100 57.71100 41.61400
H  -0.06900 57.03200 40.27300
H  1.07500 58.40900 40.04400
H  1.26700 49.99100 40.85100
H  0.91800 51.59100 41.56900
H  1.42700 50.19400 42.56900
H  6.35400 47.90100 40.57700
H  6.14900 46.17400 36.58800
H  4.42400 46.52400 36.62500
H  5.01200 45.04500 37.32500
Mg 16.86100 52.55300 26.52800
C  18.80200 50.95000 28.92600
C  14.45100 53.13400 28.77000
C  15.18700 54.35600 24.07000
C  19.14000 51.39700 24.04000
N  16.67900 52.05700 28.55500
C  17.63600 51.49800 29.46900
C  17.21300 51.61300 30.94400
C  15.74100 52.13400 30.74500
C  15.59900 52.44100 29.25900
C  14.71900 51.21500 31.34400
C  18.27500 52.47300 31.69900
C  18.66000 51.86900 33.12100
H  17.94200 52.29300 34.43200
N  15.07000 53.63600 26.44800
C  14.20000 53.76500 27.48600
C  13.07400 54.56900 27.07700
C  13.26400 54.93400 25.70900
C  14.56400 54.28900 25.35000
C  11.96500 54.93200 28.04800
C  12.34100 55.75000 24.82000
O  12.59600 55.89900 23.58800
C  11.18800 56.57700 25.33100
N  17.02800 52.71600 24.36600
C  16.28900 53.58300 23.62600
C  16.61200 53.46600 22.16100
C  18.01600 52.71200 22.18600
C  18.05200 52.16500 23.61800
C  15.38600 52.81600 21.42600
C  19.20700 53.49500 21.66700
C  20.01700 52.86500 20.54200
N  18.58100 51.36600 26.36600
C  19.38700 50.97900 25.33900
C  20.46000 50.15400 25.79800
C  20.31000 50.21400 27.14300
C  19.12700 50.91300 27.47800
C  21.66100 49.59000 24.98200
C  20.97500 49.74500 28.41900
O  21.99400 49.08600 28.62500
C  20.05300 50.29300 29.59800
C  19.75600 49.09500 30.46400
O  19.10100 48.11500 30.14500
O  20.59200 49.19400 31.59600
C  20.56600 48.10500 32.55600
H  13.64900 53.34000 29.48200
H  14.81400 55.00700 23.27700
H  19.90800 51.17800 23.29600
H  17.22800 50.60400 31.35500
H  15.60300 53.10100 31.22900
H  15.15400 50.25000 31.60400
H  13.99400 51.03100 30.55100
H  14.16000 51.56900 32.21000
H  18.04800 53.50600 31.96500
H  19.24000 52.39300 31.19700
H  19.67700 52.20200 33.32300
H  18.64500 50.77900 33.12900
H  10.99800 54.70800 27.59700
H  11.87600 56.00000 28.24400
H  11.91500 54.35500 28.97100
H  11.52800 57.38200 25.98300
H  10.42900 55.91900 25.75300
H  10.68800 56.97900 24.44900
H  16.68400 54.48100 21.77100
H  17.89200 51.93700 21.42900
H  15.71400 52.13300 20.64300
H  14.71500 53.53800 20.96100
H  14.90200 52.10500 22.09600
H  19.82600 53.55500 22.56200
H  19.01300 54.51300 21.33000
H  20.27300 53.57400 19.75400
H  19.37400 52.18400 19.98500
H  20.86900 52.28400 20.89600
H  21.29200 48.76800 24.36900
H  22.45900 49.30200 25.66600
H  22.04000 50.34300 24.29100
H  20.69400 50.91500 30.22300
H  19.66700 48.02700 33.16600
H  21.44800 48.32000 33.16000
H  20.76700 47.19700 31.98700

