158

Mg 41.05600 8.54400 28.92800
C  42.64300 10.01600 31.75500
C  38.79700 7.15600 31.03800
C  39.55500 7.09900 26.29500
C  43.59300 9.55800 26.89400
N  40.76800 8.63300 31.17500
C  41.47200 9.37800 32.10300
C  40.86400 9.19700 33.46200
C  39.62500 8.23500 33.23600
C  39.75400 7.97000 31.71500
C  39.42800 6.86400 34.06800
C  40.48300 10.61400 34.11300
C  39.69600 10.46700 35.40800
H  40.30800 11.35000 36.56300
N  39.31000 7.37400 28.72400
C  38.52400 6.94100 29.66200
C  37.38300 6.21300 29.13300
C  37.55400 6.16300 27.73400
C  38.82600 6.95200 27.48100
C  36.27000 5.87700 30.10500
C  36.60300 5.55200 26.75800
O  36.71000 5.83100 25.56600
C  35.43700 4.65200 27.15900
N  41.44700 8.44200 26.88200
C  40.73700 7.68900 26.03700
C  41.26500 7.70100 24.57800
C  42.53000 8.56100 24.74900
C  42.56700 8.84200 26.25400
C  41.60900 6.30900 23.97600
C  42.76100 9.71600 23.79100
C  42.27100 11.12300 24.26700
N  42.78000 9.52600 29.24000
C  43.73300 9.86500 28.27800
C  44.76400 10.59600 29.06300
C  44.37100 10.77700 30.38400
C  43.14500 10.01900 30.46100
C  46.00100 11.15600 28.53300
C  44.77600 11.29000 31.67800
O  45.71500 11.96200 32.04400
C  43.60100 10.79900 32.59800
C  44.13800 9.86400 33.65500
O  44.49200 8.77800 33.47400
O  44.31000 10.59800 34.83400
C  44.91500 9.78800 35.91900
H  38.03000 6.83000 31.74300
H  39.17700 6.59800 25.40100
H  44.40200 9.94700 26.27300
H  41.67500 8.68500 33.98100
H  38.72500 8.85000 33.21500
H  38.46900 6.96100 34.57600
H  40.25000 6.78300 34.77900
H  39.20600 6.00600 33.43300
H  39.82200 11.22100 33.49400
H  41.34500 11.21000 34.41200
H  39.59600 9.42300 35.70500
H  38.67400 10.83200 35.31100
H  35.45100 6.47800 29.71000
H  36.33500 6.21500 31.13900
H  35.98000 4.82700 30.15500
H  34.73800 5.30800 27.67800
H  35.66300 3.80100 27.80200
H  34.95500 4.23100 26.27700
H  40.60100 8.17000 23.85100
H  43.38200 7.88100 24.72700
H  41.49700 5.43700 24.62100
H  42.65300 6.31500 23.66300
H  40.94900 5.99400 23.16800
H  42.59400 9.41500 22.75700
H  43.85000 9.74200 23.73600
H  41.37700 10.98000 24.87400
H  42.03100 11.68200 23.36200
H  43.16800 11.45500 24.78900
H  46.31400 12.12500 28.92400
H  45.66300 11.46600 27.54400
H  46.84500 10.46800 28.56300
H  43.07500 11.57500 33.15400
H  44.14900 9.38100 36.57800
H  45.55500 10.44300 36.50900
H  45.53300 8.98400 35.51900
Mg 6.54600 54.89000 41.29000
C  5.87900 51.40900 41.31600
C  9.52300 54.29800 39.95900
C  6.72000 58.23800 40.39100
C  2.98900 55.30900 41.66800
N  7.50900 53.05900 40.70600
C  7.19800 51.71400 40.90500
C  8.37700 50.76100 40.48900
C  9.57100 51.75600 40.36400
C  8.84000 53.13500 40.33100
C  10.57100 51.76100 41.53800
C  8.11100 50.00300 39.15100
C  7.68100 50.85200 37.91600
H  6.44700 50.57700 37.01900
N  8.01600 56.06400 40.35700
C  9.26000 55.60700 39.95300
C  10.04900 56.75100 39.57700
C  9.18300 57.88600 39.64100
C  7.93300 57.46500 40.15700
C  11.50800 56.60400 39.09900
C  9.63400 59.32300 39.35100
O  10.78400 59.47500 38.93500
C  8.73600 60.50300 39.44600
N  5.08100 56.54300 40.98600
C  5.47200 57.81300 40.86200
C  4.28900 58.79900 40.90200
C  3.09000 57.78000 40.78400
C  3.74100 56.43600 41.21000
C  4.28300 59.81200 42.13900
C  2.46800 57.82000 39.34200
C  1.20400 58.71700 39.31700
N  4.84500 53.73900 41.73600
C  3.52800 54.01500 42.00800
C  2.90700 52.82600 42.54600
C  3.76500 51.72500 42.23600
C  4.87900 52.37900 41.67900
C  1.54300 52.76200 43.19700
C  3.96800 50.27200 42.34900
O  3.19000 49.35900 42.72400
C  5.33400 50.02700 41.54800
C  4.91000 49.41700 40.28600
O  4.32600 50.00300 39.37600
O  5.28900 48.09400 40.23800
C  5.02300 47.37500 38.97300
H  10.50400 54.12900 39.50900
H  6.72800 59.29200 40.10500
H  1.93300 55.51400 41.85500
H  8.46000 50.04200 41.30400
H  10.14700 51.52800 39.46700
H  10.72400 50.73800 41.88300
H  10.29200 52.43600 42.34700
H  11.55100 51.99000 41.12100
H  7.32100 49.25600 39.21800
H  9.00100 49.42200 38.91100
H  8.59800 50.76000 37.33500
H  7.69700 51.88300 38.27100
H  11.62000 56.57300 38.01500
H  11.89500 55.67000 39.50700
H  12.20100 57.33700 39.51200
H  9.35100 61.36600 39.19300
H  8.26600 60.67400 40.41400
H  7.97400 60.34400 38.68300
H  4.42200 59.45100 40.03900
H  2.24900 58.07000 41.41400
H  3.44600 59.53000 42.77800
H  4.11700 60.85000 41.84900
H  5.16700 59.77100 42.77500
H  2.23500 56.81300 38.99700
H  3.13700 58.14000 38.54200
H  0.31300 58.11100 39.15500
H  1.28000 59.43500 38.50200
H  1.18000 59.41500 40.15400
H  1.83000 52.56300 44.22900
H  0.96200 51.94700 42.76400
H  1.13200 53.77100 43.15800
H  6.05500 49.43300 42.11100
H  4.47100 47.86900 38.17300
H  4.38700 46.53900 39.26200
H  5.97100 46.96200 38.62800

