158

Mg 46.98600 34.91000 27.98100
C  45.27400 33.02600 30.33000
C  47.24100 37.46500 30.34800
C  48.12200 36.78500 25.61700
C  46.42000 32.29900 25.64600
N  46.19900 35.23100 29.96800
C  45.66500 34.27500 30.82300
C  45.73000 34.73800 32.29400
C  45.86300 36.24800 32.10400
C  46.42300 36.36500 30.69300
C  44.50900 37.03700 32.23400
C  47.02800 34.12700 32.88400
C  47.06600 33.89300 34.38800
H  46.05600 34.71300 35.32200
N  47.68700 36.86000 28.02800
C  47.80900 37.73100 29.07800
C  48.46100 39.00100 28.61600
C  48.88900 38.71100 27.29500
C  48.21700 37.43400 26.90800
C  48.74200 40.09200 29.52900
C  49.74700 39.59800 26.37300
O  49.94000 39.13000 25.26000
C  50.16500 40.95100 26.73500
N  47.11900 34.61000 25.91400
C  47.68300 35.54000 25.15700
C  47.62500 35.14700 23.61700
C  47.43200 33.67700 23.74200
C  46.91600 33.47500 25.19600
C  46.35200 35.90500 22.97800
C  48.56900 32.70300 23.37300
C  50.09500 33.15700 23.43600
N  46.23200 32.91300 27.98500
C  46.06900 32.00800 26.94600
C  45.44200 30.76800 27.49700
C  45.11100 31.06400 28.81000
C  45.56600 32.40700 29.02300
C  45.14700 29.57300 26.59500
C  44.42900 30.66600 29.98900
O  43.80100 29.63600 30.23100
C  44.48000 31.91500 31.01600
C  44.92400 31.40200 32.32300
O  45.91800 30.78300 32.52800
O  44.01800 31.72600 33.25100
C  44.26500 31.03000 34.47600
H  47.27400 38.31200 31.03700
H  48.49900 37.34600 24.76000
H  46.23000 31.49100 24.93700
H  44.89000 34.31500 32.84600
H  46.60500 36.67800 32.77700
H  44.14700 37.61500 31.38400
H  44.55200 37.70400 33.09500
H  43.83500 36.25100 32.57600
H  47.81400 34.88000 32.82900
H  47.38200 33.18400 32.46900
H  48.05500 34.05200 34.81700
H  46.68800 32.88600 34.56600
H  49.81500 40.00700 29.70200
H  48.23300 40.08600 30.49300
H  48.51100 41.07000 29.10600
H  49.40800 41.61600 27.15000
H  50.65800 41.44500 25.89800
H  50.95200 40.78300 27.46900
H  48.53500 35.46200 23.10500
H  46.51800 33.39300 23.22000
H  46.80500 36.61600 22.28600
H  45.74400 36.38800 23.74200
H  45.73100 35.30900 22.30900
H  48.45500 32.44400 22.32000
H  48.47100 31.79000 23.96000
H  50.19300 34.17500 23.81000
H  50.46800 33.09600 22.41400
H  50.83800 32.54700 23.95100
H  45.95000 29.45300 25.86800
H  44.18500 29.64900 26.08900
H  45.10000 28.61900 27.12100
H  43.43100 32.20200 31.07800
H  43.46200 31.04700 35.21300
H  45.15200 31.53000 34.86500
H  44.43400 29.97800 34.24200
Mg -10.80800 17.24300 42.68100
C  -7.41600 16.53000 42.84900
C  -9.94800 20.53900 42.15900
C  -13.99000 17.74500 41.81900
C  -11.42400 13.62300 42.62900
N  -8.82800 18.38800 42.63700
C  -7.63000 17.90700 42.65200
C  -6.56000 19.00300 42.32700
C  -7.42700 20.29000 42.37000
C  -8.84800 19.71800 42.41800
C  -7.06200 21.34000 43.49300
C  -5.68000 18.77700 41.00300
C  -6.42300 18.24500 39.69500
H  -5.65300 18.07000 38.40700
N  -11.85300 18.89700 42.01800
C  -11.32300 20.17000 41.93400
C  -12.42200 21.07500 41.48300
C  -13.51400 20.22900 41.29300
C  -13.14200 18.84600 41.73000
C  -12.14300 22.58300 41.18600
C  -14.86400 20.75100 40.77400
O  -15.10000 21.95200 40.73900
C  -16.01100 19.75200 40.28500
N  -12.44800 15.88100 42.17100
C  -13.70300 16.40000 42.03300
C  -14.74700 15.29000 41.96700
C  -13.89200 13.99300 42.14700
C  -12.50100 14.50800 42.38700
C  -16.04400 15.49600 42.84800
C  -14.01800 12.91700 41.06100
C  -14.54000 11.45500 41.38200
N  -9.69100 15.41000 42.98800
C  -10.06700 14.05600 42.87900
C  -8.82600 13.22100 42.96800
C  -7.77400 14.13600 42.98100
C  -8.34300 15.45500 42.95500
C  -8.86800 11.71500 42.96300
C  -6.38100 14.27200 43.01500
O  -5.53300 13.38400 43.06500
C  -6.05100 15.80800 42.94900
C  -5.31800 16.33300 44.09700
O  -4.23400 16.91400 44.00300
O  -5.92500 15.87700 45.23600
C  -5.20600 16.07500 46.51800
H  -9.73700 21.61000 42.20100
H  -15.07200 17.89200 41.81500
H  -11.66100 12.56400 42.51200
H  -5.82000 19.05200 43.12600
H  -7.38300 20.75600 41.38500
H  -6.77500 22.31500 43.09900
H  -6.26600 20.91300 44.10400
H  -7.88000 21.50100 44.19500
H  -4.92300 18.01800 41.19900
H  -5.22900 19.74900 40.80100
H  -7.16700 19.01000 39.47000
H  -6.82100 17.24500 39.86800
H  -12.79600 23.00000 40.41900
H  -11.13400 22.64500 40.77900
H  -12.12200 23.17000 42.10400
H  -16.66600 19.57600 41.13900
H  -15.64900 18.77100 39.97900
H  -16.46000 20.18000 39.38800
H  -15.15700 15.35500 40.95900
H  -14.16800 13.58600 43.11900
H  -16.78300 16.01000 42.23400
H  -15.68500 16.06500 43.70600
H  -16.45000 14.52100 43.11800
H  -13.08900 12.59500 40.59300
H  -14.62600 13.28900 40.23600
H  -15.26000 11.17300 40.61300
H  -15.19000 11.39600 42.25500
H  -13.78400 10.67100 41.36000
H  -8.00600 11.26700 42.46900
H  -9.69300 11.31700 42.37100
H  -8.87500 11.42300 44.01400
H  -5.34700 15.93400 42.12600
H  -4.47100 15.27100 46.49500
H  -5.97000 15.75400 47.22700
H  -4.63400 16.96700 46.77100

