158

Mg 47.54700 34.83400 27.92100
C  45.47300 33.51300 30.40600
C  48.34300 37.41900 30.08500
C  49.21400 36.27600 25.46800
C  46.50100 32.24700 25.86900
N  47.00000 35.34000 30.00600
C  46.24200 34.66800 30.85400
C  46.57100 35.04400 32.26300
C  47.00700 36.59700 32.04700
C  47.48500 36.43000 30.62500
C  45.84800 37.71900 32.04900
C  47.76900 34.19400 32.84900
C  47.97000 34.33200 34.34100
H  47.13400 35.35700 35.11000
N  48.62100 36.60900 27.78200
C  48.86100 37.53900 28.75700
C  49.71500 38.57300 28.31400
C  50.05800 38.22200 26.92100
C  49.34200 36.98400 26.68100
C  50.12300 39.75800 29.10800
C  50.91100 38.97100 25.93500
O  51.05000 38.55300 24.76300
C  51.62300 40.28800 26.29500
N  47.75700 34.39800 25.89900
C  48.53500 35.11000 25.07600
C  48.48100 34.52000 23.63400
C  47.82300 33.13900 23.84600
C  47.37400 33.21700 25.30400
C  47.77900 35.42200 22.57300
C  48.58400 31.82000 23.52500
C  50.11400 31.80600 23.63500
N  46.24900 33.26000 28.04700
C  45.93600 32.25200 27.09800
C  44.97300 31.28100 27.69300
C  44.73000 31.73700 28.96800
C  45.48500 32.96100 29.08400
C  44.37600 30.00200 26.98000
C  43.97600 31.56400 30.18600
O  43.17300 30.73000 30.54700
C  44.38000 32.70100 31.08100
C  44.71400 32.21500 32.40600
O  45.65800 31.41700 32.59700
O  43.84300 32.73700 33.31500
C  44.03600 32.32100 34.75000
H  48.57600 38.15800 30.85400
H  49.76300 36.64700 24.60100
H  46.20600 31.42500 25.21300
H  45.74000 34.88100 32.95000
H  47.76800 36.94800 32.74400
H  44.92700 37.20700 32.32900
H  45.63800 38.25400 31.12300
H  46.06100 38.43700 32.84000
H  48.68000 34.53800 32.35900
H  47.67300 33.14200 32.57800
H  49.00700 34.56100 34.58700
H  47.71500 33.35800 34.75700
H  50.70100 39.34600 29.93500
H  49.29700 40.25600 29.61400
H  50.79000 40.43900 28.58000
H  52.35300 39.99500 27.04900
H  50.96200 41.09700 26.60500
H  52.13100 40.56700 25.37200
H  49.46400 34.30200 23.21700
H  46.88500 33.02800 23.30300
H  47.65200 36.41600 23.00300
H  46.76500 35.08900 22.35300
H  48.39300 35.63100 21.69700
H  48.55600 31.75300 22.43700
H  48.15000 30.91900 23.95900
H  50.49000 31.86900 22.61400
H  50.43100 30.82400 23.98700
H  50.47800 32.49000 24.40100
H  44.83400 30.05800 25.99200
H  43.29100 29.97900 27.07400
H  44.76900 29.14100 27.52100
H  43.41800 33.21000 31.02400
H  43.16900 31.82800 35.18800
H  44.24800 33.22500 35.32100
H  44.87400 31.62500 34.76800
Mg -5.21800 25.41000 24.73100
C  -3.82200 26.81800 27.50700
C  -6.84000 23.11100 26.76500
C  -6.53900 23.79500 21.96600
C  -3.36200 27.37700 22.64600
N  -5.10100 24.87600 26.83400
C  -4.59800 25.70800 27.86600
C  -5.12500 25.24500 29.26000
C  -5.74900 23.85700 28.91700
C  -5.89300 23.93200 27.37700
C  -4.85700 22.61500 29.34000
C  -6.02400 26.30800 29.88200
C  -5.70100 26.70600 31.35200
H  -5.41400 25.54100 32.15300
N  -6.48900 23.73100 24.40500
C  -7.16200 23.04000 25.35400
C  -8.31700 22.35500 24.83100
C  -8.15000 22.43100 23.42700
C  -7.03700 23.31100 23.17700
C  -9.38000 21.73500 25.64100
C  -8.92000 21.63700 22.32100
O  -8.53300 21.60100 21.15600
C  -10.07500 20.72500 22.60200
N  -5.00300 25.61400 22.59300
C  -5.63200 24.81000 21.64500
C  -5.27100 25.23300 20.22000
C  -4.38200 26.51800 20.50500
C  -4.19400 26.52800 21.98700
C  -4.67300 24.07200 19.38900
C  -4.95300 27.76900 19.86700
C  -6.08800 28.55700 20.71400
N  -3.81000 26.76300 24.99600
C  -3.18900 27.55800 24.04200
C  -2.33300 28.51200 24.75600
C  -2.54500 28.31000 26.16600
C  -3.37100 27.17700 26.18900
C  -1.46100 29.47000 23.99900
C  -2.12700 28.62300 27.56200
O  -1.32900 29.46800 27.98100
C  -3.07400 27.70700 28.48600
C  -2.17800 26.85500 29.29800
O  -1.41700 25.90600 28.95000
O  -2.12100 27.29200 30.60000
C  -1.39100 26.47600 31.50000
H  -7.46700 22.50300 27.42000
H  -7.03200 23.42000 21.06600
H  -2.72800 27.98900 22.00100
H  -4.23400 25.11300 29.87400
H  -6.77200 23.77100 29.28300
H  -3.79900 22.85600 29.45100
H  -4.97900 21.83100 28.59300
H  -5.23000 22.22300 30.28600
H  -6.97400 25.77400 29.89000
H  -6.15200 27.20500 29.27500
H  -6.51300 27.26100 31.82100
H  -4.83000 27.35800 31.29000
H  -10.17200 21.09100 25.25800
H  -9.90300 22.64300 25.94100
H  -8.93800 21.21300 26.48900
H  -10.25300 20.19700 21.66500
H  -11.00000 21.20500 22.92200
H  -9.75600 19.97000 23.32000
H  -6.20500 25.57700 19.77500
H  -3.42600 26.28800 20.03400
H  -4.43900 23.31300 20.13500
H  -3.73700 24.36200 18.91100
H  -5.48400 23.90600 18.68000
H  -5.43500 27.49600 18.92800
H  -4.11900 28.39600 19.55200
H  -6.55300 28.00700 21.53300
H  -6.91600 28.60900 20.00800
H  -5.73800 29.56200 20.95100
H  -1.20500 29.16300 22.98500
H  -0.62000 29.68000 24.66000
H  -2.04300 30.38600 23.89100
H  -3.74300 28.31000 29.09900
H  -1.51900 26.92800 32.48400
H  -0.33400 26.46000 31.23400
H  -1.80100 25.46600 31.47700

