158

Mg 26.45100 50.38400 26.48500
C  24.03800 51.60300 28.74800
C  28.58100 49.75100 29.05900
C  28.61400 49.46500 24.22300
C  24.27200 51.53600 23.89300
N  26.28700 50.70100 28.65800
C  25.19600 51.04100 29.38800
C  25.41900 50.72100 30.87900
C  26.99200 50.53800 30.91600
C  27.31800 50.26100 29.46800
C  27.73300 51.67200 31.58900
C  24.73200 49.37600 31.44000
C  23.91300 49.69300 32.75000
H  24.59800 50.37600 33.96000
N  28.37400 49.58800 26.60600
C  29.10100 49.39800 27.76400
C  30.43000 48.89300 27.43300
C  30.47100 48.92800 26.01800
C  29.07400 49.28300 25.51900
C  31.52900 48.67100 28.43300
C  31.57700 48.50100 25.09800
O  31.63100 48.67200 23.93900
C  32.83400 47.84500 25.73500
N  26.48000 50.68000 24.31900
C  27.43900 49.99200 23.64800
C  27.11500 49.93400 22.16900
C  25.63200 50.46000 22.09700
C  25.39100 50.87900 23.51900
C  28.16200 50.54700 21.09400
C  24.61900 49.51900 21.41000
C  23.96000 48.34900 22.21200
N  24.63900 51.51700 26.27800
C  23.90000 51.85300 25.23900
C  22.71200 52.52500 25.65500
C  22.61600 52.39700 27.01800
C  23.91500 51.82300 27.34700
C  21.75600 53.29500 24.73200
C  21.91500 52.59200 28.28300
O  20.76900 52.99200 28.55800
C  22.79100 52.09500 29.37300
C  22.88800 53.11800 30.39000
O  23.50500 54.18600 30.30500
O  22.11200 52.71800 31.47900
C  22.29900 53.53400 32.62700
H  29.24000 49.52100 29.89900
H  29.32600 49.23100 23.42900
H  23.56300 51.69900 23.07800
H  25.10400 51.56800 31.48800
H  27.12400 49.65600 31.54300
H  27.21200 52.33300 32.28200
H  28.31700 52.33500 30.95200
H  28.43400 51.18500 32.26700
H  25.36900 48.54000 31.72700
H  24.05200 49.10000 30.63400
H  23.45100 48.77100 33.10500
H  23.03700 50.25400 32.42300
H  31.91200 47.68400 28.17500
H  31.26700 48.56200 29.48500
H  32.38600 49.33700 28.32900
H  33.43800 47.30900 25.00300
H  32.52600 47.04100 26.40200
H  33.52500 48.58800 26.13300
H  27.02000 48.86800 21.96200
H  25.71000 51.41900 21.58600
H  28.96000 51.21400 21.42100
H  27.63700 51.26600 20.46500
H  28.57000 49.73400 20.49300
H  25.14900 48.99000 20.61700
H  23.78100 50.14700 21.11000
H  24.30500 48.22800 23.23900
H  24.19000 47.40200 21.72600
H  22.87700 48.46100 22.16600
H  22.11100 54.26600 24.38900
H  20.85000 53.52400 25.29300
H  21.64100 52.74400 23.79900
H  22.52200 51.15800 29.86000
H  22.45800 54.58000 32.36700
H  23.12000 53.07500 33.17800
H  21.44100 53.38600 33.28200
Mg 0.16100 43.32300 26.96900
C  2.70200 43.17900 29.07000
C  -2.08100 42.66900 29.39700
C  -2.37100 43.33100 24.54100
C  2.38600 44.05800 24.34900
N  0.28300 42.90100 29.04900
C  1.44000 42.95500 29.74700
C  1.16900 42.89800 31.25100
C  -0.24900 42.21100 31.30800
C  -0.77500 42.68800 29.86300
C  -0.23500 40.66300 31.58500
C  1.51500 44.34300 31.95400
C  1.87600 44.44800 33.43400
H  1.64500 43.25400 34.32400
N  -2.01800 43.17800 27.01100
C  -2.67700 42.91400 28.12100
C  -4.10200 42.70500 27.76400
C  -4.18200 42.70600 26.30200
C  -2.82000 43.06400 25.87500
C  -5.19100 42.43400 28.80100
C  -5.22700 42.41000 25.32900
O  -5.04400 42.39100 24.10300
C  -6.65900 42.07800 25.86200
N  -0.02000 43.74500 24.86900
C  -1.11500 43.55200 24.09600
C  -0.80900 43.64600 22.61100
C  0.62600 44.20500 22.58000
C  1.01500 44.05100 24.00000
C  -1.09900 42.32100 21.75500
C  0.77900 45.72500 22.11700
C  0.03100 46.13200 20.86100
N  2.12900 43.44200 26.68500
C  2.91200 43.76100 25.61000
C  4.33100 43.75400 25.99600
C  4.27300 43.43300 27.35800
C  2.92400 43.33400 27.72600
C  5.48300 44.07900 25.07700
C  5.13200 43.31300 28.53700
O  6.35800 43.21900 28.70600
C  4.10200 43.36400 29.66300
C  4.32700 42.20800 30.46100
O  4.51800 41.02600 30.16700
O  4.45800 42.65600 31.73600
C  5.05900 41.65000 32.67700
H  -2.71900 42.31500 30.21000
H  -2.99400 43.15500 23.66100
H  3.11700 44.32300 23.58200
H  1.93200 42.25700 31.69400
H  -0.86200 42.57300 32.13300
H  -1.17200 40.29800 31.16500
H  -0.12900 40.46200 32.65100
H  0.63700 40.20900 31.11600
H  0.75800 45.09400 31.72800
H  2.37000 44.69700 31.37900
H  1.37000 45.36200 33.74600
H  2.94400 44.66300 33.47500
H  -6.11700 43.00400 28.72300
H  -4.73800 42.54300 29.78700
H  -5.44100 41.38500 28.64500
H  -7.29300 41.79600 25.02100
H  -7.02400 42.93800 26.42400
H  -6.61600 41.18600 26.48700
H  -1.39700 44.45000 22.16900
H  1.23800 43.58900 21.92100
H  -1.44000 41.58200 22.48000
H  -0.11500 42.01000 21.40400
H  -1.79600 42.48200 20.93300
H  1.83300 45.80100 21.85000
H  0.52900 46.37000 22.95900
H  0.06600 45.16300 20.36300
H  0.45000 46.98500 20.32800
H  -0.99600 46.36100 21.14500
H  5.17200 43.96000 24.03900
H  6.31700 43.39700 25.24200
H  5.90200 45.07700 25.20200
H  4.09000 44.28200 30.25100
H  6.14000 41.70300 32.54800
H  4.81800 40.58700 32.67800
H  4.82000 41.96100 33.69300

