158

Mg 17.34600 -0.89600 27.68500
C  15.81000 1.34600 30.16600
C  18.88600 -2.43500 30.26000
C  18.86300 -2.67800 25.47400
C  15.51700 0.97100 25.28800
N  17.37300 -0.51300 29.96000
C  16.69000 0.37700 30.73300
C  16.90700 0.18800 32.27300
C  18.08100 -0.88200 32.23200
C  18.10400 -1.37700 30.77600
C  19.40300 -0.16800 32.62800
C  15.63400 -0.26300 32.95800
C  15.75000 -0.52900 34.51500
H  16.92500 0.11100 35.28200
N  18.79700 -2.34200 27.82400
C  19.31500 -2.91900 28.97300
C  20.16400 -4.05800 28.63300
C  20.08200 -4.13900 27.17300
C  19.20900 -3.04200 26.73200
C  20.96800 -4.74700 29.65500
C  20.73600 -5.11100 26.23200
O  20.69000 -5.18900 24.99400
C  21.41300 -6.28900 26.86600
N  17.15800 -0.86500 25.60800
C  18.02700 -1.64700 24.89800
C  17.88900 -1.29800 23.41000
C  16.73600 -0.20800 23.32500
C  16.42200 -0.03200 24.85400
C  19.24800 -0.91500 22.72000
C  15.47400 -0.58000 22.50800
C  15.17800 0.34000 21.27300
N  16.00200 0.81500 27.67300
C  15.31000 1.38700 26.60100
C  14.45500 2.45200 27.00400
C  14.57800 2.47000 28.43300
C  15.57400 1.46600 28.77300
C  13.50600 3.29100 26.18400
C  14.15400 3.10200 29.73200
O  13.50200 4.08900 30.09200
C  14.92800 2.38600 30.81300
C  15.63600 3.41500 31.59800
O  16.35100 4.24500 31.10700
O  15.43600 3.26600 32.98000
C  16.26800 4.14600 33.81300
H  19.40100 -2.97400 31.05800
H  19.51000 -3.23800 24.79600
H  15.11200 1.65700 24.54000
H  17.30800 1.09000 32.73300
H  17.96200 -1.73500 32.90000
H  19.87600 -0.80400 33.37700
H  19.36400 0.86900 32.96100
H  20.07600 -0.21100 31.77100
H  15.51100 -1.16600 32.35900
H  14.76800 0.38400 32.82000
H  15.91400 -1.60500 34.58200
H  14.79500 -0.36200 35.01400
H  20.75400 -4.31500 30.63300
H  22.02700 -4.52800 29.52100
H  20.83400 -5.82700 29.71200
H  21.54000 -7.00500 26.05300
H  20.67100 -6.70600 27.54700
H  22.27500 -5.87900 27.39200
H  17.57400 -2.18500 22.86100
H  17.21800 0.69600 22.95400
H  19.19900 0.16000 22.54300
H  19.37300 -1.33500 21.72200
H  20.10800 -1.18600 23.33200
H  14.56100 -0.51000 23.09900
H  15.61300 -1.59800 22.14300
H  14.24400 0.88200 21.41900
H  15.13500 -0.19900 20.32600
H  15.90000 1.12000 21.03300
H  12.65100 3.61200 26.77900
H  13.08600 2.66300 25.39800
H  13.96000 4.18800 25.76300
H  14.24200 1.84200 31.46200
H  16.04600 5.17400 33.52600
H  17.31200 3.83900 33.73800
H  15.95800 4.13700 34.85800
Mg 4.94100 53.76500 40.75700
C  4.67500 50.30200 40.68400
C  7.87800 53.39700 39.06200
C  4.85200 57.09600 40.34800
C  1.75100 53.87600 42.19800
N  6.00700 52.02300 39.76400
C  5.76000 50.75100 39.95900
C  6.80800 49.87500 39.23200
C  8.00800 50.89000 39.19600
C  7.24400 52.19800 39.30000
C  8.93200 50.67100 40.41200
C  6.43200 49.22300 37.79400
C  5.20200 49.77300 37.05500
H  5.39800 50.36800 35.62800
N  6.20800 55.04000 39.80500
C  7.41000 54.74800 39.28200
C  8.13300 55.94000 38.87100
C  7.29000 57.03700 39.22800
C  6.05700 56.41100 39.82600
C  9.51500 55.84400 38.23900
C  7.67300 58.41900 39.05000
O  8.81000 58.67600 38.62000
C  6.78200 59.60600 39.31400
N  3.37100 55.31700 40.96000
C  3.68400 56.60700 40.89200
C  2.55000 57.50100 41.47200
C  1.52200 56.46500 42.01800
C  2.25100 55.15200 41.72400
C  3.02300 58.43700 42.59100
C  0.07600 56.58600 41.48100
C  -0.99000 56.90900 42.53600
N  3.56200 52.42700 41.48200
C  2.25500 52.59300 42.00100
C  1.66200 51.33500 42.31200
C  2.65700 50.40200 41.85300
C  3.69700 51.12500 41.26100
C  0.36400 51.05500 43.03000
C  2.86100 48.93900 41.73100
O  2.24600 47.92700 42.05300
C  4.19000 48.84600 40.97300
C  3.96400 48.00700 39.81000
O  3.16900 48.29500 38.94400
O  4.62900 46.73800 39.85700
C  4.24600 45.59900 38.99400
H  8.94300 53.35400 38.82400
H  4.82900 58.18800 40.35200
H  0.75100 53.93300 42.63300
H  7.13600 49.00400 39.79800
H  8.56200 50.65800 38.28700
H  8.65200 51.34000 41.22500
H  9.87200 50.82100 39.88000
H  8.94500 49.63300 40.74400
H  6.36400 48.14200 37.91800
H  7.32700 49.38000 37.19200
H  4.77300 50.58000 37.64900
H  4.50000 48.95400 36.90300
H  9.84900 56.73700 37.71000
H  9.42900 55.15500 37.39900
H  10.24000 55.65000 39.03000
H  7.12000 60.58700 38.97900
H  6.64100 59.63800 40.39500
H  5.84400 59.26500 38.87500
H  2.18800 58.14000 40.66700
H  1.41500 56.56200 43.09800
H  2.20600 58.59200 43.29600
H  3.34600 59.40700 42.21400
H  3.79700 57.95800 43.19200
H  -0.29100 55.75400 40.87900
H  0.04400 57.39900 40.75600
H  -0.76600 56.89100 43.60200
H  -1.79300 56.20900 42.30400
H  -1.39400 57.90600 42.35800
H  -0.18400 51.97800 43.22000
H  0.58800 50.45500 43.91200
H  -0.18300 50.38000 42.37200
H  4.92900 48.35000 41.60200
H  4.54500 44.70100 39.53600
H  4.93500 45.68900 38.15500
H  3.16500 45.49100 38.90600

