158

Mg 2.04900 -0.91800 45.65700
C  5.27000 0.23000 44.52400
C  0.77100 1.70900 43.89800
C  -0.78200 -2.41300 45.87600
C  3.72400 -3.82800 46.85300
N  2.98600 0.71000 44.35400
C  4.26100 1.08200 44.11300
C  4.44500 2.44500 43.44600
C  3.04300 2.98600 43.64200
C  2.18600 1.74600 44.02000
C  2.94800 4.17600 44.65200
C  4.73100 2.31400 42.03000
C  6.08700 2.94400 41.57500
H  6.10300 3.37900 40.06100
N  0.16700 -0.32600 45.08500
C  -0.20400 0.77700 44.36800
C  -1.55100 0.81100 44.28500
C  -2.07800 -0.40200 44.83000
C  -0.86000 -1.11400 45.30900
C  -2.35200 1.98200 43.47000
C  -3.51300 -0.85300 44.85200
O  -4.29100 -0.09800 44.31400
C  -3.99600 -2.11400 45.41200
N  1.61100 -2.86300 46.04100
C  0.32000 -3.15600 46.21900
C  0.05000 -4.57100 46.79000
C  1.47300 -4.99100 47.10900
C  2.32600 -3.83800 46.68500
C  -0.95000 -4.65300 48.03300
C  1.92600 -6.30100 46.46900
C  2.32300 -7.35200 47.45800
N  4.11400 -1.59900 45.84300
C  4.60900 -2.84900 46.30600
C  6.07100 -2.79400 46.18800
C  6.29100 -1.59100 45.48800
C  5.10000 -0.96100 45.28300
C  7.01500 -3.83700 46.61700
C  7.38500 -0.85100 44.90000
O  8.57000 -1.11200 44.69500
C  6.75300 0.47400 44.42200
C  7.13400 1.46600 45.34500
O  6.94200 1.46800 46.57300
O  7.78700 2.45400 44.59300
C  8.06100 3.68500 45.41400
H  0.37700 2.62700 43.45600
H  -1.74400 -2.86100 46.13600
H  4.17200 -4.69400 47.34600
H  5.24900 2.86400 44.05100
H  2.64000 3.51100 42.77700
H  3.80500 4.85000 44.65000
H  2.84100 3.80700 45.67200
H  2.12000 4.85300 44.44200
H  4.10000 2.78300 41.27500
H  4.68000 1.25900 41.76300
H  6.97900 2.32500 41.67100
H  6.23300 3.75300 42.29100
H  -2.78000 1.69600 42.51000
H  -1.78100 2.87600 43.21900
H  -3.14600 2.35400 44.12000
H  -3.90100 -2.21600 46.49300
H  -3.48400 -2.94000 44.91700
H  -5.06700 -2.21900 45.23700
H  -0.55000 -5.27900 46.22000
H  1.58800 -4.94200 48.19100
H  -1.88100 -5.12900 47.72400
H  -1.19400 -3.66000 48.41000
H  -0.54800 -5.33500 48.78400
H  2.87200 -6.12900 45.95400
H  1.20800 -6.54700 45.68700
H  1.74700 -8.21900 47.13300
H  2.09800 -7.17000 48.50900
H  3.37600 -7.62300 47.38900
H  8.01200 -3.66100 46.21500
H  6.63400 -4.77700 46.21800
H  6.96400 -3.88200 47.70500
H  7.07000 0.63900 43.39200
H  8.30800 4.54200 44.78700
H  8.94700 3.29200 45.91300
H  7.23200 3.93500 46.07600
Mg 49.21300 35.80200 27.82300
C  47.14700 34.03400 30.10300
C  49.20700 38.43700 30.12300
C  50.93600 37.71300 25.55200
C  48.43300 33.45500 25.35800
N  48.39900 36.08900 29.83100
C  47.71200 35.20900 30.57900
C  47.41300 35.77300 32.03100
C  47.70000 37.30400 31.83700
C  48.48100 37.29600 30.49400
C  46.44600 38.15900 31.73900
C  48.40200 35.24900 33.10100
C  47.85600 34.95700 34.51800
H  47.70900 36.15500 35.47600
N  50.08100 37.71600 27.92000
C  50.06200 38.60900 29.04300
C  50.93000 39.76000 28.72300
C  51.40400 39.57200 27.34700
C  50.85600 38.25800 26.89900
C  51.15700 40.89100 29.73800
C  52.22600 40.55200 26.54200
O  52.53800 40.38100 25.37400
C  52.59000 41.87800 27.03300
N  49.61900 35.61100 25.79800
C  50.39200 36.49700 25.09800
C  50.73900 36.03600 23.68300
C  50.12000 34.55400 23.70100
C  49.28700 34.53700 25.02900
C  49.98200 36.88600 22.51400
C  51.18100 33.37300 23.48400
C  50.70600 32.23100 22.54100
N  48.11600 34.08200 27.76000
C  47.86000 33.21500 26.64500
C  46.98200 32.10600 27.03100
C  46.73500 32.39200 28.37400
C  47.36800 33.62100 28.76300
C  46.36500 30.88500 26.22100
C  45.90500 31.91700 29.51300
O  45.22900 30.93100 29.65500
C  46.12200 33.02000 30.65800
C  46.69300 32.31100 31.85500
O  47.86400 31.99000 32.10500
O  45.65600 32.13100 32.73700
C  45.96100 31.47700 34.02900
H  49.20900 39.27700 30.82200
H  51.44100 38.22600 24.73100
H  48.35400 32.66800 24.60500
H  46.38400 35.60900 32.35200
H  48.26600 37.72000 32.67100
H  46.51800 38.87400 30.91900
H  46.38100 38.69900 32.68400
H  45.56100 37.53200 31.63100
H  49.29300 35.83200 33.33400
H  48.78600 34.29000 32.75100
H  48.52500 34.29200 35.06600
H  46.94300 34.36700 34.44200
H  51.02800 40.49800 30.74700
H  50.53400 41.72400 29.41300
H  52.17700 41.25500 29.60700
H  51.72100 42.41400 27.41400
H  52.96000 42.35100 26.12300
H  53.33400 41.71500 27.81300
H  51.82600 36.05500 23.61700
H  49.26200 34.52200 23.02900
H  49.46800 36.32700 21.73100
H  50.75300 37.49100 22.03700
H  49.30500 37.51800 23.08800
H  51.35800 32.88000 24.43900
H  52.16100 33.72100 23.15900
H  50.97400 31.24400 22.91800
H  51.16200 32.26100 21.55200
H  49.63300 32.30400 22.36600
H  45.34600 30.66200 26.53900
H  46.88600 29.97500 26.52000
H  46.36100 31.03200 25.14100
H  45.23300 33.55100 30.99900
H  45.34500 31.99100 34.76700
H  47.02400 31.43600 34.26700
H  45.65800 30.43100 34.00700

