158

Mg 45.06700 5.35500 48.19900
C  43.06000 8.39000 47.32400
C  42.42100 3.63900 47.58600
C  47.25500 2.85400 47.90700
C  47.81200 7.58400 48.35500
N  43.03200 5.98800 47.22300
C  42.37900 7.21500 47.12100
C  40.96300 7.07100 46.60500
C  40.73000 5.53000 46.95900
C  42.09000 5.04700 47.32900
C  39.61300 5.28000 48.04500
C  40.89200 7.36000 45.06400
C  39.64400 8.18600 44.59100
H  38.97600 7.62000 43.34300
N  44.86100 3.52800 47.87100
C  43.62600 2.99800 47.73000
C  43.81100 1.59700 47.60100
C  45.18900 1.30400 47.63000
C  45.87400 2.59100 47.83800
C  42.67300 0.58600 47.18500
C  45.82100 -0.06600 47.52400
O  45.08200 -1.00600 47.16500
C  47.26000 -0.48100 47.79100
N  47.20600 5.23900 48.29200
C  47.86300 4.08500 48.11300
C  49.34100 4.27800 48.11100
C  49.52700 5.74800 48.17800
C  48.08800 6.23900 48.24500
C  50.14100 3.39900 49.17100
C  50.30400 6.44400 46.93400
C  51.76100 6.13000 46.73900
N  45.37700 7.56200 48.00600
C  46.59200 8.27600 48.18000
C  46.34900 9.69000 48.01200
C  44.97900 9.75100 47.76900
C  44.42700 8.46500 47.71700
C  47.39400 10.75400 48.20800
C  43.83900 10.69600 47.60000
O  43.85200 11.94200 47.58300
C  42.56500 9.81400 47.29800
C  41.54100 10.08000 48.33900
O  41.30900 9.39800 49.31700
O  40.83100 11.17400 47.95200
C  39.71900 11.65800 48.79800
H  41.49600 3.06100 47.55000
H  47.92100 2.00500 47.73900
H  48.72400 8.14700 48.56500
H  40.26100 7.71500 47.13300
H  40.40000 5.04600 46.04000
H  39.06700 6.16500 48.37100
H  40.10100 4.91700 48.95000
H  38.85200 4.54500 47.78600
H  40.98600 6.36900 44.62000
H  41.82300 7.83800 44.75900
H  39.97200 9.19400 44.33800
H  38.85900 8.28500 45.34200
H  42.88800 0.12800 46.21900
H  41.63600 0.91900 47.13300
H  42.63800 -0.20400 47.93500
H  47.23400 -1.54400 48.02900
H  47.75800 0.11000 48.56000
H  47.80700 -0.37700 46.85400
H  49.77800 3.89600 47.18800
H  50.03300 6.10600 49.07500
H  49.52900 2.60600 49.60000
H  50.69400 3.93100 49.94500
H  50.80800 2.83200 48.52300
H  50.21300 7.52600 47.03300
H  49.78900 6.14100 46.02300
H  51.71200 5.50500 45.84700
H  52.13200 5.52000 47.56300
H  52.36600 7.03600 46.73700
H  46.81900 11.67900 48.25300
H  48.10800 10.87700 47.39400
H  47.95700 10.56500 49.12100
H  42.11900 9.94600 46.31200
H  39.61100 11.08800 49.72000
H  38.83700 11.63100 48.15700
H  39.90100 12.68600 49.11300
Mg -12.14900 37.69600 42.75400
C  -9.94000 35.15700 41.82300
C  -10.01700 39.88600 41.05100
C  -14.43600 40.12900 43.32200
C  -14.38200 35.22700 43.98100
N  -10.28100 37.51700 41.51900
C  -9.53600 36.35000 41.23000
C  -8.31300 36.58600 40.43100
C  -8.18600 38.16300 40.53000
C  -9.62300 38.57200 40.95700
C  -7.11900 38.61900 41.53800
C  -8.44100 36.09800 38.93300
C  -7.36600 35.01000 38.47500
H  -6.03400 35.35600 37.80200
N  -12.27600 39.68000 42.15600
C  -11.26500 40.43200 41.55400
C  -11.66200 41.85100 41.61400
C  -12.91300 41.93800 42.25000
C  -13.24200 40.57800 42.64000
C  -10.73700 42.87100 41.13200
C  -13.68800 43.19400 42.37100
O  -13.25800 44.23800 41.89400
C  -15.00600 43.27800 43.05000
N  -14.29600 37.59100 43.35200
C  -14.93700 38.82200 43.63000
C  -16.18700 38.59900 44.42400
C  -16.20700 37.04100 44.48100
C  -14.87900 36.55300 43.89600
C  -16.23100 39.36800 45.79600
C  -17.45600 36.38500 43.91300
C  -17.76500 34.94800 44.38600
N  -12.12500 35.64500 43.03300
C  -13.09700 34.80000 43.57200
C  -12.51600 33.49600 43.64100
C  -11.30600 33.53800 42.90700
C  -11.09100 34.90600 42.58100
C  -13.25100 32.23800 44.32000
C  -10.15300 32.85200 42.41700
O  -9.90900 31.63900 42.63400
C  -9.26700 33.78000 41.58100
C  -7.86700 33.65200 42.13400
O  -7.13800 32.80400 41.67000
O  -7.61000 34.72300 43.03200
C  -6.31900 34.58000 43.75400
H  -9.29700 40.56700 40.59500
H  -15.12700 40.81100 43.82200
H  -15.20500 34.57200 44.27700
H  -7.48700 36.12600 40.97300
H  -8.02700 38.55900 39.52700
H  -6.30600 37.89600 41.59900
H  -7.41000 38.77100 42.57800
H  -6.69900 39.50900 41.06900
H  -8.51200 36.91600 38.21600
H  -9.38300 35.55000 38.93900
H  -7.85900 34.26100 37.85400
H  -6.98800 34.52400 39.37400
H  -9.67700 42.67100 41.28500
H  -10.89800 43.74300 41.76700
H  -10.98600 42.94200 40.07300
H  -15.80400 42.79500 42.48800
H  -15.24700 44.30900 43.30700
H  -14.81200 42.78100 44.00100
H  -16.86800 38.97900 43.66200
H  -16.16700 36.74000 45.52800
H  -15.22500 39.51500 46.18800
H  -16.84200 38.85500 46.53900
H  -16.73600 40.32800 45.68900
H  -17.21900 36.44900 42.85200
H  -18.22900 37.08700 44.22800
H  -18.80900 34.83500 44.67800
H  -17.06500 34.80700 45.21100
H  -17.44100 34.37900 43.51500
H  -13.26100 31.34100 43.70100
H  -14.23000 32.48300 44.73200
H  -12.61200 31.86800 45.12200
H  -9.20600 33.44500 40.54600
H  -5.64300 35.43300 43.71200
H  -5.80500 33.67400 43.43300
H  -6.54400 34.38500 44.80300

