158

Mg 17.14400 51.99800 25.36600
C  18.94000 50.42000 27.98500
C  14.83800 53.09700 27.54500
C  15.29800 53.01200 22.77900
C  19.45800 50.37700 23.14800
N  16.92800 51.73800 27.56700
C  17.79200 51.06200 28.41400
C  17.43200 51.37700 29.89300
C  15.94600 52.09300 29.64000
C  15.89400 52.32900 28.16900
C  14.65600 51.36000 30.29000
C  18.43500 52.18800 30.67900
C  18.46000 52.04000 32.18900
H  17.37600 51.21900 32.86500
N  15.33200 52.97600 25.21200
C  14.56600 53.47500 26.17500
C  13.42400 54.19700 25.60100
C  13.51700 54.11000 24.15500
C  14.71800 53.31900 23.99100
C  12.31100 54.76600 26.56900
C  12.54600 54.74300 23.13300
O  12.66000 54.55800 21.94400
C  11.53800 55.65600 23.60900
N  17.44200 51.71300 23.33600
C  16.49400 52.27500 22.45600
C  16.86300 51.81900 20.98700
C  18.35500 51.28900 21.09800
C  18.45400 51.19500 22.58000
C  15.81900 50.71100 20.66900
C  19.44000 52.20000 20.50200
C  20.07600 53.33900 21.31000
N  18.90200 50.72500 25.46300
C  19.68900 50.16400 24.50000
C  20.80100 49.45200 25.08400
C  20.51300 49.48300 26.46600
C  19.33600 50.19700 26.60200
C  21.92900 48.72100 24.29300
C  20.96900 49.10100 27.82800
O  21.98200 48.50200 28.10300
C  19.99800 49.76800 28.77500
C  19.61500 48.80400 29.83400
O  18.80200 47.89100 29.74000
O  20.26500 49.06200 30.98300
C  19.79700 48.19600 32.10600
H  14.11100 53.45200 28.27800
H  14.72700 53.36600 21.91800
H  20.20700 49.92300 22.49700
H  17.34300 50.47500 30.49800
H  15.90400 53.05600 30.14900
H  14.18100 51.00900 29.37300
H  13.98800 51.99200 30.87500
H  15.04800 50.58200 30.94400
H  18.20000 53.23400 30.48300
H  19.35600 52.06700 30.10800
H  18.47700 53.03000 32.64400
H  19.39200 51.53800 32.44800
H  12.58200 55.78200 26.85600
H  12.35800 54.21800 27.50900
H  11.34300 54.65500 26.07800
H  10.78500 55.11900 24.18500
H  11.10600 56.16200 22.74600
H  12.03700 56.36500 24.26900
H  16.79200 52.69200 20.33800
H  18.33800 50.29800 20.64600
H  15.24000 50.96000 19.77900
H  15.14500 50.39600 21.46500
H  16.29500 49.78400 20.34900
H  19.11100 52.64200 19.56100
H  20.13100 51.47900 20.06500
H  21.10000 53.10000 21.59800
H  19.50200 53.61400 22.19500
H  20.20900 54.24700 20.72100
H  22.16200 49.15600 23.32100
H  21.74800 47.65900 24.12800
H  22.76900 48.94800 24.95000
H  20.59400 50.60100 29.14900
H  19.86000 48.80000 33.01200
H  20.40000 47.28800 32.11700
H  18.77900 47.81300 32.03300
Mg -12.04200 37.94000 42.79800
C  -10.55300 35.05200 41.90500
C  -9.72700 39.74400 41.22700
C  -14.12300 40.56100 43.03100
C  -14.72400 35.95600 44.21100
N  -10.28000 37.43900 41.84800
C  -9.89500 36.19000 41.38400
C  -8.75100 36.19500 40.29300
C  -8.32000 37.68400 40.45700
C  -9.47400 38.37500 41.24400
C  -6.89600 37.86900 41.15500
C  -9.36300 36.00600 38.90300
C  -8.33100 35.55500 37.83700
H  -7.73500 36.61200 36.91300
N  -11.97300 39.88700 42.08700
C  -10.86000 40.50700 41.57100
C  -11.12900 41.84000 41.37200
C  -12.46900 42.15700 41.80800
C  -12.91300 40.82500 42.37900
C  -10.20400 42.66000 40.64300
C  -13.30700 43.45300 41.63700
O  -12.75100 44.34900 41.08500
C  -14.69800 43.60300 42.03500
N  -14.19200 38.26700 43.56900
C  -14.78400 39.43000 43.58800
C  -16.03100 39.44500 44.48900
C  -16.39800 37.88100 44.55000
C  -15.00400 37.35100 44.14400
C  -15.84700 40.02100 45.86900
C  -17.65600 37.58900 43.59800
C  -18.30000 36.30800 43.84100
N  -12.49100 35.90900 43.13800
C  -13.55000 35.26700 43.78300
C  -13.20300 33.83500 43.89800
C  -11.99000 33.66900 43.19600
C  -11.76000 35.01200 42.66300
C  -13.96200 32.71200 44.62900
C  -10.96600 32.79400 42.78700
O  -10.80800 31.62100 42.93400
C  -10.09200 33.61900 41.72700
C  -8.61300 33.39400 42.03400
O  -7.85400 32.76000 41.32000
O  -8.15500 34.29800 42.97500
C  -6.76200 34.25100 43.37600
H  -8.91200 40.30700 40.76800
H  -14.67900 41.46400 43.29000
H  -15.50300 35.39900 44.73600
H  -8.00400 35.46700 40.61000
H  -8.25900 38.12200 39.46000
H  -6.96600 37.76000 42.23700
H  -6.49800 38.85600 40.91700
H  -6.16700 37.17900 40.73100
H  -9.82200 36.93200 38.55900
H  -10.20500 35.31800 38.97200
H  -8.74500 34.64200 37.41100
H  -7.43500 35.25000 38.37900
H  -9.19100 42.25900 40.63600
H  -10.19500 43.55000 41.27300
H  -10.57700 43.09200 39.71500
H  -15.25300 42.75900 41.62600
H  -15.12700 44.56700 41.76300
H  -14.57000 43.59600 43.11800
H  -16.85000 40.03700 44.08100
H  -16.65600 37.58700 45.56700
H  -16.57700 39.81000 46.65000
H  -15.95500 41.10500 45.83500
H  -14.87800 39.72300 46.27000
H  -17.31400 37.61000 42.56300
H  -18.34200 38.43300 43.53100
H  -19.33300 36.32500 43.49400
H  -18.24100 35.98300 44.88000
H  -17.85700 35.48600 43.27900
H  -14.62000 32.17100 43.94800
H  -14.61700 33.13400 45.39200
H  -13.43800 31.91400 45.15400
H  -10.42300 33.27000 40.75000
H  -6.17800 34.88900 42.71300
H  -6.39500 33.22500 43.39400
H  -6.58500 34.72500 44.34100

