158

Mg 47.98800 15.99600 28.78600
C  46.00700 15.05500 31.65800
C  49.95700 17.84800 30.87200
C  49.77600 16.97700 26.09400
C  45.55300 14.71400 26.72800
N  47.78300 16.56800 31.00900
C  46.99500 15.94300 32.01200
C  47.52500 16.30100 33.42200
C  48.61100 17.37900 33.09100
C  48.80100 17.38600 31.53700
C  48.34300 18.75400 33.80200
C  48.08400 15.10500 34.11900
C  48.10700 15.14300 35.60100
H  47.83400 16.49800 36.29100
N  49.76100 17.07000 28.57400
C  50.47200 17.71500 29.53500
C  51.76300 18.14500 29.01300
C  51.70400 17.89900 27.59800
C  50.35900 17.35200 27.37200
C  52.74100 18.92700 29.88600
C  52.67300 18.21300 26.60500
O  52.43400 17.90400 25.43500
C  53.96500 18.89200 27.02900
N  47.68400 15.98000 26.65600
C  48.57100 16.43100 25.76500
C  47.98000 16.37300 24.30100
C  46.62700 15.59700 24.50900
C  46.62000 15.39000 26.04900
C  47.95300 17.76800 23.59600
C  46.45700 14.25400 23.70300
C  47.11800 13.08900 24.43900
N  46.06200 15.10300 29.04000
C  45.29500 14.53800 28.12300
C  44.21200 13.82300 28.80400
C  44.46300 13.98900 30.17200
C  45.62600 14.79100 30.32300
C  43.07400 13.13500 28.15200
C  43.95500 13.64000 31.52300
O  42.97400 12.99200 31.78700
C  44.93200 14.39700 32.57000
C  44.14400 15.34500 33.32600
O  43.45900 16.22600 32.81100
O  44.25200 15.16700 34.68600
C  43.41000 16.02500 35.54900
H  50.65300 18.28000 31.59400
H  50.41300 17.03400 25.20900
H  45.00600 14.06300 26.04300
H  46.63600 16.69500 33.91400
H  49.58900 17.11400 33.49200
H  47.69100 18.53100 34.64700
H  47.74100 19.45000 33.21700
H  49.27300 19.19900 34.15600
H  49.11700 14.99800 33.78700
H  47.63000 14.22500 33.66400
H  48.99900 14.66900 36.01100
H  47.28000 14.46400 35.80600
H  53.13900 19.71100 29.24200
H  53.53000 18.27700 30.26500
H  52.19500 19.34500 30.73200
H  54.36700 18.60200 28.00000
H  53.61300 19.92100 27.09100
H  54.65000 18.77400 26.18900
H  48.58900 15.75900 23.63600
H  45.79100 16.25400 24.26900
H  48.44100 18.51400 24.22300
H  46.92200 18.08000 23.42800
H  48.37800 17.57000 22.61200
H  46.90800 14.27300 22.71100
H  45.37900 14.09300 23.70200
H  47.49400 12.38400 23.69900
H  46.39100 12.70000 25.15200
H  47.95100 13.51500 25.00000
H  42.16300 13.56400 28.57100
H  43.09600 12.06500 28.36000
H  43.02300 13.26500 27.07100
H  45.32300 13.61200 33.21700
H  43.16000 16.95600 35.04200
H  44.01600 16.33500 36.40100
H  42.53600 15.49800 35.93300
Mg 5.72700 53.88500 40.08100
C  5.21500 50.43600 40.17500
C  9.01100 53.17700 39.29000
C  6.10900 57.11000 39.11100
C  2.18200 54.26400 39.98500
N  7.03800 52.01000 39.86700
C  6.57200 50.74100 39.97600
C  7.71200 49.76300 39.75600
C  8.96300 50.74600 39.77900
C  8.29600 52.04500 39.61400
C  9.97700 50.73900 40.97500
C  7.63700 48.98500 38.46700
C  6.98400 49.72600 37.25200
H  7.87900 50.41000 36.28600
N  7.36100 55.01300 39.48100
C  8.62500 54.57600 39.27200
C  9.54300 55.69500 38.90300
C  8.71500 56.86600 38.91000
C  7.34700 56.33800 39.13300
C  11.06100 55.51000 38.63700
C  9.15300 58.35600 38.75300
O  10.35400 58.64300 38.58400
C  8.16600 59.51100 38.80900
N  4.34000 55.44900 39.49000
C  4.75500 56.74000 39.26900
C  3.55000 57.70600 39.33000
C  2.30100 56.75700 39.46300
C  2.95300 55.36400 39.60800
C  3.73200 58.82200 40.43700
C  1.43000 56.79500 38.20300
C  0.79000 58.10700 37.83300
N  4.00800 52.66600 40.31600
C  2.63100 52.96200 40.24200
C  1.91100 51.81500 40.64500
C  2.88900 50.80600 40.65000
C  4.12400 51.35700 40.31800
C  0.39900 51.65100 41.03100
C  3.02800 49.45000 40.83900
O  2.22800 48.57700 41.22200
C  4.50600 49.10500 40.50300
C  4.48400 48.19300 39.38100
O  3.89500 48.43300 38.35400
O  5.18200 47.05800 39.66800
C  5.25700 46.08500 38.63700
H  10.05500 52.90200 39.12700
H  6.19000 58.18000 38.90500
H  1.09000 54.26700 39.97600
H  7.67400 49.02400 40.55600
H  9.62900 50.56300 38.93500
H  9.71800 51.52100 41.68900
H  11.01600 50.85100 40.66500
H  9.85800 49.77200 41.46600
H  7.27500 47.95700 38.48000
H  8.68400 48.82400 38.21100
H  6.37800 50.53100 37.66800
H  6.23100 49.09000 36.78500
H  11.61300 55.34200 39.56100
H  11.56200 56.27000 38.03600
H  11.22000 54.57200 38.10600
H  7.57600 59.44700 37.89400
H  8.61500 60.49200 38.65100
H  7.78500 59.48600 39.83000
H  3.56500 58.16700 38.34300
H  1.77400 56.99800 40.38600
H  4.67400 58.56100 40.91800
H  2.90500 58.73800 41.14300
H  3.81600 59.84000 40.05700
H  0.69900 55.99700 38.33500
H  2.02000 56.48600 37.33900
H  -0.06300 57.77800 37.23900
H  1.31400 58.66500 37.05700
H  0.60800 58.74600 38.69700
H  0.14100 50.67900 41.45100
H  -0.09600 51.71300 40.06200
H  0.00600 52.48800 41.61000
H  4.99300 48.56000 41.31100
H  5.51900 45.18200 39.18800
H  6.00200 46.34800 37.88600
H  4.25300 46.00100 38.21900

