158

Mg 49.52300 45.48700 42.22500
C  46.27900 46.23900 41.07800
C  49.24600 42.49800 40.68400
C  52.86900 45.28500 42.47700
C  49.69600 48.66300 43.53400
N  47.89600 44.50100 41.03500
C  46.66000 44.98300 40.66100
C  45.86200 43.92900 39.84300
C  46.69100 42.69400 40.16700
C  48.03900 43.24800 40.60800
C  46.14100 41.65900 41.22900
C  45.70500 44.38900 38.27400
C  44.35400 44.10400 37.62500
H  44.34400 43.14600 36.42400
N  50.83900 44.06400 41.69000
C  50.54700 42.87700 41.10800
C  51.74400 42.08200 41.08700
C  52.84000 42.87500 41.54900
C  52.20200 44.17200 41.96600
C  51.71600 40.64000 40.61600
C  54.28500 42.36400 41.70400
O  54.63200 41.16300 41.48900
C  55.44200 43.24900 42.12100
N  51.09600 46.85600 42.90100
C  52.38000 46.54400 42.87100
C  53.24900 47.65700 43.35000
C  52.23700 48.68700 43.84400
C  50.92200 48.06600 43.35500
C  54.32800 47.21600 44.36400
C  52.61000 50.12200 43.38000
C  52.84600 51.27400 44.38900
N  48.22600 47.05300 42.51600
C  48.41700 48.27000 43.09400
C  47.17700 49.01200 43.13100
C  46.31300 48.24400 42.31000
C  46.99200 47.05000 41.98500
C  46.88300 50.42400 43.70500
C  44.98600 48.18200 41.75200
O  44.04200 48.90700 41.80800
C  44.94900 46.90100 40.81900
C  43.75200 46.02900 41.21000
O  42.99100 45.47300 40.41100
O  43.79700 45.71100 42.56100
C  42.89300 44.65700 43.04200
H  49.22400 41.47700 40.29500
H  53.95500 45.18800 42.54200
H  49.67300 49.72400 43.79100
H  44.87300 43.71000 40.24500
H  46.72100 42.12200 39.23900
H  45.99500 40.63900 40.87400
H  45.14000 41.96000 41.53700
H  46.74800 41.53000 42.12500
H  46.52900 43.89000 37.76300
H  45.91000 45.45000 38.12700
H  43.94700 45.06400 37.30800
H  43.67700 43.58700 38.30600
H  51.72100 40.73900 39.53000
H  50.86700 40.13600 41.07600
H  52.58600 40.09600 40.98400
H  55.28700 43.59400 43.14400
H  55.47100 44.10400 41.44600
H  56.36800 42.67700 42.18400
H  53.61300 48.04400 42.39800
H  52.20100 48.69400 44.93400
H  54.31000 46.13500 44.50100
H  54.10200 47.57100 45.36900
H  55.25100 47.69500 44.03800
H  51.77700 50.49500 42.78300
H  53.56300 50.07000 42.85500
H  52.07800 52.04700 44.37300
H  53.80200 51.79900 44.37300
H  52.89900 50.81600 45.37700
H  47.78600 50.68700 44.25500
H  45.99000 50.28700 44.31500
H  46.66700 51.16800 42.93700
H  44.76700 47.13000 39.76900
H  42.08900 45.25700 43.46700
H  43.45500 44.07900 43.77600
H  42.46500 43.94700 42.33400
Mg 48.25900 34.16800 26.13900
C  46.75800 32.94500 29.02900
C  48.90300 37.18400 27.89900
C  49.89100 35.31800 23.43400
C  47.37100 31.25500 24.43600
N  47.93500 34.90400 28.27900
C  47.34600 34.20700 29.27400
C  47.57200 34.97500 30.63300
C  47.98700 36.43800 30.12700
C  48.28400 36.17500 28.70900
C  46.86200 37.48800 30.30300
C  48.70600 34.48300 31.56000
C  48.68200 34.78200 33.03800
H  47.37200 35.32800 33.62000
N  49.13800 36.03900 25.69500
C  49.32100 37.14200 26.51200
C  49.98800 38.25500 25.84500
C  50.23700 37.75100 24.53700
C  49.74700 36.29200 24.45100
C  50.32400 39.53800 26.52000
C  50.76500 38.51200 23.36900
O  50.78500 38.06600 22.25700
C  51.31100 39.87200 23.51700
N  48.39200 33.43700 24.06100
C  49.33400 34.02600 23.22000
C  49.48900 33.21100 21.98700
C  48.59400 31.89800 22.26600
C  48.03200 32.22700 23.66700
C  49.20100 33.94100 20.63100
C  49.23100 30.49800 22.04100
C  48.91100 29.72000 20.75100
N  47.25000 32.44300 26.61700
C  46.95200 31.39300 25.81000
C  46.11900 30.42300 26.55200
C  46.00400 31.00700 27.79300
C  46.68900 32.22800 27.82900
C  45.62400 29.11400 26.00500
C  45.44000 30.83300 29.02900
O  44.67700 29.97300 29.49000
C  45.98800 31.97900 29.98000
C  46.83500 31.33700 30.99000
O  47.93800 30.91700 30.70400
O  46.23000 31.35200 32.25100
C  47.00200 30.63500 33.24100
H  49.09900 38.09800 28.46300
H  50.54700 35.60200 22.60800
H  46.96800 30.35200 23.97400
H  46.61300 34.97500 31.15100
H  48.87400 36.78700 30.65500
H  46.57500 37.99400 29.38100
H  47.19000 38.32400 30.92100
H  45.95100 37.06400 30.72600
H  49.65500 34.88800 31.21000
H  48.92100 33.42800 31.39500
H  49.51600 35.45700 33.23100
H  48.88300 33.78900 33.43900
H  50.46800 39.53800 27.60000
H  49.71100 40.37300 26.18000
H  51.33900 39.86300 26.28900
H  50.56700 40.60200 23.83600
H  51.91200 40.12500 22.64300
H  52.09900 39.86900 24.27100
H  50.55300 32.99900 21.88400
H  47.72400 31.95100 21.61100
H  48.61400 33.22400 20.05500
H  50.11500 34.11500 20.06200
H  48.70600 34.89100 20.83200
H  49.03100 29.77100 22.82800
H  50.32100 30.50900 22.04900
H  48.38300 30.49900 20.20200
H  48.30900 28.85400 21.02700
H  49.86100 29.44100 20.29300
H  46.35900 28.33600 26.21000
H  45.39900 29.10600 24.93800
H  44.64500 28.96600 26.45900
H  45.18200 32.48100 30.51500
H  46.68000 30.91700 34.24400
H  48.02800 30.95700 33.06700
H  46.83200 29.57900 33.03000

