158

Mg 54.35800 24.36700 45.10800
C  51.54100 26.28800 43.96100
C  52.68500 21.50500 43.97700
C  57.17800 22.73100 45.35400
C  55.86600 27.47100 45.81400
N  52.46700 23.97700 43.81400
C  51.46900 24.91900 43.64200
C  50.19400 24.26100 43.03300
C  50.42400 22.79100 43.50400
C  51.94600 22.74300 43.72200
C  49.62200 22.38600 44.77700
C  50.11600 24.36800 41.44300
C  48.75400 24.14200 40.87700
H  48.59300 23.10100 39.73600
N  54.83200 22.37800 44.76600
C  54.02400 21.30800 44.40100
C  54.77300 20.04700 44.62800
C  56.07700 20.37200 45.00200
C  56.04800 21.89200 45.08700
C  54.17500 18.66500 44.53400
C  57.19400 19.39400 45.39900
O  57.08100 18.13000 45.41600
C  58.60900 19.85200 45.68700
N  56.29100 25.03300 45.30800
C  57.28100 24.10800 45.49700
C  58.62200 24.82800 45.86200
C  58.19800 26.33000 45.58800
C  56.65700 26.30400 45.70000
C  59.05900 24.69900 47.35500
C  58.60000 26.77000 44.11900
C  59.26400 28.10400 43.88400
N  53.82600 26.44700 45.09500
C  54.50100 27.52800 45.53400
C  53.62700 28.60000 45.62700
C  52.40000 28.26700 45.01100
C  52.65400 26.89900 44.66300
C  53.96700 29.91600 46.16700
C  51.09200 28.64500 44.54500
O  50.38900 29.62900 44.63700
C  50.50400 27.37400 43.89500
C  50.21800 27.72200 42.50100
O  51.10500 28.02300 41.64400
O  48.90800 27.59800 42.22300
C  48.51200 27.90700 40.84200
H  52.17400 20.54100 44.00300
H  58.09600 22.15400 45.48800
H  56.41900 28.38900 46.02200
H  49.39000 24.74600 43.58500
H  50.24900 22.06400 42.71200
H  48.78500 21.73300 44.53000
H  49.21000 23.25200 45.29400
H  50.30200 21.93000 45.49700
H  50.56600 23.49200 40.97600
H  50.55500 25.29900 41.08300
H  48.37500 25.08100 40.47300
H  48.12900 23.79000 41.69700
H  54.88900 17.84300 44.49400
H  53.45100 18.62100 43.72000
H  53.59700 18.38500 45.41400
H  59.09200 20.27800 44.80800
H  59.16000 18.98800 46.05800
H  58.53100 20.53700 46.53200
H  59.41400 24.48400 45.19700
H  58.62000 27.01600 46.32300
H  60.14500 24.67700 47.43900
H  58.61900 23.79700 47.77900
H  58.72400 25.52700 47.98000
H  57.70400 26.61500 43.51800
H  59.22500 26.03500 43.61200
H  58.66600 28.70400 43.19800
H  60.25100 27.97100 43.44200
H  59.47200 28.61600 44.82400
H  54.55700 29.81000 47.07800
H  52.97700 30.33400 46.35200
H  54.44600 30.52700 45.40300
H  49.62500 27.03800 44.44500
H  47.94300 28.83700 40.82500
H  47.74900 27.17000 40.59100
H  49.25600 28.06000 40.06000
Mg 46.73000 15.60400 28.72800
C  44.69400 15.19000 31.64000
C  48.78900 17.37400 30.49800
C  48.24500 16.24200 25.82600
C  44.05600 14.12900 26.82800
N  46.70200 16.20600 30.82800
C  45.86800 15.94500 31.82400
C  46.37000 16.43700 33.15300
C  47.52500 17.36300 32.68700
C  47.66600 17.03100 31.21100
C  47.28900 18.84600 32.87400
C  46.80200 15.29400 34.03700
C  46.50700 15.41700 35.52700
H  46.43100 16.81700 36.11600
N  48.35800 16.58800 28.20300
C  49.13000 17.19600 29.13400
C  50.17700 17.90600 28.42800
C  50.09400 17.55300 27.02700
C  48.87500 16.77200 26.96800
C  51.19300 18.72900 29.14000
C  50.91300 17.97800 25.81100
O  50.56400 17.70200 24.67300
C  52.16100 18.71900 25.98800
N  46.21300 15.13400 26.59200
C  47.11700 15.52600 25.58000
C  46.57200 15.04700 24.19300
C  45.17600 14.49100 24.58200
C  45.13800 14.54200 26.07300
C  46.55400 16.16100 23.05800
C  44.91100 13.02400 24.15200
C  45.92500 11.94000 24.57800
N  44.79500 14.78500 29.16600
C  43.85000 14.20300 28.24100
C  42.75500 13.67800 29.06000
C  43.07100 14.04100 30.36900
C  44.31700 14.69500 30.39600
C  41.51000 12.87700 28.65700
C  42.59700 13.93200 31.76400
O  41.53600 13.39800 32.22500
C  43.62800 14.72300 32.64300
C  42.96700 15.95800 33.20700
O  42.32900 16.81400 32.57800
O  42.96800 15.84600 34.59400
C  42.39100 16.88100 35.44000
H  49.45900 18.01100 31.07800
H  48.80400 16.44000 24.90900
H  43.28600 13.54900 26.31400
H  45.59700 17.04200 33.62700
H  48.52200 17.13000 33.06000
H  48.03200 19.17700 33.60000
H  46.34300 19.14000 33.32800
H  47.40900 19.29900 31.89000
H  47.85800 15.08200 33.86900
H  46.24600 14.41500 33.71000
H  47.36000 14.99300 36.05500
H  45.63100 14.82600 35.79700
H  51.27400 19.72300 28.70000
H  52.13100 18.17800 29.06700
H  51.04200 18.87600 30.21000
H  51.81200 19.63900 26.45800
H  52.72100 18.63700 25.05600
H  52.83000 18.21100 26.68300
H  47.27300 14.32200 23.77800
H  44.40000 15.15000 24.19400
H  45.53900 16.47800 22.81600
H  47.13200 15.95000 22.15800
H  46.95300 17.07000 23.50700
H  44.96800 13.08600 23.06500
H  43.88500 12.73800 24.38500
H  45.52900 11.12400 25.18200
H  46.76600 12.31600 25.16100
H  46.45300 11.50600 23.72900
H  41.43000 12.89200 27.57000
H  40.67000 13.34400 29.17200
H  41.73300 11.88800 29.05800
H  44.04600 14.16200 33.47900
H  43.04200 17.75500 35.46000
H  42.27600 16.51300 36.45900
H  41.48300 17.26900 34.97900

