158

Mg 35.84200 1.50000 29.46600
C  33.64500 2.50200 32.07200
C  38.39600 1.67800 31.73200
C  37.88500 0.86300 26.91800
C  33.06900 1.63500 27.26200
N  36.00300 2.08700 31.60700
C  34.95500 2.40900 32.52600
C  35.43400 2.43600 33.89200
C  36.99900 2.29100 33.75000
C  37.21500 2.06700 32.28500
C  37.75500 3.55900 34.32500
C  34.89400 1.17500 34.65400
C  34.54100 1.47900 36.13700
H  35.25500 2.60100 36.82300
N  37.82100 1.25000 29.36300
C  38.73200 1.26400 30.44000
C  40.08000 0.98700 29.90000
C  40.00200 0.94100 28.50300
C  38.54100 1.03200 28.17200
C  41.35600 0.65300 30.81400
C  41.02400 0.63700 27.46700
O  40.81800 0.52600 26.28500
C  42.50300 0.64100 27.95600
N  35.49000 1.08000 27.35700
C  36.54100 0.89400 26.50800
C  36.05700 0.86100 25.04000
C  34.54700 0.97300 25.17500
C  34.28600 1.24500 26.66900
C  36.65600 1.99100 24.11700
C  33.73200 -0.21400 24.61000
C  32.66100 0.04800 23.56100
N  33.79500 1.89900 29.60600
C  32.80500 1.95700 28.61900
C  31.51300 2.36100 29.17900
C  31.83000 2.49700 30.51800
C  33.17200 2.26900 30.73000
C  30.15400 2.62700 28.53900
C  31.14700 2.80200 31.81000
O  29.96600 2.92900 32.06000
C  32.32900 2.84300 32.81200
C  32.30400 4.13200 33.51200
O  32.88800 5.12800 33.19700
O  31.60100 4.00100 34.75300
C  31.33200 5.14700 35.63300
H  39.18100 1.93100 32.44800
H  38.52100 0.82900 26.03000
H  32.24400 1.63100 26.54600
H  35.14000 3.40000 34.30700
H  37.34600 1.37800 34.23300
H  38.35600 3.18600 35.15500
H  37.09900 4.41100 34.50500
H  38.49000 4.02600 33.67100
H  35.45800 0.25400 34.50400
H  33.89600 0.99600 34.25500
H  34.62300 0.54300 36.69000
H  33.51600 1.83100 36.25900
H  42.11600 1.40100 30.58800
H  41.78200 -0.33100 30.61800
H  41.12900 0.63100 31.88000
H  42.61200 1.53100 28.57600
H  43.17600 0.59800 27.09900
H  42.59900 -0.28000 28.53000
H  36.54300 0.02500 24.53600
H  34.18900 1.89700 24.72000
H  37.13800 2.67300 24.81900
H  35.84100 2.47300 23.57600
H  37.36700 1.55700 23.41400
H  33.46800 -0.91000 25.40600
H  34.47900 -0.82700 24.10500
H  33.15300 -0.34200 22.67000
H  32.44300 1.08300 23.29700
H  31.78000 -0.56200 23.76200
H  29.68500 1.67600 28.28800
H  30.24600 3.24400 27.64500
H  29.48100 3.15800 29.21200
H  32.04700 2.08200 33.53900
H  31.69000 4.91600 36.63600
H  30.32800 5.57200 35.62100
H  31.89300 5.97800 35.20600
Mg 46.89700 16.24900 27.89000
C  44.77100 16.24200 30.69400
C  49.01200 18.37700 29.71200
C  48.39400 17.40100 24.98800
C  44.35100 15.04000 25.99600
N  46.81000 17.33900 29.87000
C  45.98300 17.02700 30.89100
C  46.44500 17.56800 32.21700
C  47.71900 18.39700 31.87800
C  47.88900 18.01800 30.40300
C  47.68100 19.87100 32.19400
C  46.87300 16.40600 33.16200
C  46.64700 16.57500 34.67400
H  46.29500 17.97200 35.19300
N  48.56300 17.61300 27.38900
C  49.33000 18.26600 28.34700
C  50.52600 18.71700 27.69800
C  50.42100 18.43200 26.28200
C  49.03500 17.84900 26.15900
C  51.66300 19.27300 28.43600
C  51.39000 18.77700 25.10400
O  51.20000 18.49700 23.92000
C  52.77400 19.33200 25.38900
N  46.50500 16.26200 25.78600
C  47.23600 16.68200 24.81600
C  46.84700 16.14500 23.43600
C  45.57800 15.34300 23.77700
C  45.42300 15.62100 25.32100
C  46.62700 17.29700 22.43500
C  45.70600 13.73600 23.43800
C  44.71600 13.21600 22.34700
N  44.99900 15.56500 28.24800
C  44.15000 14.98400 27.37000
C  42.92800 14.66100 28.09900
C  43.11800 15.09200 29.39900
C  44.36700 15.69100 29.45500
C  41.59800 14.08200 27.60100
C  42.55400 15.19200 30.82300
O  41.45800 14.84600 31.17400
C  43.63300 15.98100 31.68300
C  42.97900 17.17400 32.32700
O  42.73200 18.18800 31.69600
O  42.57500 17.00000 33.63200
C  41.97600 18.04900 34.42000
H  49.71900 18.91300 30.34800
H  48.90400 17.65200 24.05500
H  43.55300 14.61900 25.38000
H  45.70100 18.26700 32.59900
H  48.64400 18.03300 32.32600
H  47.83000 20.49400 31.31200
H  48.48900 20.15600 32.86700
H  46.69600 20.10700 32.59500
H  47.91900 16.14600 33.00200
H  46.31300 15.54300 32.80200
H  47.61300 16.27700 35.08300
H  45.93500 15.85200 35.07200
H  51.62100 19.57900 29.48100
H  51.82200 20.19400 27.87400
H  52.52000 18.64800 28.18400
H  53.32600 19.23800 24.45400
H  53.30400 18.78200 26.16600
H  52.71900 20.40200 25.59400
H  47.64400 15.47300 23.11700
H  44.69800 15.72400 23.25900
H  46.72300 18.20400 23.03200
H  45.65100 17.27600 21.95100
H  47.35000 17.32900 21.62000
H  45.38700 13.26700 24.36900
H  46.77200 13.52400 23.35200
H  45.08600 12.24500 22.01900
H  44.66800 13.90300 21.50200
H  43.71900 13.01400 22.73700
H  41.29200 14.83300 26.87200
H  40.98900 13.89300 28.48500
H  41.81700 13.11100 27.15700
H  43.96800 15.33300 32.49400
H  42.03600 17.88400 35.49500
H  40.91000 18.16600 34.22500
H  42.52900 18.97100 34.23900

