158

Mg 47.21900 16.87300 27.74200
C  45.37200 16.49200 30.64600
C  49.31400 19.01500 29.44800
C  48.42900 18.05800 24.73300
C  44.51300 15.42900 25.97400
N  47.28100 17.73300 29.76900
C  46.54400 17.25100 30.83300
C  47.08400 17.73000 32.18300
C  48.19300 18.74000 31.78800
C  48.28200 18.53700 30.24200
C  47.97000 20.07600 32.46700
C  47.51400 16.52600 33.06700
C  47.45800 16.67900 34.63100
H  46.67500 17.88300 35.11900
N  48.73400 18.17400 27.18200
C  49.58400 18.91900 28.04500
C  50.62900 19.56600 27.26000
C  50.38900 19.29600 25.85600
C  49.12400 18.52800 25.89900
C  51.70400 20.47500 27.99500
C  51.13300 19.55300 24.54200
O  50.80900 19.23400 23.43600
C  52.48000 20.20300 24.60000
N  46.52800 16.75700 25.64100
C  47.29500 17.27300 24.60900
C  46.60400 16.88200 23.20800
C  45.63900 15.80600 23.70400
C  45.49700 16.02400 25.19500
C  45.91700 18.16800 22.66500
C  45.96400 14.37200 23.32600
C  45.08500 13.61500 22.25900
N  45.44400 15.95400 28.18600
C  44.39900 15.38000 27.39900
C  43.30400 14.99500 28.19700
C  43.63700 15.35800 29.47300
C  44.91500 15.99800 29.44000
C  42.02500 14.43400 27.71100
C  43.20900 15.31200 30.88400
O  42.21300 14.87700 31.36000
C  44.37500 16.07700 31.72800
C  43.66100 17.12600 32.47800
O  43.68000 18.30400 32.06200
O  43.08900 16.61400 33.65200
C  42.18900 17.56500 34.26800
H  49.93200 19.64100 30.09500
H  48.75200 18.31300 23.72200
H  43.72300 14.95300 25.39000
H  46.25600 18.25100 32.66400
H  49.17500 18.37000 32.08400
H  47.20000 20.14200 33.23600
H  47.65100 20.82300 31.74000
H  48.95300 20.40200 32.80600
H  48.59200 16.51300 32.90900
H  47.09900 15.58000 32.72000
H  48.45400 16.86700 35.03300
H  47.00800 15.80400 35.09800
H  52.66900 19.97600 28.08600
H  51.33700 20.68500 28.99900
H  51.93000 21.34800 27.38300
H  53.18800 19.80400 23.87300
H  53.02500 20.13600 25.54200
H  52.39800 21.25900 24.34200
H  47.40900 16.49700 22.58200
H  44.63700 15.92100 23.29100
H  46.67600 18.43900 21.93200
H  45.82000 19.03100 23.32400
H  45.00300 17.88900 22.14100
H  46.06400 13.78100 24.23600
H  46.94100 14.51800 22.86600
H  44.82200 12.64500 22.68100
H  45.71700 13.54000 21.37400
H  44.22000 14.21300 21.97500
H  41.71300 14.92500 26.78900
H  41.21400 14.60200 28.41900
H  42.18600 13.37100 27.53000
H  44.73000 15.36400 32.47200
H  42.72600 18.46500 34.56900
H  41.81400 17.07000 35.16400
H  41.35500 17.88000 33.64100
Mg 27.35000 50.16600 27.02600
C  25.11500 51.07900 29.65500
C  29.70500 49.42600 29.36900
C  29.57300 49.63700 24.55700
C  24.99500 51.23200 24.75500
N  27.33000 50.28800 29.24200
C  26.33600 50.65800 30.11100
C  26.73600 50.38100 31.60600
C  28.27400 49.89300 31.41200
C  28.46400 49.81700 29.90200
C  29.21000 50.93300 32.07100
C  25.86100 49.29100 32.22300
C  25.09100 49.67100 33.51500
H  25.25500 48.77100 34.70000
N  29.36800 49.53800 26.95400
C  30.15400 49.22500 28.00300
C  31.48900 48.68700 27.55100
C  31.49300 49.04600 26.17700
C  30.09400 49.40700 25.82200
C  32.59700 48.16500 28.42900
C  32.62900 49.11700 25.19700
O  32.52300 49.65000 24.10000
C  33.98700 48.67200 25.65500
N  27.30600 50.43900 24.94500
C  28.26900 49.98800 24.08900
C  27.80500 50.07200 22.60900
C  26.38000 50.71800 22.73900
C  26.22800 50.76600 24.21300
C  28.88500 50.70000 21.61500
C  25.20600 50.00500 22.06400
C  24.28500 50.72500 21.07900
N  25.37200 50.92800 27.10800
C  24.58900 51.39800 26.11900
C  23.38700 51.89000 26.61200
C  23.56900 51.82700 28.02000
C  24.78500 51.21300 28.27400
C  22.19800 52.53300 25.79100
C  22.96900 52.11700 29.27700
O  21.96200 52.69700 29.61500
C  23.92900 51.56200 30.43400
C  24.08600 52.77300 31.30000
O  24.36400 53.85100 30.90100
O  23.70100 52.39000 32.54300
C  23.87200 53.36600 33.61300
H  30.36600 49.08800 30.17000
H  30.26700 49.47900 23.72900
H  24.23600 51.35600 23.98000
H  26.68300 51.26000 32.24800
H  28.38200 48.90500 31.86000
H  29.81200 50.54900 32.89500
H  28.67500 51.74300 32.56600
H  29.83900 51.42600 31.33000
H  26.36600 48.35800 32.47500
H  25.07100 49.00200 31.53000
H  24.05000 49.58400 33.20400
H  25.29800 50.68900 33.84600
H  33.28700 47.52100 27.88300
H  32.21700 47.51300 29.21500
H  33.09100 48.96700 28.97800
H  34.72700 49.06200 24.95700
H  33.94200 47.58500 25.72500
H  34.06500 49.20700 26.60100
H  27.84000 49.07300 22.17300
H  26.50400 51.76700 22.46700
H  29.69500 51.21000 22.13700
H  28.32000 51.39400 20.99200
H  29.26600 49.98100 20.89000
H  24.68300 49.44500 22.84000
H  25.64900 49.23400 21.43400
H  24.53400 50.26500 20.12200
H  24.57300 51.77600 21.10800
H  23.23000 50.75400 21.35200
H  22.16000 51.86500 24.93000
H  22.39900 53.58500 25.59000
H  21.28300 52.49100 26.38200
H  23.43200 50.77900 31.00700
H  24.16400 54.35000 33.24700
H  24.61700 53.02000 34.33000
H  22.90000 53.52700 34.08000

