158

Mg 47.28000 17.02400 28.18100
C  45.39500 16.69800 31.19300
C  49.66800 18.39200 30.01700
C  48.92900 17.27500 25.36900
C  44.58000 15.72800 26.44300
N  47.50400 17.45900 30.33300
C  46.65000 17.32700 31.40000
C  47.30600 17.80400 32.71200
C  48.54400 18.63000 32.21200
C  48.51900 18.18300 30.76300
C  48.38800 20.18300 32.36200
C  47.72900 16.63300 33.57300
C  48.19100 16.92700 35.06200
H  47.78500 18.26300 35.78400
N  49.06100 17.65500 27.81900
C  49.97000 18.08600 28.65600
C  51.23700 18.39300 27.92300
C  51.03600 18.03200 26.57000
C  49.65100 17.56900 26.57500
C  52.39100 18.87300 28.69800
C  51.96700 18.03700 25.44600
O  51.67400 17.67300 24.30000
C  53.40600 18.56300 25.59800
N  46.92400 16.21900 26.22000
C  47.72400 16.63500 25.22000
C  47.00700 16.49100 23.81800
C  45.56900 15.95300 24.28200
C  45.68200 16.04600 25.71600
C  46.79400 17.84600 23.04800
C  45.14000 14.54500 23.86400
C  45.55500 14.24200 22.45000
N  45.45900 16.30600 28.70100
C  44.47500 15.71100 27.87300
C  43.37800 15.32500 28.70700
C  43.67300 15.66600 30.01100
C  44.94300 16.28800 29.95500
C  42.10800 14.68500 28.13000
C  43.18500 15.54800 31.39500
O  42.10300 15.15100 31.89200
C  44.32900 16.17700 32.23700
C  43.63100 17.24500 33.05700
O  43.51700 18.47500 32.79400
O  43.15700 16.57200 34.18400
C  42.71300 17.58500 35.15100
H  50.41100 18.91200 30.62700
H  49.40000 17.50800 24.41100
H  43.69000 15.40500 25.89900
H  46.63400 18.50000 33.21400
H  49.45600 18.37400 32.75200
H  49.32000 20.47800 32.84400
H  47.63300 20.48900 33.08600
H  48.15900 20.58200 31.37300
H  48.68300 16.30300 33.16200
H  47.04900 15.78400 33.63700
H  49.27800 16.87100 35.12300
H  47.81500 16.12400 35.69500
H  52.13700 18.70500 29.74500
H  52.68400 19.91700 28.58200
H  53.29600 18.34200 28.40200
H  54.02200 17.82700 26.11300
H  53.42200 19.52500 26.11000
H  53.79800 18.66900 24.58600
H  47.56400 15.84900 23.13500
H  44.71800 16.61800 24.13700
H  45.73800 18.09700 22.94800
H  47.23200 17.90800 22.05200
H  47.14100 18.70900 23.61700
H  44.09500 14.24600 23.77900
H  45.63600 13.79600 24.48100
H  46.47600 13.69600 22.65300
H  45.63900 15.08900 21.76900
H  44.94800 13.49900 21.93200
H  41.34000 15.44600 28.26800
H  41.82900 13.75800 28.63100
H  42.28900 14.28900 27.13100
H  44.64100 15.44700 32.98300
H  43.47600 18.33900 35.34900
H  42.56800 17.07400 36.10300
H  41.74400 17.97100 34.83600
Mg 47.44300 25.68200 27.79600
C  48.69600 27.52600 30.51100
C  46.79500 23.03600 30.01900
C  46.45700 23.72300 25.22900
C  48.60500 28.08200 25.67900
N  47.68300 25.40000 29.98900
C  48.07600 26.32500 30.88800
C  47.87600 25.85700 32.34400
C  47.41100 24.44600 32.16500
C  47.32700 24.19500 30.62500
C  48.34900 23.40800 32.87300
C  46.85600 26.82300 32.99500
C  46.12000 26.35100 34.28500
H  45.84600 27.29800 35.45000
N  46.74900 23.68300 27.69000
C  46.66700 22.72800 28.66300
C  46.20400 21.48200 28.10800
C  45.98500 21.65200 26.72400
C  46.37600 23.07900 26.47400
C  46.05200 20.24100 28.95300
C  45.36300 20.82600 25.69200
O  45.09000 21.26400 24.57000
C  44.99400 19.42100 26.07900
N  47.66500 25.80700 25.79600
C  47.07500 24.91000 24.87200
C  47.49500 25.24500 23.45800
C  47.95600 26.67900 23.58600
C  48.04600 26.93900 25.08900
C  48.48100 24.11000 22.91100
C  47.08800 27.74400 22.95800
C  47.78200 28.73000 21.92000
N  48.38500 27.48000 27.95300
C  48.77500 28.33900 27.01200
C  49.43200 29.52300 27.63500
C  49.47800 29.17500 29.00500
C  48.80200 27.92500 29.13500
C  49.88900 30.76600 27.00300
C  49.83600 29.74800 30.28200
O  50.44800 30.80600 30.50100
C  49.21300 28.66200 31.37800
C  50.24700 28.34000 32.40500
O  51.14900 27.52300 32.25300
O  49.87300 28.98900 33.58800
C  50.62100 28.54000 34.77000
H  46.56000 22.34000 30.82700
H  46.13600 23.12500 24.37400
H  49.12600 28.73000 24.97100
H  48.85000 25.92400 32.82900
H  46.36500 24.42300 32.46900
H  48.88000 22.80400 32.13800
H  47.72400 22.65600 33.35500
H  49.09300 23.68000 33.62200
H  46.05900 27.21700 32.36600
H  47.38600 27.74300 33.24100
H  46.65800 25.46000 34.60900
H  45.10600 25.98500 34.12500
H  45.02600 19.97900 29.21400
H  46.64500 20.40900 29.85200
H  46.48400 19.32300 28.55300
H  44.43100 18.96500 25.26500
H  44.46300 19.45500 27.03000
H  45.88400 18.80100 26.19000
H  46.56600 25.13400 22.89800
H  48.95000 26.73200 23.14300
H  48.00600 23.67300 22.03200
H  48.54800 23.34000 23.67900
H  49.47400 24.50700 22.70000
H  46.66100 28.49300 23.62500
H  46.27400 27.36200 22.34300
H  48.63200 28.27400 21.41300
H  48.19100 29.55400 22.50500
H  47.07100 28.96600 21.12900
H  49.09600 31.06000 26.31500
H  50.74300 30.62400 26.34000
H  50.19600 31.45800 27.78700
H  48.32300 29.15000 31.77600
H  49.98500 28.62400 35.65200
H  51.59400 29.02900 34.82100
H  50.83500 27.47300 34.69900

