158

Mg 16.48000 -2.02700 27.11100
C  15.78200 -0.12600 29.85200
C  18.31800 -4.17700 29.26600
C  17.84600 -3.60600 24.43700
C  14.95700 0.31700 25.08300
N  17.14300 -2.03500 29.31800
C  16.65600 -1.17200 30.25700
C  17.13700 -1.50200 31.69800
C  18.12800 -2.71000 31.47800
C  17.79100 -3.02500 29.90100
C  19.61700 -2.26000 31.64200
C  15.91800 -1.95800 32.61000
C  16.25300 -2.43100 34.00700
H  17.63100 -2.09700 34.73600
N  17.78000 -3.72000 26.91800
C  18.35100 -4.47900 27.90000
C  19.10400 -5.55600 27.28200
C  19.09800 -5.32700 25.84900
C  18.24900 -4.21000 25.64300
C  19.80700 -6.62500 28.08400
C  19.81700 -6.19500 24.74900
O  19.62700 -6.01000 23.53100
C  20.84700 -7.17900 25.13500
N  16.38000 -1.70900 24.99600
C  16.96100 -2.50900 24.08300
C  16.82000 -1.97500 22.59700
C  15.80800 -0.75200 22.83500
C  15.65600 -0.71600 24.41400
C  18.15600 -1.65400 21.84300
C  14.37500 -1.01200 22.26300
C  13.81600 0.25400 21.64000
N  15.37200 -0.36100 27.31300
C  14.86200 0.53300 26.42400
C  14.18000 1.60500 27.13700
C  14.57800 1.33600 28.51700
C  15.31800 0.14800 28.57000
C  13.32400 2.65700 26.46200
C  14.41600 1.87600 29.86900
O  13.89200 2.95200 30.14600
C  15.15600 0.91900 30.81600
C  16.17000 1.74900 31.62400
O  17.16900 2.28300 31.14600
O  15.79400 1.84300 32.91800
C  16.63600 2.69400 33.82900
H  18.77000 -4.84400 30.00200
H  18.28300 -4.00800 23.52000
H  14.58000 1.05400 24.37100
H  17.60400 -0.61800 32.13300
H  18.12600 -3.64800 32.03200
H  19.59900 -1.24800 32.04600
H  20.16200 -2.33600 30.70100
H  20.19100 -2.90400 32.30800
H  15.34800 -2.68300 32.02900
H  15.25000 -1.10700 32.73900
H  15.99900 -3.48800 34.07900
H  15.54900 -1.97800 34.70500
H  20.88900 -6.68300 27.96800
H  19.49800 -7.56700 27.63300
H  19.59200 -6.61800 29.15300
H  21.64000 -6.63300 25.64600
H  21.12900 -7.68200 24.20900
H  20.59600 -8.03500 25.76100
H  16.36000 -2.84200 22.12200
H  16.24700 0.15600 22.42100
H  19.02200 -1.59700 22.50200
H  18.15400 -0.71100 21.29700
H  18.28200 -2.47500 21.13700
H  13.75000 -1.39600 23.07000
H  14.51400 -1.82300 21.54900
H  12.79200 0.44800 21.95800
H  13.74100 0.23400 20.55300
H  14.39100 1.11600 21.97900
H  13.76000 2.97000 25.51300
H  13.45500 3.61400 26.96600
H  12.25400 2.44700 26.48200
H  14.45900 0.45000 31.51000
H  16.65300 3.70300 33.41700
H  17.67400 2.36300 33.78700
H  16.32000 2.73700 34.87100
Mg 40.73900 41.50500 27.41000
C  39.77300 43.71300 29.88400
C  41.80500 39.34000 29.67800
C  41.69000 39.51700 24.81400
C  39.79500 44.05100 25.06300
N  40.51900 41.43100 29.49700
C  40.05300 42.44200 30.38100
C  40.29700 42.07700 31.82900
C  41.13900 40.77900 31.77100
C  41.05700 40.44000 30.22500
C  42.51500 40.85400 32.44300
C  39.05000 42.00900 32.60200
C  39.21100 41.60900 34.08200
H  38.96000 42.75800 35.05200
N  41.63900 39.68600 27.31100
C  41.98700 38.95500 28.34700
C  42.57700 37.72100 27.86700
C  42.55400 37.70100 26.47000
C  41.96500 39.03800 26.14500
C  43.01400 36.56900 28.73000
C  43.17700 36.71000 25.45200
O  43.10800 36.76600 24.22700
C  43.90200 35.55300 25.99400
N  40.71400 41.70400 25.27900
C  41.17900 40.78900 24.42200
C  40.89200 41.18200 22.93200
C  40.08100 42.46600 23.11600
C  40.15500 42.82800 24.58200
C  42.08800 41.37200 22.00800
C  38.60300 42.39900 22.63000
C  37.76600 41.30300 23.34000
N  40.05900 43.46700 27.44500
C  39.75600 44.40100 26.45800
C  39.27700 45.59200 26.96900
C  39.28800 45.36300 28.38100
C  39.78100 44.12100 28.57200
C  39.00300 46.89500 26.24800
C  39.03700 45.96800 29.62800
O  38.56500 47.01000 29.91700
C  39.38000 44.88700 30.70000
C  40.46100 45.46900 31.56800
O  41.51700 45.84300 31.15300
O  40.06000 45.62800 32.94800
C  41.08800 45.98000 33.82400
H  42.05300 38.68600 30.51700
H  42.06700 38.85400 24.03300
H  39.40900 44.78100 24.34900
H  40.85700 42.89800 32.27600
H  40.65900 39.97000 32.32200
H  42.46800 41.67800 33.15500
H  43.29700 40.97500 31.69300
H  42.81000 39.94000 32.95800
H  38.25800 41.48900 32.06400
H  38.75900 43.05800 32.65600
H  40.20500 41.19800 34.26200
H  38.58800 40.75900 34.35900
H  42.65200 35.58100 28.44300
H  42.81200 36.76800 29.78200
H  44.09300 36.42000 28.73300
H  44.73300 35.86600 26.62700
H  44.29800 35.03900 25.11800
H  43.20300 34.86800 26.47400
H  40.32700 40.30800 22.60800
H  40.66100 43.20800 22.56800
H  42.80900 42.06000 22.44900
H  41.73700 41.73300 21.04200
H  42.55800 40.39400 21.90200
H  38.75800 42.08900 21.59600
H  38.05000 43.32800 22.76400
H  37.09900 40.81000 22.63400
H  37.15200 41.84900 24.05600
H  38.42000 40.60400 23.86200
H  38.25900 46.77600 25.45900
H  39.90900 47.37400 25.87700
H  38.54000 47.53200 27.00200
H  38.45300 44.76900 31.26200
H  41.24300 47.04800 33.67100
H  41.94300 45.30800 33.74800
H  40.72000 46.00500 34.85000

