158

Mg 47.95900 34.91300 27.41200
C  46.51900 33.23500 30.19100
C  48.39600 37.60100 29.30900
C  49.00900 36.51800 24.71700
C  47.21400 32.07000 25.51700
N  47.35600 35.41200 29.49100
C  47.01200 34.51200 30.47500
C  47.21400 35.19500 31.84100
C  47.40700 36.71100 31.44400
C  47.76300 36.58100 29.96400
C  46.14300 37.55000 31.75800
C  48.49500 34.54300 32.44300
C  48.52300 34.47100 33.91500
H  47.66000 35.34100 34.90400
N  48.66900 36.80100 27.05400
C  48.76900 37.76800 27.99400
C  49.30100 38.93000 27.44800
C  49.59000 38.68400 26.08400
C  49.08300 37.28700 25.91800
C  49.49000 40.16200 28.22000
C  50.20000 39.53500 25.00600
O  50.32400 39.20600 23.78500
C  50.65900 40.90700 25.36700
N  48.05700 34.35200 25.34400
C  48.56100 35.22000 24.46100
C  48.65400 34.55000 23.07000
C  48.05500 33.17600 23.34100
C  47.82800 33.11900 24.85600
C  48.10300 35.28400 21.86100
C  48.86600 31.96700 22.76800
C  48.21600 30.89900 21.91100
N  47.04300 33.14700 27.70200
C  46.74800 32.08800 26.83000
C  46.14300 30.95800 27.50400
C  46.00600 31.45500 28.81200
C  46.57000 32.71100 28.86600
C  45.73600 29.61700 27.00600
C  45.41600 31.04100 30.11100
O  44.88700 30.03500 30.44800
C  45.80800 32.21400 31.08800
C  46.53400 31.65100 32.24100
O  47.69900 31.34800 32.24300
O  45.67800 31.50700 33.31100
C  46.11800 31.02200 34.59500
H  48.57000 38.49100 29.91600
H  49.57400 37.02900 23.93400
H  47.10700 31.18000 24.89400
H  46.35200 34.99900 32.47800
H  48.26300 37.16600 31.94300
H  46.36100 38.22400 32.58700
H  45.21000 37.04300 32.00600
H  45.97000 38.17600 30.88300
H  49.39400 35.09600 32.16900
H  48.75100 33.53900 32.10600
H  49.54900 34.69700 34.20400
H  48.37200 33.41500 34.13900
H  50.23600 39.93900 28.98400
H  48.54300 40.45000 28.67600
H  49.83500 41.05300 27.69600
H  51.41200 40.97300 26.15300
H  49.73400 41.40800 25.65400
H  51.14500 41.33200 24.48900
H  49.68800 34.35900 22.78300
H  47.05800 33.05300 22.92000
H  48.87600 35.44500 21.11000
H  47.59300 36.19800 22.16400
H  47.42500 34.59600 21.35700
H  49.10600 31.56000 23.75100
H  49.74400 32.36000 22.25400
H  48.01300 29.96400 22.43300
H  48.78700 30.77600 20.99100
H  47.21100 31.22000 21.63600
H  46.10100 29.44500 25.99400
H  44.67000 29.48900 27.19500
H  46.11500 28.82300 27.65000
H  44.90700 32.65500 31.51400
H  45.41700 30.27100 34.96000
H  46.18500 31.77200 35.38200
H  47.12400 30.61300 34.50300
Mg 35.95400 49.05400 25.45800
C  36.18600 47.16900 28.50700
C  34.27700 51.50400 27.09300
C  35.82900 50.75600 22.57200
C  37.51300 46.41700 23.84500
N  35.31000 49.22300 27.51200
C  35.62200 48.47800 28.60000
C  35.40500 49.21000 29.87500
C  34.61000 50.48800 29.43400
C  34.63100 50.41800 27.86000
C  33.17100 50.53500 30.03000
C  36.77600 49.45700 30.68300
C  36.90800 49.12200 32.23800
H  35.60300 49.39600 33.02200
N  35.08500 50.86500 24.87300
C  34.43900 51.77200 25.69100
C  33.82400 52.77100 24.91600
C  34.22600 52.53800 23.57300
C  35.07700 51.35600 23.59800
C  32.88700 53.88100 25.49100
C  33.96300 53.25600 22.25700
O  34.56500 53.04600 21.20900
C  32.96500 54.32600 22.27800
N  36.60200 48.69800 23.50300
C  36.38900 49.46200 22.46200
C  37.00600 48.95300 21.15500
C  37.62800 47.61700 21.63900
C  37.21400 47.57700 23.12600
C  35.96600 48.82400 19.99300
C  39.23800 47.48600 21.50600
C  39.76600 46.16000 21.13500
N  36.77500 47.17900 25.97500
C  37.33600 46.21100 25.17400
C  37.62100 44.99700 25.95400
C  37.29400 45.34500 27.29300
C  36.74700 46.65300 27.25200
C  38.00800 43.64600 25.45600
C  37.22500 44.90200 28.68400
O  37.57400 43.88300 29.20200
C  36.68200 46.08900 29.54800
C  35.56200 45.72200 30.43100
O  34.42300 45.47800 30.14000
O  36.08000 45.60600 31.74500
C  35.00700 45.31100 32.71600
H  33.92400 52.35600 27.67800
H  35.80500 51.30900 21.63100
H  38.11400 45.67900 23.31000
H  34.80200 48.51400 30.45800
H  35.16900 51.39100 29.67900
H  32.37400 50.67200 29.29900
H  33.13800 51.36600 30.73400
H  32.84900 49.67700 30.62100
H  37.01000 50.51600 30.57900
H  37.57600 48.99500 30.10600
H  37.74100 49.69300 32.64700
H  37.13300 48.05900 32.33000
H  33.43500 54.74200 25.87300
H  32.43900 53.36200 26.33800
H  32.11100 54.01800 24.73800
H  32.90500 54.61800 21.23000
H  33.25900 55.24600 22.78300
H  31.93200 54.08600 22.52900
H  37.73200 49.67100 20.77400
H  37.19500 46.75500 21.13100
H  36.07500 47.85100 19.51300
H  36.22700 49.61400 19.28900
H  34.94600 48.94800 20.35700
H  39.68300 47.81600 22.44500
H  39.43500 48.22400 20.72900
H  40.18600 46.14400 20.13000
H  39.10200 45.31100 21.30000
H  40.54000 45.91000 21.86000
H  38.45500 43.67900 24.46300
H  37.10900 43.04600 25.31800
H  38.64800 43.07300 26.12800
H  37.44100 46.61200 30.12900
H  34.79300 44.24400 32.77200
H  34.13100 45.92900 32.52000
H  35.28300 45.57400 33.73800

