158

Mg 1.70900 -1.40900 44.45400
C  5.07200 -0.53300 43.83500
C  0.89700 1.76000 42.95500
C  -1.51400 -2.36200 43.96400
C  2.74300 -4.47000 45.38700
N  2.87100 0.42200 43.41900
C  4.25000 0.46400 43.36900
C  4.75300 1.82400 42.79200
C  3.39400 2.65800 42.73900
C  2.31300 1.59000 42.98600
C  3.16900 3.72800 43.76600
C  5.47100 1.63600 41.45900
C  6.67700 2.58800 41.09900
H  6.92900 2.86000 39.63800
N  -0.10400 -0.40500 43.62800
C  -0.17200 0.83300 43.11200
C  -1.57200 1.14900 42.80500
C  -2.36900 -0.00000 43.12600
C  -1.35200 -1.01800 43.59900
C  -2.10500 2.47200 42.27800
C  -3.90300 -0.15700 43.04100
O  -4.59800 0.73200 42.59400
C  -4.57700 -1.40200 43.43200
N  0.77500 -3.11600 44.56500
C  -0.57000 -3.31400 44.46200
C  -0.94700 -4.81500 44.79300
C  0.43200 -5.42400 45.22000
C  1.41600 -4.29700 45.02300
C  -2.17500 -5.09000 45.65700
C  0.81300 -6.85500 44.54400
C  1.61900 -7.87600 45.46200
N  3.55200 -2.36800 44.56700
C  3.80000 -3.61600 45.05200
C  5.25400 -3.78300 45.12800
C  5.83800 -2.59200 44.69700
C  4.72800 -1.78500 44.30300
C  5.94600 -4.95600 45.58300
C  7.06700 -1.87000 44.50200
O  8.24100 -2.17700 44.72200
C  6.60300 -0.52900 43.90800
C  7.09600 0.63200 44.71300
O  6.55500 0.96900 45.74900
O  8.22500 1.23100 44.16900
C  8.48400 2.52100 44.70100
H  0.53700 2.72400 42.59100
H  -2.44100 -2.91800 43.81200
H  3.07600 -5.39700 45.85700
H  5.53300 2.32600 43.36300
H  3.15100 3.13900 41.79200
H  2.33400 3.49300 44.42700
H  2.91500 4.64400 43.23200
H  4.09900 3.99900 44.26500
H  4.81900 1.84500 40.61100
H  5.76900 0.59300 41.35900
H  7.59500 2.17300 41.51600
H  6.52100 3.53800 41.61000
H  -3.11500 2.53700 41.87500
H  -1.47100 2.66700 41.41200
H  -1.76000 3.32000 42.87000
H  -5.64700 -1.33400 43.23100
H  -4.45200 -1.52500 44.50800
H  -4.11500 -2.28700 42.99500
H  -1.24800 -5.18600 43.81300
H  0.44800 -5.54000 46.30400
H  -2.62100 -4.12700 45.90600
H  -2.00400 -5.48200 46.66000
H  -2.86000 -5.78500 45.17100
H  1.52600 -6.53500 43.78400
H  0.00400 -7.34900 44.00600
H  0.77300 -8.26100 46.03200
H  2.48800 -7.39600 45.91100
H  2.02800 -8.70900 44.89100
H  7.00500 -4.71200 45.49600
H  5.74400 -5.85300 44.99700
H  5.51200 -5.14600 46.56400
H  7.05700 -0.51300 42.91700
H  7.66400 3.09500 45.13300
H  8.82500 3.27900 43.99600
H  9.35600 2.43500 45.35000
Mg 9.61400 47.65400 26.20800
C  7.58200 47.66800 29.12700
C  12.18800 48.44200 28.18600
C  11.24300 48.27100 23.47100
C  6.53600 47.51700 24.32500
N  9.80300 47.83800 28.42800
C  8.89900 47.81300 29.44700
C  9.52300 48.20200 30.85300
C  10.93000 48.71700 30.40300
C  10.99200 48.31900 28.93100
C  11.24900 50.22300 30.66200
C  9.70100 47.00600 31.85300
C  9.52600 47.29100 33.37400
H  9.71500 46.15700 34.33800
N  11.48700 47.88700 25.86800
C  12.40800 48.28200 26.82500
C  13.68800 48.39700 26.22500
C  13.49000 48.18300 24.83000
C  12.03600 48.16700 24.63200
C  14.99000 48.60500 26.93500
C  14.46200 48.07300 23.71200
O  14.22300 47.90800 22.56200
C  15.93900 48.10800 24.13000
N  8.97400 47.91100 24.18000
C  9.85800 48.11200 23.19000
C  9.22800 48.09400 21.75100
C  7.73700 47.72800 22.02800
C  7.71600 47.69700 23.59500
C  9.47600 49.41900 21.04200
C  7.42800 46.32700 21.34300
C  6.04600 46.24000 20.65700
N  7.44900 47.63300 26.59200
C  6.39100 47.53300 25.75100
C  5.14700 47.36100 26.49000
C  5.59900 47.37000 27.79100
C  6.98800 47.60300 27.82300
C  3.76600 47.46900 25.97300
C  5.05100 47.34000 29.11300
O  3.93000 47.15400 29.52800
C  6.36000 47.66800 30.04600
C  6.42300 46.81900 31.25800
O  6.67600 45.62800 31.30400
O  6.06600 47.59000 32.33300
C  5.89500 46.79500 33.59700
H  12.99600 48.91900 28.74500
H  11.75700 48.29400 22.50700
H  5.64800 47.31200 23.72300
H  8.89500 49.01600 31.21400
H  11.76200 48.19000 30.86900
H  10.44500 50.75900 31.16700
H  11.36500 50.75200 29.71600
H  12.15900 50.25400 31.26100
H  10.75200 46.71800 31.87900
H  9.20100 46.08900 31.54200
H  8.55600 47.78700 33.42000
H  10.27200 48.03200 33.66000
H  15.54900 47.67000 26.88900
H  14.93200 48.78900 28.00700
H  15.54700 49.38100 26.41000
H  16.19500 47.41700 24.93300
H  16.09000 49.11800 24.51300
H  16.52200 48.04300 23.21100
H  9.71500 47.28600 21.20500
H  6.98600 48.45200 21.71300
H  10.12400 49.35700 20.16800
H  9.89400 50.19600 21.68200
H  8.48700 49.73900 20.71200
H  7.44700 45.55200 22.10900
H  8.18800 45.96300 20.65200
H  5.35700 45.88000 21.42100
H  6.12600 45.60100 19.77700
H  5.79000 47.28100 20.46300
H  3.78600 47.67100 24.90200
H  3.28700 48.32900 26.44100
H  3.25000 46.60000 26.38000
H  6.33100 48.70700 30.37600
H  6.84500 46.27800 33.73300
H  5.24600 45.97700 33.28600
H  5.49800 47.48100 34.34500

