158

Mg 2.90700 -1.25100 42.04700
C  6.26200 -0.30300 41.90100
C  2.05400 1.65100 40.37200
C  -0.22900 -2.62400 41.46000
C  3.95600 -4.41800 43.24900
N  4.03400 0.55800 41.32700
C  5.39300 0.74000 41.41600
C  5.75700 2.00100 40.72600
C  4.39000 2.62700 40.43800
C  3.39800 1.56400 40.74800
C  4.09400 3.95300 41.25500
C  6.76300 1.82000 39.55300
C  6.97500 0.47700 38.80900
H  6.66900 0.45600 37.29900
N  1.18900 -0.57800 41.05500
C  1.04600 0.70200 40.53500
C  -0.37700 0.75700 40.09700
C  -1.07800 -0.39400 40.50200
C  -0.03600 -1.25100 41.07100
C  -0.96100 2.10300 39.48300
C  -2.57200 -0.55200 40.43500
O  -3.29700 0.32100 39.97400
C  -3.27800 -1.63600 41.19900
N  2.08100 -3.30400 42.26100
C  0.73400 -3.53000 41.91600
C  0.32100 -5.01200 42.19900
C  1.69300 -5.57100 42.78400
C  2.64700 -4.37500 42.77900
C  -0.96600 -5.17300 43.01800
C  2.28100 -6.82400 42.06100
C  2.87900 -7.90200 43.01200
N  4.70200 -2.14900 42.67400
C  4.98800 -3.43200 43.19900
C  6.41100 -3.56500 43.30400
C  6.94700 -2.38300 42.86000
C  5.84500 -1.53100 42.49100
C  7.03400 -4.78500 43.90400
C  8.19300 -1.63500 42.59600
O  9.32100 -2.01500 42.82300
C  7.76800 -0.30000 42.04000
C  8.38000 0.82300 42.81600
O  9.28500 1.49700 42.39100
O  7.98100 0.87500 44.14300
C  8.66000 1.77800 45.10700
H  1.63000 2.57500 39.97300
H  -1.09900 -3.15600 41.06700
H  4.21000 -5.44600 43.51800
H  6.32700 2.61700 41.42100
H  4.13000 2.84200 39.40100
H  3.04600 4.21000 41.09800
H  4.59100 4.85300 40.89300
H  4.31900 3.88800 42.31900
H  7.68900 2.23600 39.94900
H  6.54700 2.64200 38.87000
H  6.38100 -0.33600 39.22800
H  8.03500 0.22600 38.84800
H  -0.22900 2.78800 39.05500
H  -1.57300 2.63700 40.20900
H  -1.50200 1.74100 38.60800
H  -4.35800 -1.52000 41.10800
H  -2.95200 -1.35400 42.20000
H  -3.03700 -2.64200 40.85700
H  0.04100 -5.49100 41.26100
H  1.54100 -5.82300 43.83400
H  -1.36600 -4.18400 43.24600
H  -0.71800 -5.70400 43.93700
H  -1.76300 -5.66300 42.46000
H  3.06300 -6.44800 41.40200
H  1.57100 -7.23700 41.34400
H  3.87800 -8.07800 42.61300
H  2.31100 -8.82200 43.14900
H  3.09100 -7.60400 44.03900
H  7.28000 -5.46800 43.09200
H  6.34500 -5.25900 44.60300
H  7.94700 -4.42700 44.38000
H  8.23700 -0.24300 41.05800
H  8.19800 2.76300 45.04700
H  9.70000 1.99100 44.86200
H  8.57500 1.45100 46.14300
Mg 10.10600 48.11500 24.49800
C  8.10300 48.29400 27.37000
C  12.75300 49.51100 26.39300
C  12.06600 47.94400 21.75100
C  7.22500 47.46700 22.65900
N  10.39500 48.91700 26.56000
C  9.40500 48.80100 27.55100
C  9.86800 49.47000 28.87400
C  11.24300 50.11100 28.40900
C  11.55400 49.40800 27.07900
C  11.17400 51.64900 28.17700
C  10.06800 48.52800 30.10800
C  9.36800 48.88700 31.39000
H  10.30600 49.49500 32.45600
N  12.15700 48.54000 24.17300
C  13.04300 49.00400 25.09000
C  14.36900 49.09800 24.48400
C  14.25600 48.56800 23.21100
C  12.81000 48.25000 22.97400
C  15.51900 49.60600 25.21200
C  15.35200 48.47400 22.14200
O  15.11300 47.86700 21.12200
C  16.70100 49.04100 22.32300
N  9.63400 47.98400 22.47400
C  10.73000 47.85800 21.56100
C  10.14600 47.59700 20.16900
C  8.61000 47.47700 20.38000
C  8.43600 47.53800 21.93900
C  10.58600 48.61300 19.08400
C  7.78000 46.39000 19.59700
C  6.53900 46.89700 18.76300
N  8.07600 47.81200 24.91200
C  7.06100 47.66800 24.04400
C  5.83400 47.50500 24.77900
C  6.15200 47.66300 26.13900
C  7.52000 47.90500 26.14500
C  4.43600 47.38700 24.25000
C  5.66100 47.66600 27.50900
O  4.54800 47.56800 27.92100
C  6.89400 48.13100 28.35100
C  7.00900 47.14300 29.45600
O  7.56800 46.02900 29.36900
O  6.21600 47.53800 30.52600
C  6.03600 46.53000 31.64900
H  13.59700 49.94900 26.92900
H  12.67900 47.83600 20.85400
H  6.29100 47.29400 22.11900
H  9.24000 50.30800 29.17700
H  12.09100 49.95000 29.07500
H  11.85500 52.12800 28.88000
H  10.23600 52.01000 28.60000
H  11.24400 52.06500 27.17100
H  11.13800 48.41400 30.28300
H  9.67900 47.54700 29.83400
H  8.86400 48.04500 31.86500
H  8.46400 49.47200 31.22100
H  15.36900 50.01600 26.21100
H  16.12900 50.34700 24.69500
H  16.19800 48.76800 25.36800
H  16.53000 50.10800 22.18000
H  17.39700 48.67300 21.56900
H  17.23000 48.81100 23.24700
H  10.49700 46.60100 19.90100
H  8.26000 48.50100 20.24600
H  11.49100 49.02500 19.53000
H  9.77400 49.29600 18.83500
H  10.91500 48.00500 18.24000
H  7.43600 45.71500 20.38100
H  8.45000 45.89300 18.89500
H  6.33300 47.94800 18.96200
H  5.57800 46.40800 18.92600
H  6.98700 46.94600 17.77100
H  4.01100 48.33800 23.92800
H  3.77200 47.06300 25.05100
H  4.45300 46.65400 23.44400
H  6.56800 49.08300 28.77000
H  6.77800 45.73800 31.74600
H  5.10200 45.99400 31.48500
H  5.95200 46.95000 32.65100

