158

Mg -2.41500 17.53200 26.03700
C  -2.77900 15.18600 28.72500
C  -2.86000 20.12500 28.36800
C  -2.73000 19.76900 23.53200
C  -2.41700 14.93600 23.82900
N  -2.72800 17.60600 28.35100
C  -2.67600 16.52900 29.19300
C  -2.56800 17.05500 30.62600
C  -2.78300 18.65700 30.45600
C  -2.73000 18.82700 28.98300
C  -4.00300 19.20000 31.26600
C  -1.16700 16.63400 31.25800
C  -0.76200 17.53100 32.42900
H  -0.31900 16.83500 33.74200
N  -2.68300 19.56500 25.94600
C  -2.92600 20.40000 27.01000
C  -3.35700 21.67600 26.49400
C  -3.19700 21.72100 25.14400
C  -2.91000 20.28000 24.80200
C  -3.91600 22.72300 27.37700
C  -3.51100 22.85200 24.16100
O  -3.41600 22.71000 22.94500
C  -3.83400 24.29500 24.68900
N  -2.67800 17.36900 23.91900
C  -2.61700 18.49000 23.13400
C  -2.31800 18.01500 21.66500
C  -2.33000 16.44400 21.82200
C  -2.39200 16.27600 23.28000
C  -3.36300 18.66100 20.63900
C  -1.05500 15.80900 21.24300
C  0.28900 15.89500 21.93500
N  -2.55700 15.53100 26.17800
C  -2.52200 14.56300 25.16600
C  -2.56800 13.24600 25.76300
C  -2.59500 13.48200 27.07500
C  -2.67300 14.80900 27.36600
C  -2.39100 11.84000 25.16600
C  -2.66500 12.79900 28.38500
O  -2.66100 11.60500 28.58000
C  -2.71000 13.85400 29.51400
C  -1.49200 13.62300 30.30100
O  -0.37700 13.78900 29.96800
O  -1.93200 13.06300 31.52800
C  -0.80600 12.60300 32.34300
H  -2.97500 20.95400 29.07000
H  -2.53800 20.59200 22.84100
H  -2.26300 14.06300 23.19100
H  -3.38000 16.52800 31.12800
H  -1.85700 19.04800 30.87600
H  -3.77900 19.88400 32.08400
H  -4.66700 18.39600 31.58500
H  -4.65600 19.83800 30.67100
H  -0.42300 16.68400 30.46400
H  -1.26700 15.60400 31.60300
H  -1.66400 18.05300 32.74900
H  -0.09000 18.29600 32.03900
H  -3.24600 23.57600 27.48100
H  -4.15900 22.26800 28.33700
H  -4.81200 23.16500 26.94100
H  -4.87600 24.19600 24.99300
H  -3.68500 24.86900 23.77400
H  -3.17800 24.66100 25.48000
H  -1.27200 18.23500 21.45400
H  -3.25600 16.02900 21.42500
H  -4.08900 19.38800 21.00300
H  -4.04100 17.96800 20.14100
H  -2.78500 19.22300 19.90600
H  -0.77500 16.30800 20.31500
H  -1.23700 14.73600 21.17200
H  0.26300 16.62600 22.74200
H  0.94500 16.30200 21.16600
H  0.69100 14.94100 22.27800
H  -2.10800 11.90000 24.11500
H  -3.30000 11.24800 25.27100
H  -1.56000 11.41100 25.72600
H  -3.58700 13.63800 30.12500
H  -0.38500 13.48700 32.82400
H  -0.10200 12.00300 31.76600
H  -1.14300 11.99700 33.18400
Mg 42.25900 41.88400 26.13000
C  41.64600 44.30300 28.37600
C  43.30900 39.85300 28.69800
C  43.05900 39.73800 23.77200
C  41.71700 44.34700 23.49000
N  42.27300 42.00500 28.29700
C  41.93300 43.08900 29.00400
C  41.86900 42.80100 30.52400
C  42.78500 41.54500 30.62200
C  42.77600 41.08400 29.13100
C  44.22800 41.91300 31.05900
C  40.36300 42.68800 31.05000
C  40.15200 43.22300 32.56400
H  40.80400 42.41500 33.67000
N  42.91100 40.03200 26.26000
C  43.40100 39.38300 27.36800
C  43.90100 38.08400 26.98900
C  43.81100 38.01100 25.56700
C  43.23400 39.28500 25.13900
C  44.40800 36.97400 27.97100
C  43.91600 36.85500 24.66600
O  43.53200 36.86700 23.50400
C  44.16000 35.54600 25.27600
N  42.46500 42.08700 23.87900
C  42.66800 41.00200 23.13800
C  42.70400 41.25400 21.72700
C  42.09600 42.66000 21.64100
C  42.05800 43.05300 23.14100
C  44.11900 41.06700 21.08300
C  40.67100 42.73700 21.01900
C  39.56700 41.79300 21.61400
N  41.79600 43.91600 25.92800
C  41.62200 44.73100 24.84300
C  41.33000 46.06200 25.29900
C  41.32200 46.01300 26.68400
C  41.56100 44.63200 26.99500
C  41.08800 47.30900 24.37800
C  41.06800 46.65400 27.94000
O  40.68000 47.77400 28.20100
C  41.26200 45.59000 29.07400
C  42.10400 46.11500 30.17200
O  43.33400 46.13600 30.15600
O  41.34000 46.41900 31.26100
C  41.92600 46.95200 32.52900
H  43.66000 39.07600 29.38000
H  43.32900 39.11800 22.91500
H  41.43100 45.12000 22.77300
H  42.36700 43.61400 31.05400
H  42.38700 40.73900 31.23900
H  44.14900 42.67200 31.83700
H  44.74400 42.22100 30.15000
H  44.61300 41.04100 31.58800
H  40.07800 41.63900 30.96900
H  39.64300 43.20100 30.41200
H  39.08300 43.17600 32.77200
H  40.33900 44.29200 32.65800
H  44.66600 37.37900 28.94900
H  45.28100 36.39000 27.67700
H  43.50100 36.37200 28.02800
H  44.00200 34.76600 24.53100
H  43.47100 35.34600 26.09700
H  45.19100 35.63200 25.61800
H  42.09000 40.52600 21.19600
H  42.77000 43.37600 21.17200
H  44.44800 41.98400 20.59500
H  44.11500 40.27000 20.34000
H  44.75500 40.82900 21.93500
H  40.75100 42.42900 19.97700
H  40.39400 43.79100 21.03700
H  39.06600 41.28700 20.78900
H  38.84200 42.50200 22.01300
H  39.83600 41.06800 22.38200
H  41.84200 47.42300 23.60000
H  41.12800 48.26100 24.90600
H  40.16000 47.22400 23.81300
H  40.23600 45.56700 29.44100
H  41.82200 46.24300 33.35000
H  41.31600 47.82500 32.76200
H  42.93700 47.35900 32.52300

