158

Mg 49.53000 35.18900 27.86500
C  47.14800 34.03000 30.32100
C  49.90700 37.99000 29.74300
C  51.29700 36.31000 25.34300
C  48.70600 32.30900 25.93600
N  48.63000 35.89200 29.94200
C  47.87200 35.20300 30.80400
C  48.00700 35.83700 32.18000
C  48.46900 37.35400 31.87500
C  49.09400 37.04100 30.44600
C  47.41200 38.50100 31.85500
C  49.12400 35.13200 33.07600
C  48.92400 35.17400 34.55400
H  48.10100 36.36500 35.20900
N  50.38700 36.90500 27.56200
C  50.52200 37.92500 28.43800
C  51.39300 38.95200 27.92100
C  51.83900 38.52300 26.64000
C  51.16700 37.21800 26.42200
C  51.47600 40.27400 28.66000
C  52.90900 39.17300 25.75900
O  53.30500 38.77700 24.62800
C  53.65900 40.31600 26.41700
N  49.87000 34.35800 25.83600
C  50.79300 35.05900 25.09900
C  51.29900 34.13800 23.96500
C  50.58700 32.74900 24.20400
C  49.63200 33.12200 25.31800
C  51.18800 34.83300 22.56600
C  51.60000 31.61900 24.65900
C  51.29700 30.27300 24.04700
N  48.22200 33.51400 28.00100
C  48.00600 32.43900 27.16600
C  47.08900 31.47500 27.82600
C  46.70700 32.04300 29.03500
C  47.39900 33.29300 29.09500
C  46.74600 30.09900 27.26100
C  45.82300 31.94200 30.24500
O  45.02200 31.03300 30.53500
C  46.03900 33.18000 31.17200
C  46.40300 32.80400 32.54800
O  47.30100 32.05400 32.84700
O  45.56900 33.42100 33.39200
C  45.61600 33.20400 34.80700
H  50.20500 38.83100 30.37300
H  52.13800 36.57500 24.69900
H  48.54600 31.44300 25.29000
H  47.03700 35.78500 32.67500
H  49.28900 37.73300 32.48500
H  47.30900 38.68300 30.78600
H  47.63900 39.38400 32.45300
H  46.50000 38.07900 32.27700
H  50.02700 35.59800 32.68100
H  49.04100 34.06800 32.85500
H  49.81700 35.19900 35.17800
H  48.52000 34.18300 34.75900
H  51.68300 41.09300 27.97100
H  52.15800 40.27900 29.51000
H  50.56200 40.61100 29.14900
H  53.15000 41.23400 26.12400
H  54.57500 40.33800 25.82700
H  53.79400 40.10700 27.47800
H  52.35800 34.13600 24.21900
H  49.91000 32.38700 23.43000
H  52.18800 34.94400 22.14500
H  50.68900 35.80000 22.62100
H  50.74700 34.22700 21.77500
H  51.74700 31.50800 25.73400
H  52.54600 31.93000 24.21700
H  51.26200 29.56400 24.87400
H  52.11200 30.01000 23.37300
H  50.36800 30.29300 23.47600
H  47.16500 29.87200 26.28100
H  45.66300 29.98300 27.22100
H  47.21900 29.46100 28.00800
H  45.13100 33.78200 31.21200
H  46.62800 33.51700 35.06600
H  45.44900 32.13700 34.95600
H  44.90000 33.80300 35.36900
Mg 29.01800 56.96000 40.27600
C  26.80300 54.17000 39.68000
C  31.67700 54.89900 39.43400
C  30.89000 59.68200 39.86100
C  26.12000 58.96500 40.37000
N  29.19300 54.82800 39.30100
C  28.13900 53.89300 39.38600
C  28.79000 52.48000 39.07900
C  30.33000 52.66700 39.26700
C  30.41200 54.23000 39.35600
C  30.89300 51.98300 40.53900
C  28.46300 52.06900 37.62300
C  29.09100 52.74400 36.37000
H  28.13800 53.30600 35.27100
N  31.02400 57.28600 39.90400
C  31.94800 56.31100 39.71400
C  33.22600 56.87000 39.72600
C  33.06700 58.29300 39.73800
C  31.63100 58.53400 39.89500
C  34.46900 56.03700 39.51800
C  34.12300 59.30800 39.50200
O  35.29700 58.97100 39.26500
C  33.83600 60.74900 39.48600
N  28.60200 59.08200 40.36000
C  29.54400 59.97400 40.02400
C  28.83700 61.39700 40.06500
C  27.36000 61.11400 39.99200
C  27.33800 59.61400 40.32600
C  29.19300 62.16000 41.34900
C  26.71600 61.19800 38.55600
C  25.94600 62.49000 38.49900
N  26.82900 56.67000 40.18500
C  25.82800 57.58400 40.40400
C  24.60300 56.88700 40.54700
C  24.91500 55.54700 40.24000
C  26.29800 55.50600 40.02200
C  23.17500 57.44600 40.77000
C  24.38900 54.24400 39.96600
O  23.25200 53.80600 39.90200
C  25.53700 53.25700 39.69500
C  25.55300 52.34700 40.82600
O  25.89300 52.68200 41.92200
O  25.12800 51.02600 40.54400
C  24.93200 50.20600 41.71800
H  32.48500 54.16600 39.38800
H  31.49700 60.56100 39.63200
H  25.23500 59.60000 40.44500
H  28.42400 51.77300 39.82300
H  30.82000 52.38900 38.33300
H  31.87300 51.57300 40.29600
H  30.32000 51.15400 40.95500
H  31.21200 52.66800 41.32400
H  27.37700 52.11400 37.55200
H  28.75900 51.02000 37.67200
H  29.66400 51.91700 35.95100
H  29.79200 53.47100 36.78000
H  34.50600 55.54500 38.54600
H  34.50400 55.24800 40.27000
H  35.24400 56.74600 39.80600
H  33.31100 61.08900 38.59300
H  34.84600 61.13100 39.63700
H  33.42400 61.05700 40.44600
H  29.07800 61.95100 39.15800
H  26.67100 61.57400 40.70000
H  30.26200 62.37000 41.36100
H  29.06200 61.51600 42.21900
H  28.77000 63.15800 41.46500
H  26.15800 60.33800 38.18400
H  27.50700 61.39200 37.83100
H  26.62900 63.28300 38.80400
H  24.96600 62.38000 38.96300
H  25.82300 62.57200 37.41900
H  22.80400 57.84300 39.82500
H  23.29600 58.26100 41.48400
H  22.48700 56.70400 41.17600
H  25.32800 52.75600 38.74900
H  23.99800 49.66100 41.58000
H  24.67300 50.66100 42.67400
H  25.73900 49.48600 41.85500

