158

Mg 46.67500 24.81800 28.22600
C  47.23900 27.27800 30.59300
C  45.90400 22.59800 30.87900
C  46.19600 22.58800 25.87400
C  47.49700 27.15700 25.69000
N  46.48400 25.02800 30.56600
C  46.78300 26.10000 31.23000
C  46.64000 25.86600 32.72100
C  46.42600 24.27600 32.86100
C  46.24100 23.91700 31.35700
C  47.55600 23.49100 33.58600
C  45.46700 26.70000 33.34700
C  44.81700 26.27100 34.68800
H  44.83700 27.08200 35.99500
N  46.17600 22.88400 28.29600
C  45.84000 22.15000 29.51700
C  45.54700 20.77900 29.05000
C  45.52400 20.78600 27.62600
C  46.03000 22.10400 27.22400
C  45.27300 19.64400 30.01900
C  45.12400 19.75500 26.67900
O  45.47300 19.75900 25.48600
C  44.45300 18.42000 27.13000
N  46.84600 24.91900 26.08100
C  46.56100 23.78000 25.35700
C  46.67700 24.07500 23.84100
C  46.82200 25.61100 23.79100
C  47.00400 25.94600 25.25000
C  47.85700 23.34800 23.21800
C  45.54200 26.38000 23.24400
C  45.67800 27.07400 21.90500
N  47.24900 26.75600 28.12300
C  47.65800 27.54100 27.01500
C  48.32800 28.77200 27.52700
C  48.05800 28.75700 28.91400
C  47.46900 27.48400 29.21700
C  48.92100 29.89400 26.80700
C  48.26900 29.53000 30.13100
O  48.75700 30.60500 30.42400
C  47.75000 28.54000 31.32500
C  48.91200 28.14400 32.29400
O  50.01900 27.83000 32.00800
O  48.60300 28.56400 33.50500
C  49.59700 28.52600 34.56100
H  45.58800 21.95000 31.69900
H  45.86900 21.96500 25.03800
H  47.64800 27.89700 24.90200
H  47.51600 26.22100 33.26400
H  45.48700 24.03400 33.36100
H  47.79100 22.61100 32.98800
H  47.20000 23.14200 34.55600
H  48.41000 24.15700 33.70100
H  44.60800 26.73900 32.67800
H  45.89200 27.64800 33.67700
H  45.43300 25.40300 34.92200
H  43.81000 25.90700 34.48400
H  44.20000 19.45100 30.02500
H  45.68700 19.95900 30.97700
H  45.82700 18.73200 29.80000
H  44.02700 17.96000 26.23800
H  43.77500 18.51700 27.97800
H  45.31000 17.84800 27.48600
H  45.73000 23.77900 23.39100
H  47.75500 25.91900 23.31900
H  48.03600 22.41600 23.75400
H  48.83100 23.82100 23.33600
H  47.71800 23.13600 22.15800
H  45.31500 27.20500 23.91900
H  44.71400 25.67400 23.30200
H  45.41000 28.12400 22.01700
H  44.97300 26.60600 21.21800
H  46.71400 27.07800 21.56600
H  49.16900 29.61400 25.78300
H  49.86100 30.18900 27.27500
H  48.23600 30.72300 26.98500
H  46.98800 29.12800 31.83600
H  49.19700 28.71700 35.55700
H  50.30200 29.32200 34.31900
H  50.13100 27.57600 34.55000
Mg 30.33400 58.12000 40.23100
C  27.69300 56.03800 38.99100
C  32.41400 55.82400 38.55400
C  32.71200 60.30200 40.34200
C  27.87000 60.41600 41.07100
N  29.99600 56.27600 38.65800
C  28.89500 55.62900 38.41800
C  29.17400 54.22900 37.81900
C  30.69600 54.12800 37.89600
C  31.05000 55.47100 38.36000
C  31.18100 52.95800 38.88100
C  28.68400 54.10000 36.32700
C  29.16800 55.28600 35.48300
H  28.00200 55.91700 34.62100
N  32.32100 58.07700 39.72100
C  33.01600 57.00200 39.12700
C  34.40600 57.29700 39.16600
C  34.52100 58.64100 39.65500
C  33.16800 59.06600 39.91500
C  35.41500 56.31000 38.61600
C  35.80100 59.39500 39.79600
O  36.85800 58.89100 39.49700
C  35.94800 60.89100 40.19400
N  30.34900 59.94700 40.96400
C  31.46400 60.71300 40.78900
C  31.21900 62.23800 40.91500
C  29.67500 62.28800 41.07300
C  29.27400 60.82900 41.06200
C  31.99400 62.95400 42.08600
C  28.96000 63.10300 39.97300
C  28.48700 64.49600 40.44600
N  28.30500 58.20600 40.26100
C  27.46000 59.15700 40.66600
C  26.11400 58.72900 40.55400
C  26.17500 57.56100 39.91800
C  27.50800 57.22000 39.72700
C  24.89300 59.47700 41.08900
C  25.33400 56.50800 39.26000
O  24.12600 56.53700 39.04900
C  26.33000 55.45100 38.72600
C  25.96800 54.13000 39.39600
O  26.41400 53.65600 40.45300
O  24.99000 53.55300 38.63400
C  24.34800 52.41000 39.30800
H  33.14900 55.05300 38.31400
H  33.46600 61.07500 40.18200
H  27.19300 61.27300 41.08600
H  28.58600 53.56200 38.45000
H  31.17200 53.91900 36.93800
H  30.35100 52.30800 39.15500
H  31.76300 53.36800 39.70600
H  31.95900 52.32300 38.45600
H  27.59900 54.02400 36.39500
H  29.09800 53.25900 35.77000
H  30.00700 54.98300 34.85600
H  29.44700 56.14000 36.10000
H  36.37400 56.81400 38.49000
H  35.12900 56.08000 37.59000
H  35.49500 55.38200 39.18300
H  35.43400 61.57900 39.52200
H  36.98700 61.14800 39.98500
H  35.73900 61.10500 41.24200
H  31.53700 62.71000 39.98500
H  29.39100 62.61500 42.07300
H  32.34600 63.92600 41.74100
H  32.82800 62.32300 42.39300
H  31.36500 63.14500 42.95500
H  28.20900 62.47300 39.49800
H  29.65200 63.14800 39.13200
H  28.80100 64.73400 41.46200
H  27.41600 64.31900 40.34600
H  28.66900 65.30400 39.73700
H  24.11900 58.71000 41.11700
H  24.57300 60.27800 40.42300
H  25.01800 59.85900 42.10200
H  26.07600 55.51300 37.66800
H  23.50900 52.04300 38.71800
H  23.90700 52.67800 40.26800
H  25.08000 51.63000 39.52200

