158

Mg 7.69200 3.24200 27.40500
C  8.86600 1.93800 30.42200
C  5.40600 5.10900 28.89900
C  6.65200 4.03000 24.40600
C  9.63200 0.46100 25.77400
N  7.14800 3.37300 29.41400
C  7.84500 2.89000 30.47300
C  7.21200 3.47200 31.78700
C  5.94400 4.24000 31.27800
C  6.19900 4.31100 29.75300
C  4.66000 3.63200 31.79200
C  8.21000 4.29500 32.59200
C  7.98400 4.11000 34.18500
H  9.28700 3.72200 34.94900
N  6.39000 4.71000 26.74900
C  5.45300 5.30500 27.51200
C  4.73200 6.18900 26.75300
C  5.01800 5.88700 25.39300
C  6.11200 4.86500 25.46800
C  3.78800 7.30000 27.35600
C  4.46200 6.57800 24.13400
O  4.86700 6.27300 23.02000
C  3.33400 7.57300 24.23500
N  8.05800 2.22700 25.30600
C  7.43400 2.86800 24.28700
C  7.72500 2.15900 22.93200
C  8.72800 1.04700 23.34100
C  8.78100 1.19300 24.89500
C  6.47500 1.61100 22.17100
C  10.14700 1.22600 22.65400
C  10.42400 0.25400 21.47300
N  8.96200 1.51100 27.95500
C  9.70800 0.62200 27.21900
C  10.60000 -0.10600 28.18300
C  10.33600 0.44200 29.43100
C  9.35800 1.39300 29.20900
C  11.63100 -1.04600 27.74700
C  10.73200 0.37900 30.77500
O  11.54900 -0.29200 31.38600
C  9.72900 1.38400 31.50700
C  8.88800 0.52300 32.40100
O  7.75200 0.05700 32.19800
O  9.52500 0.42500 33.64500
C  8.72900 -0.30500 34.56600
H  4.62100 5.67800 29.40200
H  6.18400 4.38100 23.48400
H  10.24500 -0.36600 25.40800
H  6.92100 2.60000 32.37200
H  5.95500 5.24500 31.69900
H  4.83300 2.79300 32.46700
H  3.99000 3.40100 30.96400
H  4.21100 4.38700 32.43700
H  8.03400 5.35500 32.40900
H  9.22200 4.08800 32.24700
H  7.30400 3.29900 34.44600
H  7.65900 5.07900 34.56500
H  4.06600 7.30700 28.41000
H  2.80400 6.87900 27.14900
H  3.94500 8.26400 26.87200
H  2.75000 7.73300 23.32900
H  3.78400 8.51900 24.53400
H  2.62200 7.22900 24.98500
H  8.27500 2.83400 22.27700
H  8.31900 0.04200 23.24500
H  5.57100 1.95200 22.67500
H  6.60900 0.53200 22.09500
H  6.36800 2.06700 21.18700
H  10.90600 1.02000 23.40900
H  10.40500 2.23800 22.34000
H  9.47800 -0.14300 21.10600
H  11.01700 -0.57100 21.86800
H  10.96700 0.77200 20.68300
H  11.24000 -2.06300 27.76500
H  12.56100 -1.07400 28.31400
H  11.76000 -0.85200 26.68200
H  10.31700 2.10800 32.07200
H  8.28200 -1.24900 34.25600
H  8.05100 0.37500 35.08100
H  9.41300 -0.78100 35.26900
Mg 5.50900 53.48300 41.70500
C  4.56700 50.17700 41.34400
C  8.74600 52.72700 40.91600
C  6.12200 56.77900 41.57600
C  2.17500 54.17200 42.46900
N  6.51000 51.66000 41.14100
C  5.94900 50.44200 40.88200
C  7.02600 49.36800 40.46600
C  8.36000 50.25600 40.73800
C  7.85100 51.68900 41.01700
C  9.27800 49.70200 41.92100
C  6.88200 48.99300 38.89000
C  6.93100 50.17700 37.95300
H  6.76700 49.68100 36.47100
N  7.25900 54.60500 41.25200
C  8.48000 54.09900 40.94000
C  9.39400 55.17700 40.70900
C  8.63500 56.39600 40.85500
C  7.26000 55.96000 41.24200
C  10.76800 54.94900 40.10200
C  9.18500 57.75500 40.57100
O  10.37500 57.87800 40.20200
C  8.40000 59.02900 40.73700
N  4.33100 55.29400 41.93100
C  4.84200 56.52700 42.00600
C  3.71500 57.59600 42.12600
C  2.47900 56.76200 42.62600
C  3.02300 55.30100 42.20400
C  4.03800 58.90000 42.97300
C  1.14700 56.95500 41.87800
C  -0.08000 57.41800 42.74500
N  3.70600 52.38000 41.88800
C  2.49000 52.82000 42.33400
C  1.67900 51.62900 42.63500
C  2.39900 50.54500 42.19900
C  3.62800 51.06700 41.80500
C  0.26300 51.82700 43.07600
C  2.39500 49.14800 41.99300
O  1.47600 48.36000 42.10200
C  3.91900 48.74000 41.57800
C  4.00700 47.90700 40.35600
O  3.71300 48.22200 39.25600
O  4.53100 46.70100 40.67700
C  4.63700 45.74600 39.57700
H  9.72000 52.32500 40.62900
H  6.37300 57.84200 41.54900
H  1.18300 54.39900 42.86600
H  7.01700 48.47500 41.09100
H  9.00000 50.25800 39.85600
H  8.88900 48.73700 42.24400
H  9.29500 50.28700 42.84100
H  10.28100 49.41400 41.60700
H  6.01500 48.37700 38.64700
H  7.73900 48.36400 38.64900
H  7.90800 50.65100 38.04600
H  6.05800 50.80000 38.15100
H  10.71300 55.11100 39.02600
H  11.15000 53.95400 40.32900
H  11.54800 55.56200 40.55500
H  8.96000 59.93300 40.49900
H  8.00700 59.06900 41.75300
H  7.56800 59.07400 40.03400
H  3.58400 57.84000 41.07200
H  2.33900 56.91500 43.69600
H  5.04600 58.82300 43.38100
H  3.35800 59.03700 43.81400
H  3.96000 59.75800 42.30600
H  0.81600 56.10800 41.27800
H  1.36700 57.84400 41.28600
H  0.09200 57.18500 43.79500
H  -0.92600 56.85500 42.35300
H  -0.14100 58.50600 42.76900
H  -0.29000 52.51400 42.43600
H  0.26100 52.28800 44.06400
H  -0.32500 50.92800 43.26100
H  4.33600 48.22600 42.44400
H  5.26800 44.93200 39.93300
H  4.97400 46.10700 38.60500
H  3.61900 45.38800 39.42400

