158

Mg 42.92300 3.86100 47.97800
C  41.02200 6.58800 47.04500
C  40.25000 1.84900 47.45800
C  45.02000 1.02500 48.08400
C  45.80800 5.83500 47.84400
N  40.89300 4.24500 47.15000
C  40.27300 5.44800 46.96900
C  38.76800 5.25200 46.64500
C  38.49300 3.71700 47.06400
C  39.95600 3.20600 47.21100
C  37.56900 3.52500 48.37500
C  38.51000 5.51900 45.12000
C  37.27000 6.48300 44.75600
H  37.44300 7.35600 43.44800
N  42.59200 1.69800 47.89600
C  41.44500 1.09300 47.71500
C  41.64400 -0.38100 47.62000
C  43.03700 -0.62400 47.81600
C  43.64400 0.75700 47.91900
C  40.51400 -1.36800 47.45900
C  43.76900 -1.96500 47.87400
O  43.16600 -3.01800 47.93100
C  45.28200 -2.10800 47.85000
N  45.08400 3.49300 48.10300
C  45.65800 2.27000 48.17700
C  47.13600 2.37100 48.37800
C  47.48600 3.87200 48.14200
C  46.02500 4.45700 48.02700
C  47.61400 1.69300 49.69900
C  48.48900 4.10600 46.95300
C  49.91100 4.37300 47.37900
N  43.38100 5.85400 47.67000
C  44.60100 6.42800 47.64100
C  44.30500 7.85900 47.34300
C  42.93100 7.98700 47.19700
C  42.41200 6.69000 47.27600
C  45.40700 8.88000 47.10600
C  41.90800 8.98100 46.89200
O  41.93100 10.15500 46.65800
C  40.60500 8.10600 46.84100
C  39.76800 8.63800 47.93500
O  39.86200 8.35600 49.11900
O  38.79000 9.42200 47.40500
C  37.87600 10.08800 48.28800
H  39.39800 1.17300 47.36300
H  45.71800 0.19700 48.22300
H  46.61600 6.56900 47.83600
H  38.13200 5.95200 47.18700
H  38.19000 3.01900 46.28300
H  37.43700 4.49700 48.85000
H  38.19800 2.84300 48.94700
H  36.57400 3.09200 48.27300
H  38.34800 4.57600 44.59800
H  39.44400 5.85300 44.67000
H  37.07300 7.19900 45.55400
H  36.31500 5.95900 44.72400
H  40.57600 -1.92800 46.52600
H  39.56700 -0.84400 47.59000
H  40.57100 -2.15800 48.20900
H  45.78500 -1.53700 47.07000
H  45.44300 -3.10200 47.43200
H  45.75400 -1.93000 48.81600
H  47.81000 2.00700 47.60200
H  48.05400 4.29600 48.96900
H  47.52900 0.61800 49.54200
H  46.96800 1.99000 50.52500
H  48.64400 1.93900 49.95700
H  48.08800 4.99200 46.46100
H  48.52400 3.24000 46.29200
H  50.55700 4.04000 46.56500
H  50.17700 3.90400 48.32600
H  49.98100 5.45800 47.45700
H  46.38200 8.42800 46.92300
H  45.41400 9.48900 48.01000
H  45.14800 9.60500 46.33400
H  40.00200 8.37100 45.97300
H  36.88800 9.63900 48.18600
H  37.74100 11.08400 47.86400
H  38.16100 10.12900 49.33900
Mg 16.19400 51.64400 24.99000
C  18.06000 50.67300 27.81100
C  13.75500 52.78400 27.13500
C  14.49900 52.46000 22.39300
C  18.77600 50.25400 22.88500
N  15.97100 51.66500 27.24500
C  16.87500 51.34700 28.18000
C  16.46300 51.62400 29.63300
C  14.95400 52.14300 29.36900
C  14.81200 52.13900 27.78400
C  13.72500 51.38000 30.12600
C  17.30400 52.52100 30.51300
C  17.25000 52.39700 32.05500
H  16.23100 51.41300 32.61200
N  14.38400 52.53300 24.80700
C  13.57000 53.00100 25.80200
C  12.46300 53.67900 25.20900
C  12.69900 53.72000 23.82100
C  13.91200 52.87700 23.64200
C  11.14600 54.00900 25.91700
C  11.83200 54.24900 22.75000
O  12.10700 54.00200 21.58400
C  10.45400 55.01500 23.03600
N  16.62600 51.34700 22.97300
C  15.61200 51.75800 22.11400
C  16.02000 51.52600 20.63300
C  17.50300 51.12900 20.67000
C  17.65700 50.89100 22.24200
C  15.11800 50.56900 19.84000
C  18.57100 52.09500 20.23500
C  19.22300 51.67800 18.91100
N  18.04900 50.57200 25.23800
C  19.00300 50.09500 24.28300
C  19.96900 49.36600 25.05900
C  19.74600 49.63700 26.42400
C  18.53000 50.33800 26.49600
C  21.06900 48.62500 24.40500
C  20.28900 49.52000 27.75800
O  21.31800 49.04500 28.18700
C  19.22900 50.15800 28.73100
C  18.70500 49.08200 29.65900
O  17.78900 48.28500 29.40600
O  19.40500 49.19600 30.85200
C  19.05000 48.12300 31.76500
H  12.98500 53.19500 27.79100
H  14.16900 52.89400 21.44600
H  19.54700 49.87000 22.21300
H  16.40900 50.60100 30.00600
H  14.93100 53.21200 29.57700
H  13.39300 51.97700 30.97600
H  13.96400 50.44000 30.62300
H  12.93700 51.20700 29.39400
H  16.92200 53.50800 30.24900
H  18.34900 52.42000 30.21700
H  16.97700 53.40400 32.37000
H  18.26500 52.20900 32.40500
H  11.07000 55.09700 25.92700
H  11.18800 53.49100 26.87500
H  10.26700 53.61100 25.41000
H  9.64900 54.31800 23.27000
H  10.27700 55.60900 22.13900
H  10.72900 55.68800 23.84800
H  15.91100 52.47700 20.11300
H  17.77500 50.21700 20.13700
H  14.67000 51.17100 19.04900
H  14.36200 50.23600 20.55100
H  15.54300 49.72000 19.30500
H  19.31800 52.06500 21.02800
H  18.33000 53.15600 20.29700
H  19.36700 52.48600 18.19400
H  18.50500 51.06700 18.36400
H  20.17600 51.20100 19.13800
H  20.62600 48.26600 23.47600
H  21.37200 47.79600 25.04600
H  21.86400 49.28100 24.05100
H  19.66800 50.99700 29.27200
H  18.78000 47.18900 31.27300
H  18.27400 48.46000 32.45200
H  19.93400 47.73700 32.27400

