158

Mg -11.56100 38.71900 40.68600
C  -9.26500 35.98000 40.15000
C  -9.31300 40.72800 39.17900
C  -13.74900 41.15300 41.02500
C  -13.81000 36.31800 41.81600
N  -9.55000 38.31000 39.72600
C  -8.92100 37.14300 39.52900
C  -7.58400 37.45600 38.66900
C  -7.57900 38.99500 38.51800
C  -8.83300 39.40200 39.26700
C  -6.21200 39.70100 38.87200
C  -7.67100 36.68500 37.23700
C  -6.53900 35.67300 36.97900
H  -5.47600 36.14700 36.06700
N  -11.53700 40.68200 40.18400
C  -10.54100 41.33200 39.57600
C  -10.90200 42.71000 39.38300
C  -12.23500 42.89600 39.82900
C  -12.59100 41.53600 40.36100
C  -9.92700 43.73300 38.89200
C  -12.95400 44.24000 39.85800
O  -12.39700 45.21100 39.47100
C  -14.33700 44.43500 40.35000
N  -13.48200 38.75500 41.26100
C  -14.14300 39.89500 41.42200
C  -15.59900 39.55600 41.99800
C  -15.61600 38.01100 42.16700
C  -14.21400 37.65200 41.73600
C  -16.11000 40.43500 43.17100
C  -16.60300 37.18200 41.31100
C  -17.49500 36.13400 42.10900
N  -11.49200 36.58400 41.15400
C  -12.57600 35.80000 41.56200
C  -12.07700 34.37700 41.62400
C  -10.75300 34.42100 41.15400
C  -10.50200 35.73500 40.78400
C  -12.88100 33.25500 42.13100
C  -9.63200 33.63800 40.78600
O  -9.49600 32.43100 40.83300
C  -8.56100 34.60000 40.24200
C  -7.27300 34.51800 41.11100
O  -6.62600 33.48400 41.22000
O  -6.89700 35.77500 41.51500
C  -5.82600 35.91800 42.49500
H  -8.65900 41.38900 38.60600
H  -14.44300 41.99000 41.12300
H  -14.55800 35.65000 42.24900
H  -6.71300 37.06500 39.19500
H  -7.71200 39.36300 37.50000
H  -5.81900 40.07400 37.92700
H  -5.57200 38.97700 39.37700
H  -6.54300 40.47900 39.56000
H  -7.64100 37.31900 36.35100
H  -8.59800 36.11600 37.17600
H  -6.94000 34.68900 36.73400
H  -6.01800 35.49400 37.92000
H  -10.39700 44.13900 37.99600
H  -8.89100 43.43700 38.72600
H  -10.02200 44.54200 39.61500
H  -14.78500 45.41500 40.18600
H  -14.42300 44.28600 41.42700
H  -15.00200 43.75100 39.82200
H  -16.24000 39.81500 41.15600
H  -15.77500 37.75400 43.21400
H  -15.31600 41.03900 43.60700
H  -16.54800 39.77900 43.92400
H  -16.80700 41.20800 42.84600
H  -16.12500 36.69200 40.46200
H  -17.27000 37.90600 40.84400
H  -17.69400 35.22200 41.54700
H  -18.36100 36.68900 42.47000
H  -16.97800 35.73300 42.98000
H  -12.41800 32.98800 43.08000
H  -12.73200 32.49100 41.36700
H  -13.93400 33.44800 42.33900
H  -8.35900 34.16600 39.26300
H  -6.25100 36.57700 43.25200
H  -4.91100 36.40100 42.15300
H  -5.74400 34.93200 42.95100
Mg -6.27800 24.76900 25.32200
C  -4.58600 26.26200 28.15700
C  -7.63300 22.52200 27.49200
C  -7.09300 23.06800 22.72200
C  -3.90100 26.61100 23.44900
N  -6.11900 24.37200 27.63900
C  -5.49400 25.20800 28.55000
C  -6.06200 24.86700 29.98100
C  -6.79500 23.46900 29.70700
C  -6.90600 23.46400 28.20800
C  -6.09700 22.16500 30.28700
C  -6.90200 26.04800 30.53300
C  -6.98800 26.28300 32.05200
H  -6.42700 25.20500 32.96100
N  -7.36300 23.11400 25.16300
C  -7.90400 22.32800 26.06800
C  -8.78000 21.34500 25.50100
C  -8.67200 21.59000 24.09000
C  -7.65800 22.67900 23.94500
C  -9.77600 20.36300 26.26200
C  -9.30200 20.84300 22.96100
O  -9.08300 21.15700 21.75600
C  -10.21900 19.64300 23.15600
N  -5.49700 24.80300 23.39500
C  -6.14000 24.04500 22.45500
C  -5.43600 24.17600 21.08500
C  -4.77500 25.58500 21.22700
C  -4.67700 25.67300 22.78400
C  -4.46700 23.05100 20.69400
C  -5.63400 26.80900 20.80400
C  -5.29400 27.16000 19.29700
N  -4.69100 26.33700 25.66800
C  -3.77200 26.94500 24.80600
C  -2.85800 27.86300 25.53800
C  -3.18200 27.60200 26.92500
C  -4.22800 26.64000 26.88900
C  -1.81400 28.76800 24.96900
C  -2.77600 27.95000 28.32100
O  -1.85400 28.61900 28.83200
C  -3.76500 27.11000 29.16300
C  -2.98600 26.25000 30.07800
O  -2.32100 25.32700 29.68700
O  -2.97900 26.71900 31.34100
C  -2.24600 26.08700 32.41700
H  -8.12000 21.74900 28.08900
H  -7.42800 22.52200 21.83800
H  -3.28400 27.18300 22.75300
H  -5.15900 24.72300 30.57500
H  -7.82300 23.53500 30.06300
H  -5.80000 21.57000 29.42300
H  -6.85300 21.61300 30.84400
H  -5.16500 22.29900 30.83500
H  -7.93600 25.93100 30.20700
H  -6.55700 27.01200 30.15800
H  -8.05800 26.32000 32.25800
H  -6.63300 27.28500 32.29400
H  -9.41700 19.36100 26.02700
H  -10.80000 20.60200 25.97200
H  -9.62200 20.28800 27.33800
H  -11.13900 20.00600 23.61400
H  -9.67800 18.92100 23.76700
H  -10.49200 19.25500 22.17400
H  -6.25500 24.24100 20.37000
H  -3.77900 25.61300 20.78600
H  -3.45700 23.39800 20.91100
H  -4.57000 22.70300 19.66700
H  -4.66700 22.13600 21.25300
H  -5.37500 27.63600 21.46500
H  -6.71700 26.72200 20.89200
H  -5.02900 26.24500 18.76700
H  -4.41700 27.79700 19.40900
H  -6.15300 27.61700 18.80600
H  -1.28600 29.36300 25.71400
H  -2.26800 29.33800 24.15800
H  -1.15100 28.03100 24.51500
H  -4.40800 27.69900 29.81700
H  -1.40300 26.72200 32.69000
H  -1.85900 25.13300 32.06100
H  -2.90700 25.88100 33.25900

