158

Mg 47.74700 35.04200 27.12800
C  46.15100 33.26800 29.81600
C  48.08600 37.68500 29.19900
C  48.80200 36.76800 24.52600
C  47.42200 32.11900 25.18600
N  47.37900 35.28800 29.31000
C  46.78300 34.44700 30.21900
C  46.97100 35.00500 31.64700
C  47.28500 36.51300 31.30200
C  47.63800 36.49700 29.81700
C  46.15900 37.47500 31.71400
C  48.18100 34.24300 32.30600
C  48.66300 34.75000 33.71700
H  47.83700 35.70500 34.50700
N  48.35500 36.93300 26.90000
C  48.43500 37.87000 27.85000
C  48.86400 39.10600 27.29500
C  49.12100 38.89500 25.86200
C  48.83700 37.42600 25.71600
C  49.10500 40.30200 28.07300
C  49.70000 39.86800 24.80000
O  50.06600 39.47400 23.68800
C  49.98600 41.31200 25.13900
N  48.17800 34.48700 25.16500
C  48.45700 35.45000 24.24800
C  48.51100 34.82800 22.81700
C  48.48100 33.33000 23.17100
C  47.96700 33.32700 24.62100
C  47.47400 35.28500 21.80200
C  49.72100 32.46100 22.86800
C  49.83400 32.08400 21.38900
N  46.87700 33.17000 27.36300
C  46.82100 32.06500 26.46300
C  46.14300 30.94000 27.12300
C  45.81100 31.47000 28.34600
C  46.28800 32.78400 28.51300
C  45.86700 29.56600 26.63400
C  44.99300 31.12000 29.51900
O  44.31900 30.08800 29.68800
C  45.16200 32.31900 30.52400
C  45.42000 31.81100 31.92900
O  46.37000 31.23500 32.36100
O  44.36600 32.36000 32.67400
C  44.43000 32.18900 34.09900
H  48.26500 38.51300 29.88800
H  48.99900 37.44200 23.68900
H  47.45200 31.28200 24.48400
H  46.05300 34.81200 32.20200
H  48.19500 36.78300 31.83700
H  45.56200 36.82200 32.35200
H  45.53600 37.91000 30.93300
H  46.65200 38.18500 32.37700
H  49.07400 34.27100 31.68100
H  47.91600 33.19400 32.43600
H  49.62700 35.25800 33.72400
H  48.75500 33.87000 34.35300
H  49.70400 41.06900 27.58400
H  49.52000 39.95400 29.02000
H  48.12000 40.70500 28.30900
H  50.33600 41.92100 24.30600
H  50.77100 41.40700 25.89000
H  49.06800 41.65300 25.61800
H  49.51000 35.04100 22.43800
H  47.70800 32.92700 22.51600
H  47.67200 36.35600 21.74200
H  46.45900 35.07200 22.13600
H  47.78100 34.75300 20.90200
H  49.70500 31.59000 23.52400
H  50.64500 33.00700 23.05900
H  49.05200 32.63700 20.86900
H  49.63700 31.01700 21.29300
H  50.84000 32.30800 21.03300
H  45.86900 28.81600 27.42600
H  46.70700 29.27800 26.00200
H  44.98100 29.55200 25.99900
H  44.27500 32.93600 30.66800
H  43.85200 33.02700 34.48900
H  45.46100 32.28800 34.44000
H  44.05900 31.21500 34.41700
Mg 6.47200 54.34800 41.59300
C  5.92000 51.04100 41.04200
C  9.74000 53.89600 40.56500
C  6.68500 57.65100 41.20300
C  2.93600 54.83500 41.97300
N  7.57300 52.62700 40.52900
C  7.19000 51.39100 40.61800
C  8.34600 50.39600 40.25500
C  9.68100 51.24000 40.43700
C  8.97900 52.71300 40.54400
C  10.65400 50.98400 41.63200
C  8.21400 49.71500 38.90400
C  7.92800 50.55400 37.60800
H  6.95600 50.04200 36.54800
N  8.03700 55.58100 41.17700
C  9.29400 55.19200 40.74800
C  10.14100 56.34900 40.59400
C  9.31800 57.47000 40.75900
C  7.91600 56.92200 41.05100
C  11.58300 56.26000 40.24000
C  9.73400 58.97000 40.55300
O  10.90200 59.24100 40.26100
C  8.85100 60.09200 40.97100
N  5.02200 56.02100 41.55400
C  5.37400 57.28400 41.47300
C  4.18100 58.29700 41.61500
C  2.97300 57.35300 41.88100
C  3.73200 56.00400 41.95500
C  4.35000 59.22500 42.86800
C  1.82200 57.48900 40.84300
C  0.68200 58.51800 41.11800
N  4.76500 53.19000 41.68800
C  3.43400 53.49500 41.88000
C  2.76500 52.26800 41.98500
C  3.68200 51.24900 41.62100
C  4.86400 51.89800 41.43900
C  1.34500 52.16500 42.32200
C  3.82400 49.87100 41.53000
O  3.01700 48.96700 41.86400
C  5.29900 49.62400 41.05000
C  5.14000 48.92600 39.71900
O  4.82900 49.45700 38.64400
O  5.45500 47.62000 39.97900
C  5.16600 46.69400 38.95200
H  10.77700 53.64900 40.32700
H  6.70800 58.70200 40.90700
H  1.86900 54.86000 42.20300
H  8.21900 49.64800 41.03900
H  10.31900 51.11100 39.56300
H  10.44000 51.83100 42.28300
H  11.66000 50.97500 41.21300
H  10.51500 50.01800 42.11600
H  7.55700 48.85200 39.02100
H  9.20800 49.33900 38.66000
H  8.87200 50.61600 37.06600
H  7.54300 51.54200 37.86000
H  12.09300 57.16800 40.56300
H  11.68600 56.07900 39.17000
H  12.01000 55.47300 40.86100
H  8.29700 60.37200 40.07500
H  9.51800 60.93300 41.15800
H  8.26800 59.89000 41.86900
H  4.23900 58.96600 40.75600
H  2.51200 57.52400 42.85300
H  5.27400 59.79800 42.78900
H  4.38200 58.60700 43.76500
H  3.52100 59.93200 42.86200
H  1.36700 56.55200 40.52100
H  2.24100 57.79900 39.88500
H  -0.28900 58.04300 40.97400
H  0.86400 59.45900 40.59800
H  0.82500 58.86300 42.14200
H  0.69100 52.47000 41.50500
H  1.26800 52.79300 43.20900
H  1.00300 51.16200 42.57700
H  5.74400 48.86500 41.69300
H  5.89700 45.89200 39.05400
H  5.24400 47.06200 37.92900
H  4.28900 46.10800 39.22700

