158

Mg 0.06700 7.13700 25.36200
C  0.76200 9.04500 28.22600
C  0.22800 4.31600 27.25100
C  -0.18900 5.41500 22.59200
C  0.80500 10.03300 23.43500
N  0.33700 6.80800 27.49300
C  0.50700 7.67600 28.53000
C  0.51800 6.97600 29.87000
C  0.54500 5.45400 29.56300
C  0.43600 5.51500 27.99700
C  1.77300 4.70300 30.05500
C  -0.58700 7.46500 30.90600
C  -0.40400 7.12800 32.33200
H  0.84300 6.46100 32.92200
N  -0.25500 5.12800 25.04000
C  -0.00300 4.15100 25.87900
C  -0.13500 2.89300 25.29400
C  -0.37200 3.13300 23.87600
C  -0.32700 4.64100 23.72800
C  -0.02000 1.52500 26.11100
C  -0.59200 2.26300 22.66100
O  -0.92800 2.72800 21.60200
C  -0.44700 0.83900 22.77900
N  0.47700 7.59700 23.25900
C  0.09200 6.75400 22.34400
C  -0.02300 7.42200 20.92500
C  0.21600 8.96700 21.27300
C  0.49800 8.85100 22.75400
C  0.98500 6.91400 19.84500
C  -0.92500 9.91200 20.73200
C  -2.17100 10.10500 21.63000
N  0.85300 9.12000 25.70000
C  1.02900 10.17900 24.83500
C  1.29800 11.40200 25.65300
C  1.21200 10.99500 26.94300
C  0.98300 9.63800 26.94300
C  1.57900 12.78500 25.18600
C  1.41000 11.46500 28.29000
O  1.69000 12.56700 28.72600
C  1.07800 10.20700 29.21100
C  2.22300 9.98800 30.07800
O  3.17400 9.34000 29.79000
O  2.01600 10.69700 31.20800
C  2.87900 10.30800 32.33200
H  0.28000 3.43900 27.89900
H  -0.51100 4.90300 21.68300
H  0.87300 10.95800 22.85700
H  1.48700 7.22500 30.30400
H  -0.35000 4.90300 29.85500
H  1.52200 4.00000 30.84900
H  2.45100 5.39300 30.55700
H  2.33500 4.17700 29.28400
H  -1.56800 7.15200 30.54900
H  -0.77500 8.53400 30.80100
H  -1.32600 6.62300 32.62000
H  -0.49700 8.08500 32.84500
H  0.97500 1.54400 26.55800
H  0.22800 0.62400 25.55000
H  -0.67100 1.28800 26.95300
H  -0.93800 0.29600 21.97200
H  -0.85400 0.56700 23.75300
H  0.63400 0.73100 22.68200
H  -0.99100 7.25000 20.45500
H  1.11600 9.42100 20.86000
H  1.75300 6.24700 20.23700
H  1.56600 7.73800 19.43300
H  0.42400 6.44500 19.03700
H  -1.29100 9.40000 19.84200
H  -0.52000 10.87700 20.42700
H  -2.18300 9.41900 22.47600
H  -2.99800 9.83300 20.97300
H  -2.24300 11.13400 21.98100
H  1.77400 12.99500 24.13500
H  2.35000 13.25600 25.79500
H  0.69800 13.34800 25.49600
H  0.19800 10.40600 29.82400
H  3.92300 10.16900 32.04900
H  2.47100 9.33500 32.60500
H  2.75800 11.05800 33.11300
Mg 16.25000 51.81300 24.91500
C  18.33200 51.03200 27.50700
C  13.85600 52.54800 27.12300
C  14.30800 52.39700 22.26700
C  18.85300 50.96500 22.72300
N  16.10900 51.76500 27.07000
C  17.12400 51.47800 27.93700
C  16.66100 51.67000 29.38600
C  15.10400 51.94900 29.28900
C  14.99000 52.06300 27.77900
C  14.22900 50.82400 29.79800
C  17.38800 52.84000 30.18000
C  17.51000 52.72700 31.80000
H  16.69400 51.67600 32.61700
N  14.40600 52.38500 24.71800
C  13.55000 52.71900 25.74100
C  12.32400 53.14800 25.18900
C  12.40700 53.11800 23.73700
C  13.73800 52.66100 23.51700
C  11.20200 53.50900 26.10300
C  11.29900 53.34500 22.64600
O  11.41400 53.09900 21.44200
C  9.92400 53.92000 23.06700
N  16.54300 51.63200 22.79000
C  15.57200 51.86600 21.90000
C  16.00000 51.60000 20.45300
C  17.55800 51.46500 20.68000
C  17.70500 51.40700 22.12300
C  15.20300 50.47700 19.83800
C  18.43400 52.63500 20.01100
C  19.63300 52.09400 19.20600
N  18.20300 51.20100 25.02700
C  19.17100 50.89300 24.08100
C  20.44200 50.55200 24.69900
C  20.09700 50.53200 26.09100
C  18.79300 50.96600 26.20200
C  21.75200 50.21100 24.05700
C  20.65100 50.28200 27.42100
O  21.74900 49.94200 27.82600
C  19.51000 50.69700 28.40900
C  19.22400 49.58500 29.32700
O  18.70400 48.53500 29.00100
O  19.70200 49.88600 30.53400
C  19.57000 48.89800 31.66100
H  13.02600 52.87600 27.75400
H  13.74200 52.57300 21.35100
H  19.69400 50.91500 22.02900
H  16.85200 50.71200 29.87000
H  14.79100 52.89000 29.74100
H  14.58900 49.95300 30.34700
H  13.58200 50.51900 28.97600
H  13.54700 51.31800 30.49100
H  16.98100 53.82100 29.93600
H  18.36200 52.84500 29.69100
H  17.09600 53.67600 32.14000
H  18.56900 52.69400 32.05400
H  10.51700 54.25600 25.70200
H  11.58500 53.92800 27.03400
H  10.60500 52.60200 26.19500
H  10.06900 54.84500 23.62500
H  9.42900 53.13800 23.64400
H  9.32600 54.05000 22.16500
H  15.66000 52.43400 19.83900
H  17.76600 50.50000 20.21700
H  14.61000 51.00200 19.09000
H  14.60500 49.90200 20.54500
H  15.90800 49.84300 19.30100
H  18.85300 53.25800 20.80100
H  17.72700 53.21200 19.41600
H  19.58200 52.64800 18.26900
H  19.51700 51.01300 19.12500
H  20.61300 52.31700 19.62700
H  21.87300 50.67600 23.07800
H  21.63800 49.15000 23.83400
H  22.58900 50.49500 24.69400
H  19.88400 51.45700 29.09500
H  19.67700 49.31600 32.66300
H  20.32000 48.10700 31.63800
H  18.62700 48.35500 31.71700

