158

Mg 9.92600 47.28700 26.69400
C  8.00600 47.27700 29.55700
C  12.62500 48.38900 28.41600
C  11.64700 47.30300 23.75600
C  7.04900 46.42100 24.88800
N  10.23500 47.67600 28.80100
C  9.33200 47.57100 29.83600
C  9.99400 47.87400 31.16400
C  11.33900 48.68100 30.68700
C  11.39900 48.26000 29.21900
C  11.23700 50.23000 30.75100
C  10.24600 46.57500 32.08800
C  9.68800 46.78100 33.50700
H  9.67700 45.50000 34.37900
N  11.92500 47.56900 26.17900
C  12.90700 48.07800 27.03000
C  14.14800 48.18500 26.35000
C  13.87800 47.64400 25.01900
C  12.43800 47.55600 24.90500
C  15.40500 48.77300 26.97000
C  14.87100 47.36900 23.88100
O  14.53200 47.03400 22.76400
C  16.30800 47.50500 24.04400
N  9.46500 46.84800 24.62700
C  10.31800 46.96000 23.52700
C  9.72700 46.41000 22.23700
C  8.33700 45.98800 22.70600
C  8.22800 46.47100 24.12700
C  9.73100 47.49400 21.10200
C  8.15000 44.42600 22.64200
C  9.34700 43.56500 23.10400
N  7.86200 47.01500 27.10500
C  6.87300 46.67500 26.29000
C  5.63900 46.55300 27.05200
C  6.03800 46.83500 28.38500
C  7.39200 47.08100 28.32600
C  4.27100 46.18500 26.51100
C  5.64000 47.03200 29.72500
O  4.53000 47.02200 30.20600
C  6.92700 47.15500 30.59400
C  6.93000 45.88100 31.40300
O  7.49400 44.82400 31.12000
O  6.16000 46.15100 32.48500
C  5.85500 44.91500 33.25400
H  13.47200 48.78000 28.98400
H  12.12500 47.37600 22.77700
H  6.14700 45.94900 24.49400
H  9.42400 48.58700 31.76000
H  12.22700 48.39700 31.25000
H  11.52700 50.70400 29.81400
H  12.01300 50.47800 31.47500
H  10.27500 50.66800 31.01500
H  11.33400 46.50400 32.10500
H  9.69200 45.71600 31.71100
H  8.70400 47.22100 33.34800
H  10.33200 47.50900 34.00000
H  15.94100 49.21100 26.12800
H  15.96500 47.95300 27.41900
H  15.27400 49.50000 27.77100
H  16.69400 47.04800 24.95500
H  16.50000 48.54800 23.79200
H  16.76500 46.91300 23.25100
H  10.36600 45.56900 21.96800
H  7.55600 46.50000 22.14300
H  10.26800 47.12500 20.22900
H  10.21000 48.36600 21.54800
H  8.73800 47.82100 20.79100
H  7.81800 44.10800 21.65400
H  7.24200 44.15000 23.17900
H  10.01500 43.22300 22.31400
H  8.99900 42.69700 23.66500
H  9.88900 44.16900 23.83300
H  3.79700 47.03900 26.02900
H  3.65100 46.22400 27.40700
H  4.28500 45.26100 25.93200
H  6.89700 48.04900 31.21700
H  5.95900 44.00700 32.66000
H  4.83200 44.93400 33.63000
H  6.49800 44.69700 34.10700
Mg -5.73900 24.91100 25.37500
C  -4.07300 26.13200 28.17600
C  -7.28900 22.57400 27.40900
C  -7.14300 23.43800 22.62700
C  -3.67900 26.90800 23.32200
N  -5.42800 24.31700 27.57600
C  -4.94100 25.09700 28.49600
C  -5.64300 24.80500 29.85600
C  -6.33500 23.44700 29.59300
C  -6.33600 23.45100 28.03600
C  -5.58900 22.17600 30.10300
C  -6.49100 25.95300 30.34500
C  -6.31000 26.36400 31.83500
H  -5.70400 25.40700 32.88400
N  -7.08300 23.21500 25.10200
C  -7.65300 22.50400 26.06200
C  -8.63100 21.61000 25.46700
C  -8.64400 21.86000 24.02200
C  -7.61400 22.89500 23.82500
C  -9.42000 20.64100 26.28900
C  -9.60100 21.32800 22.97600
O  -9.60500 21.72800 21.79400
C  -10.70800 20.33100 23.41700
N  -5.47600 25.15200 23.31200
C  -6.15600 24.39700 22.40800
C  -5.81200 24.83500 20.94600
C  -4.76000 26.02300 21.08800
C  -4.66000 26.08600 22.67200
C  -5.32700 23.65100 19.96800
C  -5.11100 27.37000 20.50600
C  -4.39300 27.78000 19.21700
N  -4.12700 26.18800 25.62300
C  -3.53200 27.01800 24.74500
C  -2.66800 27.93600 25.43900
C  -2.93000 27.70800 26.78200
C  -3.73700 26.58300 26.84600
C  -1.80400 28.95900 24.80800
C  -2.57000 28.07700 28.09900
O  -1.78100 29.00700 28.46700
C  -3.34200 27.13900 29.14100
C  -2.27900 26.60800 30.15000
O  -1.17700 26.15700 29.93400
O  -2.79600 26.95200 31.34600
C  -1.94000 26.90700 32.46100
H  -7.88300 21.90800 28.03700
H  -7.57400 22.94500 21.75300
H  -3.11600 27.59300 22.68400
H  -4.91400 24.60700 30.64200
H  -7.35900 23.43700 29.96500
H  -6.19400 21.32600 30.41800
H  -4.91300 22.41500 30.92500
H  -4.85800 21.79700 29.39000
H  -7.56700 25.78300 30.30500
H  -6.28000 26.77000 29.65500
H  -7.28400 26.69900 32.19200
H  -5.71400 27.27600 31.81100
H  -9.07200 20.41100 27.29600
H  -9.50600 19.64100 25.86300
H  -10.48500 20.83600 26.41600
H  -11.28400 20.82000 24.20200
H  -10.25100 19.43800 23.84200
H  -11.25900 20.01800 22.52900
H  -6.70600 25.23500 20.46800
H  -3.82400 25.57900 20.74800
H  -5.72600 23.88800 18.98300
H  -5.52800 22.62900 20.29200
H  -4.23900 23.63900 20.04100
H  -5.07300 28.14800 21.26800
H  -6.12100 27.33500 20.09900
H  -3.34200 27.49200 19.19700
H  -4.49700 28.86200 19.12800
H  -4.96400 27.31000 18.41700
H  -2.47800 29.59300 24.23300
H  -1.06700 28.51900 24.13600
H  -1.35400 29.55500 25.60300
H  -4.06100 27.89800 29.44700
H  -1.68900 25.91300 32.83200
H  -2.33000 27.42800 33.33500
H  -0.91500 27.26900 32.37600

