158

Mg 35.22800 2.30200 29.79800
C  33.09800 3.65100 32.21900
C  37.61600 2.06300 32.16100
C  37.45500 1.91500 27.22900
C  32.75900 3.17200 27.38000
N  35.25300 2.82000 31.88900
C  34.28900 3.24300 32.75400
C  34.64500 3.14700 34.19800
C  36.22200 3.01000 34.10300
C  36.38900 2.62900 32.56100
C  37.07700 4.17800 34.61600
C  33.94200 1.98900 35.02800
C  33.96000 2.23100 36.57900
H  34.86500 3.32300 37.19900
N  37.30900 2.00400 29.73200
C  38.11800 1.81800 30.84800
C  39.38700 1.43300 30.40800
C  39.41600 1.41200 28.94900
C  38.00500 1.85600 28.58600
C  40.50800 1.22800 31.40400
C  40.60500 1.11600 28.02900
O  40.54200 1.21700 26.80200
C  41.90900 0.61900 28.67900
N  35.14600 2.54200 27.63400
C  36.18600 2.15700 26.82100
C  35.76200 2.15400 25.32000
C  34.18000 2.48600 25.43100
C  34.02000 2.76200 26.91300
C  36.70300 3.04900 24.42200
C  33.20500 1.31300 25.04000
C  32.21400 1.64200 23.95300
N  33.30300 3.04000 29.72300
C  32.44000 3.41500 28.66200
C  31.18700 3.97500 29.17600
C  31.44800 3.99800 30.57600
C  32.73400 3.49900 30.85700
C  30.06400 4.68200 28.42200
C  30.86600 4.46900 31.81800
O  29.84200 5.03500 32.15100
C  31.86600 4.06600 32.97000
C  32.20000 5.31300 33.75100
O  32.97500 6.21100 33.47400
O  31.52400 5.19400 34.97700
C  31.85000 6.16800 36.05500
H  38.29000 1.95700 33.01300
H  38.20800 1.65700 26.48100
H  31.93400 3.25600 26.66900
H  34.39900 4.12100 34.62100
H  36.57100 2.10900 34.60600
H  37.90900 4.48400 33.98300
H  37.53200 3.74100 35.50400
H  36.46500 5.05400 34.83500
H  34.48300 1.10700 34.68500
H  32.93700 1.81900 34.64200
H  34.04300 1.22400 36.98600
H  32.96900 2.53900 36.91400
H  41.36700 1.85800 31.17200
H  40.84800 0.19200 31.42300
H  40.17700 1.51400 32.40300
H  42.66100 0.15200 28.04400
H  41.68200 -0.10700 29.45900
H  42.37000 1.51700 29.09100
H  35.95000 1.12400 25.01600
H  33.80100 3.36300 24.90700
H  37.16600 3.82300 25.03400
H  36.07300 3.70600 23.82300
H  37.43000 2.58200 23.75800
H  32.80200 0.80200 25.91400
H  33.91700 0.68500 24.50400
H  32.73000 1.65000 22.99300
H  31.91500 2.68500 24.06500
H  31.42200 0.90000 24.05400
H  29.22700 5.03600 29.02400
H  29.77900 4.08500 27.55600
H  30.51600 5.53500 27.91700
H  31.61800 3.25000 33.64900
H  31.30000 7.10900 36.05100
H  32.91600 6.36600 35.93700
H  31.76900 5.73700 37.05200
Mg -6.44400 25.38900 25.82700
C  -4.60500 26.85800 28.33600
C  -7.60700 23.05000 28.04100
C  -7.88800 23.78000 23.24400
C  -4.90200 27.64900 23.63100
N  -5.97500 24.90800 27.90300
C  -5.36500 25.78100 28.77800
C  -5.74100 25.36200 30.29100
C  -6.40400 23.99000 30.08800
C  -6.67700 23.98100 28.59100
C  -5.58800 22.81000 30.60600
C  -6.72600 26.41200 30.88400
C  -6.36800 26.69900 32.36600
H  -5.87200 25.54000 33.32800
N  -7.63500 23.67100 25.67700
C  -8.04800 22.84100 26.74700
C  -8.96800 21.85800 26.21800
C  -9.05300 22.11600 24.81600
C  -8.12800 23.20200 24.47900
C  -9.61900 20.66700 26.95800
C  -9.97300 21.42000 23.78500
O  -9.85100 21.59400 22.58000
C  -11.05000 20.50900 24.26500
N  -6.37500 25.68800 23.73200
C  -7.14400 24.91300 22.88000
C  -6.98500 25.41100 21.45600
C  -6.09700 26.69800 21.58100
C  -5.81800 26.72600 23.10800
C  -6.38800 24.29200 20.47000
C  -6.73500 27.99500 20.96000
C  -5.98700 28.65500 19.82400
N  -5.06200 26.93800 25.96100
C  -4.49500 27.72900 24.96600
C  -3.58200 28.68800 25.49500
C  -3.66500 28.45200 26.86900
C  -4.44300 27.30600 27.09200
C  -2.80700 29.77300 24.79000
C  -3.17900 28.82000 28.23700
O  -2.36200 29.67800 28.49900
C  -3.83800 27.89600 29.25100
C  -2.82000 27.22300 30.06500
O  -1.81500 26.61800 29.68000
O  -3.14300 27.39800 31.41900
C  -2.21500 26.83000 32.38400
H  -8.12400 22.37600 28.72700
H  -8.40500 23.28100 22.42200
H  -4.37300 28.29400 22.92700
H  -4.83700 25.38400 30.90000
H  -7.37300 23.95200 30.58600
H  -5.23100 22.13200 29.83100
H  -6.26400 22.28500 31.28100
H  -4.70200 23.22000 31.09200
H  -7.75800 26.07200 30.96300
H  -6.73300 27.30800 30.26400
H  -7.31600 27.09800 32.72700
H  -5.59400 27.44400 32.18100
H  -9.46600 19.70600 26.46600
H  -10.66100 20.92700 27.14700
H  -9.19900 20.55100 27.95700
H  -10.78100 19.49200 24.55000
H  -11.71800 20.39400 23.41100
H  -11.61900 21.07300 25.00300
H  -7.99000 25.73000 21.18000
H  -5.22400 26.42800 20.98600
H  -7.21100 23.67400 20.11000
H  -5.63100 23.66400 20.94200
H  -5.92600 24.74800 19.59400
H  -6.85400 28.59400 21.86300
H  -7.73800 27.74200 20.61400
H  -5.09800 28.04600 19.66200
H  -5.73800 29.70000 20.00900
H  -6.58000 28.52900 18.91800
H  -3.44400 30.12000 23.97700
H  -1.90800 29.38900 24.30700
H  -2.61000 30.63600 25.42600
H  -4.48300 28.42600 29.95300
H  -1.38900 27.54100 32.40600
H  -1.89400 25.81900 32.13200
H  -2.65500 26.89900 33.37900

