158

Mg 42.70500 41.46200 26.79100
C  42.21400 44.08000 29.18300
C  43.33800 39.46800 29.38700
C  43.42300 39.16100 24.56200
C  42.34000 43.91500 24.17800
N  42.83400 41.81800 29.06800
C  42.49100 42.85900 29.80600
C  42.69700 42.71500 31.35100
C  43.14300 41.20100 31.34100
C  43.18500 40.80300 29.83300
C  44.45200 40.83100 32.11300
C  41.36900 43.03300 32.08100
C  41.17600 42.33700 33.39800
H  41.45600 43.23300 34.58800
N  43.29000 39.55000 26.95500
C  43.35300 38.88800 28.11500
C  43.76100 37.51600 27.78200
C  43.90300 37.40100 26.33500
C  43.59400 38.72700 25.84200
C  44.13400 36.50800 28.91300
C  44.14800 36.21300 25.37400
O  44.20300 36.36100 24.10300
C  44.30300 34.86900 25.97100
N  43.06400 41.56800 24.67200
C  43.20200 40.40500 23.96600
C  43.14500 40.63400 22.38300
C  42.48600 42.04200 22.36800
C  42.61200 42.59200 23.82200
C  44.53200 40.53600 21.69800
C  40.98000 41.96000 22.01600
C  40.14600 40.86300 22.74300
N  42.33200 43.59200 26.62900
C  42.18600 44.41900 25.49800
C  41.82200 45.74200 25.95500
C  41.79000 45.62600 27.37400
C  42.15100 44.33000 27.73200
C  41.50000 46.90000 25.07300
C  41.55900 46.37300 28.60500
O  41.06900 47.50500 28.83000
C  41.89600 45.41600 29.78900
C  42.89700 46.13500 30.58100
O  44.11900 46.13700 30.41300
O  42.32900 46.73000 31.71200
C  43.16900 47.24000 32.78500
H  43.50300 38.92900 30.32200
H  43.46600 38.45800 23.72700
H  42.07000 44.61000 23.38000
H  43.45100 43.31800 31.85800
H  42.30000 40.59000 31.66400
H  45.27900 40.50600 31.48200
H  44.20800 39.98300 32.75200
H  44.78800 41.64600 32.75400
H  40.50400 42.94300 31.42400
H  41.40500 44.08700 32.35700
H  41.71400 41.39400 33.50300
H  40.11700 42.12000 33.53900
H  44.10400 36.97900 29.89500
H  45.17100 36.27900 28.66800
H  43.73600 35.49300 28.88200
H  43.31500 34.49100 26.23500
H  45.01400 34.90900 26.79600
H  44.58000 34.15000 25.20000
H  42.50000 39.85000 21.98600
H  43.01800 42.78200 21.77000
H  44.87100 41.39500 21.11900
H  44.34900 39.64500 21.09800
H  45.33200 40.25100 22.38000
H  41.00800 41.78400 20.94000
H  40.41800 42.88800 22.12200
H  39.40900 41.48500 23.25200
H  40.77100 40.29100 23.42900
H  39.64500 40.12700 22.11400
H  41.11100 47.63100 25.78100
H  40.66300 46.68300 24.41000
H  42.34700 47.26100 24.48900
H  41.10400 45.43700 30.53700
H  44.06800 47.72900 32.40800
H  43.52200 46.31900 33.24800
H  42.55900 47.86500 33.43800
Mg -11.88400 38.04800 42.27600
C  -9.79800 35.35500 41.15500
C  -9.50100 40.16400 41.27700
C  -14.05000 40.50400 42.66400
C  -14.41800 35.68900 42.71600
N  -9.96400 37.77400 41.14200
C  -9.28800 36.59400 40.94600
C  -7.94600 36.88000 40.44700
C  -7.73000 38.41400 40.74300
C  -9.14400 38.84700 41.19400
C  -6.69400 38.66900 41.89800
C  -7.91500 36.49500 38.89500
C  -6.99400 35.34500 38.52900
H  -5.95400 35.61200 37.41500
N  -11.80200 40.11100 41.89700
C  -10.70400 40.75100 41.51900
C  -11.03100 42.19400 41.53700
C  -12.36700 42.29400 42.04800
C  -12.83000 40.95800 42.16000
C  -9.92200 43.24800 41.30400
C  -13.03900 43.53700 42.45400
O  -12.53900 44.60700 42.16500
C  -14.39100 43.74100 43.15100
N  -13.85200 38.11000 42.58700
C  -14.58200 39.22900 42.88900
C  -16.09100 39.05200 43.31700
C  -16.13000 37.50500 43.23000
C  -14.70700 37.02700 42.86000
C  -16.62700 39.63700 44.67400
C  -17.19500 36.94500 42.18900
C  -18.42700 36.38400 42.71900
N  -12.03000 35.91900 42.20500
C  -13.14700 35.09600 42.36400
C  -12.77600 33.77100 42.22200
C  -11.43100 33.76300 41.73900
C  -11.07900 35.10200 41.70000
C  -13.71000 32.61400 42.40200
C  -10.30300 32.96700 41.25600
O  -10.09900 31.81700 41.21200
C  -9.11300 33.98500 40.94500
C  -8.06400 33.62600 41.88600
O  -8.26300 33.72400 43.07800
O  -6.79900 33.32700 41.25100
C  -5.59900 32.93700 42.06900
H  -8.71600 40.90500 41.11500
H  -14.87300 41.17300 42.92400
H  -15.08500 34.87300 43.00200
H  -7.27000 36.27300 41.05000
H  -7.26200 38.86600 39.86900
H  -5.77100 38.09500 41.81400
H  -6.98000 38.56300 42.94400
H  -6.39700 39.71200 41.79000
H  -7.55900 37.30600 38.25900
H  -8.89000 36.20400 38.50500
H  -7.66900 34.53100 38.26500
H  -6.49500 34.88700 39.38300
H  -9.64800 43.81500 42.19300
H  -10.31700 43.86000 40.49300
H  -9.00300 42.81000 40.91400
H  -14.53000 43.05200 43.98300
H  -15.09300 43.35200 42.41300
H  -14.65200 44.76600 43.41700
H  -16.69400 39.47400 42.51300
H  -16.44700 37.15500 44.21300
H  -17.09200 38.90100 45.33000
H  -17.33900 40.44000 44.48400
H  -15.71600 40.01300 45.14000
H  -16.75100 36.22200 41.50500
H  -17.55000 37.68700 41.47400
H  -18.62200 35.43900 42.21000
H  -19.27900 36.98800 42.40800
H  -18.41100 36.10900 43.77300
H  -14.75800 32.85500 42.22700
H  -13.46800 32.20200 43.38200
H  -13.50000 31.82800 41.67700
H  -8.79500 33.77200 39.92500
H  -5.89200 32.30900 42.91000
H  -4.89900 33.75300 42.24900
H  -5.00600 32.20900 41.51500

