158

Mg 46.44300 4.78900 47.60100
C  44.89200 7.87600 46.53600
C  43.58800 3.20900 46.68900
C  48.31200 1.99600 47.64600
C  49.35100 6.75700 48.41400
N  44.53500 5.43700 46.64400
C  44.11900 6.78300 46.29900
C  42.71000 6.70700 45.70800
C  42.28700 5.20600 45.88500
C  43.53300 4.56300 46.50700
C  40.98800 4.95600 46.68800
C  42.58700 7.26100 44.26500
C  41.41500 8.27900 44.12000
H  40.28700 8.04100 43.14800
N  46.03900 2.88400 47.23600
C  44.74000 2.42100 46.98300
C  44.87000 0.98600 46.86800
C  46.19100 0.52600 47.11200
C  46.92900 1.78800 47.35000
C  43.72900 -0.00800 46.41100
C  46.77000 -0.86700 47.11400
O  46.05200 -1.79600 46.90000
C  48.18100 -1.22000 47.29500
N  48.55900 4.44200 47.93300
C  49.08300 3.19900 47.74400
C  50.62300 3.23000 47.96700
C  50.93400 4.74000 48.37000
C  49.54100 5.36400 48.27700
C  51.15500 2.17900 49.01600
C  52.12800 5.29900 47.55900
C  51.82100 5.96300 46.22300
N  46.99300 6.89700 47.68500
C  48.22900 7.48700 48.02700
C  48.06400 8.93900 48.10400
C  46.76300 9.12100 47.50000
C  46.21200 7.86800 47.21100
C  49.11300 9.94100 48.54300
C  45.74000 10.08400 47.07900
O  45.75600 11.34200 47.19900
C  44.45500 9.27600 46.46400
C  43.29000 9.62400 47.21400
O  42.97100 9.11200 48.27600
O  42.64900 10.59300 46.42100
C  41.37900 11.10700 46.99900
H  42.68500 2.65300 46.42700
H  48.91600 1.09600 47.77300
H  50.24500 7.25500 48.79800
H  42.21100 7.35400 46.42900
H  42.17900 4.76900 44.89200
H  40.48200 4.29500 45.98500
H  40.48600 5.89300 46.93000
H  41.18800 4.44400 47.62900
H  42.26300 6.44900 43.61500
H  43.43500 7.77600 43.81200
H  41.80800 9.26100 43.85500
H  40.84700 8.36300 45.04600
H  42.82500 0.57900 46.24700
H  43.56500 -0.74300 47.19900
H  44.08800 -0.61900 45.58300
H  48.22200 -2.30900 47.31000
H  48.36200 -0.88300 48.31600
H  48.73500 -0.78800 46.46100
H  50.90900 2.93900 46.95700
H  51.16100 4.71800 49.43600
H  51.45900 1.25500 48.52400
H  50.30700 2.01400 49.68100
H  51.99200 2.42500 49.67000
H  52.72200 4.44200 47.23900
H  52.76700 5.81800 48.27400
H  52.25000 6.96100 46.30700
H  50.76400 6.13100 46.01700
H  52.23200 5.45100 45.35200
H  48.61000 10.88200 48.76400
H  49.85400 10.20400 47.78800
H  49.51700 9.59800 49.49500
H  44.44800 9.56800 45.41400
H  41.51300 11.14600 48.08000
H  40.47000 10.54600 46.78300
H  41.29300 12.09400 46.54500
Mg 27.35900 49.88600 26.05800
C  25.34700 50.60600 28.84300
C  29.70800 48.57900 28.38000
C  29.38000 49.16900 23.49300
C  25.11800 51.48000 24.01000
N  27.48400 49.71700 28.43600
C  26.48300 50.02900 29.27500
C  26.83300 49.63700 30.69000
C  28.29400 49.20800 30.56000
C  28.58400 49.11600 29.03600
C  29.37400 50.03700 31.27000
C  25.89200 48.50500 31.25600
C  25.35900 48.56300 32.68300
H  26.16400 49.25500 33.81600
N  29.25500 49.02400 25.95700
C  30.04200 48.59900 27.00600
C  31.33200 48.23700 26.54300
C  31.34300 48.50500 25.12900
C  29.98000 48.94500 24.77900
C  32.48100 47.74800 27.40200
C  32.41200 48.29400 24.16400
O  32.30900 48.30600 22.93900
C  33.72400 47.93400 24.64900
N  27.23100 50.30800 24.07600
C  28.10400 49.75100 23.22500
C  27.74300 50.10500 21.75900
C  26.18900 50.52600 21.84800
C  26.14600 50.82800 23.39300
C  28.54400 51.22900 21.10800
C  25.19300 49.31400 21.45000
C  24.41000 49.44800 20.14500
N  25.61600 50.93700 26.33700
C  24.85400 51.61200 25.41800
C  23.72100 52.24600 26.15200
C  23.86000 51.79100 27.47900
C  25.03800 51.04500 27.57200
C  22.59200 52.93300 25.60200
C  23.19700 51.66400 28.71400
O  22.09200 52.12200 29.04600
C  24.16900 51.02700 29.67400
C  24.61400 52.15900 30.54600
O  25.29700 53.04500 30.18800
O  24.01200 51.93000 31.77100
C  24.31400 52.94100 32.75500
H  30.45100 48.19800 29.08400
H  30.08100 49.06500 22.66200
H  24.32000 51.87500 23.37700
H  26.82600 50.58400 31.22900
H  28.42600 48.21000 30.97700
H  29.91600 50.60000 30.51000
H  29.95800 49.30200 31.82500
H  28.86000 50.73900 31.92600
H  26.35500 47.51900 31.22600
H  25.04000 48.36900 30.59100
H  25.24700 47.54700 33.06100
H  24.38300 49.04800 32.66100
H  33.26100 48.50900 27.43300
H  32.84400 46.80400 26.99500
H  32.36800 47.53600 28.46500
H  33.62800 46.93500 25.07200
H  33.87300 48.75500 25.35100
H  34.41700 47.96000 23.80800
H  27.69000 49.18400 21.17900
H  25.99600 51.36300 21.17800
H  29.01300 50.87600 20.19000
H  29.36200 51.48100 21.78300
H  27.92200 52.07200 20.80600
H  24.49800 49.15700 22.27400
H  25.78000 48.39700 21.39300
H  24.67700 48.54600 19.59400
H  24.75800 50.30600 19.57000
H  23.33500 49.37600 20.31100
H  22.68000 53.28900 24.57500
H  22.29800 53.81700 26.16900
H  21.76000 52.22900 25.57100
H  23.74900 50.21100 30.26100
H  23.66000 52.79300 33.61500
H  24.05000 53.95400 32.45400
H  25.37200 52.87000 33.00700

