158

Mg 0.56100 7.42800 28.04900
C  1.06900 9.90200 30.26400
C  0.60500 5.14300 30.67200
C  0.54600 4.90600 25.74400
C  0.70000 9.76400 25.41600
N  0.75900 7.53600 30.23200
C  0.80200 8.69600 30.97000
C  0.77200 8.41300 32.46100
C  1.09600 6.88000 32.51500
C  0.71000 6.47600 31.09200
C  2.56900 6.54900 32.82100
C  -0.73700 8.78700 32.94900
C  -1.02400 8.94400 34.47300
H  0.10700 8.81800 35.48600
N  0.49400 5.37900 28.20300
C  0.47700 4.58800 29.32500
C  0.32500 3.18900 29.05300
C  0.15700 3.10800 27.59700
C  0.41600 4.46800 27.09800
C  0.42200 2.06400 30.08000
C  -0.17000 1.93300 26.70100
O  -0.18600 2.01500 25.48600
C  -0.36200 0.57000 27.37300
N  0.65700 7.35600 25.92300
C  0.68100 6.20500 25.21800
C  0.74700 6.39800 23.69400
C  0.60800 7.95300 23.61500
C  0.55800 8.37400 25.06600
C  2.03400 5.80000 23.08600
C  -0.61000 8.37100 22.64000
C  -0.40100 9.60700 21.68600
N  0.86000 9.44900 27.83200
C  0.86700 10.25000 26.74800
C  1.15900 11.64900 27.16900
C  1.27400 11.54900 28.54300
C  1.05600 10.19000 28.87900
C  1.15500 12.87600 26.27800
C  1.63000 12.18800 29.72100
O  2.08700 13.32100 29.91700
C  1.53600 11.21700 30.84400
C  2.85800 11.22300 31.56800
O  3.94500 10.98400 31.09900
O  2.55700 11.48800 32.89000
C  3.55000 11.30200 33.95500
H  0.51300 4.44400 31.50600
H  0.58700 4.08500 25.02500
H  0.90400 10.51000 24.64600
H  1.46300 9.00800 33.05900
H  0.43600 6.39900 33.23700
H  3.06900 5.79000 32.21900
H  2.58000 6.15300 33.83600
H  3.24200 7.38600 32.63600
H  -1.35900 8.00600 32.51200
H  -1.08000 9.76700 32.61500
H  -1.64000 8.11300 34.81800
H  -1.54400 9.89600 34.58000
H  1.13700 1.33500 29.70000
H  -0.56700 1.67500 30.32000
H  0.92100 2.53100 30.92900
H  -0.69500 -0.21100 26.69000
H  -1.20800 0.82100 28.01300
H  0.44700 0.25500 28.03300
H  -0.07700 5.87200 23.21100
H  1.53600 8.25000 23.12700
H  1.93500 4.71500 23.11400
H  2.85600 6.18700 23.68800
H  2.13100 6.18200 22.06900
H  -1.45400 8.69600 23.24800
H  -0.79300 7.56300 21.93200
H  -0.24800 9.26700 20.66100
H  0.47200 10.19800 21.96000
H  -1.29900 10.22100 21.75700
H  1.54000 12.53400 25.31700
H  1.84000 13.65000 26.62400
H  0.15100 13.29500 26.21500
H  0.66600 11.60800 31.37200
H  3.48900 10.29500 34.36800
H  3.28400 11.94300 34.79500
H  4.50800 11.69900 33.62000
Mg 42.51100 41.81100 27.18700
C  41.50600 43.90100 29.82500
C  43.59300 39.50000 29.66900
C  43.59600 39.87300 24.76700
C  41.54500 44.36300 24.89700
N  42.56700 41.74100 29.48400
C  41.87400 42.64900 30.35400
C  41.84500 42.15700 31.79600
C  42.58400 40.68500 31.67400
C  42.88500 40.61200 30.14900
C  43.90300 40.60400 32.55800
C  40.35500 42.07200 32.32400
C  40.15100 42.88900 33.67000
H  39.50100 42.12800 34.87000
N  43.49400 39.95600 27.22000
C  43.81400 39.16300 28.32100
C  44.34200 37.88300 27.84200
C  44.20800 37.87000 26.38100
C  43.74300 39.27800 26.02700
C  44.79900 36.81700 28.81400
C  44.58500 36.83800 25.34200
O  44.48300 36.98400 24.13900
C  45.07400 35.53600 25.83200
N  42.64300 42.11900 25.14300
C  43.07700 41.13100 24.33400
C  43.02700 41.59800 22.83700
C  41.97600 42.77800 22.88700
C  42.03400 43.15200 24.38600
C  44.39400 41.94100 22.25200
C  40.50700 42.41700 22.41100
C  39.78800 41.23700 23.03200
N  41.79000 43.80000 27.26800
C  41.37700 44.68600 26.29800
C  40.86200 45.91100 26.89600
C  40.88000 45.67800 28.30900
C  41.36800 44.33500 28.40200
C  40.45200 47.15900 26.14800
C  40.54200 46.19900 29.61700
O  40.08900 47.28800 29.91700
C  40.85600 45.04800 30.61800
C  41.67300 45.63400 31.73800
O  42.89200 45.89500 31.67300
O  40.84700 45.81800 32.87500
C  41.42000 46.11700 34.20100
H  43.95600 38.88300 30.49400
H  43.97200 39.24000 23.96100
H  41.23400 45.14700 24.20300
H  42.36000 42.83300 32.48000
H  41.89800 39.89100 31.96800
H  44.77300 40.59200 31.90200
H  43.94800 39.61500 33.01500
H  43.71600 41.42200 33.25400
H  40.23400 40.99900 32.47300
H  39.59500 42.23700 31.56000
H  39.50600 43.74700 33.47800
H  41.10000 43.33800 33.96100
H  44.51200 37.14900 29.81200
H  45.87000 36.74100 29.00400
H  44.48400 35.82300 28.49800
H  45.92500 35.80300 26.46000
H  45.55400 35.07400 24.97000
H  44.29300 34.91300 26.26600
H  42.54000 40.80200 22.27500
H  42.33900 43.63900 22.32500
H  45.17400 41.46600 22.84800
H  44.48000 43.02700 22.26600
H  44.26200 41.66800 21.20500
H  40.55100 42.38500 21.32200
H  39.88900 43.27500 22.67400
H  39.24600 40.70100 22.25300
H  39.19100 41.71400 23.80900
H  40.63700 40.76600 23.52700
H  39.96800 46.88000 25.21200
H  41.16700 47.96400 25.97900
H  39.71100 47.62700 26.79600
H  39.94600 44.68400 31.09600
H  42.11700 46.92600 33.98200
H  42.09700 45.36900 34.61200
H  40.59700 46.32800 34.88400

