158

Mg 26.01800 -0.66500 29.64800
C  28.09100 -0.61700 32.49500
C  23.41900 0.32100 31.56700
C  24.04600 -0.77800 26.92100
C  28.76000 -1.77300 27.78000
N  25.77300 -0.26400 31.74100
C  26.74100 -0.29900 32.78000
C  26.17500 0.03000 34.16600
C  24.59200 0.20900 33.79400
C  24.56800 0.07800 32.25700
C  23.54900 -0.76500 34.46500
C  26.77800 1.22800 34.93500
C  25.94400 1.72800 36.15800
H  26.68800 2.19300 37.40600
N  23.99500 -0.20700 29.28300
C  23.07600 0.16400 30.21100
C  21.79400 0.35700 29.59500
C  21.89000 -0.03100 28.25100
C  23.33900 -0.40100 28.03800
C  20.57200 0.79900 30.38200
C  20.77200 -0.10800 27.10000
O  21.06300 -0.35300 25.93100
C  19.35600 0.15700 27.45400
N  26.34800 -1.30200 27.66300
C  25.40700 -1.10600 26.71000
C  25.96900 -1.40800 25.29100
C  27.49200 -1.60900 25.57100
C  27.54900 -1.50200 27.11400
C  25.45000 -2.67400 24.59100
C  28.35000 -0.40900 24.90800
C  29.72600 -0.62600 24.29100
N  28.03700 -1.12600 30.01900
C  29.00900 -1.65500 29.13500
C  30.25600 -1.75000 29.87700
C  29.88800 -1.27800 31.20600
C  28.51100 -1.05100 31.22300
C  31.58000 -2.21000 29.25400
C  30.51100 -0.93100 32.47200
O  31.67100 -0.98000 32.90800
C  29.29300 -0.57500 33.40500
C  29.23800 -1.51500 34.51100
O  28.77200 -2.61200 34.36100
O  29.78500 -0.97900 35.63700
C  29.51500 -1.65800 36.89700
H  22.64500 0.77700 32.18700
H  23.44200 -0.77000 26.01100
H  29.49000 -2.21600 27.10000
H  26.28900 -0.84400 34.80700
H  24.30200 1.23800 34.00600
H  23.78400 -1.03800 35.49300
H  23.44100 -1.66000 33.85300
H  22.55900 -0.31000 34.40700
H  26.84500 2.03300 34.20300
H  27.74600 0.95900 35.35600
H  25.28700 0.89600 36.41300
H  25.47300 2.62900 35.76300
H  20.89700 1.06400 31.38800
H  19.86400 -0.00800 30.57500
H  20.00200 1.59500 29.90200
H  19.03900 -0.61600 28.15300
H  18.68400 0.00400 26.60900
H  19.15700 1.17000 27.80200
H  25.77600 -0.57700 24.61100
H  27.92300 -2.56000 25.25700
H  24.56000 -3.09200 25.06300
H  26.15300 -3.50400 24.52400
H  25.10100 -2.49300 23.57400
H  28.37900 0.38000 25.66000
H  27.78200 0.05700 24.10300
H  30.41100 0.03900 24.81800
H  29.77800 -0.39500 23.22700
H  29.94500 -1.68700 24.40400
H  31.55700 -2.73000 28.29700
H  32.09100 -2.90800 29.91800
H  32.15400 -1.31100 29.02900
H  29.36200 0.39800 33.89200
H  30.47700 -2.02100 37.26100
H  28.87900 -2.54200 36.85400
H  29.09700 -0.89000 37.54700
Mg 47.45600 45.13800 43.29600
C  43.98400 44.90100 43.18400
C  47.73900 41.74500 42.89200
C  50.66000 45.57200 41.98400
C  47.00600 48.78100 43.11600
N  46.08500 43.59100 43.17900
C  44.67000 43.66900 43.18900
C  44.06900 42.23200 43.19000
C  45.28900 41.38300 43.54300
C  46.50600 42.30000 43.18400
C  45.41600 40.80100 45.03800
C  43.24400 41.84000 41.94200
C  43.59700 42.49900 40.59600
H  43.43200 41.73300 39.25000
N  49.04100 43.82400 42.67300
C  48.97400 42.40100 42.59500
C  50.29800 41.88900 42.22300
C  51.13700 42.97100 42.02200
C  50.27900 44.21700 42.25400
C  50.71500 40.41000 42.27100
C  52.63600 42.85500 41.65000
O  53.10300 41.78500 41.34500
C  53.49200 44.07500 41.63600
N  48.62400 46.95100 42.78700
C  50.00100 46.78300 42.36700
C  50.67600 48.21700 42.19900
C  49.41700 49.16900 42.42500
C  48.29400 48.25200 42.87400
C  51.97100 48.51900 43.14500
C  49.18300 50.18700 41.34900
C  48.55800 51.49500 41.73800
N  45.87000 46.61400 43.26400
C  45.83800 47.98900 43.27200
C  44.45400 48.46900 43.37600
C  43.62900 47.30700 43.24800
C  44.57300 46.20500 43.27900
C  43.96200 49.82300 43.38900
C  42.27700 46.75400 43.24300
O  41.16400 47.31900 43.27300
C  42.49400 45.16800 43.21300
C  41.73500 44.56200 44.41300
O  40.91100 43.67900 44.41800
O  42.18000 45.15600 45.60600
C  41.30000 44.78000 46.82100
H  47.78200 40.65500 42.95800
H  51.64700 45.75400 41.55300
H  47.02700 49.86100 43.27200
H  43.25300 42.22700 43.91100
H  45.42000 40.52500 42.88400
H  45.73000 39.76200 44.94300
H  44.42700 40.96100 45.46700
H  46.21600 41.33700 45.54900
H  42.22800 42.19900 42.10900
H  43.11700 40.77000 41.77500
H  44.67400 42.55100 40.76100
H  43.23700 43.52700 40.55400
H  50.62800 40.00800 41.26200
H  49.95900 39.85000 42.82200
H  51.67300 40.30300 42.77900
H  53.29200 44.68700 42.51500
H  53.43000 44.70300 40.74700
H  54.48800 43.66200 41.79700
H  51.03300 48.12000 41.17400
H  49.60200 49.77100 43.31400
H  51.73300 49.26900 43.89900
H  52.79600 48.85000 42.51400
H  52.28700 47.61000 43.65700
H  48.51400 49.69100 40.64600
H  50.12500 50.38800 40.83900
H  48.58600 51.61800 42.82100
H  47.59300 51.71400 41.28200
H  49.13000 52.36700 41.42200
H  44.29400 50.38300 44.26300
H  42.87400 49.84500 43.44900
H  44.21800 50.19300 42.39600
H  42.01100 44.83700 42.29300
H  41.71100 45.13100 47.76800
H  41.24900 43.69200 46.86200
H  40.27500 45.13700 46.71500

