158

Mg 2.55500 -0.98000 44.59400
C  5.81600 -0.49700 43.58900
C  1.60100 1.45200 42.35500
C  -0.72400 -1.97100 44.88100
C  3.54400 -3.97300 46.27900
N  3.58200 0.39700 43.13700
C  4.94500 0.45800 42.98900
C  5.29000 1.52200 41.96000
C  3.98700 2.37300 41.78700
C  2.97400 1.38800 42.46800
C  4.21400 3.77300 42.40200
C  5.98000 0.93800 40.69400
C  7.29800 1.56500 40.24000
H  7.25900 2.34900 38.94400
N  0.67300 -0.14300 43.95000
C  0.52100 0.72700 42.98400
C  -0.88200 1.04500 42.74800
C  -1.55500 0.02200 43.49500
C  -0.57800 -0.77500 44.20900
C  -1.44500 2.22900 41.85900
C  -3.04600 -0.20900 43.44500
O  -3.76700 0.52500 42.83500
C  -3.72600 -1.23400 44.28400
N  1.57700 -2.73700 45.40400
C  0.13400 -2.90000 45.39500
C  -0.23700 -4.14500 46.11200
C  1.15500 -4.84300 46.52100
C  2.15700 -3.79100 46.09700
C  -1.25600 -4.08100 47.28600
C  1.47800 -6.17000 45.78800
C  2.30600 -7.11800 46.54500
N  4.28300 -2.03500 44.90200
C  4.54900 -3.23400 45.63900
C  6.01700 -3.40000 45.65100
C  6.52200 -2.27000 44.91100
C  5.44400 -1.51600 44.50800
C  6.83100 -4.50300 46.20600
C  7.75700 -1.66600 44.35500
O  8.94100 -1.98800 44.46500
C  7.36900 -0.42700 43.48000
C  7.81400 0.82300 44.11200
O  7.39900 1.19500 45.14200
O  8.76000 1.49000 43.42100
C  9.26800 2.65900 44.12700
H  1.33900 2.21600 41.62100
H  -1.73100 -2.39200 44.90300
H  3.94400 -4.66400 47.02300
H  6.04900 2.14500 42.43200
H  3.59800 2.52900 40.78100
H  3.32300 4.40100 42.41300
H  5.11500 4.28500 42.06600
H  4.50100 3.71800 43.45200
H  5.33500 1.01300 39.81900
H  6.02500 -0.11100 40.98600
H  7.99300 0.72500 40.25700
H  7.56300 2.22900 41.06300
H  -2.20400 1.92000 41.14100
H  -0.62400 2.68500 41.30500
H  -1.86700 3.00600 42.49700
H  -4.79100 -1.01800 44.37300
H  -3.26100 -1.20300 45.27000
H  -3.54300 -2.19500 43.80300
H  -0.70900 -4.86500 45.44400
H  1.26000 -4.94400 47.60100
H  -2.11600 -4.68600 47.00000
H  -1.56000 -3.04000 47.39200
H  -0.80400 -4.25300 48.26300
H  1.95800 -5.82100 44.87300
H  0.60400 -6.68900 45.39400
H  1.82000 -8.07100 46.75500
H  2.60700 -6.66100 47.48700
H  3.20900 -7.14400 45.93500
H  6.45400 -4.82500 47.17700
H  7.85100 -4.21800 46.46100
H  6.84800 -5.34800 45.51700
H  7.67800 -0.51900 42.43900
H  10.32400 2.38600 44.13500
H  9.02700 2.90300 45.16100
H  9.25200 3.57400 43.53400
Mg 35.80200 0.63500 28.85200
C  33.73000 1.85300 31.28800
C  38.38000 0.36900 31.24600
C  37.97900 -0.02300 26.37000
C  33.42300 1.54100 26.33800
N  36.02700 1.20200 30.98300
C  34.98100 1.55100 31.78500
C  35.38700 1.51500 33.26300
C  36.93400 1.35400 33.18300
C  37.15600 0.92000 31.75100
C  37.81600 2.50700 33.71200
C  34.59800 0.53600 34.22200
C  34.34900 1.01900 35.63800
H  34.87000 2.41000 36.13900
N  37.91000 0.11200 28.84500
C  38.75400 0.02500 29.93300
C  40.06700 -0.49300 29.47900
C  39.95500 -0.57300 27.98500
C  38.56400 -0.14600 27.69500
C  41.20800 -0.86000 30.37700
C  41.04900 -0.90400 27.03700
O  40.89200 -0.94600 25.85300
C  42.31500 -1.38400 27.59400
N  35.62100 0.42000 26.66300
C  36.69200 0.22400 25.89200
C  36.26000 0.28300 24.37000
C  34.77700 0.48400 24.51200
C  34.54400 0.83300 25.91700
C  37.06600 1.38400 23.63500
C  33.87800 -0.76700 24.12100
C  32.61700 -0.40300 23.40200
N  33.97400 1.52600 28.76100
C  33.08400 1.80900 27.65300
C  31.99700 2.41500 28.17200
C  32.06100 2.40100 29.62600
C  33.35100 1.88900 29.85100
C  30.83500 2.87100 27.39300
C  31.39000 2.72000 30.91100
O  30.33300 3.31600 31.10600
C  32.43500 2.36000 32.00900
C  32.74400 3.62800 32.79200
O  33.52300 4.50600 32.48900
O  31.74300 3.73700 33.80900
C  31.78300 5.02800 34.54300
H  39.21900 0.29900 31.94200
H  38.69700 -0.20500 25.56800
H  32.83300 1.87500 25.48200
H  35.14100 2.53100 33.57300
H  37.26900 0.57000 33.86400
H  37.20300 3.33000 34.08000
H  38.39100 2.84300 32.84900
H  38.41900 2.21800 34.57200
H  35.12900 -0.40900 34.33500
H  33.65500 0.37500 33.70100
H  34.81500 0.26300 36.27000
H  33.30300 0.94500 35.93600
H  41.03600 -0.51300 31.39600
H  41.93400 -0.16900 29.94600
H  41.48100 -1.91400 30.43300
H  42.88000 -0.58100 28.06700
H  42.91400 -1.77300 26.77000
H  42.07100 -2.21700 28.25400
H  36.53600 -0.66100 23.90200
H  34.58800 1.41700 23.98200
H  37.52700 2.13400 24.27700
H  36.38100 1.96200 23.01400
H  37.84000 0.93500 23.01200
H  33.54600 -1.29200 25.01700
H  34.37000 -1.41600 23.39700
H  32.79000 -0.85300 22.42500
H  32.48900 0.67700 23.32600
H  31.76900 -0.84400 23.92700
H  30.28900 2.01600 26.99200
H  31.19200 3.49800 26.57700
H  30.09100 3.45800 27.93100
H  32.07600 1.56200 32.65900
H  32.53700 4.87000 35.31400
H  30.85200 5.20500 35.08100
H  31.89700 6.00700 34.07700

