158

Mg -1.14300 18.00700 27.55000
C  -1.85300 15.80700 30.18200
C  -2.05700 20.67900 29.67000
C  -1.14300 20.02600 24.84800
C  -0.90500 15.28100 25.40100
N  -1.80200 18.18700 29.62200
C  -2.01700 17.14400 30.51000
C  -2.44200 17.72300 31.89900
C  -2.63200 19.23700 31.57000
C  -2.13100 19.35900 30.18900
C  -4.10100 19.77500 31.85100
C  -1.44600 17.44200 33.09900
C  -2.10900 17.09800 34.49300
H  -1.06300 17.07200 35.58900
N  -1.34100 20.08900 27.30700
C  -1.68300 20.96900 28.29200
C  -1.59900 22.31200 27.67700
C  -1.29600 22.23500 26.27900
C  -1.17300 20.72600 26.06600
C  -2.05100 23.55800 28.40300
C  -1.26100 23.26500 25.23700
O  -1.12000 22.90700 24.07100
C  -1.49300 24.69700 25.55500
N  -1.19200 17.66600 25.44200
C  -1.17900 18.64400 24.56700
C  -0.95500 18.19000 23.11800
C  -0.57200 16.72200 23.40700
C  -0.97500 16.51900 24.82000
C  -2.19500 18.46800 22.11300
C  0.95700 16.31900 23.11200
C  2.07800 17.15800 23.74400
N  -1.23000 15.91600 27.74000
C  -1.13800 14.96900 26.75000
C  -1.35500 13.67800 27.37000
C  -1.60500 13.94400 28.72800
C  -1.50300 15.33600 28.90600
C  -1.51100 12.45300 26.58800
C  -1.97800 13.37100 30.05700
O  -2.26500 12.23700 30.46200
C  -1.97300 14.52100 31.05400
C  -0.70200 14.34200 31.81000
O  0.40600 14.38900 31.32200
O  -0.87400 14.19500 33.12800
C  0.28400 13.84500 33.98800
H  -2.38100 21.44600 30.37600
H  -0.81400 20.69000 24.04500
H  -0.77500 14.47400 24.67700
H  -3.36100 17.31300 32.31800
H  -2.11600 19.93300 32.23200
H  -4.76900 19.00700 32.24100
H  -4.45100 20.01700 30.84800
H  -4.06100 20.63500 32.52100
H  -0.82800 18.33500 33.19600
H  -0.75200 16.61100 32.97300
H  -2.64500 16.15900 34.36000
H  -2.89200 17.85100 34.57900
H  -1.44600 24.42200 28.13000
H  -1.97500 23.35600 29.47100
H  -3.11400 23.77300 28.29100
H  -2.46600 24.93700 25.98400
H  -1.46200 25.31500 24.65700
H  -0.66600 25.14100 26.10800
H  -0.01100 18.58500 22.74400
H  -1.24500 16.13700 22.78100
H  -2.75700 19.30300 22.53100
H  -2.76400 17.55200 21.95400
H  -1.77300 18.66900 21.12800
H  1.16900 16.29200 22.04400
H  0.99900 15.25400 23.34100
H  1.54200 17.81700 24.42700
H  2.69200 17.80000 23.11200
H  2.80600 16.54200 24.27100
H  -2.01600 12.81000 25.69000
H  -2.07300 11.70600 27.14800
H  -0.58000 11.96200 26.30500
H  -2.87000 14.49900 31.67100
H  0.30300 12.77300 34.18600
H  0.29900 14.25200 34.99900
H  1.25400 14.09100 33.55700
Mg 29.61100 57.36100 40.97400
C  26.74000 55.42800 39.95000
C  31.51200 54.84100 39.61500
C  32.02200 59.59300 40.80000
C  27.24100 59.94900 41.68300
N  29.14700 55.34700 39.86200
C  27.92000 54.77100 39.60100
C  28.02400 53.54100 38.62200
C  29.57600 53.19300 38.89100
C  30.11600 54.51300 39.44600
C  29.92500 52.10700 39.97000
C  27.88400 53.97300 37.15800
C  26.76700 53.25300 36.34900
H  25.96400 54.14800 35.48000
N  31.54400 57.24300 40.39700
C  32.15500 56.07100 39.95300
C  33.52900 56.39700 39.74500
C  33.77800 57.75600 40.17400
C  32.38900 58.28300 40.47700
C  34.54400 55.28600 39.26500
C  35.14500 58.45900 40.29300
O  36.14600 57.90900 39.87300
C  35.27600 59.73100 40.92300
N  29.63400 59.56100 41.05000
C  30.76600 60.19900 41.04200
C  30.59600 61.68400 41.40400
C  29.02900 61.77900 41.63600
C  28.55200 60.38400 41.46600
C  31.53700 62.26000 42.49600
C  28.23900 62.69900 40.65200
C  27.42800 63.90000 41.22700
N  27.44700 57.62100 41.09800
C  26.69300 58.70700 41.39100
C  25.28400 58.36400 41.17600
C  25.22200 57.06900 40.65300
C  26.59200 56.70500 40.52100
C  24.13100 59.29400 41.26100
C  24.42300 55.98000 40.15900
O  23.23200 55.79100 40.11800
C  25.33300 54.91500 39.59300
C  25.04000 53.67900 40.26000
O  25.19900 53.32600 41.45400
O  24.48400 52.89200 39.37700
C  23.66000 51.69000 39.82600
H  32.13000 53.98400 39.34000
H  32.82900 60.31200 40.64200
H  26.60600 60.77200 42.01700
H  27.35800 52.77900 39.02800
H  30.25300 52.85100 38.10900
H  30.47600 52.61000 40.76400
H  30.49600 51.22100 39.69300
H  28.98600 51.77600 40.41300
H  28.87600 53.83100 36.73000
H  27.60000 55.02300 37.22700
H  26.05500 52.72100 36.97900
H  27.28400 52.52600 35.72200
H  34.36000 54.87200 38.27300
H  34.52300 54.41100 39.91500
H  35.56100 55.65800 39.38200
H  35.20000 60.62500 40.30400
H  36.26800 59.75800 41.37300
H  34.66600 59.86200 41.81700
H  30.77300 62.31800 40.53500
H  28.85600 62.10500 42.66100
H  31.09000 63.06300 43.08100
H  32.54600 62.47600 42.14300
H  31.72900 61.46600 43.21800
H  27.52200 62.11800 40.07200
H  28.86600 63.16900 39.89500
H  27.25800 63.60000 42.26100
H  26.41400 63.93900 40.82800
H  27.88400 64.88300 41.11200
H  24.29300 59.70100 40.26200
H  24.03400 60.01500 42.07100
H  23.21300 58.71300 41.17500
H  25.31500 54.80700 38.50800
H  22.68400 51.99700 39.45100
H  23.53000 51.47500 40.88700
H  23.94600 50.77700 39.30400

