158

Mg 49.38600 35.27800 27.53900
C  46.98500 34.36000 30.04900
C  49.76000 38.24800 29.26600
C  51.51400 36.21700 25.12200
C  48.13500 32.78100 25.53600
N  48.37600 36.21500 29.39200
C  47.57300 35.60300 30.29800
C  47.30800 36.53800 31.48400
C  47.93300 37.91000 31.02200
C  48.67900 37.47600 29.76300
C  46.91000 39.06400 30.77000
C  47.92600 36.06300 32.81700
C  46.97000 35.86900 33.98600
H  46.43400 37.15000 34.67400
N  50.65500 36.93900 27.33800
C  50.69900 38.02400 28.19500
C  51.90300 38.79100 27.72700
C  52.31600 38.25500 26.47200
C  51.48800 37.07700 26.25500
C  52.44900 40.03600 28.48800
C  53.51500 38.68900 25.63100
O  53.92200 38.05200 24.64200
C  54.20000 39.99100 25.98300
N  49.83900 34.55000 25.67600
C  50.74000 35.12000 24.80600
C  50.81800 34.38700 23.39800
C  49.74800 33.19000 23.63200
C  49.17500 33.54800 25.01800
C  50.42900 35.36000 22.23400
C  50.32200 31.71800 23.57700
C  49.41500 30.70500 22.85800
N  47.97300 33.74100 27.74600
C  47.58100 32.74400 26.85300
C  46.60500 31.85800 27.45600
C  46.32800 32.47100 28.68700
C  47.16500 33.61800 28.84100
C  45.91600 30.62000 26.86300
C  45.46900 32.42600 29.86900
O  44.49200 31.71400 30.19800
C  45.92600 33.51600 30.77000
C  46.46900 32.92300 32.04900
O  47.65500 32.76200 32.26600
O  45.45100 32.65700 32.95000
C  45.91600 32.07600 34.19900
H  49.99400 39.19900 29.74800
H  52.27600 36.45200 24.37600
H  47.68300 32.01200 24.90600
H  46.23400 36.71600 31.54400
H  48.63900 38.22000 31.79200
H  47.25500 39.93400 31.32900
H  45.94400 38.70300 31.12100
H  46.77200 39.20700 29.69800
H  48.75900 36.65200 33.19900
H  48.36300 35.07900 32.65200
H  47.54000 35.25500 34.68200
H  46.00700 35.49300 33.64100
H  53.53400 40.01500 28.59000
H  51.88300 40.14100 29.41400
H  52.20500 40.93300 27.91900
H  54.82800 40.24300 25.12800
H  54.91000 39.84900 26.79700
H  53.46600 40.79600 26.01300
H  51.79500 33.95700 23.17900
H  48.90700 33.19000 22.93800
H  51.36000 35.74000 21.81300
H  49.80500 36.08700 22.75400
H  49.91600 34.91500 21.38200
H  50.42700 31.41600 24.61900
H  51.34800 31.70100 23.20900
H  49.28100 30.04800 23.71700
H  49.90200 30.19400 22.02700
H  48.51200 31.16400 22.45400
H  45.44700 30.11500 27.70800
H  46.69400 30.02800 26.38100
H  45.16600 30.99700 26.16800
H  45.09300 34.15700 31.05500
H  45.00000 31.86300 34.75000
H  46.48200 32.75700 34.83400
H  46.47600 31.14200 34.14700
Mg 36.03000 48.56900 24.05900
C  36.51700 46.77000 27.04400
C  34.33700 50.93200 25.77500
C  35.39700 49.98200 21.14600
C  37.37000 45.65800 22.26200
N  35.46500 48.74200 26.14500
C  35.93600 48.04200 27.29500
C  35.54600 48.65600 28.56100
C  34.71900 49.92500 28.09100
C  34.76000 49.83200 26.58300
C  33.29000 50.19000 28.70100
C  36.84300 49.07900 29.34400
C  36.85800 48.89600 30.89600
H  35.56000 49.14400 31.63000
N  35.08200 50.25200 23.47500
C  34.40800 51.12600 24.33800
C  34.03000 52.30100 23.59900
C  34.23700 51.99200 22.21400
C  34.95600 50.69900 22.18800
C  33.56300 53.51200 24.31500
C  33.80500 52.78300 20.98700
O  34.12400 52.50200 19.82800
C  33.18400 54.10000 21.28300
N  36.46600 47.99200 21.99000
C  36.11300 48.80200 21.03000
C  36.49500 48.29600 19.63600
C  37.25600 46.90000 19.97500
C  37.07600 46.83500 21.47800
C  35.28500 48.02300 18.61400
C  38.81500 46.94800 19.65500
C  39.26900 46.18300 18.44000
N  36.73100 46.68200 24.50000
C  37.20400 45.60700 23.66300
C  37.36600 44.41400 24.50700
C  37.17400 44.87400 25.83300
C  36.72300 46.20300 25.77000
C  37.57200 43.03400 24.02000
C  37.27100 44.42200 27.26700
O  37.65100 43.42700 27.79400
C  36.87800 45.68400 28.04400
C  35.75900 45.44100 28.97300
O  34.62500 45.34700 28.59700
O  36.21100 45.28700 30.28000
C  35.11600 45.01500 31.27800
H  33.84700 51.73800 26.32500
H  35.23600 50.42600 20.16200
H  37.70500 44.76000 21.73700
H  34.80000 48.09500 29.12400
H  35.28800 50.82900 28.31200
H  33.37200 49.74500 29.69200
H  32.50000 49.71200 28.12000
H  33.08300 51.25800 28.76100
H  37.12500 50.07500 29.00300
H  37.66900 48.50400 28.92600
H  37.65600 49.52900 31.28400
H  37.24300 47.88600 31.03300
H  34.14800 54.30200 23.84300
H  33.81900 53.48600 25.37400
H  32.48100 53.48500 24.19200
H  32.27400 53.80500 21.80700
H  33.05000 54.53300 20.29100
H  33.78500 54.76100 21.90800
H  37.25900 48.96200 19.23500
H  36.80900 46.06900 19.43000
H  34.48300 48.69000 18.93200
H  34.93400 46.99100 18.58600
H  35.48800 48.38700 17.60700
H  39.47100 46.63400 20.46700
H  39.22100 47.94900 19.50800
H  38.49700 45.92500 17.71500
H  39.76800 45.23100 18.62000
H  39.96000 46.88500 17.97400
H  37.56100 42.33700 24.85800
H  38.55800 42.85700 23.59000
H  36.84500 42.68800 23.28500
H  37.69500 45.99400 28.69400
H  35.60900 44.94200 32.24700
H  34.75600 43.99600 31.13600
H  34.22600 45.64400 31.26900

