158

Mg 1.67100 -2.28400 43.79100
C  5.10500 -1.32600 43.27600
C  0.81000 0.54000 41.96900
C  -1.29200 -3.48500 43.72200
C  2.88300 -5.30600 45.04400
N  2.88200 -0.50900 42.83200
C  4.24600 -0.34800 42.80300
C  4.57200 0.97100 42.02600
C  3.21200 1.72100 42.10200
C  2.21500 0.53100 42.27500
C  3.10200 2.97800 43.13000
C  5.31300 0.60500 40.65400
C  6.59200 1.42200 40.28600
H  6.73000 2.00900 38.88600
N  -0.04000 -1.54600 42.99500
C  -0.23300 -0.39200 42.26700
C  -1.62200 -0.25300 41.94100
C  -2.27300 -1.34000 42.52200
C  -1.17700 -2.19400 43.15000
C  -2.33900 1.05300 41.29000
C  -3.76500 -1.57800 42.46700
O  -4.57900 -0.80500 41.89500
C  -4.38500 -2.79900 42.98100
N  0.92700 -4.34300 43.95800
C  -0.38800 -4.44600 44.14200
C  -0.75900 -5.79100 44.81100
C  0.61200 -6.41200 45.12300
C  1.52300 -5.27000 44.68700
C  -1.60100 -5.57000 45.98200
C  1.06100 -7.61500 44.26800
C  1.50100 -8.86900 44.94400
N  3.55700 -3.18600 44.20300
C  3.83400 -4.37500 44.74300
C  5.29600 -4.41300 44.93900
C  5.89700 -3.29000 44.34800
C  4.72100 -2.51000 43.92200
C  5.97300 -5.42000 45.74000
C  7.08900 -2.63600 43.87600
O  8.22200 -2.99500 44.09600
C  6.68000 -1.28700 43.21400
C  7.19400 -0.18600 43.99800
O  6.73100 0.19700 45.06200
O  8.25400 0.45100 43.42200
C  8.96300 1.57600 44.10200
H  0.49800 1.23900 41.19100
H  -2.33500 -3.81000 43.72800
H  3.29200 -6.10900 45.66000
H  5.36500 1.45700 42.59400
H  2.98500 2.16300 41.13200
H  4.10300 3.38900 43.25900
H  2.69000 2.76800 44.11700
H  2.52000 3.81900 42.75100
H  4.50700 0.72300 39.93000
H  5.62500 -0.43900 40.68600
H  7.45500 0.80700 40.53900
H  6.71400 2.27300 40.95600
H  -2.87600 0.91800 40.35100
H  -1.56900 1.80500 41.11600
H  -2.96000 1.61300 41.98800
H  -5.40800 -2.74500 42.60800
H  -4.15900 -2.83000 44.04700
H  -3.90300 -3.63900 42.48100
H  -1.23500 -6.42000 44.05900
H  0.81000 -6.71400 46.15100
H  -1.10700 -5.80300 46.92500
H  -2.48400 -6.18800 45.82100
H  -1.98100 -4.55600 46.10000
H  2.01600 -7.45800 43.76600
H  0.30200 -7.82000 43.51200
H  0.90100 -8.96900 45.84800
H  2.53000 -8.80700 45.30000
H  1.39800 -9.76800 44.33600
H  5.40600 -5.90800 46.53300
H  6.92200 -5.09300 46.16500
H  6.28700 -6.21700 45.06700
H  7.06000 -1.22500 42.19400
H  8.19300 2.16300 44.60300
H  9.37900 2.15000 43.27500
H  9.79400 1.19300 44.69500
Mg -10.17400 16.05000 41.45500
C  -6.79800 15.00600 41.44500
C  -9.16400 19.05500 40.21300
C  -13.36300 16.77000 40.80300
C  -11.01700 12.71300 42.08400
N  -8.21700 16.91500 40.87400
C  -7.03000 16.29600 40.98500
C  -5.86600 17.21300 40.45000
C  -6.57400 18.69400 40.60000
C  -8.08000 18.23200 40.55900
C  -6.16200 19.48800 41.87000
C  -5.57100 16.91200 38.97300
C  -4.10400 16.48400 38.61200
H  -3.90800 15.22500 37.74900
N  -11.11100 17.68600 40.52000
C  -10.56200 18.84000 40.21000
C  -11.49700 19.80700 39.71900
C  -12.78000 19.23400 39.94000
C  -12.46700 17.83200 40.36600
C  -11.24100 21.14000 39.17400
C  -14.15400 19.86200 39.66600
O  -14.27900 20.91000 39.05100
C  -15.41700 19.11400 39.98800
N  -11.84000 14.83000 41.30200
C  -13.06800 15.48700 41.26200
C  -14.21800 14.44100 41.48500
C  -13.48000 13.12100 41.57800
C  -12.02400 13.58800 41.67700
C  -15.08600 14.77600 42.73100
C  -13.61700 12.14800 40.38500
C  -14.17000 10.72900 40.71500
N  -9.15800 14.23200 42.01500
C  -9.63300 12.96600 42.18200
C  -8.61200 12.02800 42.52400
C  -7.45600 12.75500 42.16100
C  -7.81700 14.06800 41.82200
C  -8.66200 10.61300 42.99800
C  -5.94400 12.70600 41.94900
O  -5.19600 11.75900 42.12000
C  -5.57700 14.16600 41.46200
C  -4.47000 14.63800 42.26300
O  -3.41800 15.00100 41.78900
O  -4.66000 14.41800 43.64100
C  -3.39400 14.56300 44.43300
H  -8.89900 20.10900 40.10700
H  -14.45300 16.80400 40.86400
H  -11.25200 11.68700 42.37300
H  -4.94400 17.07800 41.01500
H  -6.36100 19.21800 39.66900
H  -7.04600 19.35000 42.49300
H  -6.11500 20.56700 41.72000
H  -5.26500 19.21000 42.42400
H  -5.74700 17.80200 38.36900
H  -6.29600 16.16000 38.66000
H  -3.50100 16.21400 39.47900
H  -3.66700 17.34000 38.09800
H  -10.99100 21.08800 38.11400
H  -10.41900 21.60100 39.72200
H  -12.06300 21.83800 39.32900
H  -15.39300 18.30600 39.25600
H  -16.23400 19.74000 39.63100
H  -15.41000 18.70500 40.99800
H  -14.79700 14.54100 40.56700
H  -13.63500 12.61400 42.53000
H  -16.12800 14.85300 42.41700
H  -14.80700 15.66100 43.30300
H  -15.15000 13.92000 43.40200
H  -12.74800 12.22000 39.73200
H  -14.37300 12.56800 39.72200
H  -15.15800 10.59400 40.27600
H  -14.35400 10.48800 41.76200
H  -13.52900 9.97700 40.25300
H  -8.77400 10.60200 44.08200
H  -7.79700 10.00700 42.72800
H  -9.54300 10.13600 42.56900
H  -5.22100 14.02100 40.44200
H  -2.57600 14.05100 43.92500
H  -3.54000 14.06100 45.39000
H  -3.16300 15.57400 44.76700

