158

Mg 16.90600 -1.59400 28.26300
C  15.50400 0.27400 30.99500
C  19.00600 -3.16300 30.61300
C  18.17200 -3.29200 25.78900
C  14.97900 0.32600 26.13000
N  17.26300 -1.37700 30.62000
C  16.56600 -0.57800 31.52600
C  17.07000 -0.85000 32.98600
C  18.34000 -1.68700 32.70300
C  18.13300 -2.18200 31.21100
C  19.70300 -1.07700 33.06400
C  15.93800 -1.64200 33.78300
C  16.08300 -1.70300 35.38600
H  17.15900 -0.82000 36.14400
N  18.31100 -3.11200 28.19100
C  19.07500 -3.63400 29.25800
C  19.87700 -4.71200 28.70700
C  19.64400 -4.77800 27.31000
C  18.65900 -3.72600 27.06100
C  20.77000 -5.54800 29.55900
C  20.21300 -5.65200 26.15600
O  19.70100 -5.67600 24.99000
C  21.32600 -6.65200 26.40600
N  16.63000 -1.45100 26.19300
C  17.31700 -2.22200 25.38200
C  16.95700 -2.03600 23.89500
C  15.88500 -0.85300 24.04500
C  15.77300 -0.60200 25.54600
C  18.18100 -1.63900 22.90800
C  14.54100 -1.21900 23.29700
C  14.47500 -0.81500 21.83600
N  15.60900 0.00700 28.40000
C  14.81500 0.62500 27.44700
C  13.88900 1.54700 28.06700
C  14.17900 1.39100 29.43800
C  15.17600 0.46300 29.59400
C  12.96800 2.55700 27.47900
C  13.76500 1.89600 30.78000
O  12.90600 2.72600 31.06200
C  14.67600 1.22800 31.84200
C  15.47100 2.30300 32.49000
O  16.06900 3.22400 31.89000
O  15.33900 2.33400 33.82300
C  16.13100 3.30900 34.59600
H  19.67700 -3.62800 31.33800
H  18.38300 -3.86800 24.88500
H  14.38000 1.02400 25.54100
H  17.29700 0.09500 33.48000
H  18.28700 -2.63800 33.23300
H  20.35800 -1.11700 32.19400
H  20.16900 -1.65400 33.86300
H  19.46100 -0.08900 33.45600
H  15.89800 -2.65000 33.37000
H  14.95500 -1.20300 33.60800
H  16.28400 -2.74700 35.62400
H  15.19900 -1.46400 35.97800
H  21.75200 -5.16000 29.28900
H  20.57700 -6.55600 29.19400
H  20.58400 -5.43500 30.62800
H  21.60900 -7.05200 25.43200
H  20.90500 -7.44200 27.02800
H  22.10000 -6.01600 26.83300
H  16.45700 -2.92100 23.50100
H  16.21100 0.09300 23.61300
H  17.90100 -0.88800 22.17000
H  18.49600 -2.56600 22.42900
H  18.96700 -1.18300 23.51100
H  13.64200 -0.78500 23.73500
H  14.46000 -2.30400 23.36600
H  13.52800 -0.32600 21.60700
H  14.55000 -1.68100 21.17900
H  15.33700 -0.22100 21.53200
H  12.95400 2.41000 26.39900
H  13.44300 3.51000 27.71200
H  11.96100 2.52500 27.89400
H  14.05400 0.81100 32.63500
H  17.11700 3.48800 34.16600
H  16.18600 3.01000 35.64300
H  15.53600 4.21400 34.71600
Mg -10.43100 16.52400 41.22800
C  -6.89100 16.21900 41.77700
C  -9.88300 19.83100 40.65800
C  -13.62700 16.77600 40.31500
C  -10.59400 13.07300 41.14900
N  -8.58100 17.78800 41.12100
C  -7.27500 17.49300 41.47600
C  -6.39800 18.74800 41.35100
C  -7.45700 19.84000 41.59900
C  -8.71900 19.16400 41.02100
C  -7.60800 20.50600 43.06500
C  -5.79100 18.78300 39.96100
C  -4.33500 18.37900 39.77000
H  -3.97200 17.16300 38.86500
N  -11.67300 18.18600 40.67400
C  -11.24700 19.46500 40.51100
C  -12.38600 20.23200 40.02800
C  -13.50400 19.32900 39.89200
C  -12.98300 18.06000 40.24600
C  -12.39200 21.72700 39.88200
C  -14.96500 19.72100 39.29600
O  -15.14700 20.84800 38.88000
C  -15.99700 18.71900 38.88900
N  -11.92500 15.19300 40.71300
C  -13.19000 15.50700 40.56600
C  -14.08300 14.25800 40.46300
C  -13.12000 13.10900 40.80200
C  -11.78500 13.82900 40.85900
C  -15.33400 14.30200 41.39300
C  -13.28100 11.83000 39.86500
C  -13.70200 10.45600 40.40800
N  -9.05400 14.89100 41.50100
C  -9.24300 13.55200 41.41500
C  -7.99800 12.82700 41.67000
C  -7.08400 13.90100 41.93400
C  -7.76900 15.10200 41.70800
C  -7.84900 11.30600 41.80600
C  -5.68200 14.18400 42.23500
O  -4.77800 13.39000 42.52400
C  -5.50300 15.72600 42.25900
C  -5.04100 16.12800 43.56200
O  -3.90200 16.43300 43.77100
O  -6.01100 16.01800 44.46800
C  -5.74900 16.53900 45.83400
H  -9.69400 20.90000 40.53900
H  -14.68600 16.87100 40.06400
H  -10.79500 12.01600 41.33600
H  -5.55100 18.85000 42.03000
H  -7.13500 20.67400 40.97500
H  -8.37800 19.96600 43.61700
H  -7.79200 21.57600 42.96700
H  -6.76900 20.35300 43.74300
H  -5.82100 19.81500 39.61300
H  -6.32600 18.06600 39.33800
H  -4.00800 18.20700 40.79600
H  -3.86400 19.28600 39.38900
H  -13.26200 22.12500 40.40500
H  -12.54000 21.87500 38.81200
H  -11.45600 22.24200 40.09500
H  -15.60500 17.78700 38.48300
H  -16.74100 19.26900 38.31300
H  -16.42900 18.50500 39.86700
H  -14.39400 14.11300 39.42900
H  -13.22900 12.78000 41.83500
H  -15.20600 15.14200 42.07600
H  -15.57900 13.35900 41.88100
H  -16.20000 14.46500 40.75200
H  -12.31700 11.68700 39.37700
H  -14.10900 11.96200 39.16900
H  -14.70100 10.13400 40.11200
H  -13.77100 10.52400 41.49300
H  -13.01300 9.69500 40.04000
H  -6.90000 11.01500 42.25600
H  -7.82300 10.90200 40.79400
H  -8.69500 10.84900 42.32100
H  -4.64800 15.91300 41.60900
H  -4.71100 16.73900 46.10000
H  -6.23900 15.76700 46.42700
H  -6.26800 17.48200 46.00700

