158

Mg 47.95600 15.82000 28.56500
C  45.96400 15.40400 31.57500
C  50.05000 17.67500 30.43000
C  49.23900 16.78400 25.74800
C  45.40300 13.96700 26.90400
N  48.08700 16.28900 30.81400
C  47.22800 15.91900 31.82200
C  47.79300 16.51800 33.15900
C  49.12200 17.24100 32.75000
C  49.13500 16.98200 31.26200
C  49.43200 18.66700 33.37700
C  48.13400 15.45200 34.29300
C  47.68900 15.64700 35.77900
H  47.82800 17.09500 36.48700
N  49.44200 16.98300 28.12600
C  50.21600 17.66500 29.05000
C  51.20200 18.43700 28.31700
C  50.96300 18.24500 26.93900
C  49.84700 17.29900 26.89100
C  52.33900 19.16500 28.96000
C  51.75700 18.68900 25.67800
O  51.67800 18.25400 24.51200
C  52.82000 19.71100 25.89100
N  47.45000 15.38100 26.64600
C  48.17800 15.91900 25.60300
C  47.86000 15.31200 24.22800
C  46.63000 14.33400 24.66100
C  46.47100 14.53400 26.17000
C  47.52900 16.38600 23.11500
C  46.98200 12.89100 24.33800
C  45.92100 12.19800 23.48100
N  46.10000 14.87200 29.04700
C  45.23100 14.12400 28.28800
C  44.01700 13.69500 29.10800
C  44.33000 14.16900 30.34000
C  45.56700 14.86900 30.30600
C  42.81500 12.94900 28.79900
C  43.84200 14.18700 31.71900
O  42.82100 13.64200 32.20400
C  44.91700 14.97000 32.57200
C  44.17300 16.06800 33.26300
O  43.82100 17.06200 32.63600
O  44.06800 15.76200 34.61300
C  43.55700 16.81000 35.37700
H  50.80400 18.23700 30.98600
H  49.77900 17.05000 24.83700
H  44.63000 13.44400 26.33600
H  47.07600 17.23500 33.55900
H  49.94800 16.63300 33.11900
H  49.14200 19.39200 32.61700
H  50.51000 18.75400 33.50800
H  48.95400 18.89100 34.33100
H  49.20300 15.24600 34.34900
H  47.60700 14.54000 34.01200
H  48.24000 15.07600 36.52600
H  46.67400 15.32200 36.00800
H  53.07300 18.36200 28.90000
H  52.20000 19.36800 30.02200
H  52.64200 20.13000 28.55500
H  52.29600 20.52500 26.39200
H  53.25200 20.00700 24.93500
H  53.54100 19.26600 26.57700
H  48.68400 14.71400 23.83900
H  45.74100 14.72300 24.16400
H  47.57400 15.87200 22.15500
H  48.17900 17.25900 23.05300
H  46.48700 16.69300 23.20400
H  47.10200 12.25300 25.21400
H  47.91100 12.78600 23.77900
H  45.29300 11.61100 24.15200
H  46.50900 11.53700 22.84400
H  45.24800 12.86800 22.94600
H  42.91200 12.49500 27.81300
H  42.02900 13.70300 28.75300
H  42.69500 12.24700 29.62400
H  45.39400 14.29600 33.28400
H  42.53900 17.06300 35.08300
H  44.30100 17.60400 35.30100
H  43.44900 16.43300 36.39400
Mg 16.55500 51.21500 25.16700
C  18.45200 50.17300 27.87300
C  14.26100 52.37200 27.39200
C  15.09400 52.71700 22.61700
C  19.07900 49.96800 23.01400
N  16.30000 51.13600 27.35600
C  17.23200 50.74500 28.28800
C  16.85300 51.16800 29.68200
C  15.37400 51.50200 29.54900
C  15.21100 51.60100 28.03000
C  14.36800 50.54600 30.25100
C  17.76000 52.14900 30.41800
C  17.90800 51.88400 31.86400
H  17.01500 52.64300 32.83500
N  14.86300 52.29400 25.02000
C  14.11600 52.73600 26.03700
C  13.23000 53.77900 25.54800
C  13.33700 53.81600 24.12400
C  14.50800 52.97500 23.84300
C  12.17100 54.42900 26.41100
C  12.51600 54.55300 23.16000
O  12.71700 54.40500 21.96700
C  11.26500 55.36800 23.50600
N  16.94600 51.24600 23.09800
C  16.19500 51.98800 22.24400
C  16.80000 51.97400 20.76100
C  18.17800 51.19400 21.02000
C  18.04800 50.73500 22.48200
C  15.92000 51.06700 19.77600
C  19.31800 52.15600 20.62700
C  20.49800 51.52000 19.82400
N  18.36100 50.10200 25.31000
C  19.23800 49.68100 24.35900
C  20.45600 49.10900 25.05400
C  20.16700 49.32700 26.41800
C  18.88200 49.93200 26.54000
C  21.50300 48.52300 24.35000
C  20.65500 49.02300 27.77500
O  21.65900 48.47400 28.21600
C  19.63400 49.70500 28.70400
C  19.23900 48.78200 29.89000
O  18.84700 47.63000 29.81300
O  19.52600 49.37100 31.03600
C  19.58400 48.49000 32.19700
H  13.53600 52.71100 28.13600
H  14.66200 53.20700 21.74200
H  19.95000 49.71600 22.40600
H  16.99200 50.16900 30.09500
H  15.18500 52.51400 29.90700
H  14.77300 50.11500 31.16600
H  14.05900 49.78400 29.53600
H  13.47800 51.14000 30.45900
H  17.26200 53.11200 30.29900
H  18.75500 52.16200 29.97400
H  18.95600 51.83800 32.16300
H  17.60800 50.84200 31.97700
H  12.05600 55.49500 26.20900
H  12.36200 54.29600 27.47500
H  11.22300 53.94600 26.17300
H  10.54500 54.75000 24.04200
H  11.09200 55.72000 22.48900
H  11.39900 56.21800 24.17400
H  16.81700 53.01200 20.43100
H  18.21800 50.21600 20.54000
H  16.52400 50.76700 18.92000
H  15.11500 51.73700 19.47500
H  15.48100 50.15100 20.17100
H  19.75300 52.51800 21.55900
H  19.02300 53.08400 20.13800
H  21.42100 51.79500 20.33400
H  20.45100 52.02400 18.85900
H  20.49100 50.46100 19.56600
H  22.28300 49.28300 24.31700
H  21.11700 48.22900 23.37500
H  21.84400 47.59800 24.81500
H  20.06500 50.58900 29.17400
H  19.97500 48.89200 33.13200
H  20.23200 47.62800 32.04100
H  18.56800 48.13400 32.37000

