158

Mg 8.98700 3.97900 27.99400
C  10.34200 2.22200 30.67800
C  7.13700 5.80700 30.18200
C  7.67700 5.37700 25.33600
C  10.51400 1.46700 25.87900
N  8.75000 3.98500 30.20800
C  9.44600 3.22600 31.10600
C  9.18800 3.73100 32.57700
C  7.98700 4.78900 32.35800
C  8.02100 4.98700 30.82500
C  6.62900 4.23100 32.85500
C  10.50000 4.25800 33.39100
C  10.76600 3.71900 34.74400
H  11.10200 4.77500 35.82400
N  7.74800 5.43300 27.79900
C  7.04900 6.00200 28.81100
C  6.28100 7.11400 28.22100
C  6.58500 7.17000 26.79800
C  7.35300 5.89600 26.54200
C  5.51900 8.18100 28.98500
C  6.28700 8.21700 25.77700
O  6.71900 8.15900 24.63300
C  5.39500 9.46000 26.14900
N  8.97200 3.39300 25.90900
C  8.40800 4.21900 25.00200
C  8.68400 3.77500 23.55200
C  9.63000 2.54200 23.69400
C  9.72100 2.39900 25.24100
C  7.38700 3.54700 22.71000
C  10.99200 2.57100 22.99700
C  11.44200 1.29400 22.27100
N  10.15700 2.21000 28.15000
C  10.72900 1.31000 27.28100
C  11.37900 0.21500 27.96000
C  11.35900 0.55600 29.31800
C  10.64400 1.73500 29.36800
C  12.13000 -0.98000 27.32500
C  11.87300 0.18500 30.63500
O  12.62700 -0.74700 30.95300
C  11.17400 1.21700 31.58600
C  10.39000 0.38800 32.48700
O  9.27700 -0.07300 32.20500
O  11.04900 0.30400 33.68000
C  10.36900 -0.35300 34.76900
H  6.41800 6.32000 30.82400
H  7.33300 5.85400 24.41600
H  10.91800 0.68900 25.22900
H  8.76900 2.92800 33.18400
H  8.09000 5.72800 32.90300
H  6.48600 4.70600 33.82600
H  6.64600 3.15000 32.98800
H  5.76300 4.52900 32.26400
H  10.38000 5.33700 33.48900
H  11.41500 3.94800 32.88800
H  11.67700 3.13700 34.61200
H  9.96000 3.11900 35.16700
H  4.63800 8.38900 28.37800
H  6.04300 9.12900 29.11100
H  5.08200 7.93600 29.95400
H  4.37500 9.20500 26.43600
H  5.28500 9.98800 25.20200
H  5.83600 10.12500 26.89200
H  9.17900 4.65000 23.13100
H  9.00800 1.71600 23.34900
H  6.59100 4.13800 23.16400
H  7.11100 2.53100 22.42500
H  7.68300 4.04700 21.78800
H  11.77300 2.90200 23.68100
H  10.91800 3.30200 22.19200
H  12.12300 1.50600 21.44700
H  10.55700 0.76900 21.91100
H  11.85500 0.65900 23.05400
H  12.13200 -1.83100 28.00600
H  13.04800 -0.65500 26.83500
H  11.48600 -1.34600 26.52600
H  12.01800 1.70600 32.07300
H  11.01800 -0.85900 35.48400
H  9.62600 -1.08900 34.46200
H  9.90600 0.42800 35.37200
Mg 47.29800 25.02400 29.01000
C  48.23100 27.49600 31.52400
C  46.30800 23.10600 31.59400
C  46.83900 22.65800 26.82400
C  48.61400 27.14400 26.63800
N  47.23400 25.35000 31.37100
C  47.49100 26.45800 32.15200
C  47.19200 26.17300 33.63500
C  46.87800 24.64600 33.58700
C  46.82600 24.30300 32.12200
C  47.76900 23.59400 34.34800
C  46.08600 27.15500 34.13400
C  46.57900 28.09300 35.23600
H  47.07700 27.43100 36.60600
N  46.50400 23.21100 29.18800
C  46.14700 22.53700 30.34400
C  45.69300 21.23500 29.95400
C  45.65000 21.14900 28.53100
C  46.34400 22.41900 28.09000
C  45.25000 20.29800 30.98500
C  45.17500 20.05700 27.64300
O  45.25600 20.14400 26.41300
C  44.64200 18.73300 28.17300
N  47.99500 24.84100 27.14800
C  47.57100 23.77200 26.38500
C  47.93000 23.96500 24.91300
C  48.40100 25.42300 24.81100
C  48.32100 25.85800 26.29900
C  48.94900 22.96700 24.25500
C  47.58400 26.42000 23.88700
C  48.43800 27.33400 23.03200
N  48.31000 26.87400 29.08300
C  48.73400 27.66900 28.02100
C  49.20300 28.87800 28.44400
C  49.04400 28.85000 29.84100
C  48.54500 27.60100 30.17900
C  49.74600 30.04700 27.55600
C  49.14100 29.68800 31.06600
O  49.67800 30.84700 31.10600
C  48.66500 28.74600 32.21800
C  49.80100 28.50600 33.16400
O  50.65600 27.66000 33.06200
O  49.81000 29.47000 34.14000
C  50.80100 29.15500 35.19600
H  45.85600 22.50000 32.38200
H  46.67500 22.01600 25.95700
H  48.83600 27.79000 25.78600
H  48.13400 26.48500 34.08600
H  45.88200 24.47600 33.99500
H  48.19100 22.93800 33.58700
H  47.15500 23.09700 35.09900
H  48.57000 24.15000 34.83500
H  45.24800 26.55000 34.48000
H  45.74400 27.74800 33.28600
H  45.74300 28.76200 35.43900
H  47.50500 28.60400 34.97100
H  44.23300 20.04600 30.68300
H  45.23000 20.67900 32.00600
H  45.76500 19.33800 31.03200
H  45.19200 18.39000 29.04900
H  44.55900 18.02500 27.34900
H  43.66800 19.01300 28.57400
H  46.96300 23.96600 24.41100
H  49.47200 25.36800 24.61600
H  49.95200 23.39500 24.23500
H  48.76600 22.48800 23.29400
H  48.99700 22.16200 24.98800
H  47.05800 27.13100 24.52300
H  46.91900 25.79400 23.29200
H  48.47800 26.98200 22.00100
H  49.42100 27.50200 23.47200
H  48.00300 28.33200 23.09100
H  49.43500 31.05600 27.82800
H  49.53600 29.92800 26.49300
H  50.82800 30.08000 27.68900
H  47.87800 29.28500 32.74600
H  50.50200 28.24900 35.72300
H  50.90500 29.97300 35.90800
H  51.81400 29.03900 34.81200

