158

Mg 15.72400 52.34800 25.37600
C  17.95300 51.02700 27.93700
C  13.40700 52.87000 27.72600
C  13.85800 53.28800 22.91700
C  18.26000 51.28100 23.00800
N  15.80000 52.13700 27.58400
C  16.79800 51.60200 28.41800
C  16.35200 51.80900 29.83500
C  14.81900 52.05500 29.72100
C  14.62200 52.41100 28.26900
C  13.93200 50.80400 30.17500
C  17.10900 53.11900 30.36000
C  17.12100 53.44900 31.84300
H  16.14100 52.62200 32.74100
N  13.85900 53.00800 25.36700
C  13.00900 53.11800 26.41400
C  11.71200 53.66000 25.93400
C  11.94200 53.91700 24.55800
C  13.28200 53.40000 24.20400
C  10.48900 53.89300 26.81900
C  10.88500 54.45600 23.59300
O  11.11100 54.47300 22.36300
C  9.52900 54.89600 24.13400
N  16.08800 52.24800 23.27400
C  15.16100 52.85000 22.50000
C  15.54400 52.76200 21.01300
C  16.98000 52.24500 21.03300
C  17.15800 51.95200 22.52100
C  14.57000 52.05600 20.04800
C  18.05900 53.11200 20.35300
C  18.47500 52.65200 18.93300
N  17.69400 51.31100 25.42900
C  18.54300 50.95900 24.37400
C  19.66800 50.20300 24.91700
C  19.56500 50.26100 26.31300
C  18.33300 50.97000 26.59700
C  20.74800 49.59800 24.12800
C  20.09400 49.92300 27.60200
O  21.09300 49.35200 27.95500
C  19.09500 50.49900 28.70000
C  18.81200 49.58600 29.83500
O  18.53400 48.34600 29.75800
O  19.15200 50.23500 30.98000
C  19.06500 49.47900 32.26400
H  12.61500 53.05900 28.45300
H  13.17700 53.47300 22.08400
H  19.00000 50.99400 22.25800
H  16.43800 50.92300 30.46400
H  14.58400 53.00200 30.20700
H  14.49200 49.90500 30.43100
H  13.22300 50.54000 29.39000
H  13.25200 51.07400 30.98300
H  16.58800 53.97500 29.93300
H  18.10200 53.07400 29.91200
H  16.84500 54.48200 32.05500
H  18.13500 53.31400 32.22100
H  9.67900 53.21100 26.56200
H  10.21900 54.94100 26.94600
H  10.68400 53.57200 27.84200
H  8.98700 54.20100 24.77500
H  9.02200 54.84000 23.17100
H  9.75300 55.89000 24.52200
H  15.52100 53.81200 20.72300
H  16.90400 51.29500 20.50300
H  13.60800 51.74600 20.45500
H  14.92600 51.07600 19.73100
H  14.39500 52.61300 19.12800
H  18.91200 53.22400 21.02200
H  17.63800 54.11700 20.30700
H  17.99600 51.76600 18.51600
H  19.52400 52.42700 19.12600
H  18.47800 53.53800 18.29800
H  21.63200 50.18300 23.87600
H  20.22600 49.09500 23.31300
H  20.95200 48.74000 24.76800
H  19.65600 51.30200 29.17700
H  19.86700 48.74100 32.26200
H  18.12700 48.94300 32.41200
H  19.12800 50.17400 33.10100
Mg -1.47300 34.44600 26.71300
C  -2.83300 32.82400 29.49500
C  0.12900 36.61900 28.71500
C  -0.71900 36.26100 23.94000
C  -3.41200 32.34000 24.70500
N  -1.59100 34.82100 28.88700
C  -1.99400 33.89600 29.82300
C  -1.56500 34.31900 31.24200
C  -0.63600 35.50700 30.97200
C  -0.65400 35.67300 29.43400
C  -1.05800 36.76000 31.75000
C  -0.78400 33.25600 32.05800
C  -1.40700 32.95100 33.39400
H  -0.40900 32.98400 34.57200
N  -0.36600 36.18900 26.34900
C  0.24100 36.92300 27.31900
C  1.02900 37.91400 26.69800
C  0.70700 37.93900 25.27400
C  -0.10200 36.73800 25.12200
C  1.79300 38.90500 27.50100
C  1.24000 38.78100 24.17800
O  0.92100 38.60400 23.00200
C  2.34000 39.79600 24.49700
N  -2.15900 34.43300 24.63200
C  -1.67100 35.31800 23.71300
C  -2.05600 34.87300 22.29000
C  -2.37800 33.38400 22.50100
C  -2.73500 33.36500 24.03900
C  -3.16200 35.71000 21.54300
C  -1.32600 32.34000 22.23300
C  0.15400 32.67000 22.51100
N  -2.85800 32.86700 26.92100
C  -3.58400 32.13400 26.07000
C  -4.41000 31.15900 26.72600
C  -4.13900 31.35200 28.12000
C  -3.19300 32.39200 28.17800
C  -5.37500 30.12800 26.17400
C  -4.39200 30.90100 29.44200
O  -5.13900 29.99600 29.86800
C  -3.62000 31.88000 30.39700
C  -4.62800 32.54800 31.20400
O  -5.23400 33.59500 30.94700
O  -4.76100 31.76600 32.37700
C  -5.71300 32.34800 33.33600
H  0.64200 37.30400 29.39300
H  -0.55500 36.80200 23.00500
H  -3.99100 31.70200 24.03200
H  -2.49600 34.50100 31.78000
H  0.39900 35.31500 31.25800
H  -0.19200 37.23800 32.20800
H  -1.78200 36.56500 32.54100
H  -1.58200 37.50200 31.14700
H  0.25900 33.53800 32.20900
H  -0.76600 32.39300 31.39300
H  -1.83000 31.94600 33.38200
H  -2.33200 33.47400 33.63800
H  1.19100 39.05800 28.39700
H  1.80600 39.89000 27.03300
H  2.82000 38.55500 27.60300
H  2.84800 39.92600 23.54100
H  3.04900 39.48400 25.26400
H  1.92500 40.74300 24.84200
H  -1.12100 34.89400 21.73000
H  -3.12300 33.12700 21.74700
H  -3.54700 36.41600 22.27800
H  -4.06300 35.23300 21.15700
H  -2.80400 36.35800 20.74300
H  -1.58000 32.18400 21.18400
H  -1.48800 31.45400 22.84600
H  0.44000 33.62400 22.95200
H  0.76600 32.56300 21.61600
H  0.47300 31.98200 23.29400
H  -5.33900 29.75900 25.14900
H  -6.41800 30.43100 26.26300
H  -5.33500 29.28300 26.86200
H  -3.01800 31.20800 31.00800
H  -5.78400 31.66000 34.17800
H  -6.64700 32.57600 32.82400
H  -5.14700 33.22900 33.63900

