158

Mg 2.59600 -1.13700 43.52000
C  6.00800 -0.47700 42.89400
C  1.77800 1.88200 41.89000
C  -0.55000 -2.21900 43.13000
C  3.52100 -4.16800 44.96200
N  3.77200 0.41100 42.34000
C  5.15600 0.49400 42.29800
C  5.60500 1.75400 41.55800
C  4.24300 2.63000 41.47000
C  3.21300 1.60700 41.96200
C  4.27300 4.02400 42.21400
C  6.24500 1.35000 40.14900
C  7.33800 2.25000 39.59900
H  7.03300 2.77500 38.16200
N  0.83500 -0.34500 42.59400
C  0.72100 0.99700 42.08700
C  -0.63700 1.14700 41.69400
C  -1.33200 -0.14500 41.86100
C  -0.34300 -0.99200 42.56300
C  -1.06100 2.38800 41.07200
C  -2.69600 -0.53500 41.34100
O  -3.38100 0.31800 40.89800
C  -3.24600 -1.92100 41.34900
N  1.65200 -3.10200 43.82700
C  0.31700 -3.11500 43.87100
C  -0.20900 -4.22600 44.76300
C  1.16700 -4.74900 45.48100
C  2.17800 -4.00000 44.68000
C  -1.33100 -3.87400 45.72500
C  1.46300 -6.28300 45.46800
C  2.30200 -6.78400 46.69000
N  4.35200 -2.10400 44.07200
C  4.56200 -3.36200 44.56000
C  5.98400 -3.67100 44.66200
C  6.56100 -2.51200 44.07900
C  5.53000 -1.58900 43.68900
C  6.73700 -4.85500 45.25800
C  7.86100 -1.93600 43.66700
O  8.96800 -2.35000 43.71500
C  7.51300 -0.52200 42.97500
C  7.96600 0.63700 43.80600
O  7.31800 1.28800 44.64800
O  9.23500 0.96300 43.31200
C  9.84800 1.96100 44.21500
H  1.53500 2.89900 41.57400
H  -1.60200 -2.50500 43.19900
H  3.82800 -5.09400 45.45200
H  6.35800 2.31900 42.10800
H  3.98300 2.70000 40.41400
H  3.94600 4.70000 41.42400
H  5.26100 4.22700 42.62900
H  3.58200 3.93800 43.05200
H  5.44700 1.36700 39.40700
H  6.66900 0.34600 40.17600
H  8.23700 1.63800 39.52400
H  7.52000 3.08400 40.27700
H  -0.86400 2.39600 40.00000
H  -0.57600 3.27200 41.48700
H  -2.12800 2.52200 41.25000
H  -3.99000 -1.97900 40.55400
H  -3.58800 -2.20700 42.34400
H  -2.42600 -2.59400 41.09900
H  -0.65600 -4.92800 44.05900
H  1.22700 -4.38900 46.50800
H  -1.26400 -4.33500 46.71000
H  -2.27800 -4.14100 45.25600
H  -1.28900 -2.81600 45.98500
H  2.03800 -6.53100 44.57600
H  0.60900 -6.94300 45.31500
H  1.61200 -7.49200 47.14900
H  2.39900 -6.05200 47.49200
H  3.24500 -7.28500 46.47000
H  6.66400 -5.79300 44.70800
H  6.40200 -5.06800 46.27300
H  7.80300 -4.64900 45.35100
H  7.98600 -0.43300 41.99700
H  10.12300 1.59200 45.20400
H  9.12400 2.76100 44.36900
H  10.82300 2.23100 43.80900
Mg -12.65400 38.89800 42.87600
C  -10.87400 35.92100 41.87600
C  -10.32800 40.72300 41.05800
C  -14.49800 41.56900 43.51600
C  -15.33100 36.76200 43.77500
N  -10.67200 38.33800 41.66000
C  -10.19400 37.07500 41.42400
C  -8.95600 37.20800 40.54300
C  -8.73800 38.72700 40.39400
C  -9.97400 39.31500 41.09700
C  -7.40900 39.21500 41.04400
C  -9.07500 36.64000 39.12800
C  -7.75000 36.15500 38.56100
H  -7.00300 36.95700 37.49000
N  -12.42100 40.83900 42.46500
C  -11.40300 41.40000 41.74500
C  -11.60400 42.81600 41.58900
C  -12.77000 43.12500 42.32200
C  -13.30400 41.85600 42.79500
C  -10.60400 43.66300 40.83800
C  -13.27300 44.52700 42.53500
O  -12.73600 45.49500 41.97200
C  -14.43000 44.67000 43.47500
N  -14.65700 39.09500 43.54300
C  -15.12800 40.34000 43.79000
C  -16.57800 40.23100 44.24100
C  -16.99100 38.72400 44.15100
C  -15.53000 38.14200 43.86300
C  -16.82100 40.79500 45.71100
C  -17.95900 38.33900 43.01300
C  -19.38300 38.68500 43.31300
N  -13.02100 36.70600 42.97900
C  -14.15900 36.11400 43.35400
C  -13.87600 34.63900 43.28900
C  -12.61300 34.54200 42.69200
C  -12.14600 35.87200 42.46600
C  -14.67000 33.39100 43.74100
C  -11.61700 33.63300 42.19200
O  -11.61800 32.41400 42.05800
C  -10.42300 34.49600 41.64900
C  -9.14200 34.13500 42.36400
O  -9.00900 34.25200 43.57800
O  -8.21500 33.74300 41.50000
C  -6.89000 33.72300 42.11500
H  -9.69200 41.29000 40.37400
H  -15.04200 42.45500 43.84800
H  -16.23000 36.14900 43.86300
H  -8.07400 36.77600 41.01500
H  -8.65300 39.06800 39.36200
H  -6.94800 38.50600 41.73100
H  -7.64300 40.07900 41.66600
H  -6.61900 39.49600 40.34800
H  -9.08900 37.38300 38.33100
H  -9.86000 35.89100 39.02300
H  -7.87300 35.11600 38.25400
H  -6.99300 36.13500 39.34400
H  -10.71400 44.73000 41.03000
H  -10.65100 43.49300 39.76200
H  -9.59600 43.49800 41.22000
H  -14.19000 44.38100 44.49800
H  -15.35600 44.26000 43.07300
H  -14.42800 45.76000 43.44500
H  -17.08900 40.82000 43.48000
H  -17.26900 38.30000 45.11600
H  -17.61500 41.53900 45.64500
H  -15.91700 41.23100 46.13600
H  -17.26400 40.06000 46.38300
H  -17.86100 37.26200 42.87300
H  -17.64600 38.89800 42.13100
H  -19.93500 37.75500 43.44400
H  -19.82200 39.30200 42.52900
H  -19.53500 39.34500 44.16700
H  -15.12400 32.90400 42.87800
H  -15.46700 33.71000 44.41200
H  -13.95100 32.72700 44.22100
H  -10.28600 34.36700 40.57500
H  -6.78200 32.99900 42.92300
H  -6.75300 34.71500 42.54600
H  -6.18000 33.51200 41.31500

