158

Mg 23.97500 -6.62400 46.43900
C  26.06000 -4.16300 44.69500
C  21.48200 -5.65900 44.14100
C  22.41500 -9.46500 46.98700
C  26.82700 -7.58600 48.21700
N  23.77700 -5.08400 44.72700
C  24.79500 -4.25500 44.12500
C  24.18100 -3.41900 42.99700
C  22.67700 -3.45200 43.31900
C  22.55800 -4.80500 44.14300
C  22.06000 -2.27000 44.19100
C  24.64600 -3.88000 41.62900
C  25.34800 -2.83400 40.74400
H  25.11900 -2.86900 39.22900
N  22.08700 -7.46200 45.72000
C  21.19500 -6.87200 44.84200
C  19.98800 -7.65000 44.80500
C  20.21000 -8.81300 45.63600
C  21.59200 -8.63400 46.18100
C  18.88800 -7.29000 43.87800
C  19.24600 -9.95600 45.91700
O  18.10200 -9.86400 45.53700
C  19.63500 -11.21700 46.75200
N  24.63000 -8.34300 47.27800
C  23.73900 -9.40200 47.51300
C  24.32900 -10.49300 48.47400
C  25.67400 -9.76800 48.85000
C  25.73600 -8.41000 48.10200
C  23.39000 -10.86500 49.62100
C  26.96100 -10.69100 48.58000
C  27.88900 -10.88400 49.66000
N  26.00400 -5.90900 46.58300
C  27.04600 -6.38700 47.36400
C  28.21700 -5.57400 47.27500
C  27.84900 -4.65700 46.28600
C  26.50900 -4.89700 45.83000
C  29.57500 -5.62500 48.03700
C  28.25200 -3.46100 45.54900
O  29.34900 -2.88500 45.63500
C  27.16500 -3.14400 44.48700
C  26.80800 -1.72500 44.74500
O  25.90500 -1.23300 45.39400
O  27.71500 -0.98200 44.07400
C  27.33500 0.44300 43.90100
H  20.63400 -5.30000 43.55500
H  21.91700 -10.42500 47.13500
H  27.63200 -7.88500 48.89100
H  24.48600 -2.37700 43.09700
H  22.05500 -3.41000 42.42500
H  21.97100 -2.49600 45.25400
H  21.06700 -1.96700 43.85900
H  22.71000 -1.39700 44.14000
H  23.77500 -4.34300 41.16500
H  25.39100 -4.67100 41.71300
H  26.41600 -2.90100 40.95000
H  25.04500 -1.82700 41.02900
H  18.29200 -8.16300 43.61200
H  19.14800 -6.62700 43.05200
H  18.18600 -6.67700 44.44400
H  18.89300 -12.00800 46.64900
H  19.89100 -10.91500 47.76800
H  20.42400 -11.79100 46.26600
H  24.35200 -11.36700 47.82400
H  25.68900 -9.53800 49.91600
H  22.60300 -10.11100 49.60500
H  23.96500 -10.88400 50.54700
H  22.97900 -11.87000 49.52900
H  27.46500 -10.18500 47.75700
H  26.70300 -11.70700 48.27900
H  28.92500 -10.66900 49.39900
H  27.96000 -11.93100 49.95700
H  27.73000 -10.26400 50.54200
H  29.26400 -5.19300 48.98800
H  30.32200 -5.05900 47.47900
H  29.97400 -6.62300 48.22100
H  27.58800 -3.19100 43.48400
H  27.69100 0.91900 44.81500
H  26.26500 0.63900 43.84000
H  27.79500 0.84200 42.99700
Mg -0.87300 34.78200 27.44600
C  -2.55800 32.58800 29.80000
C  0.16700 36.55300 29.99400
C  0.01500 37.15600 25.23200
C  -2.42400 32.88900 25.07900
N  -1.10400 34.53800 29.67600
C  -1.79800 33.57200 30.37800
C  -1.64300 33.75800 31.87100
C  -0.86100 35.14400 31.98900
C  -0.54000 35.46400 30.45800
C  -1.58600 36.29200 32.78200
C  -1.01800 32.54000 32.62600
C  -1.66600 32.26600 33.98700
H  -0.75000 32.21500 35.17900
N  0.04100 36.59700 27.59400
C  0.46600 37.13700 28.73600
C  1.26200 38.31000 28.50400
C  1.25200 38.49100 27.10900
C  0.41300 37.45100 26.54600
C  1.90000 39.10800 29.59200
C  2.09200 39.50700 26.24300
O  1.98800 39.58400 25.02700
C  3.16200 40.34000 26.80500
N  -1.27000 35.12900 25.49700
C  -0.76100 36.12000 24.76900
C  -1.19100 36.02600 23.33000
C  -1.72100 34.54600 23.24900
C  -1.77500 34.11900 24.70000
C  -2.16000 37.13700 22.90600
C  -0.84500 33.53000 22.42400
C  -1.37900 33.37700 20.94900
N  -2.31900 33.16400 27.39200
C  -2.78300 32.48600 26.35400
C  -3.73900 31.48600 26.76800
C  -3.64900 31.42100 28.10900
C  -2.75900 32.45800 28.46200
C  -4.63500 30.69100 25.78700
C  -4.02500 30.72900 29.29600
O  -4.67300 29.66700 29.43400
C  -3.46900 31.53500 30.50000
C  -4.58100 32.01500 31.35300
O  -5.42400 32.79300 31.02200
O  -4.58300 31.35000 32.58700
C  -5.52400 31.65600 33.59100
H  0.56600 37.09700 30.85200
H  0.28500 37.83300 24.41800
H  -2.95300 32.30000 24.32700
H  -2.67700 33.89100 32.18800
H  0.02400 35.05900 32.62000
H  -1.61200 37.23800 32.24100
H  -1.11500 36.40700 33.75900
H  -2.62500 36.08600 33.03800
H  -0.00300 32.74500 32.96700
H  -1.00900 31.66100 31.98100
H  -1.93500 31.21100 34.03400
H  -2.56100 32.86000 34.17000
H  1.40200 39.03000 30.55900
H  1.98400 40.15900 29.31400
H  2.90800 38.70300 29.68200
H  3.70900 39.85500 27.61300
H  2.64800 41.24400 27.13300
H  3.88300 40.56600 26.01900
H  -0.32100 36.08200 22.67600
H  -2.69600 34.51000 22.76400
H  -2.19900 37.78700 23.77900
H  -3.11900 36.71300 22.60700
H  -1.79100 37.62500 22.00400
H  -0.72700 32.56900 22.92500
H  0.19300 33.86300 22.43100
H  -0.39900 33.42300 20.47400
H  -2.10500 34.15200 20.70100
H  -1.86900 32.41600 20.79400
H  -4.04300 29.81500 25.52300
H  -4.88400 31.24300 24.88200
H  -5.50400 30.33300 26.33900
H  -2.77400 30.83700 30.96800
H  -6.40200 32.14800 33.17200
H  -4.92600 32.26800 34.26600
H  -5.92100 30.76600 34.07700

