158

Mg 25.84100 1.08100 28.84200
C  27.66200 0.71000 31.75200
C  22.95500 0.70600 30.57200
C  24.07400 0.80000 25.87800
C  28.84800 0.76500 26.97300
N  25.41800 0.70000 30.92800
C  26.27900 0.78200 31.99500
C  25.56500 0.98000 33.31700
C  24.12700 1.04500 32.90000
C  24.15100 0.72400 31.34500
C  23.14600 0.13000 33.69300
C  25.93300 2.24500 34.12600
C  25.64900 2.20300 35.60000
H  26.70000 2.77700 36.59800
N  23.79400 0.76000 28.23200
C  22.73800 0.75000 29.14700
C  21.50600 0.65800 28.50600
C  21.81600 0.76900 27.11900
C  23.26200 0.76100 26.97300
C  20.14100 0.53700 29.06700
C  20.88600 0.69700 25.89400
O  21.32500 0.63800 24.76600
C  19.38400 0.73000 26.07100
N  26.44500 0.83500 26.70000
C  25.50300 0.78200 25.69700
C  26.18100 0.78100 24.31300
C  27.68300 1.22800 24.68500
C  27.68400 0.99600 26.20400
C  26.22100 -0.70600 23.68300
C  28.06000 2.70900 24.35500
C  28.86400 2.96500 23.08400
N  27.86700 0.68900 29.23200
C  28.97100 0.49900 28.35900
C  30.08500 0.17100 29.19500
C  29.72600 0.32400 30.55100
C  28.35600 0.64900 30.49500
C  31.46500 -0.17800 28.61700
C  30.05200 0.23400 31.95900
O  31.11500 0.08300 32.51000
C  28.73300 0.56100 32.80400
C  28.63700 -0.49600 33.79100
O  28.03800 -1.55000 33.64900
O  29.37800 -0.20200 34.91200
C  29.31400 -1.17400 36.04600
H  21.98200 0.85100 31.04600
H  23.62400 0.72100 24.88700
H  29.82300 0.70000 26.48500
H  25.73900 0.13300 33.98000
H  23.71800 2.05600 32.90600
H  23.46100 0.06500 34.73400
H  22.89600 -0.88700 33.39100
H  22.18800 0.61800 33.87500
H  25.45200 3.16800 33.80300
H  26.99700 2.43400 33.98600
H  25.54900 1.17500 35.95000
H  24.69300 2.65100 35.87100
H  20.17100 0.50500 30.15600
H  19.64800 -0.35500 28.67900
H  19.48400 1.30900 28.66700
H  19.05100 1.54800 26.70900
H  18.93500 -0.20500 26.40700
H  18.95800 0.89200 25.08100
H  25.73900 1.46200 23.58600
H  28.39900 0.58200 24.17700
H  25.40500 -1.29400 24.10400
H  27.14400 -1.28000 23.76100
H  25.94400 -0.67800 22.62900
H  28.70200 3.10700 25.14100
H  27.11800 3.25500 24.29600
H  29.95100 2.91600 23.14400
H  28.54900 3.96900 22.79800
H  28.57500 2.26100 22.30400
H  32.00200 0.60600 28.08400
H  31.29800 -0.78100 27.72500
H  31.94600 -0.71400 29.43600
H  28.94700 1.54100 33.23100
H  28.43000 -0.99900 36.65800
H  30.20100 -0.90300 36.61900
H  29.26100 -2.22800 35.77400
Mg 26.38100 51.02500 27.58500
C  24.31300 51.99400 30.15200
C  28.80200 50.19800 29.98600
C  28.46100 50.32900 25.04400
C  24.11600 52.42500 25.37600
N  26.58300 51.15700 29.90200
C  25.52400 51.43100 30.70600
C  25.89100 51.03400 32.13000
C  27.40400 50.54400 31.98900
C  27.64600 50.61100 30.55200
C  28.38700 51.28200 32.99700
C  24.99700 50.03500 32.80500
C  24.28000 50.49300 34.09300
H  25.15700 50.94700 35.26900
N  28.27400 50.30100 27.54600
C  29.12300 49.98200 28.59000
C  30.33200 49.38400 28.12600
C  30.33800 49.50900 26.68000
C  28.98700 50.09100 26.34800
C  31.44100 48.78900 28.89100
C  31.40100 49.07300 25.61700
O  31.16100 49.08200 24.41800
C  32.74300 48.55300 26.01800
N  26.31300 51.33400 25.53500
C  27.22700 50.86600 24.67900
C  26.87800 51.06200 23.20500
C  25.45700 51.63900 23.33400
C  25.24100 51.87800 24.84500
C  27.83100 51.95600 22.33000
C  24.27000 50.75500 22.79800
C  23.07900 51.59700 22.25100
N  24.52900 52.03300 27.68900
C  23.67900 52.49100 26.71900
C  22.47900 52.98600 27.23300
C  22.69900 52.82300 28.60300
C  23.97700 52.30300 28.83000
C  21.31600 53.45700 26.53900
C  22.06000 53.06800 29.91200
O  21.02500 53.63600 30.18800
C  23.12400 52.40200 30.95900
C  23.49800 53.43900 31.97600
O  24.55300 54.05200 31.96800
O  22.44800 53.73900 32.79400
C  22.84200 54.58700 33.86700
H  29.54100 49.82600 30.69900
H  29.09100 50.05500 24.19500
H  23.30100 52.74400 24.72200
H  25.87700 52.00800 32.61900
H  27.44500 49.48000 32.22400
H  29.23000 51.73500 32.47500
H  28.77600 50.60800 33.76000
H  27.87100 52.16300 33.37900
H  25.54600 49.12600 33.05100
H  24.20600 49.85700 32.07700
H  23.66600 49.67400 34.46600
H  23.65200 51.31900 33.75900
H  31.05800 48.78700 29.91200
H  32.41200 49.28400 28.91100
H  31.56500 47.77100 28.52400
H  33.30400 48.36100 25.10400
H  32.57400 47.61500 26.54700
H  33.18300 49.28200 26.69900
H  26.75300 50.07600 22.75900
H  25.33300 52.60700 22.84900
H  28.75400 51.98600 22.90800
H  27.41500 52.94300 22.12700
H  28.08500 51.43800 21.40500
H  23.84600 50.21700 23.64700
H  24.66000 50.04200 22.07200
H  22.15000 51.16900 22.62900
H  23.05200 51.51200 21.16400
H  23.09100 52.66400 22.47200
H  20.52800 52.98700 27.12700
H  21.32100 53.09300 25.51100
H  21.29200 54.54300 26.62900
H  22.54800 51.61600 31.44800
H  23.10200 55.59200 33.53400
H  23.56400 54.02400 34.45700
H  21.95700 54.68400 34.49700

