158

Mg -1.34700 17.38200 27.18800
C  -1.94800 15.17100 30.05200
C  -1.85500 20.00300 29.46500
C  -1.35300 19.32800 24.71500
C  -1.73700 14.47300 25.13200
N  -1.92800 17.54500 29.49400
C  -1.84000 16.51400 30.44300
C  -2.06100 17.04900 31.84900
C  -2.16800 18.58100 31.62000
C  -2.00600 18.77400 30.11300
C  -3.57900 19.20500 32.11800
C  -0.87800 16.60500 32.84300
C  -0.59500 17.51900 34.00900
H  -0.34200 17.03900 35.42700
N  -1.34600 19.39900 27.09700
C  -1.56200 20.33700 28.13600
C  -1.44200 21.68200 27.56100
C  -1.23200 21.44800 26.10800
C  -1.35900 20.01900 25.88400
C  -1.46900 22.95600 28.35400
C  -1.03200 22.41400 25.01900
O  -1.02300 22.10200 23.83100
C  -0.90400 23.91000 25.25200
N  -1.74900 16.96400 25.22700
C  -1.59900 17.99800 24.33400
C  -1.53000 17.54100 22.82500
C  -1.50100 15.96000 23.02100
C  -1.66800 15.75100 24.52000
C  -2.77700 18.11600 21.99500
C  -0.23500 15.25600 22.49800
C  1.15700 15.42200 23.23200
N  -1.71000 15.24600 27.45300
C  -1.76500 14.25100 26.55000
C  -2.10700 13.07100 27.24300
C  -2.06200 13.31400 28.61800
C  -1.88100 14.71700 28.70600
C  -2.35600 11.71800 26.48800
C  -2.25400 12.70600 29.96900
O  -2.51600 11.58700 30.38300
C  -2.17200 13.93700 30.96400
C  -1.04300 13.58100 31.82600
O  0.12500 13.71500 31.44900
O  -1.44800 13.21300 33.12000
C  -0.39300 13.11600 34.12100
H  -1.81700 20.80200 30.20800
H  -1.35300 19.93400 23.80600
H  -1.73200 13.54500 24.55600
H  -3.05300 16.64900 32.05800
H  -1.43400 19.21400 32.11800
H  -3.82700 18.58400 32.97900
H  -4.25900 19.02100 31.28700
H  -3.42000 20.26500 32.31400
H  0.04500 16.31100 32.34500
H  -1.32400 15.72700 33.31000
H  -1.52300 18.09000 33.97900
H  0.21800 18.21900 33.81600
H  -1.62100 23.80400 27.68600
H  -0.44000 22.92500 28.71300
H  -2.07900 23.05300 29.25200
H  0.00700 24.06600 25.83000
H  -1.80300 24.30400 25.72600
H  -0.85000 24.37400 24.26700
H  -0.56900 17.69800 22.33600
H  -2.43100 15.56500 22.61400
H  -3.25200 18.92100 22.55500
H  -3.40700 17.28900 21.66600
H  -2.33400 18.42500 21.04800
H  -0.13300 15.70700 21.51000
H  -0.39700 14.19600 22.30300
H  1.01900 15.77500 24.25500
H  1.75000 16.16500 22.69800
H  1.52900 14.39800 23.27200
H  -2.74100 11.91800 25.48800
H  -3.10400 11.17300 27.06400
H  -1.49700 11.04800 26.51200
H  -3.08400 13.98000 31.55900
H  0.24100 14.00100 34.06800
H  0.22700 12.22700 34.00100
H  -0.82900 13.07800 35.11900
Mg -10.01800 38.23300 40.93100
C  -7.88300 35.41800 40.64500
C  -7.46900 40.05700 39.43400
C  -12.07400 40.73200 40.65500
C  -12.54900 36.06700 42.03400
N  -7.96300 37.75300 40.10300
C  -7.31500 36.58300 40.10000
C  -5.90900 36.69100 39.44500
C  -5.78800 38.21800 39.17600
C  -7.19700 38.74800 39.58000
C  -4.59400 39.00300 39.85000
C  -5.89600 35.73500 38.19600
C  -4.73700 34.73900 38.14000
H  -3.76800 34.95800 36.92800
N  -9.74900 40.20700 40.28800
C  -8.60400 40.80800 39.70100
C  -8.91900 42.20700 39.49400
C  -10.27100 42.45700 39.81900
C  -10.78000 41.11600 40.29300
C  -7.87800 43.21600 38.93900
C  -11.03600 43.74500 39.69100
O  -10.42600 44.69600 39.28900
C  -12.50400 43.86200 40.07900
N  -11.96900 38.34500 41.24300
C  -12.64200 39.56000 41.04000
C  -14.12300 39.37700 41.28700
C  -14.28200 37.89900 41.68300
C  -12.87300 37.36400 41.59800
C  -14.64000 40.32000 42.40700
C  -15.41700 37.10100 40.94600
C  -16.83700 37.66400 41.21200
N  -10.16400 36.18000 41.44100
C  -11.26200 35.48200 41.89800
C  -10.81200 34.10500 42.17600
C  -9.46500 34.04100 41.68800
C  -9.14800 35.33800 41.25400
C  -11.64300 33.11400 42.98200
C  -8.43800 33.12500 41.45600
O  -8.38500 31.89300 41.65200
C  -7.23500 33.98200 40.81300
C  -6.05300 33.93200 41.86400
O  -5.33000 32.97600 41.93800
O  -5.92600 35.00500 42.75000
C  -4.84300 34.81700 43.83700
H  -6.69300 40.67400 38.97800
H  -12.85100 41.49900 40.63900
H  -13.40900 35.45100 42.30300
H  -5.14300 36.38600 40.15800
H  -5.59400 38.41600 38.12200
H  -3.98400 38.27900 40.39000
H  -4.90200 39.82000 40.50300
H  -3.91100 39.20900 39.02600
H  -5.95300 36.34800 37.29700
H  -6.81700 35.15300 38.15400
H  -5.07200 33.70300 38.18200
H  -4.01800 34.84300 38.95300
H  -8.01300 44.23100 39.31400
H  -8.03500 43.33800 37.86700
H  -6.82500 42.98600 39.09900
H  -12.64900 43.68400 41.14500
H  -13.11300 43.12500 39.55600
H  -12.95200 44.84100 39.90600
H  -14.75100 39.52100 40.40800
H  -14.46100 37.86500 42.75800
H  -14.74200 39.96000 43.43100
H  -15.61600 40.61700 42.02100
H  -14.08600 41.25800 42.41400
H  -15.45500 36.04500 41.21300
H  -15.23500 37.04200 39.87300
H  -17.43500 36.78700 41.46000
H  -17.21800 38.07000 40.27400
H  -16.92100 38.41800 41.99400
H  -12.64100 32.90800 42.59400
H  -11.76600 33.35200 44.03800
H  -11.07500 32.19500 42.83600
H  -6.86200 33.52200 39.89800
H  -3.95000 34.26600 43.54200
H  -5.32300 34.35700 44.70000
H  -4.53000 35.81100 44.15800

