158

Mg -2.35100 35.50600 26.57700
C  -4.00300 33.79100 29.19300
C  -0.68900 37.42000 28.83300
C  -1.06600 37.20300 24.03800
C  -4.40500 33.81800 24.44500
N  -2.59800 35.68800 28.78000
C  -3.16400 34.85900 29.64100
C  -2.72400 35.16600 31.15400
C  -1.90700 36.48400 30.97500
C  -1.75300 36.58000 29.42600
C  -2.49300 37.77800 31.64900
C  -1.98200 33.98000 31.81900
C  -2.68500 33.35200 33.06400
H  -1.74000 33.30900 34.31700
N  -0.85600 36.88800 26.44800
C  -0.30800 37.63200 27.51100
C  0.80500 38.50700 26.97800
C  0.75400 38.39800 25.53200
C  -0.38900 37.48400 25.22800
C  1.62000 39.37100 27.85400
C  1.61500 39.19900 24.54900
O  1.53600 39.01900 23.34600
C  2.80200 39.97500 24.93700
N  -2.93400 35.73800 24.55600
C  -2.17400 36.40100 23.73000
C  -2.75800 36.36200 22.32200
C  -3.76800 35.18400 22.41400
C  -3.71000 34.87000 23.86900
C  -3.25500 37.70300 21.74800
C  -3.44900 33.97800 21.51400
C  -2.08900 33.27300 21.92000
N  -3.84100 34.06300 26.71800
C  -4.49800 33.35800 25.76500
C  -5.08100 32.22200 26.31400
C  -4.93600 32.36500 27.67600
C  -4.25800 33.50300 27.87600
C  -5.66400 31.12400 25.40400
C  -5.26000 31.79900 28.94400
O  -5.78900 30.74000 29.22400
C  -4.79700 32.76600 30.01900
C  -5.98700 33.27800 30.77000
O  -6.93300 33.86200 30.33700
O  -5.81100 32.95600 32.09300
C  -7.04800 32.84400 32.94000
H  -0.16400 37.99500 29.59800
H  -0.72100 37.91200 23.28200
H  -4.84900 33.10900 23.74200
H  -3.60500 35.38300 31.75900
H  -0.90200 36.50700 31.39600
H  -3.29100 37.49600 32.33500
H  -2.93100 38.43900 30.90100
H  -1.77900 38.27900 32.30200
H  -1.00600 34.36600 32.11400
H  -1.88200 33.17300 31.09300
H  -2.78900 32.29900 32.80400
H  -3.66700 33.80300 33.19900
H  1.82800 40.30400 27.33100
H  2.46000 38.75300 28.17300
H  1.07500 39.59600 28.77100
H  2.44700 40.94800 25.27800
H  3.39700 40.08700 24.03100
H  3.34700 39.45300 25.72300
H  -1.94800 36.02200 21.67600
H  -4.80400 35.41300 22.16300
H  -2.62600 38.50100 22.14100
H  -4.30600 37.88100 21.97500
H  -3.07500 37.71600 20.67300
H  -3.27600 34.16100 20.45400
H  -4.27900 33.27700 21.61000
H  -1.57800 33.11400 20.97000
H  -2.22700 32.35600 22.49400
H  -1.36600 33.89500 22.44800
H  -4.97500 30.67200 24.69100
H  -6.56500 31.45500 24.88600
H  -5.97300 30.32500 26.07700
H  -4.16600 32.18000 30.68700
H  -7.81200 33.39000 32.38700
H  -6.79900 33.36000 33.86600
H  -7.26000 31.78100 33.05500
Mg -5.55500 25.94400 26.24900
C  -4.30800 27.60900 29.02400
C  -7.00000 23.68800 28.29900
C  -6.53600 24.21800 23.38900
C  -3.72500 28.06500 24.13200
N  -5.66300 25.80500 28.35600
C  -5.20300 26.61600 29.33900
C  -5.61000 26.15100 30.73300
C  -6.13200 24.72200 30.46900
C  -6.28200 24.70800 28.90200
C  -5.27900 23.59700 31.08800
C  -6.66600 27.12300 31.27400
C  -6.65700 27.00600 32.83200
H  -6.04700 25.76900 33.65200
N  -6.63300 24.26700 25.93500
C  -7.17900 23.43100 26.90500
C  -7.95600 22.43500 26.31300
C  -7.95000 22.61600 24.92700
C  -6.97300 23.70500 24.66000
C  -8.37100 21.20800 27.11100
C  -8.65900 21.81500 23.87400
O  -8.43500 22.00300 22.70000
C  -9.71200 20.68000 24.09700
N  -5.22000 26.15200 24.07100
C  -5.78300 25.37900 23.09300
C  -5.42100 25.80800 21.68100
C  -4.64300 27.10000 21.90500
C  -4.61200 27.19300 23.40500
C  -4.60900 24.74900 20.89100
C  -5.35900 28.43900 21.32500
C  -5.21500 28.70400 19.72000
N  -4.14000 27.44700 26.46000
C  -3.50400 28.25200 25.57500
C  -2.68600 29.21800 26.29200
C  -2.91500 29.00600 27.63300
C  -3.89400 27.94800 27.68300
C  -1.85800 30.35500 25.65800
C  -2.62500 29.42300 28.98900
O  -1.97500 30.33600 29.46900
C  -3.55900 28.60900 29.93000
C  -2.68400 27.96200 30.82300
O  -1.87400 27.13600 30.52900
O  -2.96000 28.37700 32.14900
C  -2.34400 27.46000 33.13400
H  -7.55600 23.04600 28.98500
H  -6.85400 23.66100 22.50500
H  -3.30700 28.77300 23.41300
H  -4.71600 26.10700 31.35500
H  -7.16900 24.69400 30.80300
H  -5.92700 22.93500 31.66200
H  -4.43600 24.04100 31.61700
H  -4.77800 22.99300 30.33100
H  -7.63200 26.83500 30.85900
H  -6.57300 28.17300 30.99600
H  -7.67000 27.11400 33.22000
H  -6.01500 27.79000 33.23300
H  -8.48700 20.34700 26.45400
H  -9.44200 21.27000 27.29900
H  -7.77400 21.10500 28.01700
H  -10.34100 20.40100 23.25200
H  -10.39500 20.98100 24.89200
H  -9.27000 19.72700 24.38600
H  -6.30800 25.91400 21.05500
H  -3.61400 27.02600 21.55300
H  -4.31000 23.88000 21.47700
H  -3.70900 25.21900 20.49500
H  -5.20000 24.39100 20.04800
H  -4.97500 29.30000 21.87200
H  -6.42700 28.27000 21.46400
H  -4.97200 29.76700 19.70400
H  -6.15500 28.43900 19.23700
H  -4.43100 28.04000 19.35700
H  -2.43700 31.27500 25.74400
H  -1.92700 30.26000 24.57400
H  -0.81000 30.38500 25.95400
H  -4.28500 29.28000 30.38900
H  -2.57500 26.40100 33.02500
H  -2.67700 27.87500 34.08500
H  -1.27600 27.63800 33.00600

