158

Mg 35.91300 1.13400 29.50400
C  33.46400 1.97100 31.79200
C  38.28000 1.15300 31.69800
C  38.25400 0.92900 26.97300
C  33.38100 1.46600 26.91700
N  35.83500 1.66700 31.51500
C  34.73100 1.82700 32.32300
C  35.20300 1.97900 33.84900
C  36.77800 1.92500 33.69100
C  36.97400 1.48600 32.24400
C  37.54000 3.19100 34.07400
C  34.64900 0.79100 34.77200
C  34.18000 1.24200 36.12000
H  34.96000 2.33400 36.83200
N  37.99900 0.91500 29.38000
C  38.79100 0.85100 30.43700
C  40.07200 0.36900 30.07000
C  40.04500 0.34000 28.63000
C  38.75700 0.74500 28.25000
C  41.12100 -0.13300 31.07200
C  41.15900 -0.05700 27.70600
O  41.02100 -0.10700 26.50100
C  42.54100 -0.51000 28.25200
N  35.84500 1.44100 27.20700
C  36.97100 1.11800 26.47500
C  36.64400 1.28100 24.99500
C  35.08000 1.34000 24.96400
C  34.69300 1.47400 26.42600
C  37.31100 2.52200 24.21500
C  34.33800 0.25000 24.15600
C  34.24600 -1.12700 24.96300
N  33.86700 1.61600 29.37600
C  33.00200 1.64100 28.30700
C  31.66400 1.93700 28.73300
C  31.78600 2.12700 30.11600
C  33.16600 1.88100 30.42900
C  30.50300 2.04700 27.88200
C  31.08800 2.59300 31.29700
O  29.91100 2.96200 31.57900
C  32.20200 2.40700 32.41400
C  32.41500 3.70600 33.10400
O  32.97200 4.72200 32.65300
O  31.77100 3.71600 34.30700
C  31.90600 4.89000 35.19500
H  39.05800 1.10700 32.46400
H  39.04300 0.74600 26.24000
H  32.58400 1.58500 26.18000
H  34.81800 2.89400 34.30100
H  37.09200 1.09100 34.31900
H  38.21000 3.53300 33.28600
H  38.01300 3.17300 35.05600
H  36.84500 4.01900 34.21600
H  35.26400 -0.07600 35.01500
H  33.84000 0.40700 34.15000
H  34.14800 0.42600 36.84100
H  33.14500 1.58200 36.09500
H  41.94200 0.58200 31.13200
H  41.58800 -1.09600 30.86400
H  40.68100 -0.17800 32.06800
H  43.29800 -0.68200 27.48700
H  42.40300 -1.51200 28.65600
H  42.82300 0.18500 29.04300
H  37.08600 0.40600 24.51800
H  34.69700 2.30000 24.61900
H  37.66700 3.30800 24.88100
H  36.69800 3.05400 23.48800
H  38.11200 2.11500 23.59800
H  34.89900 0.14800 23.22700
H  33.32400 0.62000 24.00100
H  33.55500 -0.88600 25.77100
H  35.18500 -1.44700 25.41600
H  33.77600 -1.91600 24.37600
H  30.54700 2.80800 27.10300
H  29.64100 2.30500 28.49800
H  30.32000 1.06700 27.44100
H  31.80400 1.63400 33.07300
H  32.84600 5.44200 35.20600
H  31.92200 4.42200 36.17900
H  31.13100 5.65000 35.10500
Mg -5.27000 24.59100 26.55900
C  -3.64600 26.29900 29.22500
C  -6.39900 22.33300 28.84000
C  -6.58000 23.34900 23.97500
C  -3.32200 27.03200 24.40700
N  -5.10900 24.27100 28.74700
C  -4.49500 25.22800 29.61400
C  -4.82100 24.91700 31.07600
C  -5.37300 23.46000 30.93300
C  -5.69400 23.33300 29.43800
C  -4.41400 22.25600 31.36000
C  -5.76000 25.89600 31.72800
C  -5.48600 26.25000 33.19600
H  -5.53300 25.00600 34.03400
N  -6.41500 23.00500 26.43800
C  -6.81200 22.17600 27.43700
C  -7.55500 21.11100 26.76500
C  -7.62300 21.44600 25.41100
C  -6.87000 22.70100 25.21300
C  -7.94500 19.84900 27.54500
C  -8.29400 20.69900 24.25600
O  -8.34400 21.03100 23.02300
C  -9.18600 19.54900 24.64100
N  -4.87100 25.07400 24.51900
C  -5.64800 24.32600 23.65100
C  -5.45300 24.81000 22.22700
C  -4.51500 26.06500 22.37400
C  -4.22100 26.07200 23.87100
C  -4.94100 23.75200 21.21800
C  -5.14900 27.34100 21.77600
C  -4.30400 28.17500 20.83900
N  -3.66500 26.17600 26.76600
C  -3.08300 27.05400 25.80600
C  -2.26100 28.10100 26.42600
C  -2.51100 27.81700 27.79300
C  -3.27800 26.67200 27.92400
C  -1.58000 29.20600 25.78300
C  -2.20200 28.31600 29.05100
O  -1.51600 29.32100 29.33600
C  -2.83500 27.27600 30.05300
C  -1.74200 26.63300 30.72700
O  -0.96700 25.87900 30.21500
O  -1.80000 26.93900 32.03600
C  -0.80600 26.34800 33.03300
H  -6.86100 21.56800 29.46900
H  -7.06700 22.92900 23.09300
H  -2.90300 27.78000 23.73000
H  -3.85800 24.93900 31.58600
H  -6.25800 23.30400 31.55000
H  -4.50800 22.16400 32.44200
H  -3.36500 22.47200 31.15700
H  -4.66900 21.39600 30.74000
H  -6.77000 25.48900 31.74500
H  -5.86900 26.68500 30.98500
H  -6.22100 26.93700 33.61600
H  -4.48800 26.68300 33.25100
H  -9.02000 19.88200 27.72400
H  -7.42700 19.88500 28.50300
H  -7.57300 18.94800 27.05800
H  -8.53100 18.74300 24.97100
H  -9.71100 19.20800 23.74800
H  -9.83800 19.76700 25.48600
H  -6.41000 25.10400 21.79700
H  -3.57000 25.85700 21.87100
H  -3.94400 24.01800 20.86700
H  -5.70000 23.51400 20.47300
H  -4.81500 22.79300 21.72000
H  -5.37500 28.04200 22.58000
H  -6.12800 27.08600 21.36900
H  -3.28700 27.79800 20.95600
H  -4.34100 29.22000 21.14700
H  -4.69500 28.04500 19.83000
H  -2.10800 29.39600 24.84900
H  -0.55400 28.89500 25.58100
H  -1.48000 30.16700 26.28700
H  -3.50600 27.81600 30.72100
H  -0.13500 27.06200 33.51100
H  -0.24500 25.53000 32.58200
H  -1.43200 25.98900 33.85000

