158

Mg -2.41700 16.94300 26.58700
C  -2.82900 14.90000 29.55900
C  -3.54700 19.59200 28.48900
C  -2.51100 18.63400 23.80900
C  -2.34300 13.78700 24.77600
N  -3.23100 17.19200 28.78300
C  -3.19100 16.26400 29.82000
C  -3.74500 16.92200 31.10400
C  -3.96400 18.43700 30.68900
C  -3.52900 18.43400 29.22500
C  -5.43700 18.93400 30.91700
C  -2.94600 16.63200 32.40200
C  -3.01400 17.52800 33.69000
H  -2.65800 16.92300 35.07000
N  -2.88500 18.91300 26.26100
C  -3.21300 19.90100 27.12400
C  -3.24800 21.11900 26.49200
C  -3.03300 20.87400 25.07600
C  -2.75500 19.47200 24.98900
C  -3.42500 22.40300 27.13200
C  -2.94700 21.88700 23.87000
O  -2.63900 21.54900 22.73800
C  -3.19200 23.31200 24.14400
N  -2.39800 16.30500 24.61000
C  -2.26100 17.24800 23.59500
C  -2.23400 16.56300 22.20800
C  -1.90300 15.06400 22.59600
C  -2.28200 15.01700 24.08000
C  -3.70900 16.74500 21.61300
C  -0.39200 14.74100 22.35100
C  0.72600 15.42100 23.16300
N  -2.45300 14.80600 26.99000
C  -2.37800 13.75700 26.15700
C  -2.34600 12.59800 26.98000
C  -2.58700 12.99700 28.26500
C  -2.67400 14.33200 28.26500
C  -2.31800 11.22300 26.52800
C  -2.71000 12.49500 29.58100
O  -2.65300 11.35000 29.94400
C  -2.97600 13.71600 30.52200
C  -1.99000 13.60700 31.59600
O  -0.92900 14.20200 31.56400
O  -2.49000 12.97000 32.72100
C  -1.62700 12.90900 33.91800
H  -3.88000 20.43800 29.09300
H  -2.37100 19.27700 22.93700
H  -2.29200 12.91700 24.11800
H  -4.67800 16.36900 31.21300
H  -3.31200 19.15500 31.18600
H  -5.88800 18.37300 31.73500
H  -6.04200 18.71000 30.03800
H  -5.42100 20.02300 30.95500
H  -1.90800 16.58400 32.07300
H  -3.28400 15.64300 32.71000
H  -4.05800 17.83900 33.74000
H  -2.32200 18.33900 33.46200
H  -3.63700 22.23800 28.18800
H  -4.15900 23.08600 26.70300
H  -2.49100 22.96400 27.08900
H  -3.18600 23.86600 23.20500
H  -2.44600 23.70900 24.83300
H  -4.15700 23.60200 24.55900
H  -1.42000 16.99500 21.62800
H  -2.52700 14.35300 22.05500
H  -3.51500 17.18200 20.63300
H  -4.44900 17.38900 22.08900
H  -4.23200 15.80200 21.45500
H  -0.18200 14.96800 21.30600
H  -0.21100 13.66800 22.41600
H  1.31000 16.11900 22.56400
H  1.43400 14.66800 23.51000
H  0.20500 15.86300 24.01200
H  -1.67600 11.05100 25.66400
H  -3.31300 10.79300 26.41500
H  -1.82500 10.63100 27.30000
H  -3.97100 13.67300 30.96300
H  -0.66800 12.45800 33.66500
H  -2.08900 12.28800 34.68500
H  -1.38800 13.91700 34.25700
Mg 36.11400 48.49300 25.16400
C  36.64300 46.70600 28.14800
C  34.60300 50.96500 26.77500
C  35.48700 50.07800 22.14300
C  37.74100 45.90100 23.36100
N  35.52700 48.67800 27.20200
C  35.87800 47.87600 28.25400
C  35.60400 48.61700 29.56000
C  34.77400 49.85100 29.13800
C  34.91000 49.80300 27.57900
C  33.26400 49.86800 29.64200
C  36.93800 48.99800 30.32200
C  36.82900 49.12100 31.85000
H  35.47600 49.10200 32.54600
N  35.23000 50.31300 24.55100
C  34.67000 51.15900 25.43200
C  34.22700 52.34400 24.74400
C  34.47200 52.13200 23.36900
C  35.04700 50.80900 23.26100
C  33.68300 53.54900 25.49000
C  34.24000 53.06600 22.19000
O  34.64200 52.88100 21.02300
C  33.34200 54.27300 22.38100
N  36.55300 48.07300 23.05500
C  36.07600 48.79000 22.06700
C  36.44800 48.11300 20.71600
C  37.52100 47.09200 21.07600
C  37.38200 47.06300 22.62800
C  35.15500 47.75200 19.96000
C  39.00200 47.43400 20.58300
C  39.59100 46.43200 19.56800
N  36.90700 46.59700 25.60900
C  37.60000 45.70400 24.79000
C  37.97100 44.59900 25.55400
C  37.59900 44.88200 26.89400
C  36.95800 46.16400 26.83100
C  38.60000 43.25500 24.98600
C  37.65800 44.42600 28.34400
O  37.94000 43.30200 28.84800
C  37.06800 45.61200 29.18300
C  35.85200 45.05800 29.83400
O  34.83900 44.73000 29.19200
O  36.02700 44.99400 31.22000
C  34.76100 44.86700 31.95000
H  34.14100 51.77800 27.33900
H  35.21900 50.55100 21.19600
H  38.21300 45.00600 22.95000
H  34.95700 47.93400 30.11100
H  35.23000 50.73300 29.58700
H  33.02800 48.93900 30.16000
H  32.56800 49.85700 28.80200
H  33.09600 50.74600 30.26600
H  37.22600 49.99300 29.98400
H  37.65600 48.24200 30.00500
H  37.38600 49.94600 32.29300
H  37.26100 48.16900 32.15900
H  33.46900 54.46300 24.93700
H  34.31600 53.85400 26.32300
H  32.71600 53.35900 25.95500
H  32.39200 54.11300 22.89000
H  33.14200 54.80200 21.44900
H  33.83100 55.07700 22.93100
H  36.86000 48.91000 20.09600
H  37.27600 46.08400 20.74300
H  34.45700 47.24300 20.62400
H  35.43800 47.13600 19.10600
H  34.60000 48.62300 19.61300
H  39.56700 47.63800 21.49300
H  39.10200 48.44600 20.19000
H  39.89800 46.98800 18.68200
H  39.01600 45.53800 19.32700
H  40.40300 45.91500 20.07900
H  39.37400 43.45400 24.24500
H  37.79800 42.59100 24.66400
H  39.08800 42.81600 25.85600
H  37.73100 45.94600 29.98100
H  35.04700 44.64300 32.97800
H  34.06600 44.07200 31.68000
H  34.21300 45.79000 31.75900

