158

Mg 17.19900 52.45800 25.64600
C  18.80600 51.04800 28.21400
C  14.50900 53.14500 27.66800
C  15.48900 53.78100 22.98800
C  19.83000 51.61000 23.53100
N  16.69900 51.97500 27.71500
C  17.60700 51.61400 28.63200
C  17.03000 51.93000 29.98800
C  15.53400 52.09200 29.79600
C  15.53400 52.37900 28.25800
C  14.71000 50.76800 30.09500
C  17.69200 53.15000 30.56000
C  18.32100 53.16900 31.98200
H  17.63000 52.34900 33.08800
N  15.21100 53.25700 25.42200
C  14.32300 53.53500 26.37700
C  13.23700 54.33400 25.82600
C  13.38300 54.34200 24.40700
C  14.76900 53.77400 24.21100
C  12.27500 55.11500 26.65800
C  12.35200 54.87300 23.34500
O  12.62100 54.88500 22.16800
C  10.92900 55.34400 23.75300
N  17.51800 52.53300 23.46900
C  16.72500 53.25100 22.65700
C  17.38400 53.41500 21.29900
C  18.76400 52.72800 21.44600
C  18.73600 52.25900 22.90400
C  16.49600 52.92900 20.06400
C  19.93200 53.61000 21.08100
C  21.08500 52.93100 20.40500
N  18.84600 51.24900 25.71700
C  19.84900 51.06100 24.82400
C  20.84500 50.18200 25.50100
C  20.45600 50.09300 26.83900
C  19.29700 50.91200 26.92500
C  22.11700 49.60400 24.84200
C  20.80900 49.73500 28.21700
O  21.79900 49.13500 28.56600
C  19.84300 50.46600 29.13700
C  19.22500 49.49000 30.09900
O  18.34900 48.66700 29.93800
O  19.86500 49.58200 31.34800
C  19.58600 48.54400 32.32800
H  13.75700 53.41700 28.41200
H  15.02400 54.37900 22.20100
H  20.70500 51.50900 22.88600
H  17.25900 51.11600 30.67600
H  15.09500 52.89300 30.39100
H  13.96600 50.89700 30.88100
H  15.25100 49.86100 30.36300
H  14.22700 50.52400 29.14900
H  16.93300 53.91000 30.74700
H  18.43000 53.68400 29.96300
H  18.36700 54.22900 32.23100
H  19.37800 52.90900 32.02500
H  11.29600 54.63700 26.69400
H  12.00300 56.09100 26.25600
H  12.61100 55.26100 27.68500
H  10.44300 54.38900 23.95100
H  10.55300 55.70400 22.79500
H  10.88000 56.06700 24.56700
H  17.56000 54.48300 21.17600
H  18.78300 51.82800 20.83100
H  16.15200 51.92300 20.30600
H  17.09200 52.94500 19.15200
H  15.61100 53.56600 20.07200
H  20.30700 54.25500 21.87500
H  19.56800 54.33400 20.35300
H  20.84800 51.89000 20.18500
H  21.94600 52.99900 21.07000
H  21.51700 53.44700 19.54700
H  22.54300 50.36700 24.19000
H  21.70800 48.76000 24.28700
H  22.71300 49.28100 25.69600
H  20.42500 51.18600 29.71300
H  19.66600 48.83100 33.37600
H  20.31600 47.73900 32.25000
H  18.53300 48.27300 32.24600
Mg -11.41400 37.94500 42.34900
C  -8.94000 35.52700 41.95100
C  -9.41000 40.19100 40.51400
C  -13.86000 40.13800 42.32300
C  -13.57800 35.53300 43.75300
N  -9.47100 37.83300 41.29400
C  -8.64200 36.73100 41.24000
C  -7.40500 37.03400 40.49000
C  -7.38400 38.62900 40.47900
C  -8.81600 38.91500 40.77800
C  -6.49200 39.25400 41.63700
C  -7.28500 36.46800 39.01100
C  -5.91500 35.68700 38.81000
H  -4.93300 36.09400 37.64500
N  -11.60500 39.92200 41.62200
C  -10.66300 40.69400 40.93500
C  -11.21800 41.98100 40.62900
C  -12.50300 42.04800 41.23800
C  -12.66300 40.68700 41.84000
C  -10.46700 43.06500 39.83900
C  -13.44700 43.26900 41.26300
O  -13.20100 44.33700 40.71700
C  -14.67000 43.22300 42.10000
N  -13.50000 37.78800 42.84000
C  -14.21600 38.89700 42.77200
C  -15.68800 38.58000 43.28100
C  -15.66300 37.02500 43.60200
C  -14.16300 36.72900 43.37900
C  -16.23800 39.46200 44.45700
C  -16.56800 36.08000 42.82400
C  -17.01700 34.79100 43.58700
N  -11.30600 35.94500 42.93400
C  -12.22900 35.10800 43.48900
C  -11.55600 33.80300 43.71200
C  -10.23800 33.93300 43.16300
C  -10.17300 35.23800 42.69400
C  -12.12500 32.62500 44.40400
C  -8.94300 33.30100 42.97800
O  -8.46200 32.23300 43.44500
C  -8.06400 34.32800 42.10400
C  -6.82100 34.59100 42.99900
O  -5.79300 33.91800 43.05000
O  -6.88100 35.76300 43.68600
C  -5.65000 36.21800 44.23300
H  -8.77100 40.92700 40.02100
H  -14.69200 40.76800 42.00200
H  -14.35600 34.92700 44.22000
H  -6.56300 36.74600 41.11800
H  -7.17500 39.00800 39.47800
H  -5.53300 39.53200 41.19800
H  -6.44000 38.69100 42.56800
H  -6.96600 40.19900 41.90300
H  -7.22300 37.35300 38.37800
H  -8.08700 35.79100 38.71600
H  -6.19700 34.66300 38.56900
H  -5.40200 35.46800 39.74600
H  -9.94000 43.73900 40.51400
H  -11.09400 43.73700 39.25200
H  -9.83600 42.61900 39.07000
H  -14.64800 42.56100 42.96500
H  -15.53300 43.31600 41.44100
H  -14.55800 44.21300 42.54200
H  -16.42300 38.61600 42.47700
H  -15.79000 36.75700 44.65000
H  -15.48600 39.94600 45.08100
H  -16.84900 38.90700 45.17000
H  -16.84000 40.27100 44.04600
H  -15.99700 35.80600 41.93600
H  -17.49600 36.51800 42.45700
H  -18.10600 34.73800 43.58600
H  -16.69300 34.82800 44.62700
H  -16.68100 33.86900 43.11300
H  -11.45000 31.78700 44.22900
H  -13.14100 32.39900 44.07900
H  -12.16100 32.81700 45.47600
H  -7.85200 33.90500 41.12200
H  -5.70400 37.29000 44.42400
H  -4.74800 36.18300 43.62300
H  -5.46300 35.62400 45.12800

