158

Mg 40.11600 41.25300 27.49200
C  39.23200 43.65800 29.90800
C  41.12500 39.18000 30.10900
C  41.10200 39.22000 25.18500
C  39.34200 43.74600 25.08400
N  40.12100 41.38000 29.74100
C  39.63800 42.43300 30.47800
C  39.72300 42.13000 32.01600
C  40.37500 40.70100 32.06100
C  40.50000 40.35200 30.56800
C  41.65600 40.75000 32.92200
C  38.36300 42.14900 32.79900
C  38.21700 41.27200 34.02700
H  37.32800 41.86800 35.15100
N  41.00500 39.38600 27.65000
C  41.31300 38.73300 28.77300
C  42.00900 37.46800 28.38700
C  42.00800 37.41800 26.92100
C  41.35100 38.69400 26.50900
C  42.34200 36.42200 29.44700
C  42.63000 36.39200 25.97900
O  42.56500 36.53000 24.73800
C  43.35800 35.22800 26.59400
N  40.16600 41.44100 25.40400
C  40.65600 40.44100 24.66000
C  40.54400 40.76400 23.21300
C  39.62100 42.04000 23.21800
C  39.62200 42.43400 24.67600
C  41.90100 40.93400 22.39200
C  38.20700 41.82400 22.70900
C  37.16500 40.87200 23.49500
N  39.56600 43.27900 27.49000
C  39.43200 44.24900 26.42700
C  39.21300 45.54100 26.95700
C  39.06100 45.28600 28.29300
C  39.26500 43.96900 28.56600
C  38.97300 46.84000 26.20900
C  38.67000 46.06100 29.55000
O  38.35300 47.21700 29.75400
C  38.76600 44.94400 30.67400
C  39.74000 45.38500 31.61700
O  40.95400 45.54500 31.33600
O  39.14400 45.84600 32.78700
C  40.00400 46.69900 33.67800
H  41.36400 38.46400 30.89800
H  41.43400 38.50200 24.43300
H  38.98100 44.32300 24.23000
H  40.37900 42.87300 32.47000
H  39.68500 39.96300 32.47100
H  41.48100 40.20000 33.84700
H  42.00500 41.73400 33.23500
H  42.46200 40.24400 32.39100
H  37.67100 41.89200 31.99800
H  38.10700 43.15300 33.13700
H  39.23700 41.13300 34.38500
H  37.85300 40.30900 33.66700
H  43.41200 36.23600 29.54700
H  41.82400 35.52200 29.11700
H  42.07700 36.59500 30.49000
H  44.26300 35.48200 27.14600
H  43.59000 34.63000 25.71300
H  42.64500 34.62300 27.15500
H  39.94200 39.98000 22.75500
H  40.20100 42.83800 22.75600
H  41.95000 40.17800 21.60900
H  42.66600 40.78900 23.15600
H  42.02600 41.95300 22.02500
H  38.30400 41.44700 21.69100
H  37.72600 42.80200 22.68300
H  36.93100 39.99100 22.89700
H  36.22000 41.40100 23.61700
H  37.69400 40.63000 24.41700
H  39.03500 46.82300 25.12100
H  39.67500 47.59900 26.55500
H  37.96900 47.17000 26.47500
H  37.83100 44.74900 31.20000
H  40.74800 47.32000 33.17800
H  40.57800 46.04500 34.33400
H  39.33700 47.25400 34.33800
Mg -9.14500 18.42800 42.79100
C  -5.59300 18.18600 42.94200
C  -8.77300 21.73500 42.30000
C  -12.46800 18.49200 42.05500
C  -9.26100 14.88800 42.72000
N  -7.28800 19.77800 42.55100
C  -5.95200 19.46500 42.65600
C  -5.05600 20.72400 42.67200
C  -6.08800 21.82100 42.64900
C  -7.45500 21.08800 42.39600
C  -5.95500 22.75000 43.90900
C  -4.08200 20.82100 41.47400
C  -4.67600 20.13600 40.26400
H  -4.03300 20.13700 38.82800
N  -10.46200 20.01200 42.33800
C  -10.14700 21.27400 42.16200
C  -11.33500 21.98500 41.83300
C  -12.43900 21.08600 41.74300
C  -11.82400 19.81900 42.13100
C  -11.26900 23.45300 41.52900
C  -13.82600 21.34600 41.35200
O  -14.16600 22.46400 41.01300
C  -14.92500 20.33700 41.38500
N  -10.59200 16.91200 42.17200
C  -11.91100 17.21500 42.11600
C  -12.83000 16.02000 42.26900
C  -11.71900 14.84200 42.31500
C  -10.40900 15.58700 42.32400
C  -13.86700 16.06300 43.42300
C  -11.60400 13.70600 41.20000
C  -12.84800 12.71600 41.10600
N  -7.73600 16.83400 42.89500
C  -7.95900 15.47400 42.92100
C  -6.66900 14.78100 43.17800
C  -5.73000 15.80800 43.27500
C  -6.46600 17.02300 43.07900
C  -6.41100 13.28300 43.03900
C  -4.31000 16.10000 43.41700
O  -3.34400 15.40400 43.67700
C  -4.16100 17.69500 43.30600
C  -3.85200 18.21600 44.68800
O  -4.52100 18.15900 45.70000
O  -2.51100 18.65000 44.77700
C  -2.08500 18.85800 46.17300
H  -8.68300 22.80900 42.12400
H  -13.53600 18.33700 41.88900
H  -9.37500 13.80400 42.66300
H  -4.46100 20.67900 43.58400
H  -5.92900 22.59000 41.89300
H  -5.42200 23.64300 43.58400
H  -5.58100 22.11100 44.70900
H  -6.97300 22.97400 44.22700
H  -3.13700 20.29900 41.62400
H  -3.88900 21.86000 41.20400
H  -5.73400 20.38900 40.19700
H  -4.61800 19.06500 40.45600
H  -11.90900 24.03800 42.19000
H  -11.58800 23.44800 40.48700
H  -10.27400 23.89200 41.45600
H  -15.09700 19.93800 42.38500
H  -14.74700 19.53400 40.67000
H  -15.82900 20.89900 41.14700
H  -13.37300 16.02200 41.32400
H  -11.84200 14.34000 43.27500
H  -14.34700 15.08500 43.40300
H  -14.61200 16.84600 43.28600
H  -13.28300 16.33700 44.30200
H  -10.77400 13.01600 41.35300
H  -11.49900 14.14800 40.20900
H  -12.75400 11.88700 41.80800
H  -12.92800 12.35000 40.08200
H  -13.74900 13.29700 41.30000
H  -5.72800 12.92200 43.80800
H  -6.07500 13.05200 42.02900
H  -7.40200 12.82900 43.04800
H  -3.31500 17.97400 42.67700
H  -2.59500 19.68400 46.66800
H  -1.02100 19.08600 46.24000
H  -2.13500 17.92200 46.73000

