158

Mg 7.81400 3.44400 27.71800
C  9.20100 1.99000 30.60600
C  5.76500 5.32300 29.76300
C  5.97800 4.46700 25.05700
C  9.12900 0.76700 25.90100
N  7.46100 3.55300 29.89100
C  8.23300 2.95400 30.87400
C  7.94600 3.49200 32.26800
C  6.69500 4.34100 31.99000
C  6.57200 4.41300 30.43600
C  5.33800 3.84500 32.48200
C  9.17000 4.23900 32.91400
C  9.87600 3.87200 34.20000
H  9.98900 4.82700 35.37300
N  6.20000 4.85100 27.45900
C  5.61000 5.54100 28.40300
C  4.75300 6.58200 27.81800
C  4.75500 6.38200 26.43100
C  5.65700 5.14300 26.28900
C  3.99200 7.62500 28.63000
C  4.10500 7.11200 25.35100
O  4.31700 6.88700 24.15600
C  3.10800 8.19100 25.73100
N  7.47100 2.61500 25.80100
C  6.74900 3.31700 24.76700
C  6.96700 2.65200 23.39600
C  8.16100 1.66600 23.67400
C  8.14700 1.61500 25.25300
C  5.66200 2.00000 22.77300
C  9.61900 2.15100 23.13300
C  10.42800 1.01600 22.56000
N  9.14500 1.81900 28.04500
C  9.64200 0.89200 27.20300
C  10.55000 0.07400 27.91700
C  10.47200 0.52400 29.26100
C  9.56100 1.57700 29.28900
C  11.25300 -1.07800 27.39200
C  10.91400 0.24000 30.55900
O  11.65300 -0.63700 30.98400
C  10.02500 1.20600 31.61100
C  9.20100 0.25000 32.37900
O  8.22200 -0.38000 31.88500
O  9.68400 0.28800 33.67700
C  8.72400 -0.21500 34.66400
H  5.39100 6.04200 30.49400
H  5.47500 4.82900 24.15700
H  9.55500 0.02300 25.22600
H  7.60200 2.59300 32.78000
H  6.71100 5.37900 32.31900
H  4.72200 4.64500 32.89400
H  5.53000 3.12900 33.28100
H  4.77100 3.20300 31.80800
H  8.81600 5.26900 32.94300
H  9.93600 4.34400 32.14600
H  10.89100 3.55700 33.96000
H  9.28200 3.01700 34.52200
H  4.23500 8.66000 28.38900
H  4.14500 7.47400 29.69900
H  2.92600 7.54000 28.42200
H  2.23900 7.76400 26.23300
H  2.70100 8.65400 24.83200
H  3.53900 9.03400 26.27100
H  7.22100 3.52200 22.79000
H  7.91900 0.64300 23.38400
H  4.78500 2.04200 23.41900
H  5.80600 0.97500 22.43000
H  5.46700 2.62600 21.90300
H  10.07700 2.50200 24.05800
H  9.55300 2.97400 22.42100
H  9.77300 0.19500 22.26600
H  11.21500 0.73200 23.25800
H  10.82400 1.40900 21.62400
H  12.18700 -0.74300 26.94100
H  10.63100 -1.50000 26.60200
H  11.53100 -1.83200 28.12800
H  10.66600 1.79300 32.26800
H  9.32000 -0.78300 35.37900
H  7.87800 -0.77400 34.26500
H  8.31400 0.64800 35.18800
Mg 54.36000 25.52500 45.85900
C  51.87700 27.72100 44.45500
C  52.81800 22.91400 44.16200
C  57.20300 23.66900 46.25400
C  55.91400 28.19300 47.25300
N  52.68300 25.34800 44.31700
C  51.84400 26.34100 44.00500
C  50.75800 25.77400 42.95500
C  50.84800 24.21000 43.10100
C  52.11300 24.10200 43.90800
C  49.63700 23.62300 43.90400
C  50.96900 26.25200 41.41100
C  52.30700 26.59600 40.93500
H  52.82200 25.69600 39.75500
N  54.92100 23.51000 45.36800
C  54.11700 22.62600 44.69200
C  54.75400 21.30200 44.66900
C  55.95000 21.46000 45.39700
C  56.05900 22.94200 45.76300
C  54.07400 20.04800 44.18000
C  56.95300 20.33300 45.70300
O  56.80700 19.23300 45.22900
C  58.09800 20.45900 46.62300
N  56.39000 25.90800 46.41100
C  57.36300 24.95600 46.64400
C  58.67700 25.66400 47.05800
C  58.13900 27.07400 47.52800
C  56.66600 27.01400 47.16700
C  59.62600 24.93800 48.08000
C  58.89700 28.34500 46.96000
C  59.03800 28.69300 45.52100
N  53.94200 27.58800 45.96400
C  54.66700 28.53200 46.63200
C  53.95100 29.84100 46.57900
C  52.79700 29.54200 45.73600
C  52.92600 28.20400 45.32700
C  54.38600 31.10500 47.22400
C  51.61600 30.10200 45.06600
O  51.08200 31.20600 45.07800
C  50.92000 28.92400 44.30400
C  50.77200 29.24000 42.89200
O  51.71100 29.64400 42.23000
O  49.45500 29.06300 42.49100
C  49.12700 29.65100 41.17600
H  52.31100 21.99400 43.86200
H  58.12900 23.09200 46.21400
H  56.27700 29.13000 47.68000
H  49.83000 26.25000 43.27100
H  50.96200 23.71200 42.13800
H  49.97600 23.19700 44.84900
H  49.14400 22.83400 43.33600
H  48.94000 24.41600 44.17700
H  50.35200 27.13800 41.26500
H  50.51000 25.55300 40.71300
H  53.02600 26.52300 41.75200
H  52.20000 27.60500 40.53800
H  54.78500 19.30300 43.82300
H  53.41800 20.26100 43.33600
H  53.57600 19.48700 44.97000
H  58.52000 19.45900 46.72300
H  57.67100 20.86900 47.53800
H  58.88000 21.09800 46.21400
H  59.27200 25.87000 46.16800
H  58.06500 27.17100 48.61100
H  59.89700 25.46900 48.99300
H  60.57800 24.68400 47.61500
H  59.23800 23.98900 48.44900
H  59.91100 28.05500 47.23700
H  58.61000 29.28000 47.44100
H  58.47600 27.93800 44.97000
H  60.09700 28.57800 45.29000
H  58.71100 29.71600 45.34000
H  53.62000 31.87800 47.15700
H  55.31400 31.43100 46.75500
H  54.53400 30.86700 48.27800
H  49.98500 28.72500 44.82800
H  49.05800 30.73700 41.24000
H  48.14000 29.33200 40.84100
H  49.90600 29.47800 40.43400

