158

Mg -10.28100 40.15200 41.91700
C  -9.21100 37.09900 40.63600
C  -7.35400 41.62000 40.54800
C  -11.63200 43.24200 42.29200
C  -13.30900 38.73200 42.82100
N  -8.49100 39.40000 40.69400
C  -8.31500 38.13200 40.34100
C  -7.05700 37.98100 39.47600
C  -6.37400 39.37000 39.64300
C  -7.44800 40.21300 40.39000
C  -4.94000 39.36700 40.03600
C  -7.45300 37.55400 38.01400
C  -6.75900 36.28900 37.46400
H  -5.46400 36.76500 36.66800
N  -9.57800 42.18500 41.47000
C  -8.32900 42.55100 41.03300
C  -8.21500 44.04800 41.18200
C  -9.38100 44.48800 41.73800
C  -10.34300 43.29400 41.75000
C  -7.01800 44.73300 40.70800
C  -9.71000 45.92700 42.09700
O  -8.88000 46.77200 41.76200
C  -11.04300 46.43600 42.72300
N  -12.27000 40.87100 42.25100
C  -12.55800 42.20000 42.53100
C  -14.01800 42.34200 42.93000
C  -14.39700 40.93800 43.50100
C  -13.28600 40.09900 42.80300
C  -14.31200 43.37500 43.97100
C  -15.88700 40.57800 43.10900
C  -16.72300 39.84300 44.25400
N  -11.03300 38.23500 41.98900
C  -12.27200 37.78600 42.30500
C  -12.45100 36.36100 42.05800
C  -11.25600 36.05100 41.35500
C  -10.47300 37.24100 41.35000
C  -13.66000 35.60200 42.22000
C  -10.48100 35.02000 40.65900
O  -10.70900 33.80200 40.57000
C  -9.12200 35.69800 40.21900
C  -8.01800 34.89600 40.91000
O  -7.47800 35.15000 41.99800
O  -7.69000 33.81200 40.14900
C  -7.03500 32.78600 40.88500
H  -6.39100 42.01500 40.21800
H  -12.13500 44.18900 42.49800
H  -14.24300 38.32900 43.21900
H  -6.23000 37.37000 39.83800
H  -6.31800 39.93600 38.71300
H  -4.63700 40.24000 40.61400
H  -4.28200 39.22300 39.17900
H  -4.86300 38.47200 40.65300
H  -7.12800 38.41800 37.43500
H  -8.52600 37.50200 37.82600
H  -7.37900 35.77700 36.72800
H  -6.51600 35.59900 38.27200
H  -6.69000 45.47100 41.44000
H  -7.42500 45.10400 39.76800
H  -6.21900 44.05100 40.41600
H  -11.80000 46.25900 41.95900
H  -10.96500 47.49700 42.96100
H  -11.24900 45.92500 43.66400
H  -14.59000 42.47600 42.01200
H  -14.19100 40.94000 44.57100
H  -14.51900 44.31100 43.45200
H  -13.41200 43.63000 44.53000
H  -15.21700 43.10300 44.51500
H  -15.94600 39.83500 42.31300
H  -16.45500 41.44300 42.76500
H  -16.77200 38.77300 44.05700
H  -17.72600 40.26500 44.31900
H  -16.25600 40.01100 45.22500
H  -14.49800 36.15300 41.79400
H  -13.69100 35.34700 43.27900
H  -13.63100 34.65200 41.68500
H  -9.11100 35.51600 39.14400
H  -7.20900 31.88700 40.29300
H  -7.41900 32.57000 41.88200
H  -5.98100 32.99100 41.07400
Mg -4.32800 24.82100 25.99300
C  -2.93800 26.69300 28.52400
C  -5.60600 22.56400 28.30400
C  -5.27900 22.84900 23.53300
C  -2.87800 27.02500 23.68800
N  -4.21200 24.62200 28.06600
C  -3.67900 25.58400 28.94500
C  -4.17100 25.32500 30.38500
C  -4.70200 23.81900 30.27800
C  -4.88500 23.66500 28.77500
C  -3.69600 22.80400 30.94300
C  -5.25600 26.39500 30.83100
C  -5.04600 26.92500 32.24900
H  -4.38600 25.97000 33.30100
N  -5.32800 22.97900 25.96500
C  -5.80000 22.18800 26.99800
C  -6.38900 20.98700 26.45300
C  -6.47100 21.17400 25.03900
C  -5.68100 22.36100 24.76800
C  -6.90500 19.83400 27.35000
C  -7.16500 20.27900 24.01600
O  -7.16800 20.48900 22.79700
C  -7.97000 19.08300 24.57600
N  -4.14300 24.92300 23.99700
C  -4.64400 23.99800 23.18700
C  -4.68600 24.47500 21.72600
C  -4.00400 25.83800 21.77600
C  -3.60100 25.97400 23.20800
C  -4.10400 23.46100 20.70600
C  -4.89600 27.05500 21.26600
C  -4.29000 27.89000 20.14100
N  -3.21700 26.60500 26.05200
C  -2.63400 27.32100 25.03200
C  -1.81700 28.37200 25.55900
C  -1.90200 28.19700 26.98600
C  -2.74000 27.07000 27.19500
C  -1.00100 29.47700 24.88100
C  -1.47500 28.69700 28.28400
O  -0.73600 29.61500 28.56900
C  -2.18800 27.71200 29.28700
C  -1.04400 27.16300 30.17600
O  -0.20800 26.29400 29.93800
O  -1.03900 27.88500 31.26000
C  -0.10000 27.55400 32.31200
H  -5.89500 21.88200 29.10700
H  -5.56500 22.21400 22.69200
H  -2.47600 27.78200 23.01000
H  -3.34600 25.47400 31.08100
H  -5.69800 23.91200 30.71100
H  -4.28800 22.36100 31.74500
H  -2.93300 23.44600 31.38300
H  -3.16300 22.05400 30.35900
H  -6.27700 26.02800 30.93500
H  -5.23000 27.20000 30.09700
H  -6.01500 26.98000 32.74600
H  -4.44100 27.83100 32.25800
H  -7.98300 19.72300 27.22800
H  -6.73900 19.90200 28.42500
H  -6.40300 18.95200 26.95200
H  -7.20200 18.41000 24.95700
H  -8.45600 18.70200 23.67800
H  -8.78000 19.38900 25.23900
H  -5.76600 24.55900 21.60400
H  -3.09800 25.86900 21.17100
H  -3.92400 22.47700 21.13800
H  -3.16700 23.75000 20.22900
H  -4.89700 23.08800 20.05900
H  -5.28300 27.73800 22.02200
H  -5.75000 26.60100 20.76300
H  -3.37900 27.53100 19.66200
H  -3.95600 28.85700 20.51500
H  -5.04500 28.01400 19.36500
H  -0.08100 29.04700 24.48400
H  -0.82100 30.23000 25.64800
H  -1.58200 29.88200 24.05300
H  -2.90400 28.22600 29.92900
H  0.86000 28.03000 32.10700
H  0.12800 26.48900 32.26500
H  -0.39900 27.58400 33.35900

