158

Mg -1.71100 17.26400 25.89400
C  -2.23100 14.96600 28.46300
C  -2.95800 19.69700 28.08800
C  -1.55000 19.50300 23.40700
C  -1.25700 14.65900 23.68900
N  -2.53400 17.23100 28.06200
C  -2.52500 16.24100 28.89500
C  -3.07600 16.64400 30.29100
C  -3.76200 18.01200 29.96600
C  -3.03400 18.40200 28.61000
C  -5.30300 17.79900 29.69700
C  -1.95200 16.74900 31.37200
C  -2.17300 16.24700 32.78500
H  -0.97900 16.50200 33.74000
N  -2.14700 19.33200 25.75400
C  -2.57100 20.14300 26.79900
C  -2.68500 21.49600 26.34200
C  -2.24700 21.46800 24.98500
C  -2.01800 20.05000 24.63800
C  -3.14400 22.71800 27.21000
C  -2.00500 22.64000 24.12500
O  -1.74300 22.59200 22.90400
C  -1.77600 23.97600 24.76200
N  -1.39500 17.10100 23.83700
C  -1.41500 18.15200 23.02500
C  -1.10400 17.62200 21.62300
C  -0.67100 16.20900 21.78500
C  -1.13000 15.98100 23.17800
C  -2.19800 17.93700 20.53300
C  0.76200 15.69100 21.56700
C  1.89400 16.33900 22.32500
N  -1.72800 15.31000 26.02500
C  -1.56100 14.34000 25.01700
C  -1.67200 13.06100 25.59700
C  -2.02600 13.21200 26.94200
C  -1.93400 14.62200 27.18500
C  -1.46400 11.80800 24.81600
C  -2.34100 12.49900 28.14400
O  -2.37500 11.27900 28.41700
C  -2.47300 13.65300 29.20200
C  -1.55100 13.36000 30.31100
O  -0.46800 13.88500 30.40300
O  -2.03700 12.36600 31.05100
C  -1.26800 11.94500 32.24000
H  -3.28500 20.50900 28.74000
H  -1.33200 20.24700 22.63800
H  -0.94700 13.88600 22.98200
H  -3.71200 15.84900 30.67900
H  -3.62900 18.74000 30.76600
H  -5.64000 18.23900 28.75900
H  -5.81300 18.27000 30.53800
H  -5.44300 16.72300 29.79900
H  -1.60900 17.78300 31.40200
H  -1.04800 16.26900 30.99700
H  -2.44000 15.20000 32.93000
H  -2.98000 16.86500 33.17900
H  -3.92900 23.21700 26.64300
H  -2.34100 23.42000 27.43600
H  -3.60400 22.35200 28.12800
H  -2.62200 24.47900 25.22900
H  -1.34200 24.71200 24.08500
H  -1.06000 23.81800 25.56800
H  -0.21900 18.18400 21.32300
H  -1.30100 15.58500 21.15000
H  -3.08600 17.45000 20.93700
H  -1.93800 17.60800 19.52800
H  -2.29500 19.02200 20.49100
H  0.99400 15.67400 20.50200
H  0.87500 14.62500 21.76300
H  2.30100 15.70200 23.11100
H  1.58600 17.27400 22.79200
H  2.75300 16.49600 21.67300
H  -0.85400 11.87200 23.91500
H  -2.45500 11.63300 24.39800
H  -1.17100 10.94800 25.42000
H  -3.46700 13.68300 29.64800
H  -0.74800 12.80300 32.66700
H  -0.46900 11.24400 31.99800
H  -1.84800 11.54100 33.07000
Mg 16.07500 52.11300 25.17700
C  17.80600 50.97900 28.00300
C  13.33700 52.84000 27.18700
C  14.08100 52.42000 22.46100
C  18.69600 50.82100 23.20900
N  15.57500 51.76700 27.37800
C  16.57300 51.51000 28.37700
C  16.03700 51.82000 29.79000
C  14.53200 52.12700 29.45900
C  14.42700 52.28600 27.93000
C  13.57200 51.19700 30.28000
C  16.81000 52.83200 30.65500
C  17.08900 52.51800 32.06200
H  15.97500 51.84100 32.92300
N  14.03800 52.72900 24.85900
C  13.16100 53.05500 25.78300
C  11.98600 53.58700 25.21700
C  12.12400 53.53000 23.77000
C  13.49300 52.93900 23.61600
C  10.71100 54.07800 25.93800
C  11.26300 54.02000 22.66100
O  11.63100 54.00200 21.49000
C  9.95700 54.65900 22.99800
N  16.37300 51.63900 23.18200
C  15.36200 51.88200 22.27700
C  15.77700 51.29300 21.01300
C  17.33300 51.12900 21.11700
C  17.50800 51.25000 22.61800
C  15.10500 49.90000 20.70000
C  18.14800 52.18600 20.24600
C  19.39600 51.82300 19.33000
N  17.94900 51.26000 25.50900
C  18.90500 50.82900 24.61600
C  19.99900 50.31600 25.34700
C  19.58800 50.31200 26.68500
C  18.35300 50.89500 26.75100
C  21.28800 49.89400 24.71900
C  19.99600 49.93900 28.01100
O  21.06300 49.47300 28.50300
C  18.89900 50.45400 28.89300
C  18.52100 49.43000 29.89500
O  17.79400 48.46300 29.74500
O  19.19600 49.68400 31.11200
C  18.67000 48.97100 32.22400
H  12.57100 53.23400 27.85800
H  13.54700 52.45500 21.50900
H  19.46000 50.29200 22.63600
H  16.10100 50.90600 30.38200
H  14.29300 53.12500 29.82600
H  12.86500 50.84600 29.52700
H  13.07600 51.90200 30.94700
H  13.90400 50.33300 30.85600
H  16.16900 53.71300 30.63800
H  17.76900 53.07600 30.19700
H  17.41300 53.43300 32.55800
H  17.94100 51.84900 31.94100
H  10.75000 55.16700 25.92400
H  10.74800 53.80400 26.99200
H  9.86000 53.64300 25.41500
H  9.22100 53.97700 23.42300
H  9.54200 55.23000 22.16700
H  10.26200 55.36600 23.76900
H  15.51100 51.97600 20.20700
H  17.65100 50.20700 20.63000
H  14.43400 50.04400 19.85300
H  14.39300 49.68100 21.49600
H  15.79900 49.06000 20.66900
H  18.45100 52.99900 20.90400
H  17.36900 52.53500 19.56900
H  19.57500 50.74800 19.30200
H  20.28200 52.36600 19.65700
H  19.16800 52.13600 18.31100
H  21.16800 48.83800 24.48000
H  22.13900 50.00900 25.39100
H  21.51400 50.52000 23.85600
H  19.31100 51.30200 29.44000
H  19.33000 48.11200 32.34600
H  17.59700 48.77600 32.23000
H  18.82300 49.62100 33.08500

