158

Mg 48.69600 15.32400 28.68800
C  46.48400 15.67300 31.38200
C  51.06900 17.13700 30.48000
C  50.51400 15.63400 25.93200
C  46.00400 14.08500 26.60900
N  48.70300 16.27400 30.66300
C  47.73100 16.17300 31.60700
C  48.32000 16.70400 33.00800
C  49.81000 17.23500 32.66100
C  49.88800 16.90200 31.19400
C  50.00000 18.64000 33.14300
C  48.24000 15.49700 34.04100
C  47.72600 15.81400 35.48100
H  47.67300 17.24600 35.96300
N  50.51400 16.25200 28.26000
C  51.34800 16.90600 29.10400
C  52.56800 17.33100 28.40300
C  52.47400 16.74700 27.05500
C  51.16600 16.12000 27.05900
C  53.57500 18.28000 28.99300
C  53.49400 16.85200 25.87800
O  53.19300 16.47800 24.73200
C  54.85600 17.37900 26.13600
N  48.24900 14.87700 26.55300
C  49.25200 15.08200 25.65400
C  48.89600 14.56900 24.29800
C  47.50400 13.88400 24.50100
C  47.22800 14.27700 25.95300
C  48.95900 15.70900 23.15000
C  47.37600 12.33200 24.09500
C  46.19400 12.07700 23.05400
N  46.70400 14.87300 28.90000
C  45.77200 14.37900 27.98400
C  44.48600 14.17300 28.67700
C  44.72300 14.64900 30.02800
C  46.10000 15.06700 30.09500
C  43.23500 13.56500 28.01800
C  44.14900 14.86100 31.30500
O  42.98500 14.60600 31.64400
C  45.28500 15.42400 32.26000
C  44.72600 16.58900 32.94600
O  44.65700 17.74100 32.46800
O  44.24400 16.21600 34.17300
C  43.66700 17.29500 34.89300
H  51.89600 17.60600 31.01700
H  51.26700 15.76100 25.15100
H  45.24400 13.55100 26.03400
H  47.69400 17.53900 33.32400
H  50.59700 16.62400 33.10300
H  51.00300 18.76400 33.55000
H  49.29600 19.05300 33.86600
H  50.05700 19.32600 32.29800
H  49.20000 15.00500 34.19700
H  47.54600 14.71400 33.73500
H  48.24000 15.21500 36.23300
H  46.68600 15.49700 35.56900
H  53.90500 19.10900 28.36700
H  54.41700 17.62900 29.22900
H  53.28800 18.67700 29.96600
H  54.91800 18.46700 26.12400
H  55.50500 16.94500 25.37600
H  55.24000 17.10400 27.11800
H  49.57100 13.75200 24.04300
H  46.84500 14.51800 23.90800
H  48.16500 15.52500 22.42700
H  49.90900 15.61900 22.62300
H  48.85400 16.67600 23.64300
H  47.11000 11.78800 25.00200
H  48.33900 11.96400 23.74200
H  46.61200 11.51700 22.21700
H  45.85700 13.01800 22.62100
H  45.35000 11.53800 23.48500
H  43.14200 14.24200 27.16900
H  42.29400 13.47100 28.56100
H  43.60600 12.58800 27.70800
H  45.45300 14.63900 32.99700
H  44.27800 17.74000 35.67900
H  42.83500 16.89500 35.47300
H  43.23300 18.10000 34.29900
Mg 26.64500 50.09700 26.91600
C  24.43100 51.38100 29.17700
C  28.85200 49.30800 29.33200
C  28.58500 48.88300 24.48700
C  24.48100 51.45000 24.39500
N  26.60900 50.33000 29.04600
C  25.51500 50.72700 29.80200
C  25.82600 50.49900 31.30700
C  27.36000 50.06100 31.31000
C  27.68000 50.03600 29.81000
C  28.32600 50.83100 32.22000
C  24.76100 49.51700 31.97200
C  24.24500 49.89300 33.34800
H  24.12000 48.80200 34.38200
N  28.46600 49.10100 26.93500
C  29.27000 48.89300 28.06300
C  30.44900 48.19000 27.65200
C  30.24600 47.92100 26.22500
C  29.07500 48.65700 25.80900
C  31.63100 47.92700 28.66300
C  31.17900 47.10100 25.30800
O  31.02200 47.03100 24.12400
C  32.34500 46.30400 26.02400
N  26.58200 50.26900 24.69700
C  27.53000 49.60200 23.96100
C  27.23900 49.70800 22.40500
C  25.76100 50.36000 22.45800
C  25.54200 50.69500 23.92700
C  28.32800 50.46300 21.55900
C  24.69600 49.46600 21.77900
C  23.69400 48.65900 22.61600
N  24.84100 51.38200 26.76100
C  24.09300 51.85700 25.69400
C  22.83100 52.49500 26.15400
C  22.97200 52.37400 27.55700
C  24.10800 51.64000 27.80400
C  21.75200 53.14600 25.36300
C  22.31800 52.66000 28.83600
O  21.25100 53.29300 29.00000
C  23.31400 52.11100 29.97100
C  23.83000 53.32800 30.69500
O  24.89900 53.86200 30.59400
O  22.94800 53.63200 31.68500
C  23.42100 54.68100 32.66800
H  29.49900 48.87000 30.09600
H  29.10500 48.39600 23.65900
H  23.81000 51.81900 23.61700
H  25.72900 51.46300 31.80500
H  27.36700 49.06900 31.76300
H  29.17100 51.19200 31.63400
H  28.60400 50.22900 33.08400
H  27.97800 51.69800 32.78100
H  25.16500 48.50700 31.90200
H  23.90000 49.61600 31.31200
H  23.27300 50.36800 33.22100
H  24.87900 50.69800 33.71800
H  32.44000 47.23800 28.42100
H  31.20500 47.66400 29.63100
H  32.07700 48.89500 28.88800
H  31.92300 45.73500 26.85300
H  33.02200 47.05400 26.43400
H  32.79100 45.57300 25.35100
H  27.27700 48.69800 21.99600
H  25.81300 51.30100 21.91000
H  29.05200 50.78600 22.30800
H  27.92800 51.33600 21.04300
H  28.93300 49.84900 20.89200
H  25.10000 48.85200 20.97400
H  24.06000 50.22100 21.31700
H  22.81900 49.30000 22.51300
H  24.01200 48.60300 23.65700
H  23.57100 47.66500 22.18700
H  21.20300 52.31200 24.92600
H  22.30200 53.76600 24.65500
H  21.15500 53.72800 26.06500
H  22.66000 51.52000 30.61200
H  23.93800 55.46700 32.11700
H  24.27400 54.39300 33.28300
H  22.64500 55.00100 33.36300

