158

Mg 24.23600 -5.83700 46.16600
C  26.21900 -3.18600 44.86500
C  21.75200 -4.93700 44.12600
C  22.77600 -8.80000 47.00200
C  27.13600 -6.72600 48.05400
N  24.11200 -4.21700 44.68900
C  24.97200 -3.23500 44.39800
C  24.23800 -2.18700 43.47100
C  22.71700 -2.62000 43.53200
C  22.87800 -4.03800 44.11300
C  21.71900 -1.72200 44.30600
C  24.79900 -2.18200 41.96500
C  25.28800 -0.80700 41.41200
H  25.10900 -0.61700 39.94600
N  22.49300 -6.76000 45.52900
C  21.61100 -6.20100 44.75700
C  20.40500 -7.12700 44.60900
C  20.72600 -8.23900 45.44600
C  22.06500 -7.97700 46.07100
C  19.19200 -6.92600 43.76600
C  19.91100 -9.45600 45.83500
O  18.80000 -9.47800 45.30700
C  20.31100 -10.53900 46.86600
N  24.82200 -7.52500 47.36500
C  24.09000 -8.64700 47.52700
C  24.74600 -9.65200 48.49400
C  26.19400 -9.06000 48.75800
C  26.04600 -7.62800 48.08400
C  23.91500 -10.19600 49.67300
C  27.35900 -9.90200 48.10600
C  28.68300 -9.69100 48.89800
N  26.27200 -5.13600 46.42600
C  27.30800 -5.55400 47.24200
C  28.44400 -4.65700 47.12600
C  28.03900 -3.70500 46.21800
C  26.73500 -4.04400 45.82200
C  29.74700 -4.76100 48.04500
C  28.46700 -2.46900 45.59400
O  29.46700 -1.79400 45.70800
C  27.31300 -2.14300 44.67800
C  26.75400 -0.75400 44.91700
O  26.03300 -0.44100 45.83300
O  27.33300 0.09200 44.04400
C  27.18200 1.53400 44.29600
H  20.83900 -4.72700 43.56500
H  22.49200 -9.78300 47.38400
H  27.97200 -7.08900 48.65600
H  24.20900 -1.22800 43.98800
H  22.28700 -2.69400 42.53300
H  20.92000 -1.35200 43.66400
H  22.14600 -0.85100 44.80400
H  21.27300 -2.33600 45.08900
H  24.08700 -2.57900 41.24100
H  25.67700 -2.82600 41.93600
H  26.36000 -0.73900 41.60100
H  24.67200 -0.02400 41.85400
H  18.37300 -6.45800 44.31100
H  18.75800 -7.83300 43.34600
H  19.44600 -6.14000 43.05500
H  19.44800 -11.14500 47.14300
H  20.43300 -9.92700 47.76000
H  21.22700 -11.03500 46.54200
H  24.83400 -10.48600 47.79700
H  26.39500 -8.87400 49.81300
H  22.87700 -9.86300 49.68600
H  24.38600 -9.86500 50.59800
H  23.91200 -11.28400 49.61300
H  27.46000 -9.48500 47.10300
H  27.03900 -10.94000 48.02400
H  29.10900 -10.69300 48.95600
H  28.48000 -9.31800 49.90200
H  29.36300 -9.14500 48.24400
H  30.12700 -3.76800 48.28500
H  30.57900 -5.31900 47.61400
H  29.44800 -5.22100 48.98700
H  27.72500 -2.04400 43.67300
H  26.14000 1.80900 44.13300
H  27.90700 2.01400 43.63900
H  27.41800 1.74200 45.33900
Mg 53.12600 23.46900 44.85200
C  50.82800 25.96400 43.84200
C  51.08100 21.05600 43.46600
C  55.64700 21.25700 45.17000
C  55.26300 26.05700 45.95800
N  51.22600 23.56100 43.79800
C  50.37600 24.69700 43.47500
C  49.07800 24.24200 42.80700
C  49.02000 22.70900 43.35500
C  50.55000 22.40400 43.51900
C  48.20200 22.54200 44.59200
C  49.02100 24.49000 41.27700
C  47.59900 24.87900 40.69400
H  47.28500 24.47700 39.26600
N  53.34000 21.44200 44.38000
C  52.38700 20.62200 43.82200
C  52.93900 19.29000 43.71400
C  54.29100 19.34000 44.16400
C  54.45800 20.68900 44.66500
C  52.20600 18.18000 42.98300
C  55.19100 18.11600 44.22800
O  54.77000 16.96700 43.92800
C  56.69100 18.35700 44.35000
N  55.31700 23.68700 45.07500
C  56.05800 22.57800 45.42400
C  57.41500 22.86500 46.06900
C  57.21000 24.41200 46.39800
C  55.83400 24.79700 45.74900
C  57.73200 21.91200 47.25300
C  58.48900 25.32500 45.97000
C  59.92100 24.75900 46.00400
N  53.10100 25.56100 44.97600
C  54.02400 26.45400 45.48200
C  53.42300 27.74700 45.59400
C  52.22900 27.62600 44.90800
C  52.06700 26.26800 44.55500
C  54.02800 29.03000 46.24000
C  51.10100 28.33900 44.38700
O  50.88000 29.54000 44.46900
C  50.17200 27.31100 43.63400
C  50.16900 27.81600 42.24500
O  51.19800 28.09800 41.64900
O  48.93900 27.91400 41.81200
C  48.74400 28.57100 40.48600
H  50.40000 20.24100 43.21300
H  56.36500 20.48200 45.44600
H  55.89800 26.79000 46.45900
H  48.21600 24.74600 43.24500
H  48.62900 22.08600 42.55000
H  47.71100 23.47900 44.85200
H  48.85400 22.35000 45.44500
H  47.46400 21.74100 44.56800
H  49.30100 23.59300 40.72400
H  49.57000 25.37100 40.94600
H  47.48100 25.96100 40.74600
H  46.86600 24.34500 41.29900
H  52.93400 17.86700 42.23400
H  51.38300 18.51000 42.35000
H  51.89300 17.32400 43.58000
H  56.88300 19.33800 43.91700
H  57.36800 17.62800 43.90500
H  56.98900 18.33700 45.39800
H  58.16200 22.61400 45.31700
H  57.21800 24.61600 47.46800
H  58.32700 21.08400 46.87000
H  56.76700 21.48700 47.53000
H  58.16000 22.34100 48.16000
H  58.49500 26.15800 46.67300
H  58.32200 25.69300 44.95800
H  60.37400 24.99500 45.04100
H  60.02700 23.67500 45.95900
H  60.61800 25.24000 46.69000
H  53.29800 29.78600 45.94800
H  54.98000 29.38900 45.85100
H  54.00200 28.83600 47.31200
H  49.15600 27.25100 44.02500
H  47.99300 28.07800 39.87000
H  49.66700 28.76200 39.93800
H  48.42200 29.59000 40.70300

