158

Mg 8.97400 4.02600 27.07000
C  10.41900 2.58600 30.02100
C  6.85000 5.76100 29.27800
C  7.35100 5.16300 24.47000
C  10.62100 1.52300 25.17100
N  8.80300 4.23800 29.37300
C  9.52800 3.62100 30.33000
C  9.19400 4.12600 31.73200
C  7.98600 4.99500 31.51900
C  7.83100 4.96500 29.94500
C  6.67700 4.54600 32.29400
C  10.34800 4.89600 32.50000
C  10.54200 4.28300 33.93400
H  11.25000 5.09800 35.06100
N  7.45300 5.41800 26.89900
C  6.70700 5.98400 27.87800
C  5.70100 6.76400 27.28400
C  5.88000 6.71500 25.88200
C  6.94700 5.74600 25.67500
C  4.77600 7.55700 28.07000
C  5.07300 7.34000 24.79600
O  5.43000 7.22500 23.59700
C  3.80100 8.07000 25.11000
N  8.89300 3.28700 25.09200
C  8.31100 4.16000 24.15700
C  8.61000 3.64400 22.72200
C  9.70500 2.56600 22.94700
C  9.76600 2.39000 24.43800
C  7.33700 3.03000 22.11800
C  11.09700 2.81900 22.26500
C  11.51400 1.75600 21.20400
N  10.17000 2.39200 27.43400
C  10.82800 1.48700 26.55100
C  11.59600 0.59000 27.34200
C  11.45500 1.00000 28.62800
C  10.62300 2.09700 28.71300
C  12.37800 -0.49600 26.70900
C  11.95400 0.69800 29.89200
O  12.76800 -0.16300 30.27800
C  11.21300 1.68100 30.84100
C  10.41100 0.90700 31.79200
O  9.27000 0.50300 31.64800
O  11.14800 0.77900 32.89000
C  10.47400 0.40900 34.14100
H  6.13900 6.12600 30.02200
H  6.95000 5.53800 23.52700
H  11.25200 0.85000 24.58600
H  8.89700 3.19600 32.21600
H  8.15000 6.04400 31.76900
H  6.20900 5.44200 32.70200
H  6.83000 3.87100 33.13600
H  6.01300 4.15900 31.52100
H  10.09200 5.93600 32.70300
H  11.26000 4.70100 31.93600
H  11.22400 3.43900 33.83000
H  9.58100 3.84300 34.19900
H  5.22800 8.50900 28.35000
H  4.55300 6.98700 28.97200
H  3.79700 7.70000 27.61200
H  3.96300 9.10400 25.41700
H  3.10800 7.50400 25.73200
H  3.30500 8.24700 24.15600
H  8.97400 4.40000 22.02500
H  9.42200 1.59100 22.54900
H  6.64700 2.85400 22.94300
H  7.44300 2.02000 21.72200
H  6.81800 3.57800 21.33100
H  11.82400 2.71400 23.07000
H  11.20900 3.75200 21.71200
H  10.67400 1.11100 20.94800
H  12.28900 1.09700 21.59700
H  11.98100 2.16800 20.30900
H  11.95300 -0.84700 25.76800
H  12.26800 -1.39600 27.31400
H  13.43400 -0.22800 26.68900
H  11.97600 2.14400 31.46800
H  9.84300 -0.48000 34.17200
H  9.92700 1.30700 34.42900
H  11.24600 0.22800 34.88900
Mg 24.13400 -4.90200 45.97800
C  26.17500 -2.49300 44.39700
C  21.63800 -4.02100 43.85700
C  22.56200 -7.72900 46.92700
C  27.06800 -5.92000 47.74600
N  23.96000 -3.35800 44.42100
C  24.86400 -2.46100 43.91200
C  24.32400 -1.56500 42.81900
C  22.78100 -1.95000 42.88200
C  22.76200 -3.17300 43.78400
C  21.71800 -0.89700 43.30300
C  24.92100 -1.91300 41.38200
C  25.56000 -0.73900 40.53200
H  26.02200 -1.05200 39.07500
N  22.33200 -5.71700 45.45100
C  21.48200 -5.25500 44.52800
C  20.35800 -6.20400 44.47000
C  20.53800 -7.29200 45.41800
C  21.84000 -6.91000 46.01800
C  19.13000 -5.93100 43.55800
C  19.63100 -8.43300 45.76800
O  18.57800 -8.58300 45.15300
C  19.76100 -9.40700 46.94600
N  24.75200 -6.55400 47.18200
C  23.89300 -7.61100 47.39200
C  24.62400 -8.80200 48.06400
C  25.98500 -8.11400 48.42800
C  25.97400 -6.79900 47.69000
C  23.87500 -9.49400 49.20800
C  27.17700 -8.99300 48.21800
C  28.24000 -9.03200 49.31200
N  26.13300 -4.24600 46.26900
C  27.16100 -4.76600 47.04600
C  28.30800 -3.93600 46.85400
C  28.01000 -3.04400 45.82900
C  26.63500 -3.29400 45.50500
C  29.65000 -4.16600 47.53500
C  28.55300 -1.98400 44.95300
O  29.71100 -1.56500 44.90700
C  27.43600 -1.61500 44.00400
C  27.19200 -0.25600 44.17600
O  27.33800 0.57800 43.33000
O  26.80400 -0.03900 45.49700
C  26.41900 1.39100 45.83300
H  20.82500 -3.66700 43.22100
H  22.14500 -8.72500 47.09000
H  27.99000 -6.25500 48.22500
H  24.57700 -0.51500 42.97000
H  22.41600 -2.40600 41.96200
H  21.22700 -1.15100 44.24200
H  20.92700 -0.92700 42.55300
H  22.10200 0.12300 43.31800
H  24.16300 -2.50100 40.86400
H  25.78200 -2.56900 41.50800
H  26.46700 -0.31400 40.96100
H  24.77100 0.01000 40.47300
H  19.38400 -5.79400 42.50700
H  18.63400 -5.11000 44.07500
H  18.45600 -6.78600 43.59900
H  20.54800 -10.13900 46.76400
H  18.79200 -9.86300 47.14800
H  20.02600 -8.72700 47.75500
H  24.91300 -9.47700 47.25800
H  25.92200 -7.90100 49.49500
H  23.35000 -10.41500 48.95300
H  23.25800 -8.68000 49.58800
H  24.60300 -9.79700 49.96100
H  27.64800 -8.65600 47.29400
H  26.88400 -10.02100 48.00500
H  28.71400 -10.01400 49.30100
H  27.68500 -8.78500 50.21700
H  29.12100 -8.39400 49.24400
H  30.15800 -4.97500 47.01000
H  29.40700 -4.48800 48.54800
H  30.29300 -3.28900 47.45900
H  27.84300 -1.83700 43.01700
H  25.34900 1.50600 46.00800
H  26.72300 2.20200 45.17200
H  26.95800 1.49800 46.77500

