158

Mg 6.44500 55.33400 41.21000
C  3.97300 52.74900 41.06600
C  8.66200 53.15100 39.80900
C  8.77600 57.91900 41.07000
C  4.04300 57.56600 42.08700
N  6.22600 53.21900 40.39900
C  5.14400 52.36000 40.45700
C  5.53700 50.97500 39.87300
C  7.09100 51.14500 39.50900
C  7.34500 52.62300 39.96600
C  8.04200 50.14300 40.21500
C  4.75700 50.47600 38.63000
C  4.54300 48.88900 38.42600
H  5.10400 48.14900 37.16400
N  8.49900 55.50600 40.54900
C  9.21800 54.45400 40.00000
C  10.57500 54.91100 39.67600
C  10.57200 56.30600 39.96500
C  9.29800 56.68100 40.64200
C  11.60100 54.01700 39.09700
C  11.71300 57.23900 39.60000
O  12.83000 56.85900 39.16300
C  11.69300 58.71600 39.83400
N  6.44900 57.37200 41.54200
C  7.55200 58.24500 41.58900
C  7.12200 59.74500 41.87900
C  5.54300 59.60100 41.80300
C  5.28300 58.10100 41.74100
C  7.66600 60.26100 43.19000
C  4.76400 60.34600 40.63500
C  3.70300 61.36100 41.10600
N  4.46600 55.23100 41.68600
C  3.64300 56.24100 42.09200
C  2.39800 55.73700 42.49900
C  2.48800 54.31100 42.27100
C  3.72100 54.08700 41.59800
C  1.24000 56.65300 42.91900
C  1.75100 53.05700 42.31300
O  0.65400 52.71500 42.74000
C  2.71800 52.01300 41.57800
C  1.86900 51.37600 40.50100
O  1.18800 51.94700 39.58700
O  1.83100 50.01400 40.67300
C  0.97200 49.31100 39.76800
H  9.27700 52.32500 39.44400
H  9.49900 58.73700 41.03800
H  3.26900 58.29900 42.32200
H  5.50400 50.27200 40.70500
H  7.27200 51.07400 38.43700
H  8.63600 49.65500 39.44300
H  7.41600 49.32600 40.57300
H  8.55700 50.65000 41.03200
H  5.16400 51.02000 37.77800
H  3.77800 50.94400 38.73600
H  3.47300 48.68300 38.47000
H  5.04800 48.51300 39.31500
H  11.73700 54.29700 38.05300
H  11.33900 52.96100 39.15500
H  12.52500 54.23900 39.63200
H  12.52200 59.18400 39.30300
H  11.84100 58.83600 40.90700
H  10.77700 59.17500 39.46500
H  7.53000 60.40900 41.11800
H  5.02300 60.01800 42.66500
H  8.34800 59.53000 43.62500
H  6.90800 60.54200 43.92100
H  8.32700 61.11100 43.01900
H  4.26200 59.53500 40.10600
H  5.37100 60.94400 39.95500
H  3.23800 61.90700 40.28500
H  4.18200 61.96000 41.88000
H  2.96400 60.86000 41.73100
H  1.21000 56.79500 43.99900
H  0.33200 56.07700 42.74000
H  1.30000 57.64900 42.48000
H  3.07400 51.22500 42.24100
H  -0.04900 49.66400 39.91500
H  1.00000 48.26600 40.07800
H  1.22200 49.32500 38.70700
Mg -12.12300 16.78700 40.49200
C  -8.89300 15.47600 40.13000
C  -10.70200 19.90200 40.22600
C  -15.19600 18.03200 40.21000
C  -13.38900 13.55600 40.53600
N  -10.04500 17.65700 40.08300
C  -8.90800 16.90000 39.99700
C  -7.59400 17.80000 40.00200
C  -8.18800 19.28100 40.14300
C  -9.71200 18.96100 40.18800
C  -7.73800 20.20600 41.32800
C  -6.76800 17.69900 38.67100
C  -5.36500 17.08700 38.73400
H  -4.80700 15.73200 38.17200
N  -12.85600 18.74400 40.11600
C  -12.11400 19.84900 40.05800
C  -13.08800 20.95100 39.82700
C  -14.37400 20.42100 39.78400
C  -14.23200 18.99800 40.01900
C  -12.54500 22.34000 39.67000
C  -15.57400 21.21400 39.56000
O  -15.51600 22.43800 39.34800
C  -16.95400 20.56300 39.47600
N  -14.01500 15.87200 40.24900
C  -15.14200 16.60200 40.31100
C  -16.40500 15.74900 40.42700
C  -15.86200 14.34000 40.26500
C  -14.27400 14.58100 40.51800
C  -17.13100 15.99700 41.81800
C  -16.08200 13.60000 38.84600
C  -17.51100 13.31800 38.51300
N  -11.38000 14.90600 40.31300
C  -11.98800 13.66700 40.50600
C  -11.06500 12.61500 40.48700
C  -9.79000 13.22900 40.26300
C  -10.04700 14.65900 40.22700
C  -11.47100 11.19500 40.62800
C  -8.35200 13.08600 40.19300
O  -7.67400 12.08000 40.34800
C  -7.74700 14.49000 40.14300
C  -6.82000 14.53100 41.26400
O  -7.09900 14.99800 42.34000
O  -5.55100 14.18000 40.89000
C  -4.57300 14.35500 41.96300
H  -10.23500 20.88300 40.12100
H  -16.23300 18.36500 40.13800
H  -13.80200 12.54500 40.55600
H  -6.99400 17.51000 40.86400
H  -8.10000 19.88400 39.24000
H  -8.60100 20.45500 41.94600
H  -7.40000 21.11900 40.83800
H  -6.95800 19.67900 41.87800
H  -6.74800 18.61700 38.08300
H  -7.29200 17.05300 37.96700
H  -5.11500 17.15500 39.79300
H  -4.63000 17.75800 38.29000
H  -13.08800 22.92200 38.92500
H  -11.53100 22.36200 39.26900
H  -12.49400 22.93700 40.58000
H  -16.80800 19.75000 38.76400
H  -17.73900 21.25300 39.17000
H  -17.20400 20.24700 40.48900
H  -17.06800 16.04200 39.61200
H  -16.18800 13.63700 41.03200
H  -18.05400 16.57500 41.86300
H  -16.41300 16.29000 42.58300
H  -17.55700 15.02800 42.08100
H  -15.39100 12.78000 38.65100
H  -15.68600 14.36500 38.17700
H  -17.69900 12.24500 38.49000
H  -17.82900 13.60100 37.50900
H  -18.18500 13.81100 39.21400
H  -11.84800 10.76200 39.70100
H  -12.11100 10.91400 41.46400
H  -10.46500 10.79300 40.75200
H  -7.14500 14.60000 39.24000
H  -4.40200 15.43000 42.02400
H  -3.58100 13.99200 41.69400
H  -4.83300 13.98500 42.95400

