158

Mg 40.62500 8.40600 29.33500
C  42.19100 9.65900 32.08900
C  38.27900 6.95900 31.26000
C  39.39000 6.77600 26.56700
C  43.37900 9.27300 27.36200
N  40.28300 8.31400 31.44400
C  40.93000 9.14200 32.36200
C  40.13500 9.15800 33.66200
C  38.89500 8.17900 33.43300
C  39.17500 7.75600 31.97400
C  38.58600 6.97900 34.37600
C  39.67800 10.55800 34.10000
C  38.78300 10.72200 35.31400
H  39.42800 11.39900 36.53200
N  39.00700 7.08600 28.99500
C  38.23900 6.55100 29.91200
C  37.27500 5.75700 29.27900
C  37.49700 5.79300 27.88900
C  38.76600 6.53200 27.78400
C  36.28800 4.74900 30.06400
C  36.74700 5.06200 26.78600
O  37.18800 4.79100 25.64800
C  35.32200 4.59400 27.08300
N  41.35000 7.95200 27.29300
C  40.56800 7.44200 26.33400
C  41.22900 7.49700 24.87700
C  42.37800 8.42600 25.14900
C  42.33500 8.58200 26.70300
C  41.67200 6.11800 24.34600
C  42.08700 9.92100 24.64700
C  40.66500 10.45100 24.45200
N  42.47200 9.17200 29.64500
C  43.41200 9.60100 28.76800
C  44.45200 10.37200 29.40400
C  44.01800 10.35700 30.74500
C  42.75800 9.65900 30.81600
C  45.67300 10.82500 28.67400
C  44.34100 10.83200 32.10600
O  45.35300 11.40600 32.57100
C  43.16200 10.45200 33.01900
C  43.60300 9.70300 34.26500
O  43.76200 8.45400 34.34000
O  43.76800 10.62300 35.29100
C  44.03600 10.10500 36.60300
H  37.44600 6.55200 31.83600
H  38.80200 6.39800 25.72700
H  44.19300 9.69100 26.76800
H  40.78400 8.67600 34.39400
H  38.00200 8.79500 33.32300
H  39.35500 6.98300 35.14800
H  38.59200 6.00800 33.88100
H  37.58100 7.22200 34.72200
H  39.07500 11.02200 33.31900
H  40.52200 11.19200 34.37500
H  38.39000 9.77000 35.67100
H  37.88000 11.30100 35.11900
H  35.39300 5.36100 30.17800
H  36.66500 4.54900 31.06600
H  36.16100 3.82600 29.49800
H  34.92400 4.30900 26.10900
H  34.81200 5.48400 27.45100
H  35.28300 3.63900 27.60700
H  40.57900 7.86600 24.08400
H  43.29500 7.96400 24.78400
H  42.76000 6.07500 24.40600
H  41.39700 6.02400 23.29500
H  41.38400 5.36000 25.07300
H  42.46000 9.92400 23.62300
H  42.65300 10.61400 25.27100
H  39.94800 9.79800 24.94900
H  40.35400 10.55600 23.41200
H  40.63700 11.44400 24.90100
H  46.00500 10.15700 27.87900
H  46.46400 10.75600 29.42000
H  45.57000 11.87200 28.38900
H  42.81200 11.43600 33.33200
H  43.27200 10.36500 37.33500
H  44.98400 10.43000 37.03100
H  43.95600 9.01800 36.59900
Mg 36.36000 49.67500 24.19800
C  36.38600 48.35500 27.35700
C  35.23200 52.74000 25.69900
C  36.07500 51.18700 21.08700
C  37.52200 46.78900 22.82800
N  35.85400 50.41800 26.28000
C  35.95000 49.69000 27.36000
C  35.58800 50.50000 28.62000
C  35.07600 51.84900 28.06300
C  35.44200 51.63700 26.55500
C  33.53500 52.11200 28.24100
C  36.80300 50.57700 29.61400
C  36.53400 50.09800 31.06300
H  35.07700 49.89500 31.67600
N  35.76600 51.62500 23.46900
C  35.34100 52.73500 24.32300
C  35.08300 53.85600 23.55200
C  35.10200 53.43600 22.17300
C  35.64300 51.99700 22.16100
C  34.63500 55.16900 24.26600
C  34.68600 54.26600 21.04100
O  34.72600 53.77800 19.91700
C  34.11300 55.59900 21.15500
N  36.82000 49.12600 22.26200
C  36.58900 49.91000 21.12900
C  37.04000 49.16000 19.90600
C  37.60300 47.78300 20.44900
C  37.22200 47.88200 21.93000
C  35.96400 49.09400 18.82100
C  39.12700 47.60600 20.19900
C  40.22900 48.25100 21.12800
N  36.80700 47.88500 24.85900
C  37.34700 46.78900 24.20200
C  37.63200 45.74300 25.11500
C  37.31800 46.30700 26.38100
C  36.78500 47.58600 26.18300
C  38.16400 44.33900 24.77900
C  37.31900 46.12900 27.80100
O  37.76300 45.14000 28.44800
C  36.56900 47.28000 28.47000
C  35.28500 46.86100 29.00500
O  34.22100 47.21000 28.57000
O  35.56000 46.14000 30.13100
C  34.42200 45.79700 31.01100
H  34.91100 53.61300 26.27200
H  36.02600 51.65700 20.10300
H  38.04500 45.99700 22.28800
H  34.79000 49.93600 29.10400
H  35.63700 52.72000 28.40400
H  33.08100 51.55200 29.05900
H  33.02200 51.56200 27.45100
H  33.34000 53.18200 28.30000
H  37.23300 51.57000 29.74500
H  37.61800 49.93900 29.27400
H  37.09300 50.82500 31.65300
H  37.06700 49.14800 31.12000
H  35.08800 55.32400 25.24500
H  33.56700 55.09700 24.47100
H  34.77200 55.98800 23.56000
H  34.90200 56.26700 21.50200
H  33.23800 55.66700 21.80100
H  33.78300 55.99800 20.19600
H  37.83000 49.78700 19.49300
H  37.09700 46.90800 20.04200
H  36.15700 49.59500 17.87200
H  34.94500 49.37000 19.09300
H  35.93200 48.09000 18.39900
H  39.21200 47.95300 19.16900
H  39.30200 46.53800 20.06900
H  40.23900 47.63500 22.02700
H  39.83000 49.24100 21.34900
H  41.21000 48.28700 20.65400
H  39.09500 44.47900 24.22900
H  37.41900 43.73000 24.26700
H  38.50000 43.72700 25.61600
H  37.15700 47.78200 29.23900
H  33.78700 45.02500 30.57600
H  33.80200 46.69300 31.04900
H  34.74600 45.52100 32.01400

