158

Mg 35.58100 2.40700 30.14900
C  33.04900 3.14800 32.34100
C  37.86200 2.73700 32.65900
C  37.95100 1.83100 27.80300
C  33.22600 2.55600 27.45000
N  35.46600 2.93500 32.22800
C  34.32600 2.96200 32.94300
C  34.50700 2.93100 34.47700
C  36.06700 3.22500 34.49700
C  36.55700 2.94600 33.06500
C  36.39200 4.65600 34.87200
C  33.98400 1.66700 35.26500
C  33.60700 1.89200 36.79800
H  34.40700 2.93300 37.66400
N  37.59200 2.24900 30.29500
C  38.35100 2.45400 31.43300
C  39.77100 2.21300 31.06200
C  39.79200 1.80900 29.70900
C  38.40200 1.96100 29.22900
C  40.91400 2.19000 32.06900
C  40.94300 1.43700 28.74200
O  40.77400 0.90800 27.59400
C  42.38100 1.49200 29.18400
N  35.62400 2.39500 27.86700
C  36.76600 1.99800 27.23000
C  36.44900 1.69000 25.74700
C  34.96400 2.01700 25.65300
C  34.53800 2.42600 27.06300
C  37.35600 2.38300 24.74300
C  34.08500 0.88900 24.96500
C  33.58700 -0.27400 25.83600
N  33.50000 2.67900 29.91100
C  32.70100 2.73700 28.72600
C  31.31500 3.01600 29.15800
C  31.39800 3.25500 30.56100
C  32.73600 2.98800 30.94800
C  30.09400 3.23000 28.29700
C  30.73100 3.64800 31.79300
O  29.58100 4.06800 31.95200
C  31.74900 3.38400 33.01700
C  31.73500 4.62200 33.84700
O  32.35800 5.70900 33.69600
O  30.85100 4.40400 34.87200
C  31.06400 5.15900 36.13700
H  38.65900 2.93100 33.37900
H  38.67600 1.61300 27.01600
H  32.44400 2.48500 26.69100
H  33.98600 3.79800 34.88300
H  36.70500 2.61100 35.13300
H  37.16500 4.80900 35.62500
H  35.49600 5.17000 35.22100
H  36.61600 5.26000 33.99300
H  34.73000 0.87500 35.32500
H  33.14200 1.28300 34.68800
H  33.83300 0.94700 37.29300
H  32.53600 2.09500 36.79600
H  40.53400 2.17400 33.09100
H  41.57900 3.04100 31.92200
H  41.63100 1.37200 32.00500
H  42.97100 1.63300 28.27800
H  42.55800 0.52300 29.65100
H  42.55100 2.33800 29.85000
H  36.59300 0.61600 25.63600
H  34.87000 2.95700 25.11000
H  36.83500 2.94100 23.96400
H  37.98800 1.66300 24.22400
H  37.97500 3.03100 25.36300
H  34.67100 0.50100 24.13100
H  33.21000 1.32900 24.48500
H  34.05500 -1.15100 25.39000
H  32.49800 -0.31200 25.84600
H  33.91300 -0.14300 26.86800
H  29.17400 2.76800 28.65500
H  30.18000 2.72800 27.33400
H  30.01200 4.28900 28.05000
H  31.38300 2.59300 33.67200
H  30.82200 6.21900 36.06000
H  32.04400 4.92500 36.55400
H  30.38400 4.76000 36.89000
Mg 16.25100 52.27200 26.48800
C  18.03500 50.93700 29.09300
C  13.66600 52.68800 28.68800
C  14.52800 53.24400 23.92800
C  18.77800 51.05700 24.22400
N  15.91600 51.79300 28.55800
C  16.81000 51.48800 29.48800
C  16.43200 51.76900 31.00400
C  14.90600 51.91600 30.74900
C  14.83000 52.21700 29.19800
C  14.12900 50.63900 31.29100
C  17.28600 53.00300 31.39500
C  17.44100 53.30700 32.93900
H  16.43900 52.54000 33.93200
N  14.34200 53.04000 26.37800
C  13.36900 53.07700 27.34700
C  12.20400 53.73500 26.75500
C  12.48200 53.99000 25.37600
C  13.83500 53.40400 25.17700
C  10.95300 54.11700 27.57200
C  11.65100 54.63900 24.24900
O  12.07800 54.91100 23.17500
C  10.28700 55.22600 24.56200
N  16.59100 52.09500 24.45900
C  15.70800 52.69300 23.59600
C  16.17400 52.66800 22.17400
C  17.71700 52.42800 22.28600
C  17.78300 51.84500 23.68900
C  15.51300 51.67500 21.14500
C  18.68700 53.54800 22.05300
C  18.88900 53.87500 20.54200
N  17.98800 51.13600 26.58500
C  19.01600 50.77000 25.60900
C  20.05400 50.15600 26.26900
C  19.73100 50.15500 27.60500
C  18.47300 50.76000 27.75400
C  21.26000 49.54800 25.69700
C  20.26100 49.87900 28.92800
O  21.26900 49.29100 29.31700
C  19.17700 50.42700 29.94100
C  18.64700 49.37300 30.88100
O  17.64400 48.71800 30.73700
O  19.35000 49.37900 32.06000
C  18.70400 48.62600 33.13400
H  12.77900 52.73100 29.32400
H  13.97400 53.61000 23.06100
H  19.63100 50.93100 23.55400
H  16.62800 50.92600 31.66700
H  14.45600 52.81900 31.16000
H  13.41900 50.80400 32.10200
H  14.82700 49.85800 31.59000
H  13.56100 50.19400 30.47400
H  16.80700 53.79000 30.81300
H  18.29900 52.81800 31.03500
H  17.26500 54.38000 33.01500
H  18.42500 53.14900 33.38300
H  10.03000 53.77200 27.10800
H  10.87400 55.20100 27.64800
H  10.92100 53.62400 28.54400
H  9.94800 55.72200 23.65200
H  10.33000 55.82400 25.47200
H  9.71100 54.33900 24.82400
H  16.06600 53.70500 21.85300
H  18.04300 51.66900 21.57400
H  15.32300 52.21100 20.21600
H  14.59200 51.22800 21.51900
H  16.20300 50.93000 20.75100
H  19.60200 53.19400 22.53000
H  18.27600 54.38300 22.62000
H  18.10300 53.38200 19.97000
H  19.89100 53.57000 20.24000
H  18.97000 54.95000 20.38400
H  21.87800 50.32600 25.25000
H  20.95000 48.81300 24.95400
H  21.70900 48.97800 26.51000
H  19.50800 51.28600 30.52400
H  18.67100 47.56500 32.88500
H  17.66700 48.89300 33.33500
H  19.21700 48.64400 34.09600

