158

Mg 26.63000 50.55400 26.93900
C  24.46100 51.56800 29.49200
C  28.95100 49.59000 29.34700
C  28.81400 49.74500 24.45900
C  24.38000 51.83300 24.61000
N  26.62800 50.57000 29.13000
C  25.63200 51.05900 29.97300
C  25.88500 50.74600 31.47200
C  27.37600 50.38300 31.46900
C  27.68500 50.07100 29.92400
C  28.40400 51.43000 32.03500
C  25.01700 49.57300 32.13700
C  25.49300 48.78700 33.48000
H  25.98300 49.67300 34.61000
N  28.62100 49.82100 26.94000
C  29.34900 49.43300 28.03600
C  30.57200 48.83100 27.50400
C  30.65000 48.97000 26.07900
C  29.32700 49.53900 25.77100
C  31.62100 48.14500 28.34000
C  31.73700 48.45400 25.15200
O  31.67700 48.64200 23.96500
C  32.82600 47.62300 25.61600
N  26.66100 50.83800 24.90700
C  27.53700 50.22600 24.12300
C  27.13800 50.13500 22.63200
C  25.80600 50.95600 22.60000
C  25.57700 51.26700 24.10700
C  28.17200 50.65200 21.66400
C  24.51800 50.19400 21.96700
C  24.74900 49.56800 20.57100
N  24.80900 51.52000 27.00300
C  24.08100 52.02900 25.98900
C  22.85400 52.66300 26.48500
C  22.93900 52.46500 27.88300
C  24.12500 51.79000 28.14400
C  21.84800 53.33300 25.73100
C  22.23700 52.67300 29.17300
O  21.18500 53.24700 29.48700
C  23.22600 52.06100 30.28700
C  23.57100 53.23000 31.19900
O  24.50300 54.05900 31.06600
O  22.73500 53.24500 32.29600
C  23.05300 54.32800 33.25100
H  29.73500 49.28500 30.04300
H  29.37900 49.18500 23.71200
H  23.64900 52.34800 23.98300
H  25.78900 51.64000 32.08800
H  27.49200 49.48700 32.07800
H  27.95300 52.40500 32.22200
H  29.22600 51.59100 31.33700
H  28.76800 51.12900 33.01800
H  25.05700 48.80600 31.36400
H  23.98300 49.88000 32.29500
H  26.25400 48.09200 33.12600
H  24.60600 48.21400 33.75100
H  31.42500 48.19800 29.41100
H  32.62700 48.56400 28.34800
H  31.53000 47.08600 28.10000
H  33.50900 48.28900 26.14300
H  33.39300 47.34700 24.72700
H  32.63400 46.75300 26.24400
H  26.86200 49.10700 22.39800
H  25.94100 51.94000 22.15000
H  27.68300 51.38100 21.01700
H  28.61300 49.82200 21.11300
H  28.94100 51.10200 22.29300
H  23.81200 51.02000 22.05100
H  24.08000 49.42900 22.60700
H  24.43800 48.52700 20.48700
H  25.79700 49.53400 20.27300
H  24.26000 50.16700 19.80200
H  22.23300 54.20000 25.19600
H  21.08800 53.74100 26.39700
H  21.27500 52.75000 25.01000
H  22.78100 51.23600 30.84400
H  23.49500 55.25000 32.87300
H  23.74900 53.90000 33.97200
H  22.16300 54.63000 33.80300
Mg -5.46800 25.16300 25.64400
C  -3.98400 26.69100 28.41700
C  -6.81000 22.77600 27.77100
C  -6.49200 23.56900 23.03100
C  -3.48000 27.24100 23.54600
N  -5.30600 24.72100 27.81600
C  -4.77300 25.61800 28.76000
C  -5.20900 25.26200 30.19900
C  -5.79500 23.81100 29.96000
C  -6.01800 23.72600 28.44500
C  -4.86400 22.59200 30.41700
C  -6.30900 26.23800 30.76400
C  -6.34900 26.58600 32.24500
H  -5.89700 25.49300 33.24700
N  -6.51500 23.39200 25.44100
C  -7.02700 22.55900 26.39000
C  -7.79500 21.50700 25.76500
C  -7.89800 21.80600 24.36600
C  -6.94700 22.95000 24.19900
C  -8.47700 20.35400 26.57100
C  -8.68700 21.19400 23.26200
O  -8.72200 21.66900 22.14500
C  -9.42000 19.94200 23.47400
N  -4.90400 25.28200 23.60100
C  -5.56200 24.47100 22.69400
C  -5.17800 24.79700 21.21200
C  -4.12100 26.01500 21.47400
C  -4.17300 26.22400 22.90400
C  -4.73700 23.62600 20.31800
C  -4.39600 27.21800 20.48500
C  -5.66000 28.04300 20.84300
N  -4.12100 26.64500 25.96100
C  -3.39600 27.46700 24.97400
C  -2.75800 28.51300 25.65700
C  -2.94500 28.29900 27.01800
C  -3.73900 27.13400 27.16200
C  -2.08300 29.71100 25.10900
C  -2.65400 28.80400 28.36300
O  -2.16800 29.84300 28.75000
C  -3.42300 27.80300 29.35900
C  -2.39900 27.14600 30.23800
O  -1.41700 26.55600 29.84700
O  -2.65600 27.37700 31.57900
C  -1.71100 26.80500 32.56200
H  -7.19100 22.09600 28.53600
H  -6.89300 23.03000 22.17000
H  -2.94600 27.92800 22.88600
H  -4.35800 25.28100 30.88000
H  -6.73000 23.76600 30.51700
H  -4.60700 21.97400 29.55600
H  -5.36000 22.03500 31.21200
H  -3.93900 22.97600 30.84800
H  -7.27300 25.88000 30.40500
H  -6.16700 27.14000 30.16900
H  -7.37600 26.70100 32.59400
H  -5.74900 27.47200 32.45400
H  -7.91200 19.51100 26.17400
H  -9.53400 20.35200 26.30300
H  -8.33300 20.35300 27.65200
H  -8.92900 19.26100 24.16800
H  -9.24200 19.40400 22.54200
H  -10.48800 20.00400 23.68400
H  -6.05700 25.25900 20.76300
H  -3.07500 25.79300 21.26400
H  -5.15700 23.65100 19.31200
H  -5.04800 22.65900 20.71300
H  -3.68600 23.76000 20.06300
H  -4.62800 26.67100 19.57200
H  -3.45400 27.76400 20.43900
H  -6.15000 27.51100 21.65900
H  -6.35900 28.02800 20.00700
H  -5.42900 29.07700 21.09700
H  -1.01200 29.58500 25.26700
H  -2.48500 30.60800 25.58100
H  -2.25100 29.76500 24.03400
H  -4.15100 28.35400 29.95600
H  -0.73400 27.28200 32.49400
H  -1.60100 25.72100 32.52600
H  -2.17400 26.95200 33.53800

