158

Mg 53.40300 24.77700 44.97400
C  50.66200 26.75000 44.13800
C  51.71800 22.14800 43.49300
C  56.31400 22.96400 44.72600
C  55.21500 27.48500 45.88400
N  51.43500 24.49100 43.76600
C  50.43100 25.41600 43.59200
C  49.30300 24.83200 42.64300
C  49.48600 23.35500 43.03400
C  50.99200 23.27400 43.46200
C  48.51100 22.92700 44.16700
C  49.69600 25.10500 41.14400
C  48.56500 25.23600 40.07900
H  47.95600 23.94800 39.54400
N  53.90400 22.75500 44.36700
C  53.03900 21.92600 43.73000
C  53.74600 20.65800 43.51700
C  55.10000 20.85400 43.94000
C  55.17000 22.22400 44.33100
C  53.21600 19.41300 42.85600
C  56.18800 19.74500 43.90100
O  55.94400 18.68400 43.39200
C  57.47800 19.89500 44.45100
N  55.45800 25.20400 45.19400
C  56.42800 24.29500 45.20800
C  57.79200 24.80300 45.69900
C  57.43000 26.29400 45.93800
C  55.93800 26.38600 45.61600
C  58.24700 23.95000 46.95500
C  58.14900 27.33900 45.09600
C  58.40700 28.70400 45.72300
N  52.99100 26.75100 45.14600
C  53.86700 27.78400 45.50200
C  53.10200 28.98800 45.58700
C  51.83700 28.61100 45.01600
C  51.84200 27.23600 44.81100
C  53.51700 30.35100 46.00700
C  50.59600 29.10700 44.59800
O  50.09700 30.24600 44.61900
C  49.75200 27.95000 44.10200
C  48.97100 28.23900 42.80800
O  49.40400 28.41200 41.69900
O  47.63600 28.30700 43.02200
C  46.77000 28.38600 41.81500
H  51.13100 21.31100 43.10700
H  57.28200 22.46900 44.62500
H  55.63800 28.43600 46.21600
H  48.27200 25.13800 42.82100
H  49.23200 22.68700 42.21000
H  48.91800 22.47700 45.07200
H  47.91500 22.11100 43.75700
H  47.70400 23.62700 44.38300
H  50.22300 24.25200 40.71600
H  50.26400 26.03500 41.13200
H  48.96900 25.92800 39.34000
H  47.67500 25.70300 40.50100
H  53.81800 19.17900 41.97900
H  52.21000 19.55600 42.46100
H  53.23900 18.62800 43.61200
H  58.04700 18.97200 44.55900
H  57.39300 20.40800 45.40900
H  58.04500 20.48100 43.72700
H  58.51300 24.61100 44.90400
H  57.43500 26.45900 47.01500
H  59.25700 23.63700 46.68600
H  57.73300 22.99900 47.09400
H  58.34400 24.63700 47.79500
H  57.61300 27.59200 44.18100
H  59.13300 26.93300 44.86200
H  59.45400 28.99300 45.81000
H  57.88500 28.74000 46.67900
H  57.91800 29.47400 45.12700
H  53.03900 31.11300 45.39100
H  54.59900 30.42300 45.89400
H  53.19900 30.52700 47.03500
H  49.04200 27.77700 44.91000
H  46.87000 27.42200 41.31600
H  47.01000 29.12600 41.05200
H  45.75900 28.45400 42.21700
Mg 41.05100 40.89900 26.87500
C  40.40400 43.39700 29.11400
C  42.16500 38.79900 29.33700
C  41.83100 38.74500 24.44200
C  40.71200 43.35700 24.18700
N  41.26700 41.04900 29.00800
C  40.80900 42.15400 29.74900
C  41.05000 41.90600 31.26900
C  41.58900 40.46200 31.28100
C  41.74500 40.06700 29.82300
C  42.90200 40.30200 31.98800
C  39.74800 42.10200 32.21100
C  39.99100 42.01700 33.78000
H  39.18400 42.93500 34.65600
N  41.81300 38.98700 26.93100
C  42.22500 38.29000 28.03300
C  42.59200 36.94600 27.60500
C  42.56000 36.98800 26.16400
C  42.00600 38.28800 25.77000
C  43.01200 35.83000 28.49000
C  43.00600 35.81800 25.22100
O  43.04800 35.98400 23.96600
C  43.27400 34.45100 25.75600
N  40.97300 40.95600 24.60600
C  41.39300 39.91100 23.89000
C  41.39500 40.04000 22.36600
C  40.88200 41.58200 22.33800
C  40.83700 42.01800 23.78100
C  42.70700 39.64300 21.62000
C  39.45200 41.76400 21.65700
C  38.31300 41.37300 22.55700
N  40.67700 42.99500 26.61700
C  40.58800 43.85400 25.52900
C  40.31600 45.15100 26.06000
C  40.18900 45.03500 27.43500
C  40.40700 43.71700 27.70100
C  40.24200 46.43000 25.23800
C  39.94400 45.70200 28.66800
O  39.67300 46.85200 29.00900
C  40.13600 44.69000 29.83500
C  41.38600 45.18600 30.52700
O  42.47900 45.23600 29.98900
O  41.16700 45.47900 31.89800
C  42.29000 45.89400 32.72900
H  42.35400 38.13200 30.18000
H  41.97000 37.95100 23.70500
H  40.63800 44.11300 23.40100
H  41.76500 42.69600 31.50000
H  40.80700 39.88200 31.77100
H  42.70200 39.66500 32.85000
H  43.22000 41.29500 32.30400
H  43.69700 39.87800 31.37500
H  39.06500 41.32000 31.88000
H  39.21900 42.98100 31.84300
H  41.06900 42.00100 33.94400
H  39.66200 40.99000 33.93800
H  42.30800 35.00200 28.57700
H  43.09000 36.21900 29.50500
H  43.97000 35.34800 28.29400
H  42.60200 34.09300 26.53500
H  44.16900 34.57600 26.36500
H  43.33300 33.74800 24.92500
H  40.62600 39.43800 21.88300
H  41.61200 42.11200 21.72600
H  43.51900 39.24500 22.22800
H  43.07900 40.54200 21.13000
H  42.49200 38.91300 20.83900
H  39.57400 41.11400 20.79000
H  39.31700 42.81700 21.41100
H  38.60900 41.04400 23.55300
H  37.73400 40.61700 22.02700
H  37.72300 42.28700 22.62100
H  39.93000 46.25200 24.20900
H  41.24800 46.85000 25.23600
H  39.55400 47.03100 25.83300
H  39.19100 44.84400 30.35700
H  42.27200 45.39300 33.69700
H  42.21700 46.97800 32.82000
H  43.22000 45.49800 32.32100

