158

Mg 2.65600 -1.53100 44.42400
C  6.00200 -0.83300 43.62800
C  1.64900 0.87900 42.33000
C  -0.52500 -2.55100 44.81400
C  3.76200 -4.70000 45.58700
N  3.72700 -0.09100 43.27400
C  5.09000 0.08300 43.06700
C  5.34100 1.12700 42.06400
C  3.90800 1.72700 41.78600
C  3.00900 0.76700 42.55700
C  3.67700 3.22900 42.16900
C  6.06400 0.54700 40.76000
C  6.92100 1.56800 40.10400
H  6.41900 2.07900 38.77000
N  0.83200 -0.83800 43.75200
C  0.61900 0.20400 42.93500
C  -0.73600 0.50000 42.78900
C  -1.47200 -0.59400 43.36700
C  -0.34700 -1.37500 44.06800
C  -1.15000 1.75700 41.98500
C  -2.93600 -0.75300 43.30700
O  -3.66300 0.10400 42.77200
C  -3.62500 -1.98200 43.87000
N  1.77100 -3.43000 45.04400
C  0.42100 -3.48000 45.22000
C  0.04500 -4.91000 45.79400
C  1.41800 -5.48300 46.23200
C  2.38100 -4.50000 45.61700
C  -1.03900 -5.01400 46.83800
C  1.69900 -6.93100 45.87000
C  2.46900 -7.84700 46.87700
N  4.47500 -2.58700 44.68300
C  4.74700 -3.79900 45.17500
C  6.14900 -3.99900 45.27600
C  6.72700 -2.82200 44.72800
C  5.63800 -2.04100 44.29700
C  6.84000 -5.21900 45.85600
C  7.91900 -2.12900 44.42000
O  9.07100 -2.43800 44.58000
C  7.48300 -0.83600 43.64400
C  8.10100 0.31300 44.37900
O  7.88800 0.56700 45.54500
O  8.66700 1.08000 43.40700
C  9.38300 2.34100 43.69500
H  1.43800 1.59700 41.53500
H  -1.54100 -2.94400 44.88900
H  4.09500 -5.70500 45.85600
H  5.97200 1.91300 42.47800
H  3.64200 1.79900 40.73100
H  4.68100 3.64300 42.26600
H  3.23100 3.35900 43.15500
H  3.10400 3.71800 41.38100
H  5.33300 0.12300 40.07100
H  6.65800 -0.33600 40.99000
H  7.90200 1.09800 40.03900
H  7.06100 2.48700 40.67300
H  -2.16300 2.12400 42.14700
H  -1.14600 1.57700 40.91000
H  -0.38500 2.46800 42.29600
H  -4.67800 -1.87100 43.61000
H  -3.38700 -1.85800 44.92600
H  -3.18800 -2.85900 43.39200
H  -0.16900 -5.63600 45.01000
H  1.49000 -5.25400 47.29600
H  -1.63500 -4.12000 46.65900
H  -0.83500 -5.23100 47.88600
H  -1.63800 -5.86800 46.52200
H  2.18600 -6.91100 44.89500
H  0.82000 -7.48400 45.53900
H  3.47400 -8.06300 46.51300
H  1.89800 -8.76700 46.99800
H  2.75900 -7.44600 47.84800
H  6.20200 -6.10200 45.88800
H  7.15400 -4.91700 46.85500
H  7.71000 -5.45200 45.24200
H  7.91800 -0.76900 42.64700
H  8.71800 3.16900 43.44900
H  10.20200 2.41600 42.97900
H  9.82100 2.36700 44.69300
Mg -2.35600 35.35300 26.38800
C  -3.46400 33.54200 29.20000
C  -0.95800 37.65600 28.54500
C  -1.34300 37.04900 23.63300
C  -4.09500 33.12000 24.40000
N  -2.24700 35.50200 28.70300
C  -2.57700 34.56700 29.65500
C  -2.03600 34.93300 31.08200
C  -1.44800 36.36500 30.79500
C  -1.53900 36.55900 29.25100
C  -2.16300 37.51300 31.63800
C  -1.14800 33.90000 31.88900
C  -1.78700 33.18200 33.04700
H  -1.08600 33.25200 34.39400
N  -1.31600 37.26600 26.10900
C  -0.73700 38.00400 27.14100
C  0.00700 39.05000 26.51700
C  0.07500 38.68500 25.08700
C  -0.85000 37.59700 24.84200
C  0.86100 40.02000 27.35200
C  0.97100 39.27200 24.02100
O  1.04900 38.73800 22.88400
C  1.84400 40.55100 24.30100
N  -2.60200 35.01700 24.26300
C  -2.20100 35.99700 23.37500
C  -2.63900 35.61300 21.98600
C  -3.27000 34.15500 22.06700
C  -3.43400 34.13400 23.61200
C  -3.55200 36.69200 21.20200
C  -2.54700 32.94800 21.46600
C  -1.70300 32.21000 22.41600
N  -3.49400 33.73200 26.64300
C  -4.13800 32.92600 25.79700
C  -4.95500 31.96100 26.44100
C  -4.65600 32.17900 27.81100
C  -3.79600 33.25000 27.85100
C  -5.68700 30.82600 25.69700
C  -4.88800 31.66100 29.15000
O  -5.54600 30.67900 29.37300
C  -4.24300 32.58000 30.13400
C  -5.34200 33.25400 30.88700
O  -6.01000 34.12500 30.40700
O  -5.50100 32.70700 32.16500
C  -6.50400 33.33800 32.99900
H  -0.32900 38.27300 29.19000
H  -1.00400 37.38700 22.65200
H  -4.57100 32.42100 23.70900
H  -2.97500 34.98600 31.63300
H  -0.38900 36.39300 31.05300
H  -1.39600 38.03000 32.21600
H  -2.93000 37.12700 32.31000
H  -2.55900 38.11400 30.82000
H  -0.18400 34.28500 32.22000
H  -0.94500 33.06400 31.21900
H  -1.89800 32.14700 32.72300
H  -2.82900 33.50000 33.03100
H  0.26500 40.14300 28.25600
H  0.98300 40.99900 26.88800
H  1.83800 39.54600 27.44900
H  1.13400 41.32700 24.58900
H  2.48500 40.74200 23.44000
H  2.51100 40.32700 25.13300
H  -1.74300 35.48400 21.37800
H  -4.26800 34.19400 21.63000
H  -4.62100 36.49000 21.26500
H  -3.27000 36.92300 20.17500
H  -3.49600 37.56100 21.85800
H  -1.99500 33.24600 20.57500
H  -3.31600 32.22800 21.18600
H  -1.29800 32.72000 23.28900
H  -0.73200 31.95900 21.98900
H  -2.09800 31.29700 22.86200
H  -6.50500 30.39900 26.27700
H  -5.03000 29.95700 25.68900
H  -5.98000 31.04500 24.67000
H  -3.58200 31.98500 30.76400
H  -7.50300 32.94000 32.82300
H  -6.56800 34.41900 32.87900
H  -6.19900 33.22000 34.03900

