158

Mg 39.95400 8.20500 29.25200
C  41.74800 9.85300 31.86300
C  37.48400 7.35300 31.52600
C  38.38200 6.80700 26.71300
C  42.75300 8.84400 27.17000
N  39.78600 8.52900 31.51800
C  40.59000 9.23800 32.33400
C  39.92700 9.34300 33.73200
C  38.67300 8.36000 33.63900
C  38.59500 8.13100 32.07500
C  38.89900 7.08200 34.49200
C  39.69300 10.76800 34.30800
C  38.68400 10.83600 35.48300
H  39.07200 11.64600 36.73600
N  38.15600 7.22800 29.16400
C  37.30300 6.97100 30.18400
C  36.17300 6.29900 29.56700
C  36.37400 6.16300 28.16800
C  37.66600 6.77900 27.93900
C  34.88200 6.06600 30.28600
C  35.53700 5.43900 27.16600
O  35.89200 5.33200 25.99000
C  34.38300 4.57600 27.62900
N  40.50400 7.82200 27.23300
C  39.60800 7.27000 26.38200
C  40.12700 7.33200 24.87200
C  41.60300 7.96600 25.15400
C  41.69600 8.17700 26.63100
C  40.31500 5.94100 24.28600
C  41.66800 9.34900 24.32900
C  40.55300 10.39600 24.69500
N  41.85000 9.03400 29.49100
C  42.78200 9.25600 28.49500
C  43.89200 10.00200 29.11100
C  43.48100 10.35600 30.39800
C  42.22900 9.71000 30.58000
C  45.19800 10.28100 28.41600
C  43.84900 11.11300 31.58600
O  44.86300 11.72500 31.85000
C  42.70500 10.82400 32.62900
C  43.44200 10.23300 33.79700
O  44.19600 9.30000 33.78700
O  43.26200 11.19700 34.77300
C  44.06600 10.93800 36.01300
H  36.70700 7.12000 32.25800
H  37.93300 6.47800 25.77300
H  43.49900 9.16200 26.43900
H  40.77200 8.91600 34.27200
H  37.76000 8.87500 33.93600
H  39.68300 7.28500 35.22200
H  39.26500 6.25300 33.88600
H  37.92700 6.95500 34.96700
H  39.28100 11.39700 33.51900
H  40.63700 11.14300 34.70500
H  38.44700 9.81900 35.79400
H  37.71000 11.15400 35.10900
H  34.72300 6.57400 31.23700
H  34.76300 5.00200 30.48900
H  34.05000 6.36500 29.64900
H  34.77700 4.01700 28.47900
H  34.16300 3.95500 26.76100
H  33.52900 5.18800 27.91800
H  39.55200 7.89000 24.13300
H  42.43200 7.36800 24.77700
H  39.92000 5.21500 24.99600
H  41.39000 5.77900 24.20500
H  39.74400 5.80400 23.36700
H  41.78500 9.08600 23.27800
H  42.60500 9.78900 24.66900
H  39.85200 10.04900 25.45500
H  39.95900 10.63000 23.81200
H  41.13200 11.27700 24.97300
H  46.03200 10.14100 29.10400
H  45.10900 11.25900 27.94400
H  45.25700 9.51600 27.64200
H  42.13700 11.73800 32.80000
H  43.59000 11.36100 36.89700
H  45.08500 11.32400 35.96500
H  44.11100 9.87000 36.22200
Mg -0.92500 34.34500 26.79500
C  -1.95500 32.89300 29.78700
C  0.77600 36.73800 28.79500
C  -0.15200 36.05300 24.09900
C  -2.63600 31.93500 25.02300
N  -0.40000 34.58100 29.09500
C  -0.99500 33.89200 30.15200
C  -0.55400 34.32000 31.48200
C  0.17200 35.70200 31.10400
C  0.19600 35.73200 29.55300
C  -0.45100 36.95400 31.78300
C  0.22300 33.20400 32.20300
C  -0.53800 32.66200 33.43400
H  -0.00900 32.77200 34.81500
N  0.28800 36.02900 26.49500
C  0.98800 36.87800 27.35400
C  1.82700 37.82500 26.66000
C  1.66300 37.55800 25.30000
C  0.52300 36.62000 25.18500
C  2.85300 38.64600 27.37800
C  2.35100 38.25200 24.09200
O  1.97300 38.02200 22.92800
C  3.44300 39.29100 24.35400
N  -1.58300 34.14000 24.87700
C  -1.02400 34.92200 23.89500
C  -1.46800 34.49300 22.52900
C  -1.95100 33.04800 22.84400
C  -2.07900 33.00100 24.35400
C  -2.54000 35.42700 21.89800
C  -0.95100 31.94000 22.21500
C  0.25500 31.34100 22.97600
N  -2.12100 32.80400 27.24500
C  -2.78400 31.87200 26.46500
C  -3.40000 30.85000 27.19300
C  -3.21000 31.29300 28.56200
C  -2.38200 32.43900 28.51300
C  -4.47400 29.84200 26.65600
C  -3.43600 30.94300 29.97200
O  -4.01900 30.03200 30.51700
C  -2.80700 32.14600 30.74800
C  -4.00900 32.89700 31.37700
O  -4.57500 33.78700 30.75500
O  -4.57200 32.29000 32.50800
C  -5.81300 32.85600 32.97900
H  1.34500 37.51300 29.31300
H  0.09400 36.55100 23.15900
H  -2.97000 31.09600 24.41000
H  -1.52600 34.66100 31.83700
H  1.20100 35.73600 31.46100
H  0.36400 37.53600 32.21400
H  -1.18000 36.83900 32.58500
H  -0.88200 37.46500 30.92200
H  1.16000 33.63700 32.55500
H  0.47200 32.43900 31.46800
H  -0.79700 31.63500 33.17600
H  -1.45100 33.25600 33.47500
H  3.85400 38.23400 27.24700
H  2.66100 38.71700 28.44800
H  2.87500 39.66400 26.99000
H  2.85600 40.14300 24.69700
H  4.04300 39.53200 23.47600
H  4.13300 39.07400 25.16900
H  -0.60200 34.46800 21.86700
H  -2.92600 32.76200 22.44900
H  -3.05100 35.96600 22.69500
H  -3.40100 35.04300 21.35000
H  -2.10000 36.15900 21.22000
H  -0.61400 32.37200 21.27200
H  -1.62100 31.09300 22.07100
H  0.37700 31.74900 23.98000
H  1.14900 31.50900 22.37600
H  0.13900 30.26400 23.09400
H  -5.44100 30.34400 26.65400
H  -4.44300 28.98900 27.33400
H  -4.24000 29.70800 25.60000
H  -2.17500 31.77400 31.55500
H  -6.32500 32.10100 33.57600
H  -6.41700 33.31700 32.19700
H  -5.65300 33.68600 33.66600

