158

Mg 26.68300 49.32500 25.98600
C  24.65200 50.36300 28.47600
C  28.99500 48.25600 28.35900
C  28.93900 48.68400 23.47000
C  24.71800 51.13900 23.62600
N  26.75700 49.35200 28.15300
C  25.74300 49.64400 28.98500
C  26.14200 49.44300 30.43600
C  27.60600 48.99200 30.33400
C  27.86000 48.91400 28.84500
C  28.57900 49.88400 31.23000
C  25.36400 48.47200 31.20700
C  24.85000 48.91100 32.64800
H  25.68600 49.62300 33.75500
N  28.51700 48.40800 25.90400
C  29.29000 47.94900 26.97600
C  30.45300 47.28400 26.49200
C  30.40800 47.30000 25.08100
C  29.24600 48.15300 24.71000
C  31.47500 46.61900 27.41500
C  31.47900 46.64700 24.15100
O  31.33900 46.68700 22.94500
C  32.63500 46.02300 24.65800
N  26.84400 49.94200 23.80500
C  27.82500 49.46000 23.01000
C  27.60500 49.72800 21.53000
C  26.29900 50.54400 21.57400
C  25.90700 50.55200 23.08800
C  28.74800 50.53100 20.82200
C  25.04700 50.08000 20.80200
C  24.40100 48.85400 21.28700
N  25.05200 50.57500 26.00400
C  24.38300 51.10300 24.96400
C  23.19300 51.69700 25.55600
C  23.18800 51.46400 26.92400
C  24.40800 50.75200 27.15600
C  22.16600 52.36800 24.74800
C  22.49200 51.58000 28.18400
O  21.41300 52.06600 28.40800
C  23.40600 50.84600 29.22500
C  23.62600 51.81500 30.43000
O  24.47500 52.68500 30.53600
O  22.59800 51.59500 31.29200
C  22.61300 52.36300 32.57500
H  29.72900 48.08700 29.15100
H  29.62900 48.23000 22.75500
H  24.16500 51.66100 22.84200
H  26.13000 50.40300 30.95400
H  27.74900 47.96400 30.66600
H  29.56700 49.43100 31.13900
H  28.35000 50.04200 32.28300
H  28.62200 50.86000 30.74600
H  25.84800 47.54700 31.52200
H  24.54100 48.17700 30.55600
H  24.63600 47.93300 33.07900
H  23.94500 49.49500 32.48000
H  32.51000 46.84700 27.16000
H  31.30400 45.54300 27.38100
H  31.23300 47.00100 28.40600
H  33.24000 45.69100 23.81400
H  32.29400 45.16500 25.23800
H  33.30600 46.63300 25.26200
H  27.41500 48.79700 20.99500
H  26.52400 51.51300 21.12800
H  29.54200 50.48100 21.56700
H  28.48300 51.58400 20.73000
H  28.87400 50.01000 19.87200
H  25.31200 49.81400 19.77900
H  24.46800 51.00300 20.78600
H  25.06200 48.34300 21.98700
H  24.13700 48.25400 20.41700
H  23.60900 49.06100 22.00700
H  21.76900 53.20100 25.32900
H  21.24800 51.81100 24.93800
H  22.32300 52.57200 23.68900
H  22.94400 50.02300 29.77100
H  22.66300 53.44200 32.42500
H  23.48900 52.06600 33.15200
H  21.67000 52.19500 33.09500
Mg -10.70400 17.66700 41.22800
C  -7.11100 17.52600 41.07600
C  -10.43000 21.05400 40.53900
C  -13.96300 17.84600 40.35100
C  -10.73000 14.21900 40.95900
N  -8.92100 19.05100 40.77200
C  -7.58300 18.77800 40.87000
C  -6.82200 20.05200 40.64000
C  -7.87800 21.15700 41.08400
C  -9.17100 20.38500 40.77100
C  -7.74000 21.59600 42.52400
C  -6.36200 20.24600 39.11900
C  -4.83600 20.16100 38.80100
H  -4.41700 19.25500 37.75800
N  -11.98500 19.22800 40.63900
C  -11.69600 20.50100 40.43100
C  -12.85200 21.28300 40.00500
C  -13.98100 20.39500 40.01200
C  -13.33800 19.07500 40.36500
C  -12.90400 22.78100 39.72100
C  -15.34300 20.82100 39.79100
O  -15.59600 22.03700 39.66900
C  -16.38900 19.81100 39.82000
N  -12.09000 16.31300 40.61900
C  -13.41200 16.59600 40.48700
C  -14.30500 15.38000 40.63200
C  -13.27800 14.24900 40.63200
C  -11.93500 14.95200 40.72900
C  -15.13400 15.55700 41.87900
C  -13.33000 13.39100 39.23500
C  -13.65700 11.88100 39.27800
N  -9.20500 16.14100 41.19200
C  -9.40100 14.71100 41.10400
C  -8.15600 14.10600 41.29200
C  -7.24100 15.11700 41.34800
C  -7.95500 16.33500 41.15200
C  -7.91300 12.64700 41.32500
C  -5.83600 15.54600 41.38600
O  -4.82900 14.87400 41.66900
C  -5.67800 17.12000 41.21300
C  -5.06900 17.65600 42.44200
O  -5.68300 17.98800 43.44900
O  -3.76400 17.88500 42.17200
C  -3.02900 18.57800 43.22600
H  -10.33600 22.13900 40.46200
H  -15.00600 17.77100 40.03400
H  -10.93300 13.14600 40.97100
H  -6.02700 20.07800 41.38500
H  -7.78500 22.13200 40.60600
H  -6.71300 21.55800 42.88700
H  -8.44300 21.07800 43.17700
H  -7.98600 22.64900 42.65900
H  -6.67700 21.16800 38.63000
H  -6.85700 19.40400 38.63600
H  -4.22400 19.91100 39.66800
H  -4.58900 21.17800 38.49500
H  -13.34600 23.00800 38.75100
H  -11.91400 23.23700 39.73600
H  -13.50600 23.38600 40.39800
H  -16.29100 19.21200 38.91400
H  -17.27600 20.44200 39.77700
H  -16.45100 19.22700 40.73800
H  -14.94000 15.28800 39.75100
H  -13.55600 13.55100 41.42200
H  -15.65700 14.63500 42.13700
H  -15.88400 16.34600 41.82600
H  -14.54100 15.84800 42.74700
H  -12.36800 13.50700 38.73500
H  -14.01600 13.78400 38.48400
H  -14.61400 11.65300 38.80900
H  -13.72000 11.57100 40.32100
H  -12.79600 11.40800 38.80800
H  -7.36900 12.23400 40.47500
H  -8.88800 12.16000 41.30600
H  -7.49500 12.35700 42.28900
H  -5.04600 17.37200 40.36200
H  -1.98000 18.74700 42.98600
H  -2.90800 18.04500 44.16900
H  -3.70900 19.41400 43.39000

