158

Mg 24.75700 -4.03500 45.67200
C  26.98500 -1.76400 43.89700
C  22.34300 -3.06500 43.56100
C  23.13300 -6.87400 46.48900
C  27.73400 -5.26400 47.33400
N  24.70800 -2.47800 43.95800
C  25.64500 -1.70800 43.38500
C  25.09200 -0.79500 42.25400
C  23.62500 -1.26300 42.25300
C  23.52100 -2.34900 43.31000
C  22.60400 -0.12700 42.36300
C  25.78000 -1.00800 40.92800
C  25.88300 0.07700 39.89000
H  25.16800 -0.14400 38.52600
N  22.92300 -4.76400 45.25300
C  22.05700 -4.23400 44.33800
C  20.80100 -4.95900 44.35000
C  21.01000 -6.10100 45.19800
C  22.44200 -5.97300 45.70900
C  19.57400 -4.51800 43.57200
C  20.00000 -7.22200 45.35700
O  18.84400 -7.06900 44.97000
C  20.35800 -8.57200 45.99000
N  25.45800 -5.87700 46.57200
C  24.48200 -6.82100 46.92800
C  25.15800 -7.96800 47.70900
C  26.54500 -7.34000 48.14800
C  26.62700 -6.10000 47.25400
C  24.35200 -8.67600 48.82400
C  27.80200 -8.31300 48.13700
C  28.24200 -8.91600 49.38800
N  26.85500 -3.58300 45.79300
C  27.88300 -4.13500 46.52100
C  29.06700 -3.37100 46.31100
C  28.80200 -2.44100 45.29800
C  27.42500 -2.63000 44.93200
C  30.38600 -3.46300 47.03900
C  29.36600 -1.32500 44.48800
O  30.51000 -0.83800 44.46500
C  28.19000 -0.79200 43.62900
C  28.04800 0.68400 43.96200
O  27.32600 1.10100 44.79500
O  28.63500 1.46300 42.95300
C  28.32200 2.91500 42.94300
H  21.49500 -2.73700 42.95700
H  22.65200 -7.76400 46.89900
H  28.55500 -5.65900 47.93500
H  25.28000 0.24800 42.50800
H  23.30900 -1.78900 41.35200
H  21.84700 -0.13300 41.57900
H  23.11100 0.83100 42.24200
H  22.15300 -0.18000 43.35400
H  25.22300 -1.83600 40.49100
H  26.82100 -1.30700 41.05400
H  26.89300 0.38700 39.62000
H  25.34800 0.92400 40.31800
H  19.78100 -4.60500 42.50600
H  19.61700 -3.43000 43.62600
H  18.63700 -5.02600 43.79900
H  20.57600 -8.39500 47.04300
H  21.12500 -9.13200 45.45300
H  19.48400 -9.22200 46.02800
H  25.31700 -8.68400 46.90300
H  26.46400 -6.99200 49.17800
H  24.18200 -9.74700 48.70800
H  23.33600 -8.36200 49.06100
H  24.95900 -8.48300 49.70800
H  28.67100 -7.80600 47.71600
H  27.63500 -9.17400 47.49100
H  28.02700 -9.98500 49.39100
H  27.63400 -8.46700 50.17400
H  29.28900 -8.85900 49.68400
H  31.10700 -2.89600 46.45000
H  30.72100 -4.43800 47.39200
H  30.41400 -2.85700 47.94400
H  28.47700 -0.97100 42.59300
H  28.72900 3.52800 43.74700
H  27.24800 3.10200 42.97800
H  28.67700 3.35500 42.01200
Mg 44.96300 4.29400 47.12900
C  43.36500 7.42600 46.71500
C  41.87400 2.77300 46.50000
C  46.57800 1.44500 46.64600
C  48.01800 6.03800 46.90700
N  42.90400 5.05800 46.53800
C  42.40200 6.36300 46.63100
C  40.91300 6.43500 46.44300
C  40.55000 4.92100 46.43900
C  41.87800 4.16100 46.48700
C  39.47200 4.43800 47.51500
C  40.48400 7.24200 45.12500
C  41.30400 7.02000 43.83300
H  40.52200 6.84300 42.54900
N  44.32100 2.33900 46.79000
C  43.01200 1.86900 46.63300
C  43.00000 0.43600 46.48400
C  44.35300 0.02400 46.48400
C  45.13300 1.32300 46.69900
C  41.81800 -0.42600 46.19400
C  44.96300 -1.44900 46.38100
O  44.19300 -2.34800 46.21400
C  46.42900 -1.77800 46.46600
N  47.07200 3.83300 46.54800
C  47.44100 2.53300 46.59100
C  48.97600 2.37500 46.60500
C  49.42000 3.90200 46.51700
C  48.11900 4.67100 46.61800
C  49.35100 1.60300 47.91700
C  50.44300 4.46600 45.51300
C  51.81000 4.89500 46.09500
N  45.68100 6.33500 47.02600
C  46.90200 6.83600 47.07300
C  46.79800 8.33900 47.05700
C  45.44500 8.58300 47.00000
C  44.83300 7.33800 46.88100
C  47.93600 9.27300 47.11400
C  44.35700 9.68700 46.93100
O  44.44500 10.86800 46.89200
C  43.02300 8.91100 46.73900
C  42.00500 9.28200 47.79700
O  41.97000 8.81000 48.86700
O  41.16700 10.23100 47.28100
C  39.94300 10.32500 48.15500
H  40.85300 2.39400 46.43200
H  47.24700 0.58700 46.55600
H  48.99400 6.51800 47.00400
H  40.47100 6.82800 47.35900
H  40.11300 4.59400 45.49600
H  38.56200 4.27900 46.93700
H  39.27000 5.23100 48.23500
H  39.74300 3.48300 47.96600
H  40.40800 8.30800 45.33600
H  39.45400 6.92600 44.95800
H  41.87600 6.10900 44.00600
H  42.01300 7.83600 43.69500
H  40.90600 0.12200 46.43200
H  41.84200 -1.38200 46.71700
H  41.81500 -0.64800 45.12700
H  46.95000 -1.50300 47.38400
H  46.89400 -1.30800 45.60000
H  46.72800 -2.82200 46.36800
H  49.35700 1.83000 45.74200
H  49.81800 4.08700 47.51500
H  49.64800 0.59900 47.61100
H  48.52500 1.46800 48.61600
H  50.18100 2.12700 48.39000
H  49.86500 5.16000 44.90300
H  50.85800 3.71300 44.84400
H  52.17600 5.78000 45.57500
H  52.57100 4.11500 46.08100
H  51.72100 5.21700 47.13300
H  48.34900 9.33700 46.10700
H  48.76500 8.88100 47.70300
H  47.73800 10.23400 47.59100
H  42.64500 9.34100 45.81200
H  39.17500 10.85700 47.59400
H  40.28500 11.03700 48.90600
H  39.59400 9.37400 48.55600

