158

Mg 1.71900 -1.39800 44.35200
C  4.95300 -0.39200 43.70200
C  0.63300 1.55100 42.53500
C  -1.24300 -2.70400 43.96400
C  2.97900 -4.35600 45.70900
N  2.70900 0.32100 43.22500
C  4.05500 0.52300 43.11400
C  4.32500 1.73400 42.12400
C  2.97400 2.48900 42.18500
C  2.03700 1.43200 42.73700
C  3.09500 3.76900 43.10000
C  4.76700 1.28800 40.68600
C  5.97700 2.11500 40.13800
H  6.04800 2.60900 38.67300
N  -0.05700 -0.67500 43.44100
C  -0.34500 0.58100 42.87000
C  -1.81200 0.74200 42.67900
C  -2.30600 -0.60600 42.95100
C  -1.20000 -1.36700 43.46400
C  -2.34900 1.96400 41.98400
C  -3.83900 -0.92900 42.81700
O  -4.58100 -0.16100 42.25500
C  -4.41600 -2.31000 43.09700
N  0.99000 -3.33100 44.67600
C  -0.34200 -3.54500 44.59300
C  -0.75300 -4.87600 45.18900
C  0.56800 -5.38300 45.79400
C  1.61300 -4.29100 45.37700
C  -1.91700 -4.90000 46.15300
C  0.94600 -6.81100 45.41600
C  1.42600 -7.69500 46.62800
N  3.51500 -2.13000 44.85300
C  3.89000 -3.32400 45.34700
C  5.31700 -3.36900 45.64300
C  5.87600 -2.20600 44.93800
C  4.65600 -1.54200 44.50100
C  6.05200 -4.42600 46.43000
C  7.06400 -1.51700 44.55800
O  8.25400 -1.75200 44.64400
C  6.44500 -0.26500 43.70300
C  6.95700 1.01400 44.30200
O  6.37800 1.50200 45.23100
O  8.09100 1.47600 43.67500
C  8.52000 2.78700 44.02600
H  0.27200 2.50700 42.15000
H  -2.21600 -3.19700 43.91400
H  3.44600 -5.25900 46.10700
H  5.10300 2.31900 42.61500
H  2.60000 2.92800 41.25900
H  4.10700 3.97500 43.44800
H  2.48200 3.69000 43.99800
H  2.75400 4.66400 42.58100
H  3.96500 1.31800 39.94900
H  5.21400 0.31400 40.89000
H  6.90400 1.54700 40.21000
H  6.11100 2.94600 40.83000
H  -1.90800 2.84700 42.44600
H  -3.41600 2.03300 42.19200
H  -2.12400 2.01300 40.91900
H  -3.88000 -3.01300 42.46000
H  -5.45100 -2.30600 42.75700
H  -4.42400 -2.60300 44.14700
H  -1.11500 -5.44600 44.33300
H  0.45700 -5.26900 46.87300
H  -1.65100 -5.55100 46.98600
H  -2.79100 -5.23700 45.59700
H  -2.21000 -3.92800 46.55100
H  1.73100 -6.66400 44.67500
H  0.07200 -7.33500 45.03000
H  1.64400 -7.01600 47.45200
H  2.32100 -8.20200 46.26800
H  0.65100 -8.45700 46.70700
H  5.84300 -4.35300 47.49800
H  7.13200 -4.36300 46.29600
H  5.71300 -5.40600 46.09300
H  6.82800 -0.21000 42.68400
H  8.50800 2.99300 45.09600
H  8.06300 3.56200 43.41100
H  9.57900 2.85300 43.77400
Mg 27.02000 49.95000 26.04200
C  25.49700 51.45900 28.67200
C  29.81000 49.35700 27.96500
C  28.80000 49.13800 23.17800
C  24.51100 51.28100 23.91500
N  27.55300 50.48100 28.04300
C  26.70200 50.94500 28.99000
C  27.08100 50.55100 30.38400
C  28.56600 50.12300 30.15100
C  28.65000 49.95700 28.67100
C  29.75900 50.93000 30.76900
C  26.17100 49.44100 31.11700
C  25.64000 49.64400 32.55800
H  26.48000 50.37400 33.62000
N  28.99900 49.22900 25.66800
C  29.97500 49.03400 26.59900
C  31.13100 48.51300 26.00200
C  30.94600 48.49000 24.59200
C  29.48200 48.96500 24.42200
C  32.25500 48.05400 26.81700
C  31.94200 48.17500 23.56100
O  31.63300 48.15800 22.36700
C  33.34700 47.82200 23.92000
N  26.76500 50.24800 23.82400
C  27.53400 49.61600 22.92900
C  26.91000 49.48200 21.49200
C  25.50600 50.15400 21.77500
C  25.52000 50.53900 23.26400
C  27.64200 50.23900 20.31300
C  24.27900 49.23200 21.63600
C  23.01000 49.98200 21.11400
N  25.33600 51.11400 26.24700
C  24.39500 51.61000 25.29500
C  23.33900 52.33300 25.97600
C  23.64100 52.25900 27.33100
C  24.88500 51.49600 27.43500
C  22.01800 52.76800 25.47100
C  23.22400 52.56000 28.68500
O  22.16200 53.04200 29.10400
C  24.49300 52.12800 29.61500
C  25.00300 53.22700 30.46800
O  25.87400 53.95800 30.12300
O  24.27400 53.34000 31.59300
C  24.72500 54.13700 32.69600
H  30.60300 49.14700 28.68600
H  29.35900 48.71200 22.34200
H  23.79400 51.58600 23.14900
H  27.09500 51.47800 30.95800
H  28.72500 49.11300 30.53000
H  30.27600 51.57000 30.05400
H  30.47700 50.20600 31.15500
H  29.36500 51.58800 31.54300
H  26.70600 48.49200 31.10200
H  25.32900 49.21400 30.46200
H  25.45300 48.63900 32.93800
H  24.62800 50.04200 32.48500
H  32.02500 47.99900 27.88100
H  33.04600 48.78600 26.65700
H  32.60300 47.09100 26.44300
H  33.36800 46.95900 24.58500
H  33.72300 48.75500 24.34100
H  33.83800 47.51800 22.99600
H  26.82700 48.46500 21.10800
H  25.33100 51.14800 21.36300
H  28.63400 49.82700 20.12600
H  27.71500 51.30600 20.52700
H  27.10700 50.14000 19.36900
H  24.01900 48.79000 22.59800
H  24.54800 48.40700 20.97700
H  23.26700 50.99700 20.80900
H  22.34200 50.14000 21.96100
H  22.53200 49.38600 20.33700
H  21.81300 52.35700 24.48300
H  21.85700 53.84200 25.57100
H  21.21200 52.34900 26.07300
H  24.19600 51.40200 30.37200
H  24.01600 54.02000 33.51500
H  24.67200 55.19600 32.44200
H  25.71500 53.78700 32.99000

