158

Mg 1.36300 -0.81800 43.01700
C  4.89600 -0.41100 42.72000
C  0.93400 1.86900 40.93800
C  -1.96500 -1.58200 42.91900
C  2.03400 -3.99500 44.25300
N  2.79800 0.43100 41.76800
C  4.15100 0.48000 41.94000
C  4.73500 1.56700 40.99700
C  3.56500 2.44300 40.52900
C  2.33700 1.54900 41.06600
C  3.41300 3.87900 41.08400
C  5.44700 0.88900 39.76600
C  6.88900 1.28300 39.49500
H  7.12300 2.12400 38.27200
N  -0.33500 0.15000 42.18100
C  -0.28100 1.21700 41.41800
C  -1.64700 1.67500 41.13800
C  -2.56100 0.80500 41.75400
C  -1.64300 -0.29100 42.36600
C  -1.92400 2.96300 40.32300
C  -4.02500 0.82700 41.77800
O  -4.70100 1.63600 41.20300
C  -4.72700 -0.19500 42.52500
N  0.25600 -2.57900 43.33300
C  -1.13200 -2.60800 43.38900
C  -1.67100 -3.98100 43.63100
C  -0.36900 -4.77100 44.00300
C  0.73200 -3.65600 43.94000
C  -2.88400 -4.12000 44.63300
C  -0.12900 -6.06900 43.15500
C  -0.13300 -7.49100 43.86800
N  3.02700 -2.00900 43.50700
C  3.12400 -3.24900 43.95800
C  4.57700 -3.57400 44.24200
C  5.30000 -2.55000 43.70100
C  4.32500 -1.57300 43.32900
C  5.16100 -4.81500 44.96300
C  6.59100 -2.03800 43.41900
O  7.69600 -2.55500 43.55500
C  6.37500 -0.56900 42.92000
C  7.03700 0.22100 43.98100
O  6.54500 0.44600 45.05500
O  8.21600 0.79500 43.59600
C  9.16500 1.44600 44.50000
H  0.80600 2.80900 40.39700
H  -2.99900 -1.91000 42.79100
H  2.19100 -4.96200 44.73500
H  5.38700 2.15400 41.64400
H  3.51100 2.54100 39.44500
H  4.33000 4.34400 41.44600
H  2.66500 3.82400 41.87500
H  3.22300 4.65000 40.33700
H  4.84600 1.04000 38.86900
H  5.57700 -0.18100 39.92800
H  7.66400 0.53500 39.66000
H  7.10000 2.07800 40.21000
H  -1.56400 2.93100 39.29400
H  -1.45800 3.81400 40.81800
H  -2.96400 3.27400 40.42200
H  -5.81000 -0.17900 42.39800
H  -4.31000 -0.26200 43.53000
H  -4.56100 -1.09000 41.92500
H  -2.14200 -4.22400 42.67900
H  -0.50000 -5.11200 45.03000
H  -3.33400 -3.13200 44.72500
H  -2.54300 -4.37800 45.63600
H  -3.58500 -4.86900 44.26300
H  0.83300 -6.04600 42.64300
H  -0.95300 -6.15500 42.44700
H  -0.58800 -7.41000 44.85500
H  0.86800 -7.92000 43.85800
H  -0.68500 -8.27100 43.34300
H  6.24100 -4.84400 45.10300
H  4.73800 -5.67500 44.44300
H  4.64800 -4.80200 45.92500
H  6.96200 -0.58400 42.00200
H  9.35700 0.81600 45.36800
H  8.75000 2.41100 44.79400
H  10.11900 1.56300 43.98600
Mg 46.96800 44.75700 41.72600
C  43.63500 43.83100 42.49400
C  47.66200 41.35300 41.53800
C  49.85000 45.48300 40.28500
C  45.92300 48.18700 41.51600
N  45.79600 42.85200 42.09000
C  44.45900 42.78300 42.27700
C  43.93700 41.37400 42.24200
C  45.28500 40.50800 42.24200
C  46.35200 41.62900 41.94700
C  45.52100 39.78600 43.58700
C  43.03800 40.88800 41.04900
C  43.00800 41.71100 39.71700
H  42.89200 40.91700 38.43200
N  48.55600 43.54500 40.95800
C  48.67400 42.22400 41.04000
C  50.03600 41.85900 40.71500
C  50.61100 43.03900 40.19200
C  49.62200 44.07300 40.40900
C  50.62800 40.54700 40.75000
C  51.96400 43.14300 39.50400
O  52.71900 42.17000 39.29000
C  52.41500 44.38200 38.81400
N  47.71700 46.50900 40.93500
C  49.00100 46.58700 40.55300
C  49.56800 47.97800 40.52800
C  48.22900 48.87800 40.62200
C  47.23300 47.83300 41.12900
C  50.64100 48.20400 41.63800
C  47.85800 49.57000 39.34500
C  48.43000 50.96900 38.98000
N  45.17600 45.88200 42.11600
C  44.92000 47.21800 41.93600
C  43.47700 47.43200 42.35500
C  42.92900 46.13200 42.50700
C  43.97400 45.22600 42.46300
C  42.79400 48.73800 42.43800
C  41.66200 45.39000 42.65900
O  40.47300 45.83400 42.72200
C  42.09100 43.81900 42.81300
C  41.75400 43.35600 44.18600
O  42.13400 43.79800 45.23800
O  40.91100 42.24300 44.02300
C  40.48400 41.72100 45.29300
H  47.95200 40.30000 41.54100
H  50.83100 45.86900 40.00300
H  45.65000 49.24300 41.44800
H  43.48400 41.20900 43.22000
H  45.43900 39.79700 41.43000
H  46.37300 39.12300 43.43300
H  44.63600 39.22800 43.89200
H  45.90800 40.41500 44.38900
H  42.03300 40.71700 41.43300
H  43.28700 39.93300 40.58700
H  43.84100 42.40600 39.61300
H  42.09600 42.30900 39.74000
H  50.57300 40.03700 39.78900
H  50.16100 39.85900 41.45500
H  51.64700 40.64000 41.12800
H  51.67500 44.90900 38.21200
H  53.17300 44.19800 38.05300
H  52.73700 45.01500 39.64200
H  49.95600 48.13100 39.52200
H  48.24500 49.63500 41.40700
H  50.89200 47.23800 42.07700
H  50.24100 48.85800 42.41200
H  51.57800 48.67000 41.33400
H  46.77200 49.66200 39.34200
H  48.06000 48.92100 38.49300
H  49.02800 51.29600 39.83100
H  47.54200 51.59600 39.06000
H  49.04300 50.90000 38.08200
H  41.99500 48.81900 41.70100
H  43.46300 49.55200 42.15700
H  42.41800 48.89400 43.44900
H  41.46400 43.26300 42.11600
H  40.13800 42.50500 45.96600
H  41.29800 41.09700 45.66200
H  39.61700 41.06400 45.23500

