158

Mg 8.92600 3.85700 27.94100
C  10.45500 2.34600 30.91600
C  7.14800 5.74600 30.03800
C  7.39500 5.11200 25.14900
C  10.41800 1.31400 26.04400
N  8.81700 3.98900 30.29500
C  9.43900 3.32900 31.27400
C  9.10800 3.93600 32.64800
C  7.96400 5.00000 32.29000
C  7.92900 4.88700 30.77900
C  6.56000 4.74000 33.00800
C  10.28100 4.57300 33.38100
C  10.38700 4.42200 34.91400
H  11.01600 5.61300 35.57800
N  7.40200 5.17300 27.62300
C  6.86500 5.96600 28.58400
C  6.04900 6.96500 28.06300
C  6.17000 6.83000 26.62600
C  7.05100 5.63400 26.38400
C  5.16500 7.86700 28.79900
C  5.47400 7.56900 25.53200
O  5.70300 7.37200 24.35800
C  4.60000 8.68500 25.87300
N  8.92800 3.35700 25.82200
C  8.23400 4.02200 24.86700
C  8.31200 3.28800 23.51500
C  9.41400 2.15500 23.78000
C  9.72300 2.36500 25.30000
C  7.00800 2.77200 22.93900
C  10.74800 2.15000 23.00100
C  11.22300 0.82800 22.35800
N  10.28200 2.33000 28.25600
C  10.71100 1.35100 27.38300
C  11.60000 0.45400 28.10900
C  11.59800 0.86000 29.41400
C  10.68800 1.95200 29.52900
C  12.38600 -0.69500 27.63400
C  12.20400 0.52100 30.72200
O  13.07800 -0.23200 31.04400
C  11.44900 1.49000 31.70300
C  10.78200 0.71500 32.77900
O  9.68300 0.21100 32.73800
O  11.62100 0.70200 33.79300
C  11.05100 0.27400 35.13000
H  6.63400 6.39600 30.74900
H  7.15300 5.59600 24.20100
H  10.98100 0.62700 25.41000
H  8.76300 3.08500 33.23500
H  8.16800 6.02400 32.60100
H  6.40700 3.69200 33.26900
H  5.75700 4.99200 32.31600
H  6.52200 5.32600 33.92600
H  10.16400 5.62900 33.14000
H  11.18200 4.23800 32.86600
H  10.96000 3.50900 35.07500
H  9.41500 4.25800 35.38000
H  5.25800 7.70700 29.87300
H  4.15200 7.71500 28.42700
H  5.43000 8.91300 28.64200
H  3.78600 8.16900 26.38200
H  4.09500 9.12600 25.01400
H  5.05100 9.41700 26.54200
H  8.63100 4.02000 22.77200
H  8.90400 1.19900 23.65600
H  7.03300 1.69900 22.74800
H  6.73000 3.30400 22.02900
H  6.12800 3.03100 23.52900
H  11.55400 2.29800 23.72000
H  10.77800 2.98400 22.30100
H  12.23100 0.61800 22.71500
H  11.36900 0.99900 21.29100
H  10.49900 0.09100 22.70700
H  12.65200 -0.68900 26.57700
H  11.77700 -1.59800 27.66200
H  13.32400 -0.76200 28.18600
H  12.28100 2.05700 32.12000
H  10.04900 0.70400 35.14300
H  11.51100 0.63900 36.04800
H  10.90700 -0.80600 35.16800
Mg 53.15400 24.19500 44.25200
C  50.66000 26.46500 43.44200
C  51.07400 21.59000 43.16400
C  55.78700 22.09400 43.96400
C  55.16300 26.73600 45.26200
N  51.13700 24.04400 43.35100
C  50.31300 25.12200 43.07400
C  48.94800 24.57900 42.48400
C  48.87500 23.12700 43.07700
C  50.37400 22.87800 43.17400
C  48.08100 23.01000 44.42800
C  48.95400 24.51400 40.90300
C  50.21200 24.93500 40.13000
H  50.10800 25.18200 38.61100
N  53.41400 22.08600 43.77400
C  52.39300 21.19800 43.37100
C  52.88700 19.88200 43.09600
C  54.34400 19.96300 43.37300
C  54.55000 21.43700 43.71500
C  52.00500 18.77800 42.65200
C  55.36800 18.78900 43.22000
O  54.86200 17.73500 42.84800
C  56.82200 18.85500 43.58800
N  55.21300 24.35800 44.59300
C  56.18600 23.37400 44.34900
C  57.58800 23.85500 44.83700
C  57.32300 25.33600 45.25100
C  55.77200 25.53500 45.12200
C  58.08800 22.95300 45.99200
C  58.08900 26.24000 44.32000
C  57.54100 26.31000 42.86300
N  53.01000 26.20200 44.30700
C  53.88100 27.17800 44.86800
C  53.31000 28.51900 44.85400
C  51.97700 28.26700 44.33600
C  51.86500 26.88800 44.05600
C  53.93600 29.91100 45.39300
C  50.71900 28.86500 43.87300
O  50.36300 29.99000 43.84900
C  49.85000 27.72200 43.38300
C  49.46200 28.01600 41.99700
O  50.09200 28.36400 41.08500
O  48.09100 27.90900 41.99800
C  47.46100 28.10900 40.61800
H  50.32300 20.88900 42.79400
H  56.61900 21.40700 43.79500
H  55.81700 27.60500 45.35700
H  48.11500 25.19700 42.81900
H  48.43100 22.46100 42.33700
H  48.66000 22.57100 45.23900
H  47.27000 22.36300 44.09400
H  47.62400 23.96800 44.67900
H  48.25800 25.24600 40.49200
H  48.57200 23.55400 40.55700
H  51.03000 24.21500 40.17200
H  50.50600 25.90400 40.53200
H  51.22600 19.22100 42.03200
H  51.42900 18.35100 43.47300
H  52.54100 18.03200 42.06500
H  56.96200 19.44200 44.49600
H  57.40500 19.32500 42.79700
H  57.04700 17.78800 43.60300
H  58.23500 23.64800 43.98500
H  57.80700 25.37200 46.22600
H  57.38700 22.13200 46.14200
H  58.01000 23.37100 46.99600
H  59.12400 22.64300 45.86000
H  59.16400 26.06500 44.29200
H  57.95900 27.22300 44.77100
H  56.91200 25.42700 42.75300
H  58.31500 26.18700 42.10500
H  56.96000 27.21600 42.68900
H  54.70100 30.10600 44.64100
H  54.44700 29.64600 46.31800
H  53.19100 30.70000 45.49900
H  49.03700 27.86500 44.09500
H  48.20700 28.26900 39.84000
H  46.81700 28.98800 40.63200
H  46.93200 27.22100 40.27200

