158

Mg 53.46200 24.35900 44.82000
C  51.05000 26.71100 43.92200
C  51.35900 21.91300 43.46500
C  56.16900 22.20200 44.76000
C  55.71900 27.03400 45.24800
N  51.55500 24.28300 43.52800
C  50.75800 25.37400 43.40800
C  49.46100 24.96600 42.63300
C  49.41300 23.43600 42.90100
C  50.85700 23.15500 43.25900
C  48.40800 23.06300 43.99200
C  49.52100 25.20500 41.15000
C  50.82000 25.47700 40.46200
H  50.77700 25.98500 39.00700
N  53.73900 22.32800 44.27100
C  52.70400 21.45800 43.84000
C  53.24900 20.09400 43.73300
C  54.58900 20.15200 44.08700
C  54.87400 21.58700 44.40900
C  52.45500 18.95000 43.15300
C  55.49600 19.04700 44.17300
O  55.15000 17.95800 43.91100
C  56.89500 19.16400 44.48900
N  55.69500 24.61900 44.50400
C  56.53800 23.55400 44.74500
C  58.00500 24.00000 45.02600
C  57.76100 25.58600 45.09000
C  56.30600 25.77400 44.92000
C  58.75700 23.33400 46.25600
C  58.65700 26.38000 44.00200
C  58.13600 26.37100 42.56100
N  53.38200 26.43300 44.82500
C  54.32100 27.44200 45.16700
C  53.64000 28.69400 45.27100
C  52.36200 28.49300 44.78300
C  52.24300 27.11100 44.54300
C  54.36800 29.91800 45.68300
C  51.12500 29.11600 44.49300
O  50.81300 30.26100 44.65500
C  50.22800 27.96100 43.95000
C  49.64800 28.43000 42.66700
O  50.26700 28.50800 41.61800
O  48.26900 28.57400 42.67300
C  47.68800 28.60000 41.30500
H  50.58500 21.14900 43.36500
H  57.03800 21.57700 44.97400
H  56.47000 27.77000 45.54500
H  48.56600 25.47200 42.99300
H  49.16200 22.82800 42.03200
H  48.31600 23.88800 44.70000
H  48.58200 22.19600 44.62900
H  47.42700 22.82000 43.58400
H  48.74600 25.95900 41.01000
H  49.15900 24.39300 40.52000
H  51.51000 24.64600 40.60900
H  51.22500 26.40200 40.87300
H  52.96700 18.61200 42.25300
H  51.45500 19.31700 42.92300
H  52.40500 18.05400 43.77200
H  57.15900 18.10600 44.47600
H  56.89100 19.50900 45.52300
H  57.44300 19.82100 43.81400
H  58.60800 23.73800 44.15700
H  58.06600 25.91000 46.08500
H  59.54500 22.66600 45.91000
H  58.05500 22.76600 46.86700
H  59.21300 24.10900 46.87300
H  59.63100 25.89200 43.96500
H  58.82000 27.41900 44.28800
H  57.71800 27.31900 42.22100
H  57.47600 25.52400 42.37400
H  59.01200 26.17000 41.94600
H  55.39500 29.78500 45.34200
H  54.32400 30.07400 46.76100
H  53.99800 30.81800 45.19300
H  49.34400 27.83800 44.57600
H  47.76000 29.62400 40.93800
H  46.66200 28.27200 41.47400
H  48.18200 27.92000 40.61000
Mg 42.75600 41.82600 26.12100
C  42.13900 44.11000 28.73600
C  44.28000 39.80100 28.44600
C  43.79300 39.97000 23.56600
C  41.70300 44.38500 23.88400
N  43.18200 42.03300 28.29800
C  42.78200 42.98600 29.16400
C  42.96900 42.52000 30.61200
C  43.88300 41.24500 30.52500
C  43.84000 41.00900 28.97000
C  45.39900 41.45700 31.04300
C  41.63300 42.35400 31.43000
C  41.50200 43.26300 32.71200
H  42.41000 42.77400 33.83200
N  43.77900 40.11800 26.00400
C  44.31000 39.40500 27.05900
C  44.95400 38.22100 26.55100
C  44.89600 38.30500 25.13000
C  44.07000 39.46500 24.81500
C  45.64500 37.19300 27.32600
C  45.51500 37.38100 24.15900
O  45.29200 37.43500 22.97000
C  46.49100 36.26400 24.51400
N  42.80100 42.18900 24.08200
C  43.08000 41.17200 23.24700
C  42.93800 41.59600 21.72900
C  42.23100 42.99100 21.91000
C  42.31500 43.24500 23.36400
C  44.26800 41.72900 20.93700
C  40.83000 43.04400 21.38500
C  39.81800 41.92900 21.87300
N  41.98800 43.86400 26.19800
C  41.52000 44.66600 25.22400
C  40.88100 45.89000 25.82700
C  41.15500 45.68400 27.22800
C  41.81300 44.44100 27.37400
C  40.54900 47.19300 25.20400
C  41.06800 46.27200 28.49600
O  40.63900 47.42600 28.82800
C  41.65300 45.31100 29.57100
C  42.81700 45.99500 30.15000
O  43.91300 46.18600 29.68000
O  42.46300 46.33100 31.40800
C  43.57300 46.74400 32.29400
H  44.72800 39.13300 29.18500
H  43.98100 39.28700 22.73500
H  41.42800 45.19200 23.20200
H  43.44500 43.38800 31.06900
H  43.48900 40.43500 31.13900
H  45.58600 42.47100 31.39700
H  46.14100 41.29600 30.26100
H  45.55700 40.87000 31.94700
H  41.68700 41.28200 31.62200
H  40.78600 42.66100 30.81700
H  40.48000 43.15700 33.07700
H  41.76100 44.30600 32.53100
H  46.71400 37.39600 27.26500
H  45.27200 36.21500 27.02100
H  45.30600 37.24400 28.36000
H  45.86900 35.44200 24.86900
H  47.20800 36.61200 25.25700
H  47.00600 36.01500 23.58500
H  42.24500 40.87300 21.29900
H  42.77300 43.73100 21.32200
H  45.09500 41.46900 21.59800
H  44.33100 42.67100 20.39200
H  44.31600 40.89600 20.23700
H  41.04100 42.96300 20.31900
H  40.39200 44.03500 21.49800
H  40.34200 41.45800 22.70500
H  39.48400 41.30000 21.04800
H  38.90700 42.34500 22.30400
H  40.39000 47.09100 24.13100
H  41.29600 47.95400 25.43300
H  39.63200 47.55000 25.67200
H  40.88900 45.05200 30.30300
H  43.95700 47.63600 31.79900
H  44.32100 45.95200 32.33900
H  43.07700 46.90300 33.25100

