158

Mg 26.59000 50.54900 26.30100
C  24.52100 51.89900 28.87500
C  28.75900 49.38300 28.73900
C  28.76400 49.93800 23.90300
C  24.63600 52.37400 24.01000
N  26.60900 50.68000 28.56000
C  25.57200 51.09300 29.39800
C  25.94400 50.78100 30.80800
C  27.32800 50.08100 30.76700
C  27.59400 50.02800 29.24400
C  28.44900 50.79900 31.59500
C  24.79300 50.04200 31.56400
C  24.48900 50.83800 32.92500
H  24.68400 50.02900 34.23300
N  28.51300 49.67500 26.35700
C  29.19400 49.29700 27.43700
C  30.53300 48.79600 27.05700
C  30.53300 48.98400 25.60300
C  29.23500 49.53500 25.21800
C  31.52300 48.19200 28.03700
C  31.55300 48.65300 24.60400
O  31.52200 48.90600 23.40700
C  32.60200 47.74500 25.07200
N  26.78500 51.31600 24.29900
C  27.73800 50.74800 23.45200
C  27.29400 50.68500 22.03500
C  25.97400 51.44200 22.06900
C  25.81200 51.81700 23.50700
C  28.41900 51.30500 21.13300
C  24.78800 50.55100 21.47300
C  24.09500 51.08800 20.15800
N  24.88000 51.89200 26.36600
C  24.17000 52.39600 25.35900
C  22.93400 52.96900 25.81100
C  23.06700 52.90500 27.20500
C  24.24300 52.18200 27.49000
C  21.87700 53.67500 25.04700
C  22.41000 53.24500 28.46600
O  21.43600 53.88900 28.75500
C  23.41900 52.69200 29.60400
C  23.92900 53.86100 30.38900
O  24.79200 54.63700 29.98600
O  23.17600 54.02000 31.47100
C  23.38500 55.16200 32.40400
H  29.39800 49.07700 29.57000
H  29.33900 49.43800 23.12200
H  23.87600 52.73700 23.31400
H  26.05600 51.79400 31.19300
H  27.28000 49.04800 31.11100
H  28.19700 51.68300 32.18000
H  29.28900 51.09200 30.96500
H  28.90100 50.09100 32.29000
H  25.13200 49.04600 31.85000
H  23.87300 49.91500 30.99400
H  23.42800 51.07400 32.84700
H  25.05400 51.76300 33.03300
H  31.19600 48.13900 29.07600
H  32.40200 48.82200 27.89700
H  31.96000 47.22700 27.78000
H  33.40800 47.60000 24.35200
H  32.10000 46.82200 25.36300
H  33.12300 48.31300 25.84200
H  27.09700 49.62800 21.85600
H  26.04000 52.33500 21.44800
H  29.30700 51.47800 21.74000
H  28.14100 52.26900 20.70700
H  28.73400 50.67800 20.29900
H  23.98300 50.43200 22.19900
H  25.15200 49.54400 21.26700
H  24.00000 50.13500 19.63700
H  24.67400 51.74000 19.50400
H  23.16300 51.55800 20.47000
H  22.24300 54.50900 24.44900
H  21.21400 54.16400 25.76100
H  21.34500 52.91600 24.47200
H  22.80000 52.12000 30.29500
H  23.89000 56.03300 31.98500
H  24.03000 54.78200 33.19600
H  22.46900 55.43100 32.92900
Mg -4.94600 25.46000 26.00200
C  -3.42500 26.49400 28.98400
C  -6.91000 23.35400 27.78600
C  -5.64800 23.73100 23.15100
C  -2.46700 27.13300 24.19400
N  -5.04200 24.85000 28.11700
C  -4.46800 25.53100 29.17900
C  -5.13100 25.16300 30.51300
C  -6.00700 23.96400 30.08400
C  -5.98400 24.05300 28.58000
C  -5.38000 22.52000 30.34800
C  -6.00000 26.35800 31.04900
C  -5.94200 26.52600 32.58300
H  -5.38500 25.42300 33.47300
N  -6.24000 23.83600 25.51700
C  -7.03800 23.20600 26.43400
C  -7.79500 22.17400 25.71100
C  -7.49300 22.26000 24.34500
C  -6.35800 23.25600 24.32100
C  -8.84800 21.26400 26.35800
C  -8.09200 21.54800 23.09700
O  -7.79700 21.85900 21.96600
C  -9.14000 20.52200 23.25700
N  -4.12900 25.38000 24.01300
C  -4.63400 24.65500 23.00400
C  -3.95100 24.91700 21.59400
C  -3.25400 26.24300 21.96500
C  -3.30700 26.37600 23.49500
C  -3.09800 23.73100 21.26800
C  -3.76600 27.56600 21.23900
C  -2.72100 28.33100 20.44400
N  -3.32700 26.75800 26.49500
C  -2.40200 27.34700 25.67400
C  -1.54400 28.18400 26.46800
C  -1.92400 27.94700 27.77900
C  -3.00000 27.00900 27.73200
C  -0.49200 29.13100 25.85300
C  -1.66600 28.31300 29.14100
O  -0.79300 29.00700 29.61500
C  -2.76200 27.47300 29.99400
C  -1.93300 26.75900 31.00700
O  -1.03300 25.94400 30.76800
O  -2.21000 27.24800 32.24900
C  -1.32600 26.77900 33.32200
H  -7.63800 22.81400 28.39600
H  -5.82100 23.18200 22.22300
H  -1.72700 27.61600 23.55300
H  -4.40600 24.85100 31.26400
H  -6.98300 23.98600 30.56800
H  -6.12800 21.73800 30.48600
H  -4.70500 22.61100 31.19800
H  -4.83400 22.17700 29.46900
H  -6.98100 26.23600 30.59100
H  -5.64800 27.29700 30.62100
H  -6.97700 26.68100 32.88800
H  -5.47100 27.46400 32.87700
H  -9.80700 21.53900 25.92000
H  -8.75900 21.36000 27.44000
H  -8.74000 20.22900 26.03500
H  -9.47700 20.23700 22.26000
H  -9.97100 21.03400 23.74400
H  -8.86800 19.68300 23.89800
H  -4.67600 25.06800 20.79400
H  -2.20500 26.03300 21.75500
H  -3.37800 22.85600 21.85400
H  -2.05500 23.99100 21.45000
H  -3.18700 23.59300 20.19100
H  -4.20600 28.28900 21.92500
H  -4.48700 27.19400 20.51100
H  -2.56500 29.40400 20.55600
H  -2.83300 28.28300 19.36100
H  -1.70200 27.95300 20.51900
H  -0.15800 28.74600 24.88900
H  0.30400 29.23100 26.59100
H  -0.97300 30.09300 25.67700
H  -3.44900 28.16500 30.48200
H  -1.41300 27.52000 34.11700
H  -0.32000 26.83400 32.90700
H  -1.54600 25.77800 33.69300

