158

Mg 1.40100 8.58700 27.02200
C  2.06100 10.66000 29.82600
C  1.66500 5.92000 29.29700
C  1.49100 6.50800 24.49500
C  1.50600 11.34200 24.99800
N  1.76600 8.34900 29.27300
C  1.86800 9.35800 30.21700
C  1.95100 8.80800 31.65900
C  2.19700 7.22800 31.38300
C  1.79600 7.12200 29.90000
C  3.56300 6.61200 31.73300
C  0.69600 8.99200 32.52400
C  0.66000 8.94300 34.04700
H  1.85300 8.33400 34.67700
N  1.36900 6.49900 26.87000
C  1.51500 5.59900 27.90900
C  1.29600 4.25700 27.40300
C  1.24200 4.43100 25.92600
C  1.40000 5.85000 25.74500
C  1.34100 2.98500 28.24000
C  1.03200 3.33500 24.83200
O  0.79200 3.67400 23.69300
C  1.27600 1.87700 25.15200
N  1.40100 8.89200 25.07700
C  1.44400 7.84500 24.19300
C  1.49200 8.41200 22.75900
C  1.03100 9.88700 22.92300
C  1.33600 10.05900 24.42400
C  2.92900 8.23000 22.13200
C  -0.53900 10.15300 22.57500
C  -0.77500 11.15100 21.53300
N  1.65100 10.66900 27.27800
C  1.63300 11.70600 26.35400
C  2.00200 12.93200 27.00300
C  2.11300 12.59100 28.35800
C  1.90500 11.20300 28.46800
C  2.19300 14.17900 26.17700
C  2.38600 13.12500 29.70800
O  2.61700 14.25100 30.04800
C  2.14200 11.84900 30.68000
C  3.20800 11.84300 31.77200
O  4.37600 11.66600 31.55200
O  2.60500 12.21300 32.95600
C  3.52900 12.22800 34.10200
H  1.67300 5.10700 30.02600
H  1.69400 5.92500 23.59500
H  1.55500 12.22200 24.35400
H  2.81400 9.17300 32.21500
H  1.46200 6.59500 31.88100
H  3.46300 5.73900 32.37900
H  4.23400 7.36700 32.14300
H  4.05500 6.21300 30.84700
H  0.01900 8.24400 32.11200
H  0.18700 9.92600 32.28800
H  -0.23000 8.34900 34.25500
H  0.37300 9.91700 34.44200
H  0.74900 2.16700 27.82800
H  0.90200 3.30000 29.18700
H  2.36900 2.67500 28.42400
H  1.54900 1.37000 24.22700
H  0.31100 1.52200 25.51500
H  1.97500 1.75200 25.97800
H  0.76900 7.80600 22.21300
H  1.57100 10.60000 22.29900
H  3.51300 7.66600 22.86000
H  3.38300 9.21100 21.99500
H  2.81700 7.74100 21.16400
H  -1.20700 10.48100 23.37100
H  -0.91700 9.22200 22.15300
H  -0.51100 10.74000 20.55800
H  -0.32900 12.10400 21.81500
H  -1.85200 11.31700 21.48900
H  1.30200 14.80400 26.10100
H  2.27400 13.93100 25.11900
H  3.12500 14.60900 26.54500
H  1.24600 12.05800 31.26400
H  3.71500 13.26400 34.38500
H  4.52300 11.78600 34.03100
H  3.09300 11.64800 34.91400
Mg 9.17500 4.26100 27.65100
C  10.62400 2.86800 30.43500
C  7.36400 6.38100 29.72900
C  8.04900 5.68800 25.04000
C  10.68500 1.68100 25.68300
N  8.92700 4.45900 29.84600
C  9.72800 3.93000 30.80600
C  9.57200 4.49400 32.17300
C  8.40300 5.56200 31.94200
C  8.11500 5.43700 30.40200
C  7.19100 5.30000 32.87200
C  10.85500 4.94500 32.96700
C  10.74600 5.86200 34.13900
H  11.68500 5.68100 35.32500
N  7.80900 5.74100 27.41200
C  7.20200 6.54100 28.33200
C  6.43700 7.50300 27.68100
C  6.74100 7.42900 26.31200
C  7.58900 6.23900 26.19600
C  5.52000 8.43100 28.37900
C  6.33900 8.36100 25.13900
O  6.55700 8.09100 23.98900
C  5.66400 9.63900 25.40500
N  9.20200 3.66200 25.63700
C  8.67400 4.47300 24.71600
C  8.98100 3.98400 23.22500
C  9.96100 2.82100 23.57300
C  9.88300 2.64800 25.02900
C  7.67700 3.61000 22.40300
C  11.35500 3.27600 22.91300
C  12.11900 2.22200 22.18600
N  10.40000 2.59600 27.94100
C  10.90200 1.63300 27.10600
C  11.68600 0.64800 27.85500
C  11.66600 1.14200 29.17600
C  10.82700 2.29800 29.17200
C  12.36300 -0.54800 27.34000
C  12.17500 1.00800 30.53400
O  13.01300 0.19600 30.93300
C  11.54300 2.12000 31.38100
C  10.86800 1.38800 32.50700
O  9.77900 0.81400 32.51500
O  11.69400 1.46500 33.64400
C  11.26300 1.18700 35.03700
H  6.78900 7.04200 30.38100
H  7.74800 6.12400 24.08600
H  11.20100 0.93800 25.07100
H  9.18000 3.61300 32.67900
H  8.88500 6.52500 32.10800
H  6.35600 4.95500 32.26100
H  6.83700 6.21000 33.35500
H  7.49400 4.68900 33.72200
H  11.38000 5.50600 32.19400
H  11.39000 4.11000 33.41900
H  9.69700 5.84600 34.43500
H  10.95900 6.84300 33.71300
H  5.95100 9.39800 28.63800
H  5.33400 8.10400 29.40200
H  4.57700 8.46100 27.83300
H  5.73400 10.37100 24.60000
H  6.28400 10.04600 26.20300
H  4.62300 9.33100 25.50300
H  9.56000 4.80900 22.80900
H  9.53100 1.92300 23.13100
H  6.85000 4.08100 22.93400
H  7.52500 2.54900 22.20300
H  7.79000 4.06100 21.41700
H  11.97700 3.71200 23.69500
H  11.23400 3.96700 22.07900
H  11.57100 1.28400 22.26700
H  13.06000 2.06400 22.71300
H  12.33100 2.35800 21.12500
H  12.11300 -1.33400 28.05200
H  13.43000 -0.37600 27.19800
H  12.00900 -0.81700 26.34400
H  12.29000 2.83900 31.71900
H  11.80000 1.78800 35.77100
H  11.27300 0.11700 35.24500
H  10.24500 1.50300 35.26800

