158

Mg 48.21600 16.46200 28.18900
C  46.57700 16.49300 31.18100
C  50.73500 18.41400 29.83200
C  50.04000 17.09800 25.22500
C  45.61100 15.39800 26.56700
N  48.48300 17.56400 30.36100
C  47.80300 17.15600 31.42500
C  48.48200 17.53400 32.75800
C  49.60000 18.58100 32.19600
C  49.67300 18.12300 30.72100
C  49.37400 20.09400 32.34900
C  48.93400 16.37000 33.69000
C  48.29500 16.50300 35.12000
H  48.70400 17.64400 36.06600
N  50.12700 17.46700 27.65100
C  51.00200 18.09600 28.45600
C  52.23300 18.54400 27.73100
C  52.08800 18.15400 26.40200
C  50.73100 17.57900 26.39300
C  53.44100 18.97100 28.46600
C  53.01000 18.16100 25.20600
O  52.60200 18.00600 24.05700
C  54.53500 18.49000 25.27800
N  47.95700 16.08400 26.19900
C  48.76600 16.41300 25.11400
C  48.12800 15.83700 23.76400
C  46.77700 15.18400 24.32500
C  46.79500 15.52900 25.78000
C  48.02700 16.92800 22.66600
C  46.43400 13.74200 23.99900
C  45.75800 13.51500 22.66600
N  46.47900 15.97300 28.67300
C  45.43200 15.54000 27.92600
C  44.33800 15.14300 28.77000
C  44.79500 15.46600 30.04500
C  46.04200 16.05700 29.94600
C  42.94400 14.69200 28.29300
C  44.37200 15.46300 31.45800
O  43.34300 15.17200 32.04600
C  45.46100 16.12500 32.29500
C  44.96500 17.34300 33.01500
O  45.00600 18.48500 32.55400
O  44.46900 16.91900 34.23700
C  43.74300 17.87100 35.11700
H  51.48100 19.00100 30.37200
H  50.45400 17.08500 24.21500
H  44.68900 15.18800 26.02100
H  47.76500 18.19000 33.25100
H  50.53800 18.27400 32.65900
H  50.05800 20.44000 33.12400
H  48.33900 20.32800 32.60000
H  49.71900 20.59600 31.44500
H  50.00000 16.46800 33.89500
H  48.85000 15.37400 33.25600
H  48.40400 15.54600 35.63100
H  47.21000 16.48600 35.01700
H  53.14400 19.85200 29.03400
H  54.31500 19.28300 27.89300
H  53.74100 18.20800 29.18400
H  55.06700 18.22100 24.36500
H  54.99500 17.90600 26.07500
H  54.72800 19.54300 25.48100
H  48.77400 15.02100 23.44200
H  46.06400 15.84600 23.83400
H  48.22900 16.52600 21.67300
H  48.76600 17.72200 22.78000
H  47.04400 17.39700 22.63100
H  45.67300 13.43800 24.71900
H  47.34200 13.15600 24.13600
H  46.02400 12.54300 22.25100
H  45.89500 14.33200 21.95700
H  44.69400 13.54400 22.90100
H  42.75200 15.26600 27.38700
H  42.19500 15.06400 28.99300
H  42.70800 13.65300 28.06300
H  45.92900 15.45300 33.01400
H  44.37300 18.15000 35.96200
H  42.76500 17.46100 35.36500
H  43.56300 18.82600 34.62300
Mg 35.66600 48.02300 25.50700
C  36.20400 46.20600 28.47700
C  34.08600 50.47700 27.22700
C  35.31800 49.63800 22.62000
C  37.32100 45.47700 23.78700
N  35.25400 48.31200 27.56900
C  35.59600 47.48400 28.63200
C  35.42300 48.13500 29.98600
C  34.49100 49.34300 29.56600
C  34.59200 49.43500 27.99800
C  32.97000 49.35500 29.98000
C  36.72000 48.64900 30.72400
C  36.64800 48.66100 32.27200
H  35.27600 48.52600 32.91200
N  34.99000 49.88400 24.99300
C  34.31900 50.77200 25.84600
C  33.87800 51.92600 25.12900
C  34.17100 51.72600 23.74700
C  34.78500 50.33200 23.67800
C  33.21000 53.08000 25.82800
C  33.87900 52.70500 22.58700
O  34.24500 52.39200 21.49500
C  33.24800 53.96800 22.84500
N  36.25600 47.58300 23.45500
C  36.02900 48.49200 22.49100
C  36.74900 48.08600 21.15600
C  37.57400 46.88400 21.61700
C  37.06200 46.64600 23.02200
C  35.63100 47.88800 20.06600
C  39.13800 47.12800 21.41800
C  39.90900 46.25900 20.45600
N  36.45000 46.17000 25.91100
C  37.04100 45.21700 25.14100
C  37.33100 44.05400 25.85400
C  37.05300 44.39800 27.22600
C  36.52400 45.71200 27.20200
C  38.03000 42.80000 25.36200
C  37.13800 43.94300 28.61500
O  37.58400 42.91400 29.11100
C  36.57900 45.14000 29.46500
C  35.37200 44.72600 30.25800
O  34.22800 44.67000 29.86900
O  35.79400 44.49900 31.57000
C  34.62300 43.96600 32.38600
H  33.39400 51.05000 27.84800
H  35.14600 50.20600 21.70400
H  37.96300 44.77100 23.25500
H  34.85300 47.46300 30.62800
H  34.76700 50.27900 30.05100
H  32.39500 49.07800 29.09700
H  32.59900 50.32500 30.30900
H  32.70800 48.71000 30.81900
H  36.95500 49.65800 30.38600
H  37.56400 47.99300 30.50800
H  37.13600 49.55600 32.65800
H  37.38400 47.91300 32.56400
H  32.29900 53.41200 25.33000
H  33.78200 54.00700 25.82400
H  32.92400 52.82400 26.84800
H  33.13900 54.42200 21.86100
H  33.89100 54.58400 23.47500
H  32.25200 53.84700 23.27000
H  37.35400 48.94300 20.85900
H  37.28900 45.99700 21.05000
H  34.70100 48.38500 20.34000
H  35.51500 46.80600 20.00500
H  35.91500 48.27300 19.08600
H  39.60900 47.01000 22.39400
H  39.36100 48.16700 21.17400
H  40.61300 45.66700 21.04200
H  40.53900 46.89600 19.83400
H  39.24900 45.59100 19.90400
H  37.26800 42.02600 25.26300
H  38.75200 42.50100 26.12100
H  38.53700 43.04200 24.42800
H  37.38700 45.34000 30.16800
H  34.93100 44.16100 33.41300
H  34.42000 42.89700 32.31400
H  33.70800 44.54900 32.28300

