158

Mg -2.23500 16.36500 26.60500
C  -2.52900 13.76900 29.08300
C  -2.80400 18.65600 28.91200
C  -2.71100 18.58400 24.14800
C  -2.50600 13.66000 24.27200
N  -2.64200 16.16100 28.75400
C  -2.69800 15.10600 29.60500
C  -2.96500 15.55300 31.08200
C  -3.00200 17.11700 30.99300
C  -2.84600 17.38000 29.42900
C  -4.28000 17.85800 31.58800
C  -2.01500 14.90000 32.17700
C  -1.56500 15.76800 33.33300
H  -0.75400 15.16100 34.49300
N  -2.47000 18.34300 26.51900
C  -2.64500 19.14200 27.61200
C  -2.70000 20.56100 27.16600
C  -2.62600 20.57600 25.76000
C  -2.57500 19.11300 25.37600
C  -2.85400 21.66600 28.09800
C  -2.44600 21.76000 24.77800
O  -2.25300 21.60400 23.59800
C  -2.48300 23.13500 25.34200
N  -2.70700 16.12200 24.56100
C  -2.85700 17.23800 23.74000
C  -3.20100 16.87700 22.28900
C  -2.95900 15.29400 22.29900
C  -2.73500 14.99000 23.80400
C  -4.62800 17.43100 21.91200
C  -1.97200 14.75300 21.28600
C  -0.51100 15.13000 21.49200
N  -2.28400 14.13500 26.61400
C  -2.38600 13.24100 25.59900
C  -2.38200 11.89400 26.13200
C  -2.41200 12.05200 27.52600
C  -2.44300 13.46900 27.74300
C  -2.70400 10.66900 25.37500
C  -2.57900 11.35800 28.73700
O  -2.71400 10.15900 28.96100
C  -2.74500 12.44000 29.76500
C  -1.84400 12.04800 30.95500
O  -0.58600 12.06300 30.99200
O  -2.69300 11.65500 31.91900
C  -2.07600 11.22600 33.25800
H  -2.79600 19.43400 29.67800
H  -2.93200 19.34500 23.39700
H  -2.58100 12.93700 23.45700
H  -3.95300 15.15400 31.31300
H  -2.14200 17.58300 31.47500
H  -5.01100 17.14400 31.96800
H  -4.76600 18.54000 30.89000
H  -4.00500 18.46100 32.45300
H  -1.14800 14.40100 31.74400
H  -2.63400 14.15900 32.68300
H  -2.43300 16.20900 33.82200
H  -0.91800 16.53100 32.90000
H  -3.83500 22.02300 27.78600
H  -1.99500 22.28000 27.82600
H  -2.71700 21.40100 29.14700
H  -3.38200 23.34100 25.92200
H  -2.54900 23.83100 24.50500
H  -1.63900 23.15300 26.03100
H  -2.52900 17.31500 21.55000
H  -3.90600 14.80700 22.06700
H  -5.05900 17.68900 22.88000
H  -5.22600 16.62200 21.49200
H  -4.60300 18.30200 21.25700
H  -2.33100 15.19000 20.35400
H  -2.04100 13.66600 21.31600
H  -0.17300 15.75500 20.66600
H  -0.01000 14.18400 21.69800
H  -0.45900 15.70600 22.41600
H  -3.24100 10.83000 24.44000
H  -3.32100 10.08500 26.05700
H  -1.75800 10.19000 25.12400
H  -3.79700 12.41500 30.04800
H  -2.01100 10.13900 33.29300
H  -2.73200 11.57200 34.05700
H  -1.13000 11.74000 33.43000
Mg 41.47600 41.29700 26.56900
C  40.82300 43.71400 29.11700
C  42.31800 39.27000 29.16700
C  42.46300 39.13700 24.26400
C  40.97900 43.73300 24.15800
N  41.69000 41.51500 28.85100
C  41.24800 42.53100 29.68600
C  41.60200 42.22000 31.15400
C  42.05300 40.76500 31.12000
C  41.98200 40.51400 29.59600
C  43.48100 40.53700 31.84100
C  40.32300 42.32000 32.09200
C  40.22200 41.53600 33.47700
H  39.46700 42.18100 34.66900
N  42.31000 39.47500 26.63400
C  42.51300 38.80000 27.83400
C  42.97900 37.44500 27.52500
C  43.07100 37.39100 26.13700
C  42.64000 38.69100 25.63600
C  43.39800 36.36100 28.61100
C  43.63200 36.24500 25.23000
O  43.71500 36.31300 23.98800
C  44.15200 35.07900 25.91500
N  41.86500 41.43600 24.49300
C  42.17300 40.35400 23.67600
C  42.06200 40.67600 22.14700
C  41.36400 42.07700 22.21900
C  41.44800 42.44600 23.71300
C  43.45800 40.65300 21.42000
C  39.86500 42.08600 21.86900
C  38.84000 41.11100 22.58300
N  41.08600 43.28000 26.56600
C  40.85600 44.10900 25.52800
C  40.65300 45.49800 26.04300
C  40.52600 45.32400 27.43600
C  40.78600 43.97200 27.72100
C  40.47600 46.80300 25.31900
C  40.14100 46.02000 28.64700
O  39.86100 47.18400 28.86700
C  40.38400 44.96400 29.74500
C  41.26600 45.43400 30.83400
O  42.48800 45.50500 30.85200
O  40.47000 45.90700 31.82800
C  41.15900 46.67900 32.96900
H  42.49200 38.59700 30.00900
H  43.01000 38.51000 23.55700
H  40.95400 44.50100 23.38200
H  42.37900 42.91300 31.47800
H  41.30400 40.17400 31.64600
H  44.26900 40.49700 31.08900
H  43.49300 39.75600 32.60100
H  43.71600 41.40100 32.46300
H  39.56000 41.93900 31.41400
H  40.14200 43.38100 32.26600
H  41.23600 41.27600 33.77800
H  39.71900 40.61500 33.17900
H  43.28700 36.78300 29.61000
H  44.44100 36.06100 28.51000
H  42.80400 35.44800 28.57400
H  44.86800 35.42800 26.65900
H  44.71000 34.46500 25.20800
H  43.31700 34.60300 26.42800
H  41.45800 39.94200 21.61400
H  41.88800 42.83500 21.63700
H  44.30900 40.34700 22.02900
H  43.64800 41.67800 21.10300
H  43.28000 39.90800 20.64400
H  39.85400 41.80700 20.81600
H  39.39300 43.06700 21.93300
H  37.79700 41.39500 22.72700
H  39.28100 40.62500 23.45300
H  38.78200 40.26600 21.89600
H  39.51800 47.27900 25.52800
H  40.49000 46.72300 24.23200
H  41.32600 47.42800 25.59100
H  39.37800 44.87200 30.15400
H  42.21000 46.93000 32.82900
H  41.13300 45.95200 33.78100
H  40.57700 47.55500 33.25400

