158

Mg 47.15200 16.22700 28.51800
C  45.15900 15.88600 31.34700
C  49.55100 17.89900 30.41700
C  48.94600 16.87500 25.62900
C  44.41900 15.17800 26.62700
N  47.29200 16.74800 30.61500
C  46.38100 16.47400 31.59000
C  46.86600 16.99500 32.93800
C  48.10900 17.78100 32.57300
C  48.39100 17.47500 31.11000
C  48.11100 19.34500 32.84900
C  47.06400 15.76600 33.97400
C  46.34500 15.96900 35.34900
H  46.63400 17.29200 36.18200
N  49.10100 17.09400 28.10700
C  49.92600 17.68300 29.01700
C  51.23700 17.83700 28.39100
C  51.08800 17.61400 27.01700
C  49.65400 17.13800 26.83700
C  52.45500 18.36600 29.24600
C  52.12600 17.78600 25.86400
O  51.93800 17.36200 24.75500
C  53.44600 18.63000 26.09300
N  46.79200 16.06400 26.43300
C  47.64600 16.33400 25.40000
C  46.99500 16.00500 24.00700
C  45.64800 15.27100 24.46800
C  45.56200 15.57300 25.89200
C  46.91200 17.30400 23.18600
C  45.74400 13.71700 24.32100
C  45.55800 13.18600 22.86200
N  45.17300 15.70500 28.86900
C  44.14900 15.25600 28.00700
C  42.92700 14.88500 28.74300
C  43.32100 15.12400 30.05200
C  44.66700 15.55900 30.11500
C  41.63100 14.41300 28.26200
C  42.79400 15.05500 31.36000
O  41.68300 14.83800 31.78600
C  44.05900 15.58000 32.30000
C  43.56900 16.84600 32.95100
O  43.58700 18.00200 32.53900
O  42.94200 16.55100 34.09700
C  42.09400 17.52600 34.84800
H  50.22200 18.40200 31.11600
H  49.40300 17.05500 24.65300
H  43.61300 14.79200 26.00000
H  46.15500 17.70300 33.36400
H  48.99600 17.43800 33.10700
H  48.77700 19.49600 33.69900
H  47.10000 19.64700 33.12500
H  48.49000 19.81300 31.94100
H  48.13500 15.82800 34.16500
H  46.88500 14.75800 33.60000
H  46.53500 15.11600 36.00100
H  45.26200 15.90600 35.24700
H  53.14100 19.00300 28.68800
H  53.07800 17.47800 29.34800
H  52.23100 18.70800 30.25600
H  54.05700 17.95000 26.68600
H  53.24200 19.54800 26.64400
H  53.83000 18.87300 25.10300
H  47.70700 15.29000 23.59400
H  44.83900 15.74400 23.91100
H  45.91000 17.53800 22.82600
H  47.71800 17.25900 22.45400
H  47.15900 18.13200 23.85000
H  44.98800 13.23200 24.93900
H  46.66800 13.30800 24.72800
H  46.42100 12.59100 22.56400
H  45.49400 14.03800 22.18400
H  44.69900 12.53100 22.71900
H  41.44200 14.98100 27.35200
H  40.87600 14.73900 28.97700
H  41.71000 13.33200 28.14200
H  44.29900 14.85400 33.07700
H  41.85200 18.47500 34.37000
H  42.57700 17.79700 35.78600
H  41.24300 16.89300 35.09800
Mg 16.54700 52.55600 26.80700
C  18.39100 50.71400 29.27200
C  14.34700 53.44100 29.19800
C  14.47900 53.43800 24.37100
C  18.83100 51.24200 24.38000
N  16.27300 51.81400 29.00800
C  17.24500 51.31100 29.79300
C  17.04400 51.64800 31.34300
C  15.60000 52.29200 31.22000
C  15.39500 52.56900 29.72700
C  14.51300 51.36300 31.84300
C  18.15400 52.49700 31.89800
C  18.82000 52.11500 33.22700
H  18.27200 52.64800 34.60700
N  14.70100 53.37900 26.74100
C  13.98300 53.76100 27.83100
C  12.77500 54.39100 27.35900
C  12.79000 54.44600 25.95100
C  14.04700 53.73900 25.61700
C  11.70500 54.90700 28.30300
C  11.80400 54.94300 24.93900
O  11.85600 54.65200 23.72000
C  10.62200 55.63400 25.41100
N  16.58600 52.23200 24.69700
C  15.66900 52.79700 23.88600
C  16.12000 52.89500 22.43700
C  17.55400 52.25300 22.50200
C  17.70200 51.84800 23.91400
C  15.10800 52.26600 21.40500
C  18.73400 53.19800 22.02100
C  19.17800 54.33400 23.00300
N  18.23900 51.17100 26.75600
C  19.03700 50.82400 25.72300
C  20.21900 50.16000 26.26400
C  20.01200 50.07500 27.66400
C  18.76700 50.65200 27.88600
C  21.41300 49.63600 25.44100
C  20.53900 49.63800 28.93600
O  21.63100 49.08500 29.12500
C  19.46800 50.13300 30.00100
C  18.90400 48.95500 30.76600
O  18.02000 48.20400 30.30800
O  19.47800 48.86300 31.93800
C  18.77400 48.02900 32.93000
H  13.76800 53.77900 30.06000
H  14.00400 54.02300 23.58100
H  19.71800 51.13700 23.75000
H  16.92000 50.75700 31.95800
H  15.60100 53.19500 31.83100
H  14.17400 51.90500 32.72600
H  14.77400 50.38200 32.24200
H  13.72700 51.23500 31.09900
H  17.79600 53.51100 32.07300
H  18.90500 52.60100 31.11400
H  19.87700 52.34800 33.09900
H  18.81100 51.03200 33.35400
H  11.53300 55.98100 28.23000
H  11.83500 54.60700 29.34300
H  10.71000 54.55900 28.02500
H  10.11000 54.88800 26.02000
H  10.01000 55.95300 24.56800
H  11.08800 56.42600 25.99600
H  16.38400 53.92300 22.18900
H  17.54100 51.28100 22.00800
H  15.11300 51.18200 21.51500
H  15.37500 52.68600 20.43500
H  14.18200 52.65500 21.82900
H  18.32000 53.70400 21.14900
H  19.61500 52.59000 21.81500
H  18.40700 55.10400 22.98500
H  20.08900 54.81200 22.64400
H  19.26100 53.90000 23.99900
H  22.16700 49.22900 26.11400
H  21.89000 50.40100 24.82900
H  21.12400 48.83100 24.76500
H  20.01000 50.74100 30.72500
H  18.66800 48.48700 33.91400
H  19.29700 47.09300 33.12400
H  17.71600 47.78600 32.83000

