158

Mg -2.38400 16.85800 26.56800
C  -2.86000 14.44200 29.09400
C  -3.12800 19.33700 28.99000
C  -2.28200 19.25200 24.06500
C  -2.42600 14.40300 24.22500
N  -3.00700 16.89200 28.81300
C  -2.92800 15.76000 29.62900
C  -3.05100 16.17600 31.12000
C  -3.35900 17.75200 30.98100
C  -3.15400 18.00400 29.51500
C  -4.72500 18.25000 31.45300
C  -1.80800 15.67600 31.97800
C  -1.11700 16.66600 32.97900
H  -0.74400 15.97500 34.38300
N  -2.66100 18.99100 26.51800
C  -2.88300 19.80300 27.62100
C  -2.97800 21.12900 27.16800
C  -2.68600 21.18000 25.74200
C  -2.44700 19.77100 25.38200
C  -3.27600 22.23400 28.11600
C  -2.55900 22.30900 24.76800
O  -2.36900 22.10100 23.55700
C  -2.71400 23.65800 25.30200
N  -2.38900 16.89200 24.51800
C  -2.27100 17.93700 23.62900
C  -2.49100 17.53600 22.14200
C  -2.29700 15.97000 22.24600
C  -2.38200 15.69600 23.79000
C  -3.86700 17.85900 21.42700
C  -0.88800 15.48700 21.75500
C  -0.88400 14.70400 20.47000
N  -2.57500 14.74900 26.65000
C  -2.57000 13.89700 25.56400
C  -2.52800 12.53100 26.08600
C  -2.63700 12.68500 27.51000
C  -2.72000 14.07000 27.75400
C  -2.47900 11.27800 25.22700
C  -2.76300 12.02200 28.70900
O  -2.68200 10.82800 28.98400
C  -2.93900 13.10600 29.83000
C  -1.83200 12.89800 30.72800
O  -0.72000 13.27400 30.63100
O  -2.38600 12.16100 31.79600
C  -1.38700 11.88300 32.85000
H  -3.25700 20.12100 29.73900
H  -2.23400 19.96200 23.23700
H  -2.33200 13.63100 23.45800
H  -3.88200 15.70000 31.64000
H  -2.56300 18.29400 31.49100
H  -5.62800 17.91800 30.94100
H  -4.76200 19.33900 31.47400
H  -4.81000 17.95600 32.49900
H  -1.05400 15.50000 31.21000
H  -2.11400 14.71000 32.38000
H  -1.92400 17.36600 33.19700
H  -0.21600 17.20500 32.68700
H  -2.34500 22.78300 28.25400
H  -3.70200 22.02400 29.09800
H  -4.09800 22.80000 27.67800
H  -3.79000 23.74700 25.44700
H  -2.30900 24.28300 24.50600
H  -2.13700 23.66600 26.22600
H  -1.68500 18.08600 21.65600
H  -3.09100 15.40900 21.75300
H  -4.45800 16.94500 21.36600
H  -3.75000 18.09100 20.36800
H  -4.42400 18.65000 21.92900
H  -0.44100 14.90000 22.55700
H  -0.29400 16.37900 21.55200
H  -0.13100 15.11700 19.79800
H  -1.85600 14.64000 19.98200
H  -0.42800 13.75100 20.73800
H  -2.28900 11.60100 24.20300
H  -3.47600 10.84800 25.12400
H  -1.89600 10.46500 25.65900
H  -3.89400 13.11100 30.35400
H  -0.85300 10.98200 32.54800
H  -1.93500 11.70600 33.77600
H  -0.76700 12.71100 33.19200
Mg 17.59900 -1.76300 27.30800
C  16.26800 0.34300 29.78000
C  19.30400 -3.52100 29.63500
C  19.03000 -3.48400 24.79400
C  15.87500 0.27100 24.94200
N  17.91100 -1.40700 29.43800
C  17.16100 -0.61400 30.26800
C  17.40800 -1.01600 31.72600
C  18.62200 -2.09100 31.65400
C  18.63100 -2.38300 30.11600
C  20.02900 -1.66300 32.22800
C  16.07700 -1.54800 32.48500
C  15.84600 -0.88400 33.85200
H  17.02000 -0.14000 34.53400
N  18.92000 -3.40100 27.23000
C  19.46800 -3.98900 28.28000
C  20.21000 -5.22800 27.81600
C  20.20200 -5.16700 26.46300
C  19.39600 -3.98900 26.06700
C  20.99800 -6.21400 28.79700
C  20.86900 -6.06200 25.48100
O  20.96200 -5.84100 24.30700
C  21.44700 -7.32600 25.93400
N  17.46500 -1.65500 25.27200
C  18.19800 -2.44000 24.41200
C  18.03000 -1.95400 22.96400
C  16.99900 -0.87000 23.04600
C  16.70500 -0.76100 24.49800
C  19.38900 -1.51200 22.30100
C  15.76800 -1.01200 22.13600
C  14.35700 -1.43500 22.62700
N  16.26000 0.00900 27.26500
C  15.50800 0.61600 26.27700
C  14.64000 1.56000 26.79100
C  14.91500 1.53000 28.16500
C  15.89800 0.53300 28.40600
C  13.54200 2.28300 25.94800
C  14.56000 2.10200 29.46000
O  13.76400 3.02300 29.76700
C  15.36300 1.30800 30.52500
C  16.05200 2.27900 31.43700
O  17.04100 2.90300 31.15400
O  15.37000 2.39000 32.56600
C  15.83200 3.49200 33.47600
H  19.65000 -4.19300 30.42300
H  19.48100 -4.01500 23.95300
H  15.24000 0.83600 24.25700
H  17.68000 -0.01400 32.05800
H  18.24500 -2.94100 32.22300
H  20.53200 -2.41800 32.83200
H  19.99300 -0.65200 32.63600
H  20.66300 -1.73100 31.34500
H  16.11100 -2.58400 32.82200
H  15.19900 -1.39300 31.85800
H  15.55400 -1.63400 34.58700
H  15.02200 -0.18900 33.68600
H  22.07900 -6.21300 28.66100
H  20.70800 -7.26500 28.78000
H  20.80400 -5.92200 29.82900
H  22.48600 -7.24700 26.25300
H  21.40200 -8.03200 25.10500
H  20.76700 -7.91200 26.55300
H  17.71600 -2.81600 22.37500
H  17.39600 0.12300 22.83600
H  20.21500 -2.01200 22.80500
H  19.40900 -0.43900 22.49200
H  19.45200 -1.67300 21.22500
H  16.03800 -1.71300 21.34600
H  15.59600 -0.01900 21.72200
H  13.77200 -0.55900 22.90700
H  14.49400 -1.96200 23.57200
H  13.96500 -2.19000 21.94500
H  13.22500 1.57500 25.18300
H  13.99900 3.15200 25.47500
H  12.74500 2.65400 26.59300
H  14.64000 0.70500 31.07400
H  16.11400 4.41700 32.97400
H  16.65600 3.17000 34.11200
H  14.94900 3.60900 34.10500

