158

Mg 25.97700 0.16900 29.79300
C  27.82300 -0.09200 32.73600
C  23.13100 0.65600 31.54300
C  24.29100 -0.06300 26.92100
C  28.97300 -0.73100 27.93300
N  25.55900 0.08300 31.92600
C  26.47200 0.14900 33.01600
C  25.78300 0.38600 34.35000
C  24.23700 0.50600 33.98800
C  24.30000 0.45000 32.36100
C  23.44300 -0.67300 34.57600
C  26.42200 1.62300 35.13500
C  26.85200 1.29100 36.55500
H  26.76400 2.34700 37.56900
N  23.99700 0.20600 29.31300
C  22.95600 0.44500 30.14700
C  21.69500 0.39700 29.42600
C  22.06300 0.26400 28.02600
C  23.52200 0.11200 28.06100
C  20.34900 0.79300 30.00600
C  21.13300 0.26200 26.81500
O  21.52900 0.30200 25.62800
C  19.61800 0.36100 27.00100
N  26.48000 -0.41700 27.72900
C  25.66000 -0.20400 26.74600
C  26.20500 -0.32300 25.35100
C  27.73100 -0.42400 25.66900
C  27.75000 -0.53000 27.16800
C  25.67800 -1.60700 24.61200
C  28.49400 0.80900 25.10900
C  29.84200 0.59700 24.43900
N  28.05000 -0.20100 30.15600
C  29.08400 -0.55700 29.33100
C  30.22900 -0.74700 30.19800
C  29.82300 -0.49500 31.47700
C  28.47400 -0.22500 31.45300
C  31.64100 -1.25900 29.89200
C  30.34100 -0.38200 32.87100
O  31.45800 -0.57100 33.33700
C  29.01100 -0.13900 33.75200
C  28.78300 -1.27000 34.71700
O  27.87900 -2.12200 34.62000
O  29.60100 -1.12600 35.82600
C  29.19100 -2.02200 37.02400
H  22.21300 0.84900 32.10200
H  23.72600 -0.04200 25.98700
H  29.95000 -0.90100 27.47700
H  25.77700 -0.53900 34.92700
H  23.84300 1.46400 34.33000
H  23.45700 -1.47700 33.84000
H  22.41300 -0.33300 34.68500
H  23.83900 -1.11800 35.48800
H  25.67100 2.41200 35.15000
H  27.24400 2.00100 34.52700
H  27.91300 1.04300 36.51700
H  26.45900 0.35700 36.95700
H  20.08700 1.69200 29.45000
H  20.27700 0.98700 31.07600
H  19.64800 -0.00700 29.76500
H  19.05700 0.29900 26.06900
H  19.35900 1.25600 27.56700
H  19.26800 -0.47500 27.60800
H  25.91100 0.62700 24.90600
H  28.11700 -1.37000 25.28900
H  25.03000 -2.18100 25.27500
H  26.46300 -2.29500 24.29900
H  25.22000 -1.40000 23.64500
H  28.53400 1.59400 25.86300
H  27.83000 1.23100 24.35400
H  30.54000 1.38000 24.73300
H  29.63800 0.58300 23.36900
H  30.21100 -0.39500 24.69900
H  32.35500 -0.50800 29.55400
H  31.51700 -1.97300 29.07800
H  31.99300 -1.78300 30.78100
H  29.17600 0.70400 34.42300
H  28.61700 -2.92500 36.81300
H  28.65500 -1.46100 37.79000
H  30.11200 -2.25700 37.55800
Mg 46.88700 16.29900 28.79200
C  44.83100 15.62500 31.52400
C  49.04900 17.73900 31.05600
C  48.63300 17.56700 26.15700
C  44.52600 15.03800 26.68300
N  46.96800 16.58800 31.04800
C  46.05800 16.21300 31.93700
C  46.40100 16.54800 33.38300
C  47.60300 17.52700 33.18200
C  47.92200 17.24500 31.70400
C  47.17800 19.01400 33.38200
C  46.69800 15.31500 34.19900
C  46.38600 15.43800 35.72900
H  46.10800 16.79200 36.47300
N  48.62800 17.40900 28.68100
C  49.49400 17.77900 29.70100
C  50.79300 18.22600 29.08800
C  50.56900 18.36600 27.67500
C  49.22700 17.77900 27.43800
C  51.81900 18.82200 29.98600
C  51.60200 18.69700 26.59000
O  51.28700 18.73100 25.38300
C  53.06000 18.73900 27.02300
N  46.48200 16.49500 26.74700
C  47.35000 17.01200 25.83100
C  47.05900 16.52800 24.38300
C  45.80100 15.68600 24.60500
C  45.55200 15.77700 26.07600
C  47.03400 17.70000 23.35200
C  45.92900 14.29200 23.86800
C  46.12800 13.06000 24.78400
N  45.03000 15.52200 28.95100
C  44.23400 14.91900 28.04700
C  43.12500 14.20400 28.66500
C  43.27800 14.59800 29.96500
C  44.45900 15.34500 30.13100
C  41.97800 13.37700 28.04000
C  42.64100 14.44300 31.28400
O  41.62500 13.78300 31.63600
C  43.56600 15.15500 32.28000
C  42.78100 16.34900 32.71300
O  42.10700 17.12400 32.02300
O  42.89900 16.42700 34.09200
C  42.36000 17.70900 34.66200
H  49.64400 18.31900 31.76500
H  49.24500 17.70500 25.26300
H  43.90500 14.48100 25.97900
H  45.53900 17.02500 33.84900
H  48.44800 17.16900 33.77000
H  46.14800 19.28300 33.61400
H  47.50100 19.67700 32.58000
H  47.66700 19.28800 34.31700
H  47.74100 15.04600 34.03100
H  46.14500 14.40000 33.98900
H  47.21600 14.92900 36.22000
H  45.48000 14.94900 36.08700
H  52.79600 18.34100 29.95300
H  51.53400 18.83700 31.03800
H  51.86400 19.88300 29.74100
H  53.55700 18.69600 26.05400
H  53.23500 17.88800 27.68200
H  53.18500 19.65400 27.60100
H  47.93100 15.94500 24.08800
H  44.95900 16.17500 24.11300
H  47.66900 17.42000 22.51100
H  47.45900 18.57600 23.84200
H  45.96900 17.83600 23.16300
H  46.73700 14.27400 23.13700
H  45.03100 14.02400 23.31100
H  46.93400 13.29800 25.47900
H  46.55000 12.29100 24.13700
H  45.15100 12.74500 25.15000
H  42.33800 13.04500 27.06600
H  41.14500 14.02900 27.77600
H  41.74200 12.56200 28.72500
H  43.91000 14.54800 33.11800
H  42.63600 18.59400 34.08800
H  42.68800 17.81200 35.69600
H  41.27300 17.69900 34.73600

