158

Mg 35.58400 1.87000 29.97500
C  33.18400 2.91400 32.39900
C  37.96100 1.69500 32.57400
C  37.90900 1.24100 27.68200
C  33.17200 2.28100 27.43200
N  35.63400 2.35100 32.18400
C  34.50900 2.65900 32.94800
C  34.90600 2.75200 34.44400
C  36.47200 2.52300 34.44300
C  36.69100 2.10200 32.95300
C  37.38400 3.67600 34.86400
C  34.09500 1.69900 35.27800
C  33.18600 2.23600 36.50300
H  33.97900 3.33700 37.38300
N  37.75900 1.64300 30.05500
C  38.48100 1.49000 31.21000
C  39.86200 1.08400 30.82800
C  39.79800 0.89800 29.39400
C  38.44200 1.19200 28.96100
C  40.97900 0.88400 31.95900
C  40.89000 0.37100 28.47500
O  40.64700 0.07200 27.31700
C  42.33500 0.14200 28.95900
N  35.60400 2.01600 27.92000
C  36.67400 1.68800 27.17400
C  36.38800 1.77900 25.65400
C  34.89300 1.85800 25.56700
C  34.54900 2.08500 27.04100
C  37.15600 2.95800 24.96000
C  34.15100 0.60000 25.09500
C  32.96500 0.79500 24.16300
N  33.50800 2.28800 29.92900
C  32.68900 2.47100 28.78100
C  31.33600 2.75800 29.35200
C  31.54000 3.08200 30.75900
C  32.80500 2.63300 31.06500
C  30.16700 2.99000 28.46400
C  31.02900 3.56400 31.93100
O  29.93100 4.02300 32.18100
C  32.01500 3.39100 33.07500
C  32.14200 4.68000 33.77200
O  32.68000 5.66700 33.41100
O  31.40400 4.55600 34.86500
C  31.28700 5.72900 35.77300
H  38.60900 1.49000 33.42800
H  38.49800 0.94800 26.81000
H  32.39900 2.48500 26.68800
H  34.65000 3.73700 34.83300
H  36.68400 1.67900 35.09900
H  36.79300 4.50800 35.24800
H  37.89000 4.11000 34.00000
H  38.02300 3.43100 35.71200
H  34.70100 0.86200 35.62300
H  33.39700 1.22600 34.58700
H  32.71600 1.47300 37.12300
H  32.34600 2.73500 36.02000
H  40.66500 0.99900 32.99700
H  41.73300 1.64700 31.76800
H  41.45300 -0.09800 31.96700
H  42.65600 0.99200 29.56100
H  42.93000 -0.13400 28.08800
H  42.22800 -0.73200 29.60100
H  36.85500 0.86200 25.29300
H  34.52400 2.67800 24.95000
H  37.97900 2.69900 24.29400
H  37.42100 3.74300 25.66800
H  36.45700 3.38000 24.23900
H  33.91300 0.05000 26.00500
H  34.78300 -0.07900 24.52200
H  32.95400 1.80500 23.75400
H  32.13400 0.68400 24.86000
H  32.83700 0.17600 23.27400
H  29.33600 3.62500 28.77200
H  29.60600 2.09100 28.21100
H  30.51200 3.54200 27.59000
H  31.70600 2.59000 33.74600
H  30.42100 6.23200 35.34100
H  32.20200 6.32100 35.80300
H  31.01800 5.23300 36.70500
Mg 29.25100 58.46000 40.94700
C  26.16000 56.97000 40.00200
C  30.78700 55.79900 39.70900
C  32.03300 60.32800 41.07600
C  27.28700 61.38200 41.75800
N  28.48200 56.65600 39.82200
C  27.23800 56.15300 39.68800
C  27.29000 54.75300 39.15700
C  28.76800 54.34700 39.32000
C  29.40400 55.71200 39.64100
C  29.03400 53.28400 40.40800
C  26.86900 54.63300 37.70800
C  27.77900 55.27200 36.62400
H  27.06200 56.07800 35.58800
N  31.14400 58.08800 40.58800
C  31.60700 56.89800 40.10500
C  33.08300 56.93200 40.12400
C  33.38700 58.32500 40.24800
C  32.14000 59.02400 40.59800
C  34.02500 55.77000 39.83400
C  34.79200 58.90500 40.00100
O  35.72500 58.17600 39.70800
C  35.01900 60.38300 40.00400
N  29.57500 60.53000 41.32900
C  30.86300 61.03500 41.32900
C  30.80000 62.53000 41.72200
C  29.29500 62.84000 42.08200
C  28.66500 61.51100 41.67400
C  31.75700 62.88000 42.89800
C  28.75600 64.09200 41.31100
C  27.92300 65.02700 42.12000
N  27.13100 59.01600 40.99000
C  26.56700 60.22900 41.35300
C  25.13500 60.09100 41.33000
C  24.90500 58.79900 40.84100
C  26.19000 58.25100 40.53900
C  24.12500 61.03300 41.81500
C  23.92500 57.82600 40.59800
O  22.70700 57.85700 40.77100
C  24.68800 56.61500 40.00500
C  24.37800 55.34100 40.84400
O  24.72600 55.15900 42.00700
O  23.76300 54.37900 40.13200
C  23.36600 53.16800 40.76800
H  31.30300 54.87000 39.45500
H  32.92500 60.93200 41.25500
H  26.64900 62.22400 42.03500
H  26.55100 54.20000 39.73600
H  29.24300 53.95600 38.42100
H  28.05800 52.95200 40.76200
H  29.66900 53.70900 41.18500
H  29.50800 52.35200 40.09900
H  25.88600 55.10100 37.66900
H  26.81400 53.56300 37.51000
H  28.42600 54.52400 36.16700
H  28.46800 56.03000 36.99700
H  34.98000 55.88000 40.34700
H  34.19700 55.36500 38.83600
H  33.51700 55.07600 40.50400
H  34.99000 60.79500 41.01300
H  34.28300 60.87000 39.36400
H  36.01700 60.56500 39.60500
H  31.08200 63.11500 40.84600
H  29.09800 62.81600 43.15400
H  31.27900 63.43300 43.70800
H  32.62500 63.45200 42.57100
H  32.18900 61.95900 43.28800
H  28.13400 63.82800 40.45500
H  29.53700 64.72900 40.89700
H  28.52900 65.68200 42.74600
H  27.30900 64.40600 42.77200
H  27.19700 65.60800 41.55300
H  24.52400 61.95100 42.24500
H  23.52700 60.43100 42.49800
H  23.62900 61.36400 40.90200
H  24.49400 56.51200 38.93700
H  22.96200 52.54800 39.96800
H  22.63800 53.43200 41.53400
H  24.23200 52.58000 41.07600

