158

Mg 16.33800 -1.05900 27.40800
C  15.42200 1.04800 29.92400
C  18.22600 -2.89300 29.60600
C  17.43300 -2.91900 24.89600
C  14.76600 1.10500 25.15300
N  16.93000 -0.81600 29.49400
C  16.23200 -0.00900 30.31300
C  16.60100 -0.33000 31.76700
C  17.71800 -1.45800 31.63000
C  17.70000 -1.70500 30.12400
C  19.10000 -1.14000 32.20800
C  15.40900 -0.63500 32.77700
C  15.40900 -0.03600 34.19200
H  16.82500 0.31900 34.80300
N  17.75200 -2.70400 27.29100
C  18.28200 -3.41100 28.30300
C  18.99300 -4.56300 27.76700
C  18.79700 -4.51500 26.38000
C  17.97100 -3.34900 26.13700
C  19.73600 -5.51200 28.65000
C  19.48100 -5.38700 25.32400
O  19.25600 -5.25600 24.14400
C  20.52400 -6.35100 25.78900
N  15.97100 -1.05900 25.31000
C  16.68300 -1.83900 24.45200
C  16.53900 -1.51100 22.97400
C  15.66000 -0.23900 23.06000
C  15.35700 -0.03000 24.58500
C  17.93000 -1.16700 22.34000
C  14.31700 -0.44200 22.28000
C  14.15600 0.71800 21.26600
N  15.04100 0.53700 27.47400
C  14.55000 1.38300 26.49200
C  14.02100 2.58000 27.12100
C  14.25600 2.41400 28.44800
C  14.95000 1.23500 28.65300
C  13.30400 3.67800 26.41200
C  14.13500 3.05100 29.71200
O  13.61500 4.07000 29.98900
C  14.74100 2.12700 30.80300
C  15.59700 2.87800 31.68400
O  16.80700 3.17800 31.54500
O  14.92800 3.22000 32.82900
C  15.56000 3.84000 34.02600
H  18.89100 -3.34500 30.34500
H  17.86000 -3.45400 24.04500
H  14.40300 1.83000 24.42200
H  17.21600 0.50000 32.11400
H  17.31000 -2.37200 32.06100
H  19.86800 -1.06400 31.43800
H  19.49200 -1.88700 32.89800
H  19.02000 -0.24700 32.82800
H  15.35300 -1.69200 33.03700
H  14.51000 -0.35100 32.22900
H  14.99600 -0.77500 34.87900
H  14.83100 0.88800 34.16500
H  20.75300 -5.16200 28.82700
H  19.71400 -6.55000 28.31800
H  19.36400 -5.41800 29.67000
H  21.11900 -6.69200 24.94200
H  20.04000 -7.24500 26.18400
H  21.10600 -5.75600 26.49300
H  16.08300 -2.34600 22.44200
H  16.25700 0.59200 22.68400
H  18.82300 -1.62900 22.76200
H  18.16300 -0.11600 22.51100
H  17.89900 -1.41900 21.28000
H  13.48400 -0.48100 22.98200
H  14.35400 -1.41800 21.79600
H  14.98700 0.97300 20.60900
H  13.78900 1.59800 21.79400
H  13.35000 0.45100 20.58200
H  12.30700 3.36200 26.10500
H  13.80700 4.09600 25.54000
H  13.22500 4.50900 27.11300
H  13.87200 1.71700 31.31800
H  15.41500 3.25400 34.93400
H  15.02400 4.73100 34.35100
H  16.62500 4.04700 33.92300
Mg -1.85400 33.65000 27.75100
C  -3.59400 32.02700 30.42400
C  -0.55200 35.88400 30.29800
C  -0.25600 35.27400 25.40500
C  -3.51700 31.69900 25.40600
N  -2.15200 33.99700 30.04100
C  -2.82700 33.09600 30.89400
C  -2.82900 33.63800 32.36800
C  -1.85300 34.89300 32.31300
C  -1.46700 34.88100 30.78600
C  -2.57300 36.28300 32.60800
C  -2.37400 32.49000 33.37300
C  -3.37600 32.18400 34.55100
H  -2.83300 32.23700 35.97900
N  -0.68600 35.36500 27.80400
C  -0.15800 36.12500 28.94300
C  0.83400 37.00400 28.40200
C  0.94700 36.81900 27.02300
C  -0.07000 35.79900 26.70600
C  1.64700 37.88100 29.33500
C  1.87300 37.46400 26.03100
O  1.87700 37.17800 24.89300
C  3.01400 38.22400 26.56000
N  -2.13400 33.56000 25.64500
C  -1.20400 34.30000 24.92300
C  -1.49400 34.05900 23.42800
C  -2.47900 32.83900 23.38200
C  -2.83400 32.71500 24.86100
C  -1.99300 35.24100 22.68000
C  -1.91500 31.50600 22.82900
C  -0.69900 30.95000 23.63900
N  -3.14300 32.10000 27.84600
C  -3.67400 31.38900 26.77300
C  -4.47800 30.36600 27.31700
C  -4.49700 30.55200 28.75200
C  -3.65500 31.62400 29.01300
C  -5.40700 29.46700 26.55600
C  -4.97900 30.02800 30.02900
O  -5.61200 29.02400 30.33900
C  -4.39200 30.96200 31.14300
C  -5.51900 31.58600 31.87000
O  -6.06100 32.63900 31.53500
O  -5.85000 30.77700 32.96600
C  -6.88500 31.35200 33.77900
H  -0.03600 36.50400 31.03500
H  0.30200 35.50600 24.49500
H  -4.18700 31.28900 24.64600
H  -3.84600 34.00400 32.51400
H  -1.06200 34.86700 33.06200
H  -3.41500 36.12800 33.28300
H  -3.04400 36.80300 31.77400
H  -1.83400 36.88900 33.13200
H  -1.39400 32.78300 33.75000
H  -2.27000 31.56800 32.80000
H  -3.56200 31.11200 34.49600
H  -4.26900 32.80600 34.49200
H  2.57800 37.32100 29.42900
H  1.24800 37.99500 30.34300
H  1.87800 38.91100 29.06600
H  3.72900 38.43400 25.76600
H  3.55700 37.62500 27.29200
H  2.68500 39.10400 27.11500
H  -0.59700 33.71600 22.91200
H  -3.32300 33.17600 22.77900
H  -1.67300 36.07600 23.30300
H  -3.07300 35.28800 22.54400
H  -1.62300 35.22500 21.65500
H  -1.61300 31.62500 21.78800
H  -2.68700 30.73900 22.88900
H  0.27200 31.08100 23.16100
H  -0.85100 29.87000 23.62900
H  -0.50200 31.28700 24.65600
H  -5.15400 29.17900 25.53600
H  -6.36300 29.98600 26.63300
H  -5.53000 28.58400 27.18300
H  -3.73400 30.33600 31.74600
H  -7.84600 30.88200 33.57100
H  -7.08000 32.40300 33.56000
H  -6.57900 31.38300 34.82400

