158

Mg 45.20100 4.69900 46.50700
C  42.96900 7.45500 46.58600
C  42.26800 2.74000 46.13900
C  47.13400 2.10200 45.71100
C  47.85600 6.95100 46.06000
N  42.85600 5.09500 46.33600
C  42.25500 6.30200 46.45800
C  40.69800 6.18200 46.32300
C  40.48500 4.65000 46.36700
C  41.97700 4.10800 46.35700
C  39.59300 4.09600 47.51700
C  40.03300 6.94800 45.08300
C  40.81300 6.77500 43.77500
H  40.11000 6.23700 42.50600
N  44.71200 2.69100 45.95100
C  43.47600 2.09000 45.92300
C  43.73300 0.64800 45.87100
C  45.08600 0.48100 45.44200
C  45.73400 1.81700 45.67500
C  42.61100 -0.32400 45.70500
C  45.76800 -0.76400 44.92900
O  45.19900 -1.84200 44.87500
C  47.12100 -0.76600 44.30600
N  47.20300 4.59000 45.93500
C  47.82600 3.39000 45.77500
C  49.33400 3.53100 45.47600
C  49.50100 5.10800 45.63700
C  48.09600 5.61800 45.85300
C  50.39400 2.75800 46.32800
C  50.23400 5.85600 44.45700
C  49.39200 5.96500 43.18800
N  45.41900 6.72800 46.43500
C  46.58200 7.55200 46.32100
C  46.16900 8.94200 46.62400
C  44.80500 8.93000 46.67700
C  44.36000 7.57900 46.57400
C  47.06800 10.17400 46.55100
C  43.71200 9.78900 46.83000
O  43.54200 11.01200 46.86600
C  42.40100 8.80800 46.77600
C  41.71100 8.88800 48.12200
O  41.94800 8.14800 49.08800
O  40.67000 9.79300 48.01200
C  39.83300 10.00000 49.20700
H  41.38400 2.10900 46.25300
H  47.75700 1.20600 45.67900
H  48.70000 7.64100 46.00100
H  40.39800 6.73500 47.21300
H  40.04700 4.30500 45.43000
H  38.85700 3.37200 47.16600
H  38.95800 4.91000 47.86600
H  40.20100 3.62800 48.29100
H  39.98400 8.01300 45.31300
H  38.96400 6.73700 45.11100
H  41.60200 6.03500 43.90800
H  41.27300 7.71500 43.47000
H  42.39800 -0.95300 46.56900
H  42.79200 -1.02600 44.89100
H  41.63900 0.15900 45.60800
H  47.85200 -0.90400 45.10300
H  47.20200 0.11100 43.66300
H  47.24400 -1.61600 43.63600
H  49.46700 3.15300 44.46300
H  49.98600 5.29700 46.59400
H  49.92600 2.37200 47.23300
H  51.25700 3.38200 46.56300
H  50.85700 1.94200 45.77400
H  51.11800 5.34000 44.08200
H  50.55600 6.87300 44.67900
H  49.98800 5.46000 42.42700
H  49.17500 6.92800 42.72800
H  48.41600 5.49700 43.31200
H  46.67500 11.19000 46.58300
H  47.60000 10.30100 45.60800
H  47.76400 10.23600 47.38800
H  41.71500 9.15100 46.00100
H  39.97000 9.06400 49.74700
H  38.84700 10.39900 48.96600
H  40.35700 10.76200 49.78300
Mg 55.32800 24.66000 45.66200
C  52.52300 26.31600 44.54700
C  53.93600 21.71400 44.78300
C  58.37700 23.23800 46.08600
C  56.63200 27.76800 46.59900
N  53.46600 24.12500 44.73400
C  52.54300 24.94500 44.26900
C  51.32200 24.20400 43.81800
C  51.64500 22.71200 44.30700
C  53.11000 22.79300 44.62500
C  50.70300 22.33900 45.58300
C  51.28500 24.23600 42.21900
C  49.84800 24.01900 41.63000
H  49.59700 22.91600 40.58900
N  56.00800 22.70700 45.62700
C  55.28500 21.64700 45.24500
C  56.11100 20.45800 45.22400
C  57.39900 20.89400 45.62500
C  57.34700 22.36700 45.87200
C  55.55200 19.05100 44.78400
C  58.55900 19.92900 45.89200
O  58.54800 18.73400 45.47400
C  59.89700 20.32200 46.46500
N  57.26300 25.44700 46.04200
C  58.35800 24.64200 46.35500
C  59.59900 25.48800 46.65400
C  58.94400 26.89100 46.97600
C  57.49300 26.72200 46.53800
C  60.61000 24.96500 47.82300
C  59.80200 28.10600 46.54500
C  59.56600 28.72800 45.22600
N  54.68500 26.70900 45.67300
C  55.27100 27.80800 46.17400
C  54.32700 28.93600 46.14600
C  53.19000 28.40900 45.47600
C  53.51000 27.12100 45.17200
C  54.49500 30.30000 46.71600
C  51.80500 28.63100 45.01600
O  51.04400 29.59800 45.04800
C  51.31600 27.31800 44.28700
C  50.99700 27.58400 42.83900
O  51.80500 27.85800 41.90800
O  49.72500 27.33300 42.63400
C  49.20100 27.55000 41.24900
H  53.43600 20.82800 44.38700
H  59.35000 22.74600 46.03000
H  57.12300 28.69600 46.89900
H  50.45600 24.64300 44.31300
H  51.51500 22.01000 43.48300
H  50.16700 21.44400 45.26500
H  50.09800 23.17600 45.93000
H  51.29400 22.11700 46.47100
H  51.81400 23.43200 41.70700
H  51.70000 25.16100 41.81900
H  49.41300 24.89600 41.15000
H  49.25300 23.73500 42.49800
H  56.16600 18.19800 45.07100
H  55.53200 18.98500 43.69600
H  54.54200 18.85900 45.14600
H  60.42400 20.90100 45.70700
H  60.48600 19.46200 46.78400
H  59.63500 20.93700 47.32600
H  60.14200 25.44000 45.71000
H  58.79500 26.92100 48.05500
H  60.46900 24.01400 48.33500
H  60.64300 25.72900 48.60000
H  61.62100 25.01600 47.41800
H  60.80200 27.67200 46.52900
H  59.65500 28.75200 47.41100
H  58.75800 28.38400 44.58000
H  60.46100 28.54700 44.63100
H  59.35500 29.79500 45.29700
H  54.21900 31.06200 45.98800
H  55.56300 30.45200 46.87600
H  54.01100 30.35800 47.69100
H  50.39600 27.02300 44.79100
H  49.25100 28.59300 40.93800
H  48.12500 27.38000 41.21100
H  49.68200 26.95000 40.47600

