158

Mg 46.88500 16.29000 29.25200
C  44.69900 15.77400 31.97600
C  49.01700 17.90800 31.39000
C  48.75200 17.04100 26.63700
C  44.42800 15.07000 27.22400
N  46.73900 16.86700 31.39100
C  45.87200 16.44900 32.33900
C  46.31600 16.73400 33.73800
C  47.53100 17.68900 33.47200
C  47.76200 17.55600 31.95900
C  47.47500 19.12100 34.03700
C  46.55300 15.43500 34.60000
C  46.23700 15.50300 36.15000
H  45.93200 16.82500 36.87200
N  48.67200 17.22000 29.08200
C  49.47200 17.71400 30.05400
C  50.79100 18.03700 29.54400
C  50.80600 17.79600 28.21800
C  49.36400 17.35400 27.88000
C  51.92000 18.64500 30.52800
C  51.89700 17.94900 27.14600
O  51.81300 17.68700 25.97000
C  53.23000 18.21200 27.65500
N  46.53300 16.17100 27.26000
C  47.44900 16.57000 26.37900
C  46.95300 16.50100 24.91400
C  45.61200 15.77800 25.02700
C  45.52500 15.58400 26.59100
C  46.83400 17.75400 24.02800
C  45.29900 14.57300 24.05300
C  45.63600 13.04500 24.52800
N  44.91700 15.48200 29.54700
C  44.05700 15.00200 28.59400
C  42.91600 14.48600 29.22500
C  43.16800 14.73400 30.59800
C  44.30300 15.38400 30.72200
C  41.72800 13.88100 28.57400
C  42.60300 14.53300 31.96300
O  41.60900 14.02800 32.39800
C  43.48000 15.36400 32.84900
C  42.76400 16.49800 33.38700
O  42.81400 17.68900 32.94100
O  42.10900 16.12300 34.50900
C  41.67100 17.21700 35.32700
H  49.74100 18.33300 32.08800
H  49.36800 17.19300 25.74900
H  43.68000 14.66200 26.54100
H  45.59400 17.44500 34.14000
H  48.46600 17.29000 33.86600
H  46.42800 19.42400 34.04600
H  48.05700 19.73000 33.34500
H  47.94600 19.21200 35.01600
H  47.62800 15.26600 34.54300
H  46.02600 14.61300 34.11500
H  46.96400 14.91800 36.71400
H  45.34000 14.88900 36.22900
H  51.64200 18.56800 31.58000
H  52.18100 19.64000 30.16700
H  52.79600 18.01000 30.40300
H  53.94800 18.36900 26.85100
H  53.60300 17.43800 28.32600
H  53.25800 19.09900 28.28800
H  47.51700 15.71600 24.41000
H  44.75000 16.40700 24.80700
H  47.37500 18.57400 24.50100
H  45.79800 18.07900 23.93200
H  47.24400 17.71400 23.01900
H  46.04000 14.72100 23.26800
H  44.25200 14.67500 23.76600
H  44.73900 12.44000 24.40100
H  45.94100 12.79300 25.54400
H  46.45600 12.63000 23.94100
H  41.43800 12.84200 28.73000
H  41.79700 14.08600 27.50500
H  40.86100 14.38900 28.99700
H  43.74200 14.65200 33.63100
H  40.70300 17.54900 34.95200
H  42.42800 17.98900 35.46500
H  41.44400 16.83200 36.32100
Mg 36.46400 48.83300 24.41600
C  36.38400 47.00900 27.36100
C  35.44600 51.54500 26.32000
C  35.82400 50.37200 21.46300
C  37.76100 46.12400 22.72800
N  35.82300 49.19200 26.63500
C  36.02100 48.31300 27.65600
C  36.02100 48.96800 29.03200
C  35.51400 50.41300 28.64900
C  35.65600 50.39800 27.11700
C  34.10600 50.69900 29.14500
C  37.45900 49.07800 29.76300
C  37.50700 48.83900 31.31800
H  36.07700 48.78000 32.00400
N  35.80900 50.68000 23.97200
C  35.37200 51.62700 24.87000
C  35.01300 52.81900 24.05400
C  34.96600 52.48600 22.65700
C  35.51800 51.10300 22.65600
C  34.70500 54.16600 24.65800
C  34.71100 53.34600 21.36200
O  34.69100 52.89600 20.20200
C  34.36500 54.83200 21.49100
N  36.74100 48.35100 22.34100
C  36.41200 49.13700 21.26500
C  36.86200 48.48100 19.89900
C  37.72000 47.19800 20.35600
C  37.42900 47.20600 21.90100
C  35.63500 48.16000 18.99100
C  39.31200 47.54000 20.20800
C  40.25800 46.39700 19.77600
N  36.90600 46.93300 24.88200
C  37.40800 45.86800 24.04900
C  37.51100 44.71300 24.82500
C  37.14800 45.08100 26.15300
C  36.80800 46.45700 26.12200
C  38.19700 43.34700 24.37300
C  37.03100 44.61300 27.50200
O  37.24500 43.51500 28.03600
C  36.58300 45.95200 28.33800
C  35.34200 45.61700 29.03700
O  34.19900 45.76200 28.57000
O  35.55700 45.07800 30.27200
C  34.34300 44.76600 31.06300
H  35.25900 52.40300 26.96900
H  35.54000 50.75500 20.48100
H  38.20800 45.25800 22.23500
H  35.39900 48.22000 29.52500
H  36.22200 51.14100 29.04400
H  33.83500 49.89600 29.83100
H  33.28900 50.68400 28.42300
H  34.02200 51.69300 29.58400
H  37.91200 50.05400 29.58800
H  38.11400 48.38200 29.24000
H  38.07300 49.65300 31.77100
H  38.03900 47.90000 31.47100
H  33.79700 54.56800 24.20800
H  35.58500 54.79100 24.50900
H  34.46100 54.08000 25.71700
H  33.38300 54.84100 21.96300
H  34.29300 55.28700 20.50300
H  35.07200 55.41600 22.08200
H  37.41700 49.20300 19.30000
H  37.46500 46.27300 19.83900
H  35.94800 47.29200 18.41000
H  35.49900 48.95400 18.25700
H  34.70000 48.06200 19.54200
H  39.70000 47.81200 21.18900
H  39.47500 48.36900 19.51900
H  39.63800 45.53300 19.53500
H  40.89800 46.02600 20.57600
H  40.88000 46.64100 18.91600
H  38.98900 43.07300 25.07100
H  38.60500 43.58500 23.39100
H  37.58600 42.44400 24.36800
H  37.42700 46.21400 28.97500
H  34.53100 43.78000 31.48800
H  33.43100 44.61600 30.48500
H  34.14100 45.50600 31.83700

