158

Mg 30.07900 58.36300 38.19300
C  27.21500 56.29500 37.42900
C  32.03100 55.60000 38.02600
C  32.73500 60.29100 38.23000
C  27.96500 61.05900 37.82800
N  29.61900 56.19800 37.82600
C  28.41000 55.61100 37.47900
C  28.55800 54.10200 37.28400
C  30.05100 53.90700 37.86000
C  30.62600 55.32100 37.95400
C  30.13900 53.14600 39.18800
C  28.27700 53.66200 35.82200
C  29.15500 54.36800 34.78000
H  28.55000 55.08400 33.54500
N  32.14600 57.99300 38.12400
C  32.75400 56.78500 38.15400
C  34.16400 56.90900 38.18400
C  34.42700 58.26800 38.27100
C  33.11700 58.94400 38.24100
C  35.19400 55.71400 37.99800
C  35.80700 58.93600 38.27600
O  36.79200 58.21000 38.28500
C  35.96600 60.40900 38.49900
N  30.39600 60.34000 37.88300
C  31.59900 60.93500 37.99700
C  31.58400 62.46900 37.96400
C  30.03300 62.78600 37.84700
C  29.41000 61.30400 37.88300
C  32.34300 63.20500 39.13400
C  29.70200 63.62800 36.54300
C  29.01000 64.97800 36.70500
N  27.92000 58.65500 37.91400
C  27.28100 59.83800 37.77600
C  25.87700 59.62500 37.76100
C  25.72800 58.19500 37.54100
C  27.04500 57.71700 37.66800
C  24.82800 60.75700 37.73800
C  24.88100 57.11000 37.28400
O  23.69400 57.07400 37.11600
C  25.87100 55.82600 37.10500
C  25.37200 54.84200 38.14500
O  25.48400 54.94600 39.39200
O  24.90800 53.73500 37.50300
C  24.21100 52.76600 38.39200
H  32.56700 54.65800 37.89200
H  33.52600 61.03100 38.09200
H  27.41500 61.99700 37.73500
H  27.79400 53.62300 37.89700
H  30.64300 53.35000 37.13400
H  30.30200 52.08200 39.01700
H  29.37600 53.23300 39.96100
H  30.96200 53.55700 39.77400
H  27.22200 53.72300 35.55700
H  28.51300 52.59800 35.86600
H  29.93900 53.66200 34.50500
H  29.83600 55.08100 35.24500
H  35.91300 55.71400 37.17900
H  34.70700 54.77100 37.75100
H  35.69300 55.64900 38.96500
H  35.46100 60.69800 39.42100
H  35.53000 60.88800 37.62200
H  37.01800 60.69200 38.52000
H  32.08100 62.81800 37.05900
H  29.50100 63.22900 38.69000
H  31.67800 63.70700 39.83600
H  33.05300 63.94500 38.76400
H  32.96200 62.56300 39.76000
H  28.95600 63.00800 36.04600
H  30.62800 63.74300 35.98000
H  28.97200 65.22800 37.76600
H  27.96900 64.91200 36.38700
H  29.56500 65.75000 36.17300
H  24.11600 60.54200 38.53500
H  24.39800 60.73600 36.73600
H  25.27200 61.71400 38.01200
H  25.92900 55.42100 36.09500
H  23.42400 53.29400 38.93000
H  24.88900 52.31900 39.12000
H  23.74700 51.96800 37.81200
Mg -9.78000 17.10500 41.57800
C  -6.28700 17.02900 41.27900
C  -9.65400 20.50600 40.79800
C  -13.07600 16.91600 40.95700
C  -9.70900 13.60500 41.84700
N  -8.04900 18.56400 41.08300
C  -6.67600 18.32500 41.05700
C  -5.93900 19.61600 40.55800
C  -7.05200 20.68300 40.90600
C  -8.37000 19.90900 40.88300
C  -6.77200 21.42600 42.22400
C  -5.72600 19.44800 38.95900
C  -4.30600 19.44800 38.50600
H  -3.78800 18.10000 37.97600
N  -11.21800 18.57800 40.99000
C  -11.00700 19.91300 40.72900
C  -12.30400 20.49600 40.45800
C  -13.27700 19.47400 40.25300
C  -12.55700 18.21500 40.72200
C  -12.42600 21.93000 40.33100
C  -14.79200 19.69000 39.88300
O  -15.14500 20.83500 39.61100
C  -15.87500 18.56400 39.87600
N  -11.23700 15.52100 41.34500
C  -12.54700 15.68100 41.22800
C  -13.27500 14.43100 41.53600
C  -12.20200 13.30600 41.27400
C  -10.96700 14.16600 41.56300
C  -13.84600 14.43200 42.95500
C  -12.21800 12.60200 39.86400
C  -12.76900 13.42700 38.64800
N  -8.30300 15.56000 41.59800
C  -8.40500 14.16000 41.79300
C  -7.12000 13.62700 42.00400
C  -6.21600 14.71400 41.77000
C  -7.03000 15.86000 41.55000
C  -6.84500 12.11600 42.15400
C  -4.83100 15.03200 41.61000
O  -3.78500 14.35900 41.63300
C  -4.91900 16.54300 41.45800
C  -4.16000 17.23800 42.50400
O  -4.65100 18.06600 43.28100
O  -2.81400 16.88100 42.43900
C  -2.09500 17.61800 43.49400
H  -9.53100 21.58000 40.64100
H  -14.16300 16.81900 40.92700
H  -9.64800 12.52000 41.95700
H  -5.03500 19.77000 41.14800
H  -7.10400 21.37200 40.06400
H  -7.15600 21.01500 43.15800
H  -7.16200 22.43700 42.11000
H  -5.69100 21.45100 42.36100
H  -6.26200 20.17900 38.35500
H  -6.27200 18.53200 38.73000
H  -3.71800 19.85900 39.32600
H  -4.22000 20.20700 37.72900
H  -13.28100 22.23900 39.73100
H  -11.52900 22.40500 39.93400
H  -12.70100 22.39300 41.27900
H  -16.78100 19.09700 39.58800
H  -15.97500 18.12200 40.86700
H  -15.66400 17.80900 39.11800
H  -14.12900 14.33800 40.86600
H  -12.24300 12.57300 42.07900
H  -13.55400 15.34900 43.46700
H  -13.62100 13.53200 43.52700
H  -14.92900 14.38300 42.84300
H  -12.74600 11.65300 39.95900
H  -11.15500 12.44600 39.67900
H  -13.50300 14.21200 38.82600
H  -13.31800 12.72600 38.01900
H  -11.92600 13.86800 38.11600
H  -7.75300 11.55200 41.94200
H  -6.56800 11.85500 43.17600
H  -6.06200 11.77200 41.47800
H  -4.29400 16.75100 40.59000
H  -1.88200 18.64600 43.20200
H  -1.12500 17.12300 43.53900
H  -2.56800 17.61900 44.47500

