158

Mg 47.00300 34.47000 27.27000
C  45.21900 33.11700 29.93300
C  47.62300 37.25200 29.23800
C  48.14600 36.06000 24.61200
C  45.77600 31.77100 25.27300
N  46.62100 35.03200 29.31700
C  45.90800 34.25300 30.25700
C  46.06900 34.98800 31.71000
C  46.43000 36.42100 31.32700
C  46.92300 36.21200 29.88200
C  45.27100 37.41000 31.32700
C  47.14800 34.22000 32.58000
C  46.87200 34.20100 34.12100
H  45.86200 35.20800 34.72300
N  47.81900 36.34100 27.00900
C  48.08400 37.29600 27.91500
C  48.66000 38.54600 27.30100
C  48.86700 38.26600 25.94100
C  48.27400 36.87200 25.79800
C  49.06200 39.77900 28.12200
C  49.65700 38.98900 24.85800
O  49.86900 38.50500 23.76600
C  50.30600 40.33800 25.16600
N  46.90600 33.98400 25.20900
C  47.56900 34.79500 24.29200
C  47.49400 34.11700 22.86000
C  46.93200 32.74000 23.23100
C  46.47600 32.80100 24.62600
C  46.69800 34.92200 21.81000
C  47.82000 31.47800 22.88300
C  49.21100 31.48300 23.56900
N  45.82900 32.66100 27.47900
C  45.40200 31.58500 26.61800
C  44.51100 30.71100 27.35200
C  44.45800 31.27800 28.59000
C  45.26900 32.39500 28.64900
C  43.77100 29.56100 26.74500
C  43.82900 31.11800 29.86000
O  43.11400 30.20800 30.19800
C  44.06600 32.40100 30.65800
C  44.23500 32.05100 32.02800
O  45.28500 31.72600 32.61200
O  43.00200 32.08000 32.67700
C  42.99700 31.67800 34.10200
H  47.62100 38.18100 29.81200
H  48.46600 36.42600 23.63400
H  45.34400 30.98300 24.65300
H  45.06200 34.98600 32.12700
H  47.20600 36.88200 31.93900
H  45.42300 38.24700 32.00900
H  44.36900 36.91400 31.68500
H  45.03100 37.89700 30.38200
H  48.16400 34.54800 32.35800
H  47.20900 33.28400 32.02600
H  47.71200 34.47600 34.75800
H  46.64200 33.18800 34.45300
H  48.21100 40.05400 28.74500
H  49.32400 40.66700 27.54900
H  49.94100 39.42700 28.66200
H  50.88200 40.61200 24.28200
H  50.91900 40.31700 26.06700
H  49.49700 41.06000 25.27700
H  48.54300 34.00900 22.58700
H  46.05200 32.46600 22.65000
H  45.90600 34.24100 21.49600
H  47.27500 35.10200 20.90300
H  46.30100 35.78800 22.34000
H  47.86100 31.26400 21.81500
H  47.28700 30.55900 23.12900
H  50.03800 31.67600 22.88500
H  49.27700 30.54600 24.12400
H  49.20000 32.22000 24.37200
H  44.46000 29.10400 26.03400
H  42.83200 29.80200 26.24600
H  43.49400 28.81400 27.48800
H  43.18900 33.00400 30.42000
H  43.45600 32.42900 34.74600
H  43.50700 30.72000 34.20000
H  41.95900 31.55200 34.40900
Mg 25.80400 51.76600 26.16400
C  23.67200 52.75900 28.66100
C  28.21000 50.96900 28.70000
C  28.15200 51.28200 23.82100
C  23.61000 52.88500 23.82300
N  25.95900 51.90700 28.37600
C  24.87300 52.27100 29.16500
C  25.22000 52.03300 30.61300
C  26.64200 51.51500 30.67100
C  26.96800 51.46000 29.17000
C  27.69800 52.35600 31.50200
C  24.12400 51.12200 31.35800
C  23.39300 51.69800 32.65000
H  23.17900 50.80100 33.85900
N  27.87100 51.14800 26.21700
C  28.71000 50.91600 27.38100
C  29.98600 50.44700 26.87700
C  29.97600 50.43100 25.46200
C  28.66900 51.01600 25.10600
C  31.16300 49.98800 27.78400
C  31.10700 50.05400 24.47400
O  30.94100 50.24500 23.29300
C  32.40000 49.57000 24.87200
N  25.83700 52.01000 24.08800
C  26.88000 51.72300 23.31100
C  26.59800 51.86600 21.82200
C  25.05500 52.23700 21.90300
C  24.80100 52.36900 23.36300
C  27.58200 52.84800 21.16900
C  24.16800 51.39400 21.04100
C  23.28600 52.11400 19.95800
N  24.01400 52.64500 26.16700
C  23.23000 53.09200 25.15100
C  22.08000 53.80500 25.60300
C  22.13100 53.63300 27.03900
C  23.37800 52.96700 27.30800
C  21.03400 54.31100 24.76100
C  21.41800 53.83700 28.30700
O  20.31800 54.33100 28.56600
C  22.36700 53.13000 29.39200
C  22.64900 54.16600 30.38100
O  23.62100 54.94400 30.33300
O  21.80500 54.01900 31.47100
C  22.20900 54.98600 32.53500
H  28.97200 50.68600 29.42900
H  28.86600 51.13900 23.00700
H  22.80200 53.09900 23.12000
H  25.27000 53.02500 31.06100
H  26.55300 50.49400 31.04100
H  27.07400 53.12700 31.95400
H  28.38400 52.78400 30.77200
H  28.16300 51.72500 32.26000
H  24.60100 50.17100 31.59500
H  23.38400 50.94200 30.57800
H  22.38200 51.94600 32.32500
H  23.76700 52.68400 32.92700
H  31.51300 48.96300 27.66500
H  30.91100 50.15600 28.83100
H  31.99000 50.62400 27.46800
H  32.12500 48.84300 25.63600
H  32.88300 50.41200 25.36800
H  32.83600 49.12800 23.97600
H  26.76900 50.92500 21.29900
H  24.98100 53.24800 21.50200
H  28.37000 53.20300 21.83400
H  27.07600 53.74200 20.80500
H  27.90600 52.40000 20.22900
H  23.50700 50.86200 21.72500
H  24.82100 50.68800 20.52700
H  22.45700 52.71100 20.33800
H  22.87800 51.37400 19.26900
H  23.84900 52.88900 19.43800
H  20.60900 55.23500 25.15100
H  20.32300 53.48800 24.68600
H  21.42300 54.48100 23.75700
H  21.86900 52.30400 29.90000
H  22.96300 54.51300 33.16300
H  21.35400 55.16000 33.18800
H  22.47400 55.96700 32.14000

