158

Mg 40.54000 9.06700 29.89900
C  42.35900 10.44900 32.63200
C  38.63000 7.34600 31.93100
C  39.05900 7.85700 27.14400
C  43.03700 10.55800 27.84000
N  40.63300 8.80500 32.05400
C  41.29100 9.55000 33.04900
C  40.84300 9.16700 34.50800
C  39.74000 8.12900 34.25900
C  39.61300 8.08400 32.63100
C  40.07200 6.70500 34.78500
C  40.46400 10.40100 35.39900
C  39.86800 10.23600 36.76400
H  40.35300 11.10300 37.93000
N  39.03800 7.73500 29.53500
C  38.19600 7.25400 30.58200
C  37.10400 6.49300 29.99500
C  37.18400 6.73300 28.58600
C  38.45700 7.44300 28.36600
C  36.01000 5.79000 30.76300
C  36.28600 6.20800 27.49300
O  36.49800 6.39200 26.26000
C  35.10700 5.31600 27.84100
N  41.07500 9.05700 27.77700
C  40.18400 8.67500 26.88400
C  40.70500 8.88200 25.47500
C  41.84100 9.84200 25.67200
C  41.96700 9.92200 27.18300
C  40.81600 7.64300 24.60500
C  41.75200 11.26200 24.99900
C  42.71700 11.52400 23.88600
N  42.37700 10.11700 30.08700
C  43.25000 10.63100 29.23600
C  44.23700 11.46600 29.88700
C  43.94200 11.47100 31.24300
C  42.80400 10.58800 31.32800
C  45.38400 12.16300 29.28200
C  44.34300 11.93700 32.51900
O  45.15500 12.75000 32.84700
C  43.42200 11.21300 33.53600
C  44.10200 10.26400 34.47000
O  44.81700 9.41100 34.00600
O  43.75600 10.46500 35.79300
C  44.00800 9.39400 36.79400
H  37.94600 6.87000 32.63600
H  38.61300 7.57800 26.18700
H  43.74800 11.08400 27.20000
H  41.66100 8.62900 34.99000
H  38.76900 8.43400 34.64800
H  40.19300 6.04900 33.92200
H  39.31600 6.27700 35.44200
H  41.02000 6.68300 35.32400
H  39.74400 10.99600 34.83700
H  41.39600 10.91700 35.62900
H  39.79900 9.18600 37.04900
H  38.82300 10.54600 36.72700
H  36.20600 6.07100 31.79800
H  36.08700 4.71200 30.62100
H  35.00600 6.15400 30.54500
H  34.37500 5.77400 28.50700
H  35.50700 4.45200 28.37200
H  34.60900 4.95600 26.94100
H  39.93600 9.38100 24.88500
H  42.77000 9.36000 25.36700
H  40.44400 6.72300 25.05600
H  41.88500 7.44900 24.51600
H  40.41400 7.94900 23.63900
H  41.75900 12.05400 25.74700
H  40.73500 11.39400 24.62900
H  43.22800 12.43500 24.19600
H  42.32500 11.70800 22.88500
H  43.58600 10.86600 23.88300
H  45.72000 11.73000 28.34000
H  46.17500 12.47500 29.96400
H  44.89800 13.07500 28.93700
H  42.97300 12.00000 34.14400
H  43.54900 9.52300 37.77400
H  45.07500 9.35300 37.00900
H  43.76400 8.45100 36.30400
Mg -4.71900 26.44500 25.94100
C  -2.94800 27.43500 28.84800
C  -6.00900 23.87400 27.90000
C  -6.09800 25.21000 23.18700
C  -2.76300 28.64600 24.11200
N  -4.44000 25.75900 28.08900
C  -3.76200 26.36300 29.08700
C  -4.27800 25.87700 30.42300
C  -5.04900 24.53700 30.09300
C  -5.17100 24.71800 28.59900
C  -4.23100 23.26200 30.59400
C  -5.16900 26.92100 31.19100
C  -4.76100 27.07300 32.66000
H  -4.23400 25.88200 33.54000
N  -5.86800 24.76500 25.54400
C  -6.32100 23.87900 26.54100
C  -7.33300 22.97300 25.91800
C  -7.46500 23.41000 24.61200
C  -6.37400 24.44800 24.34800
C  -8.01500 21.90300 26.66100
C  -8.31600 22.81300 23.51700
O  -8.14500 23.16400 22.35600
C  -9.34800 21.77000 23.79800
N  -4.45700 26.84400 23.93600
C  -5.22300 26.26200 23.03200
C  -4.94600 26.89600 21.63500
C  -3.88000 27.94900 21.89300
C  -3.67400 27.84400 23.39200
C  -4.38400 25.94300 20.53700
C  -4.28900 29.40300 21.51000
C  -4.19300 29.65600 19.98300
N  -3.20300 27.76800 26.33400
C  -2.53100 28.63300 25.54400
C  -1.54800 29.35300 26.26000
C  -1.81500 28.99100 27.60000
C  -2.69100 27.92200 27.55600
C  -0.55700 30.33900 25.71300
C  -1.43400 29.23700 28.90100
O  -0.62900 30.07200 29.30900
C  -2.12500 28.24700 29.78400
C  -1.26700 27.53300 30.75900
O  -0.52500 26.53800 30.52900
O  -1.48600 28.10500 31.94900
C  -0.61600 27.43400 32.98500
H  -6.50700 23.09600 28.48300
H  -6.63200 24.94000 22.27300
H  -2.15800 29.34200 23.52700
H  -3.42500 25.60300 31.04400
H  -6.08600 24.44600 30.41800
H  -4.14800 22.49700 29.82200
H  -4.96200 22.79000 31.25100
H  -3.29000 23.55900 31.05700
H  -6.19900 26.57100 31.26600
H  -5.12500 27.91000 30.73600
H  -5.63500 27.43300 33.20300
H  -3.98000 27.83400 32.67000
H  -9.09800 22.01800 26.69100
H  -7.69900 21.75300 27.69300
H  -7.78000 21.01500 26.07400
H  -8.82000 20.82500 23.67400
H  -10.04800 21.89900 22.97300
H  -10.03700 21.81400 24.64200
H  -5.86000 27.32500 21.22600
H  -2.93400 27.69000 21.41800
H  -5.16200 25.29700 20.12900
H  -3.69300 25.23000 20.98500
H  -3.90600 26.30600 19.62700
H  -3.69200 30.21100 21.93300
H  -5.33700 29.59400 21.73900
H  -3.73100 30.64100 19.91600
H  -5.20800 29.75900 19.59900
H  -3.69000 28.90400 19.37400
H  -0.97800 30.95500 24.91900
H  0.34400 29.86300 25.32500
H  -0.26400 30.97000 26.55200
H  -2.87000 28.77600 30.37900
H  0.43800 27.39500 32.71200
H  -1.05000 26.47300 33.26100
H  -0.71600 28.11200 33.83400

