158

Mg 46.88700 34.74100 28.95800
C  45.73300 32.54900 31.29000
C  47.18700 37.22500 31.31700
C  47.59700 36.94200 26.48400
C  46.23700 32.30500 26.44700
N  46.57700 34.79900 31.06000
C  46.15600 33.75500 31.84500
C  46.18700 34.13200 33.35700
C  46.17600 35.71200 33.12000
C  46.72200 35.95400 31.76600
C  44.75200 36.44500 33.23300
C  47.37900 33.43200 34.09100
C  48.20900 34.40100 35.00300
H  47.42100 35.15200 36.12300
N  47.43000 36.75700 28.95700
C  47.65800 37.56900 30.04900
C  48.26800 38.76800 29.61600
C  48.44100 38.70900 28.22100
C  47.81300 37.42300 27.82100
C  48.66600 39.80800 30.68500
C  49.01400 39.81100 27.30400
O  49.00100 39.80000 26.11600
C  49.64000 41.06200 27.89800
N  46.90000 34.68900 26.80300
C  47.27200 35.69700 26.03700
C  47.04600 35.41400 24.53900
C  46.64200 33.88700 24.52900
C  46.59800 33.57500 25.98600
C  45.98400 36.37500 23.89000
C  47.57400 32.89600 23.62300
C  47.69700 33.19400 22.09300
N  46.07600 32.83400 28.85800
C  45.83800 31.96500 27.77900
C  45.28000 30.71100 28.23500
C  45.09000 30.90600 29.62800
C  45.66100 32.19600 29.95500
C  44.98000 29.53500 27.26100
C  44.62400 30.34700 30.91700
O  44.12300 29.24600 31.20400
C  44.86500 31.50000 31.97300
C  45.33500 31.00700 33.30000
O  46.34300 30.38300 33.48800
O  44.34500 31.13400 34.23000
C  44.64700 30.78200 35.61600
H  47.34900 37.94000 32.12600
H  47.83800 37.65800 25.69500
H  46.15200 31.56300 25.65000
H  45.26200 33.79600 33.82700
H  46.73600 36.36900 33.78600
H  44.84000 37.26200 33.94900
H  44.04300 35.64800 33.45700
H  44.24000 36.92100 32.39700
H  48.06000 32.89700 33.43000
H  46.96600 32.73500 34.82100
H  48.71900 35.03400 34.27800
H  49.03100 33.87100 35.48500
H  49.66700 40.16300 30.44000
H  48.72100 39.29900 31.64700
H  47.98300 40.63900 30.86600
H  48.84300 41.60300 28.40800
H  49.81300 41.69900 27.03100
H  50.58400 40.84600 28.39800
H  47.95700 35.40600 23.94100
H  45.60600 33.81000 24.20100
H  45.39900 36.93300 24.62100
H  45.34100 35.73200 23.29000
H  46.39200 37.11700 23.20400
H  47.18600 31.87700 23.63800
H  48.57800 32.99600 24.03400
H  46.90300 33.89300 21.83100
H  47.49900 32.22400 21.63900
H  48.73400 33.45700 21.88400
H  45.78500 29.41500 26.53600
H  44.13400 29.91000 26.68400
H  44.79200 28.65500 27.87600
H  43.93300 32.05700 32.07800
H  43.71200 30.57900 36.13800
H  45.17800 31.53200 36.20200
H  45.24400 29.87200 35.55200
Mg -5.97600 25.71900 25.57900
C  -4.22700 27.01400 28.44200
C  -6.98300 23.14400 27.67800
C  -7.36400 24.21700 22.97300
C  -4.24700 27.91500 23.61900
N  -5.73600 25.26900 27.84300
C  -5.13700 26.01200 28.83400
C  -5.52000 25.50800 30.23800
C  -6.02800 24.11000 29.93500
C  -6.33200 24.16300 28.37900
C  -5.08300 22.90900 30.50400
C  -6.66400 26.48200 30.76100
C  -6.57900 26.73700 32.29900
H  -6.45700 25.45900 33.21900
N  -7.03000 23.91200 25.33100
C  -7.38300 23.01300 26.30200
C  -8.04000 21.89700 25.70800
C  -8.29700 22.20000 24.30800
C  -7.54400 23.50300 24.16000
C  -8.41600 20.70900 26.57300
C  -9.16600 21.46200 23.28900
O  -9.44900 22.02600 22.19000
C  -9.82600 20.11300 23.57900
N  -5.93000 26.05000 23.63100
C  -6.59200 25.30700 22.66300
C  -6.25700 25.75400 21.25500
C  -5.55900 27.12800 21.58800
C  -5.18500 26.97700 23.07500
C  -5.38600 24.83500 20.38200
C  -6.39900 28.38100 21.47000
C  -6.44600 29.01400 20.13100
N  -4.54900 27.17600 25.95900
C  -3.90900 27.99400 25.02800
C  -2.95400 28.81900 25.64900
C  -3.01700 28.40700 27.02600
C  -4.00500 27.45400 27.12200
C  -1.94900 29.76600 25.05700
C  -2.36400 28.69700 28.33200
O  -1.55800 29.53600 28.66000
C  -3.25300 27.83300 29.26500
C  -2.38400 27.04000 30.24100
O  -1.54800 26.20300 29.97200
O  -2.66500 27.31800 31.57500
C  -1.91400 26.61500 32.66200
H  -7.31600 22.35600 28.35700
H  -7.92800 23.85900 22.10900
H  -3.72400 28.61100 22.95900
H  -4.63000 25.51200 30.86800
H  -7.02700 23.94100 30.33700
H  -4.40600 22.69600 29.67700
H  -5.59300 22.01500 30.86400
H  -4.50700 23.35200 31.31700
H  -7.65700 26.06200 30.59900
H  -6.72600 27.48800 30.34600
H  -7.39000 27.42300 32.54400
H  -5.74800 27.40600 32.52100
H  -9.20100 20.11800 26.10200
H  -8.58300 20.93900 27.62500
H  -7.59200 19.99700 26.62300
H  -9.00200 19.42700 23.77600
H  -10.44500 19.83700 22.72600
H  -10.51800 20.24600 24.41100
H  -7.19800 25.96000 20.74600
H  -4.68000 27.25300 20.95500
H  -4.41800 25.31900 20.24900
H  -5.79700 24.58800 19.40300
H  -5.37700 23.94600 21.01300
H  -6.24400 29.09300 22.28100
H  -7.44400 28.07200 21.47600
H  -7.17200 28.38600 19.61300
H  -5.54500 28.87500 19.53400
H  -6.55100 30.09900 20.14500
H  -1.90500 30.58400 25.77600
H  -2.16800 30.11700 24.04800
H  -1.00000 29.23500 24.97600
H  -3.87400 28.53100 29.82600
H  -2.73100 26.57100 33.38200
H  -1.04700 27.05300 33.15600
H  -1.80100 25.56900 32.37600

