158

Mg 24.31300 -8.33700 47.44000
C  26.84700 -6.31600 46.51800
C  22.39100 -7.14500 44.90300
C  22.16900 -11.11400 47.74100
C  26.62100 -10.27800 49.33600
N  24.58500 -6.91200 45.91000
C  25.67200 -6.11400 45.75800
C  25.52300 -5.07600 44.64000
C  24.08300 -5.41100 44.08400
C  23.60800 -6.55000 45.02400
C  23.15300 -4.19100 43.92800
C  26.62800 -5.27300 43.50600
C  27.12800 -3.93900 42.90700
H  26.95700 -3.61800 41.43900
N  22.42500 -8.88200 46.66800
C  21.79200 -8.17100 45.64500
C  20.47800 -8.74900 45.42900
C  20.36600 -9.93500 46.27100
C  21.69900 -9.98400 46.97800
C  19.63600 -8.29200 44.28800
C  19.15500 -10.86800 46.35200
O  18.12300 -10.51500 45.79100
C  19.10100 -11.98100 47.13600
N  24.27800 -10.46500 48.45800
C  23.31000 -11.38700 48.48700
C  23.66100 -12.70900 49.19400
C  25.13600 -12.24400 49.83200
C  25.37300 -10.87200 49.21000
C  22.67400 -13.10700 50.29200
C  26.27700 -13.29900 49.52200
C  27.30900 -13.59600 50.53000
N  26.34100 -8.40900 47.82000
C  27.09500 -9.13400 48.71600
C  28.27000 -8.44300 48.93900
C  28.27100 -7.29400 48.09400
C  27.07400 -7.35200 47.40300
C  29.44100 -8.82400 49.91200
C  28.99300 -6.13100 47.66000
O  30.12100 -5.71200 48.07100
C  28.08700 -5.40600 46.56300
C  27.74700 -4.04900 47.03900
O  27.45100 -3.71000 48.15300
O  27.92700 -3.19400 46.01400
C  27.65000 -1.74900 46.24600
H  21.79300 -6.74300 44.08300
H  21.50200 -11.97800 47.78500
H  27.39400 -10.65200 50.01000
H  25.61400 -4.10100 45.11900
H  24.19400 -5.86500 43.09900
H  22.34100 -4.44000 43.24500
H  23.84200 -3.48300 43.46800
H  22.78000 -3.77900 44.86600
H  26.29000 -5.89100 42.67500
H  27.45600 -5.89300 43.85100
H  28.21000 -4.00400 43.02800
H  26.71600 -3.10300 43.47200
H  18.59100 -8.58200 44.17300
H  20.16100 -8.62600 43.39300
H  19.82800 -7.23000 44.44400
H  19.83700 -12.69800 46.77200
H  18.10600 -12.41500 47.23600
H  19.37400 -11.65700 48.14000
H  23.80500 -13.56700 48.53700
H  24.98300 -12.03400 50.89000
H  22.64200 -14.17400 50.07200
H  21.70800 -12.60400 50.23600
H  23.09400 -13.06000 51.29600
H  26.84100 -13.09900 48.61100
H  25.80300 -14.27300 49.40400
H  27.23800 -14.66900 50.70900
H  27.11100 -13.00200 51.42300
H  28.31100 -13.44100 50.13100
H  29.90200 -9.74800 49.56400
H  29.04400 -9.05800 50.90000
H  30.10500 -7.96400 50.00400
H  28.76900 -5.22400 45.73200
H  26.71500 -1.63400 46.79300
H  27.58800 -1.19900 45.30700
H  28.51400 -1.45500 46.84300
Mg 30.28100 60.15400 39.65500
C  27.33200 58.56600 38.42900
C  31.97400 57.31400 38.59100
C  33.22000 61.79700 40.01900
C  28.50300 63.06400 40.12600
N  29.69200 58.19700 38.48900
C  28.50300 57.78100 38.12900
C  28.61800 56.39100 37.41700
C  29.99700 55.85900 37.91000
C  30.63300 57.22400 38.30200
C  30.04700 54.79600 39.10000
C  28.45400 56.52400 35.89100
C  27.34400 55.71300 35.12900
H  26.53000 56.51300 34.08400
N  32.26800 59.61400 39.37400
C  32.75400 58.33300 38.98300
C  34.16200 58.31100 39.16400
C  34.62700 59.64500 39.44400
C  33.37600 60.44200 39.61900
C  34.99100 57.05900 38.86900
C  36.12800 60.03400 39.69100
O  36.97300 59.19900 39.56900
C  36.51200 61.38600 40.14900
N  30.83600 62.21700 39.77600
C  32.05900 62.59600 40.10600
C  32.01200 64.08200 40.34600
C  30.56700 64.42200 40.74700
C  29.88400 63.13600 40.19900
C  33.10700 64.54900 41.43800
C  30.10500 65.69900 40.04300
C  29.67700 66.83700 41.02500
N  28.31500 60.71100 39.60700
C  27.75700 61.94500 39.76500
C  26.34400 61.86100 39.55500
C  26.13100 60.49900 39.11800
C  27.37300 59.88200 39.06500
C  25.34800 62.85700 39.56200
C  25.16200 59.55700 38.57700
O  23.97600 59.67800 38.30900
C  25.84800 58.20600 38.29400
C  25.49000 57.19700 39.33600
O  25.84000 57.29600 40.51100
O  24.55000 56.38500 38.83100
C  23.76900 55.69400 39.79500
H  32.52100 56.43500 38.24400
H  34.12700 62.39900 40.09900
H  27.92800 63.97700 40.29800
H  27.86400 55.74200 37.86200
H  30.55600 55.33400 37.13500
H  29.04200 54.80600 39.52300
H  30.84500 55.09300 39.78000
H  30.27400 53.81300 38.68800
H  29.39300 56.17900 35.45800
H  28.32200 57.52000 35.46700
H  26.68400 55.31100 35.89800
H  27.85500 54.93700 34.55900
H  35.85300 56.84700 39.50100
H  35.39800 57.00000 37.85900
H  34.51800 56.10300 39.09700
H  37.59300 61.47900 40.25700
H  36.07200 61.40400 41.14600
H  36.17800 62.18200 39.48400
H  32.40100 64.55300 39.44300
H  30.38400 64.22800 41.80400
H  32.69700 65.25900 42.15700
H  33.90600 65.09400 40.93400
H  33.50800 63.77400 42.09000
H  29.34700 65.50900 39.28200
H  30.86500 66.24000 39.48000
H  30.06200 67.73700 40.54700
H  30.12700 66.65200 42.00100
H  28.61100 66.87200 41.24800
H  24.82200 62.81300 38.60800
H  25.78200 63.84800 39.69500
H  24.64000 62.80600 40.38900
H  25.49600 57.87000 37.31900
H  24.28500 54.85300 40.25600
H  22.96600 55.27500 39.18900
H  23.32700 56.43900 40.45700

