158

Mg 2.24800 -1.95700 44.07500
C  5.62400 -1.45200 43.43700
C  1.50600 0.79300 42.21800
C  -1.03800 -2.67600 44.46400
C  3.08900 -5.09700 45.54700
N  3.48500 -0.53700 42.95800
C  4.84000 -0.48500 42.77800
C  5.25900 0.71000 41.81900
C  3.92800 1.52000 41.73900
C  2.92300 0.50700 42.34800
C  3.96700 2.97500 42.32300
C  5.89000 0.28400 40.41300
C  6.55300 1.51500 39.71100
H  5.95300 1.96200 38.36500
N  0.47100 -1.05600 43.43200
C  0.36400 0.09000 42.66700
C  -0.95400 0.43900 42.36300
C  -1.72100 -0.51700 43.10200
C  -0.78100 -1.53900 43.72700
C  -1.38800 1.61300 41.57900
C  -3.25200 -0.49600 43.18400
O  -3.89000 0.46800 42.65200
C  -4.10800 -1.63400 43.77100
N  1.26500 -3.68800 44.78800
C  -0.09200 -3.65400 44.91100
C  -0.56100 -5.07100 45.49600
C  0.67700 -5.90900 45.68200
C  1.75500 -4.85600 45.35300
C  -1.42100 -4.98200 46.84800
C  0.81000 -7.12200 44.88000
C  0.21500 -8.36600 45.58300
N  4.00100 -3.06900 44.49200
C  4.16900 -4.27100 45.12200
C  5.55700 -4.53300 45.29300
C  6.21100 -3.44100 44.75100
C  5.21400 -2.59300 44.17600
C  6.29700 -5.77600 45.95500
C  7.47700 -2.79000 44.52400
O  8.58500 -3.06900 44.95000
C  7.20400 -1.50900 43.56900
C  7.71900 -0.26100 44.17800
O  8.69800 0.36400 43.78600
O  6.88000 0.12900 45.15400
C  7.16400 1.48200 45.71800
H  1.37200 1.74900 41.70600
H  -2.05600 -2.82700 44.82900
H  3.54700 -6.00600 45.94200
H  5.99500 1.15800 42.48600
H  3.66100 1.59600 40.68500
H  4.87100 3.09600 42.91900
H  3.15700 2.90400 43.05000
H  3.87100 3.71000 41.52400
H  5.15200 -0.16400 39.74800
H  6.70900 -0.42800 40.51500
H  7.61700 1.50900 39.47800
H  6.51400 2.27800 40.48800
H  -1.91100 1.26800 40.68700
H  -0.58000 2.25400 41.22600
H  -2.09200 2.26300 42.09800
H  -5.14600 -1.35700 43.58600
H  -3.92800 -1.75500 44.83900
H  -3.84600 -2.60000 43.34000
H  -1.02500 -5.54700 44.63200
H  0.76600 -6.18700 46.73300
H  -2.49700 -5.09600 46.71600
H  -1.14400 -4.18700 47.54100
H  -1.24400 -5.88600 47.43100
H  1.85100 -7.21100 44.56800
H  0.29700 -7.01900 43.92400
H  -0.41000 -8.10800 46.43800
H  0.98100 -9.06600 45.91500
H  -0.41000 -8.92300 44.88500
H  6.06200 -6.67600 45.38700
H  5.86200 -5.95900 46.93800
H  7.37300 -5.63800 46.06100
H  7.85500 -1.65700 42.70800
H  6.28600 1.96900 46.14300
H  7.45800 2.14500 44.90500
H  7.94200 1.44800 46.48100
Mg 47.12600 16.31900 28.26800
C  44.95300 15.80400 30.89600
C  49.21500 18.02800 30.25000
C  48.98300 17.08200 25.56900
C  44.75200 14.74100 26.13400
N  47.02300 16.81300 30.41500
C  46.14600 16.44900 31.33800
C  46.55400 16.83800 32.68500
C  47.79500 17.79500 32.40100
C  48.07400 17.52900 30.89900
C  47.68700 19.24700 32.81700
C  46.71900 15.52900 33.51700
C  47.76500 15.73200 34.59700
H  47.86400 17.00600 35.47900
N  48.96900 17.28100 27.96500
C  49.63300 17.93300 28.94100
C  50.93500 18.39900 28.41200
C  50.86900 18.18200 26.99400
C  49.54600 17.54500 26.77800
C  52.02700 19.09800 29.34300
C  51.79000 18.62500 25.93100
O  51.52000 18.49500 24.73100
C  53.09300 19.17700 26.36100
N  46.77200 16.07900 26.18200
C  47.78800 16.40700 25.31700
C  47.41200 15.98400 23.86200
C  46.13200 15.13100 24.12100
C  45.92000 15.30700 25.53700
C  47.24800 17.17500 22.86100
C  46.04300 13.69900 23.56000
C  44.82800 13.34800 22.55100
N  45.17300 15.51300 28.40900
C  44.35300 14.89700 27.43100
C  43.25100 14.25000 28.17100
C  43.42900 14.67000 29.45200
C  44.64600 15.35700 29.56400
C  42.13600 13.41900 27.54300
C  42.83200 14.66000 30.74400
O  41.84700 14.08800 31.20300
C  43.84600 15.25200 31.72000
C  43.13000 16.29100 32.57300
O  42.71700 17.33000 32.14100
O  43.01500 15.86300 33.87800
C  42.42100 16.74800 34.90400
H  49.83800 18.41400 31.05900
H  49.64900 17.24200 24.71800
H  43.98600 14.26500 25.51700
H  45.71600 17.41800 33.07200
H  48.67300 17.48300 32.96700
H  47.61400 19.93300 31.97300
H  48.65500 19.50000 33.24900
H  46.80200 19.46000 33.41800
H  47.08100 14.79700 32.79600
H  45.83700 15.11300 34.00500
H  48.77800 15.59900 34.21800
H  47.59200 14.91600 35.29800
H  53.05700 18.77200 29.20700
H  51.74600 18.68900 30.31300
H  52.02100 20.18500 29.25600
H  53.05700 20.16800 26.81300
H  53.61200 19.44700 25.44100
H  53.66200 18.36700 26.81800
H  48.09300 15.25300 23.42600
H  45.29500 15.68400 23.69400
H  47.58800 18.05700 23.40400
H  46.26500 17.22800 22.39300
H  47.94100 16.94000 22.05300
H  46.10700 12.93000 24.33100
H  46.91600 13.51400 22.93400
H  44.25600 14.25700 22.36400
H  44.29300 12.49900 22.97400
H  45.33100 13.08600 21.62000
H  42.16900 13.32800 26.45700
H  41.24800 13.97500 27.84500
H  41.90800 12.48000 28.04700
H  44.29000 14.43800 32.29200
H  41.48400 17.08700 34.46300
H  43.19200 17.50300 35.05900
H  42.40900 16.13400 35.80500

