158

Mg 41.07400 41.78500 27.50000
C  40.54300 44.14300 30.04000
C  41.92100 39.59700 29.92700
C  42.00900 39.58400 25.10500
C  40.73200 44.17400 25.14300
N  41.11900 41.88300 29.70700
C  40.79500 42.89300 30.57300
C  40.83900 42.46800 32.05300
C  41.48700 41.07400 31.90900
C  41.57400 40.84100 30.36800
C  42.94500 40.84500 32.61600
C  39.38800 42.41600 32.72000
C  39.31400 41.45000 33.95500
H  38.61700 42.03800 35.14900
N  41.71900 39.82200 27.47700
C  41.99200 39.07500 28.55800
C  42.27500 37.70800 28.17800
C  42.30300 37.67000 26.76300
C  42.02600 39.06200 26.39400
C  42.43200 36.65000 29.16800
C  42.52100 36.51600 25.83300
O  42.52300 36.64800 24.63100
C  42.75800 35.08400 26.28600
N  41.51700 41.84000 25.44900
C  41.77700 40.86600 24.65400
C  41.59000 41.15300 23.17800
C  40.98500 42.59500 23.17900
C  41.04600 42.88800 24.66800
C  42.94700 41.06600 22.41800
C  39.58800 42.58600 22.45200
C  38.43400 41.77000 23.09400
N  40.84100 43.73900 27.53900
C  40.72500 44.61600 26.46000
C  40.59800 46.03400 26.96100
C  40.46600 45.87500 28.40200
C  40.61800 44.46800 28.67700
C  40.56800 47.23700 26.07700
C  40.23300 46.59400 29.58900
O  40.03500 47.73400 29.84700
C  40.23600 45.48100 30.73700
C  41.27900 45.82600 31.65700
O  42.48800 45.82800 31.49000
O  40.72200 46.27600 32.78600
C  41.61600 46.84800 33.81900
H  42.19900 38.88700 30.70900
H  42.10800 38.82200 24.33000
H  40.62300 44.85900 24.30000
H  41.46900 43.18100 32.58400
H  40.82700 40.30100 32.30300
H  43.07400 41.74500 33.21700
H  43.66000 40.69400 31.80700
H  42.81600 39.97900 33.26600
H  38.60700 42.35300 31.96300
H  39.41600 43.43200 33.11400
H  40.27700 41.01500 34.22200
H  38.69300 40.60600 33.65500
H  41.83700 36.92900 30.03800
H  43.45700 36.48100 29.49900
H  42.20500 35.63800 28.83300
H  41.73900 34.85000 26.59500
H  43.47400 35.13400 27.10700
H  43.08900 34.33300 25.56800
H  40.86200 40.47400 22.73500
H  41.63000 43.34600 22.72300
H  43.48000 40.20900 22.82900
H  43.53200 41.98600 22.44100
H  42.66300 40.87300 21.38300
H  39.79100 42.04100 21.53000
H  39.26000 43.59800 22.21200
H  37.58600 42.45200 23.04000
H  38.73200 41.33600 24.04800
H  38.19400 40.95000 22.41600
H  41.40000 47.91300 26.27400
H  39.72500 47.82400 26.44000
H  40.51700 47.05900 25.00300
H  39.32600 45.30200 31.31000
H  42.39100 47.39500 33.28200
H  41.99400 46.07100 34.48400
H  41.14700 47.69800 34.31500
Mg -8.75300 40.26200 43.09000
C  -7.72600 37.11900 41.89900
C  -5.90000 41.67000 41.57400
C  -10.22200 43.33600 43.20000
C  -11.78800 38.80400 44.09900
N  -7.02100 39.46800 41.69400
C  -6.82600 38.17200 41.45000
C  -5.64000 37.98900 40.49900
C  -4.87400 39.35000 40.63600
C  -5.94600 40.26700 41.31100
C  -3.57300 39.25800 41.53700
C  -6.07400 37.47800 39.03100
C  -5.19400 36.33000 38.52400
H  -4.22200 36.65400 37.39700
N  -8.18300 42.20000 42.48600
C  -6.96500 42.55400 42.00000
C  -6.85400 44.01900 41.98200
C  -8.03700 44.52800 42.61200
C  -8.87900 43.35100 42.74600
C  -5.82100 44.78900 41.27000
C  -8.24500 45.95800 42.80700
O  -7.30100 46.76000 42.74000
C  -9.63700 46.54200 43.14700
N  -10.68500 40.92800 43.52700
C  -11.05200 42.23600 43.53400
C  -12.49800 42.44900 43.86300
C  -12.99600 41.00600 44.28700
C  -11.77300 40.16800 43.97600
C  -12.77100 43.49600 45.02500
C  -14.37200 40.52500 43.70100
C  -14.35900 40.34800 42.13100
N  -9.51300 38.26800 43.22100
C  -10.73900 37.88700 43.70200
C  -10.74000 36.43700 43.64900
C  -9.55200 36.07400 42.91500
C  -8.88800 37.22300 42.69100
C  -11.78600 35.48700 44.16400
C  -8.84100 34.95500 42.31100
O  -9.04400 33.71100 42.28300
C  -7.58300 35.65700 41.56700
C  -6.39000 34.97100 42.10700
O  -5.97100 34.94000 43.24500
O  -5.82700 34.13100 41.19000
C  -4.68700 33.27400 41.63000
H  -4.99700 42.20400 41.27100
H  -10.72900 44.28900 43.36600
H  -12.69200 38.30000 44.44900
H  -5.09500 37.13100 40.89300
H  -4.53600 39.74700 39.67800
H  -3.54700 38.18900 41.74900
H  -3.71700 39.83400 42.45200
H  -2.63500 39.49300 41.03400
H  -6.06700 38.40900 38.46400
H  -7.13200 37.23500 39.13400
H  -5.87400 35.55200 38.17900
H  -4.50500 35.89300 39.24600
H  -6.16500 45.42700 40.45600
H  -5.03200 44.27200 40.72300
H  -5.22300 45.37300 41.96900
H  -9.63700 47.62400 43.28100
H  -9.89900 46.09900 44.10800
H  -10.39600 46.31700 42.39800
H  -13.02100 42.75000 42.95500
H  -13.01700 40.89200 45.37100
H  -13.67700 43.19800 45.55200
H  -12.88700 44.54000 44.73200
H  -11.93800 43.50300 45.72800
H  -15.03600 41.35000 43.95600
H  -14.70900 39.57200 44.10900
H  -13.37400 40.60300 41.73900
H  -15.04600 41.05600 41.66800
H  -14.72000 39.33800 41.93800
H  -11.33600 34.50300 44.03200
H  -12.55200 35.69600 43.41700
H  -12.24800 35.70800 45.12600
H  -7.63300 35.50700 40.48800
H  -3.84000 33.96000 41.59600
H  -4.51200 32.64400 40.75900
H  -4.65400 32.65400 42.52600

