158

Mg 45.99700 2.96100 46.74400
C  43.81200 5.72900 46.24700
C  43.18100 1.00900 46.50900
C  48.14200 0.55300 46.34500
C  48.71400 5.36000 46.49300
N  43.79000 3.30700 46.43700
C  43.16200 4.51300 46.26600
C  41.59800 4.38200 45.98900
C  41.37600 2.89300 46.46900
C  42.83600 2.32000 46.47800
C  40.53600 2.71600 47.75900
C  41.05400 4.75300 44.57400
C  40.21500 6.03100 44.43600
H  40.81000 6.95600 43.38800
N  45.74600 0.99900 46.56500
C  44.48200 0.40700 46.45800
C  44.64800 -1.05200 46.37000
C  46.04800 -1.25100 46.23400
C  46.75100 0.10100 46.41300
C  43.56900 -1.98700 46.29400
C  46.71200 -2.62400 45.99600
O  46.04900 -3.65400 45.88700
C  48.20000 -2.78800 46.09500
N  48.10000 3.00000 46.38500
C  48.74600 1.77200 46.40100
C  50.27800 1.98500 46.52700
C  50.51300 3.54300 46.49400
C  49.04000 3.99400 46.50800
C  50.85700 1.31700 47.76200
C  51.29300 4.08500 45.18100
C  52.77900 3.95600 45.16700
N  46.31500 5.15200 46.49600
C  47.44500 5.94900 46.47400
C  47.06100 7.30900 46.35000
C  45.59700 7.31100 46.45300
C  45.22600 5.93000 46.33100
C  48.01900 8.50500 46.30100
C  44.42100 8.13600 46.53600
O  44.28800 9.33400 46.65900
C  43.18900 7.14000 46.49700
C  42.40800 7.27000 47.77800
O  42.27200 6.44000 48.65700
O  41.76500 8.45700 47.67700
C  40.72000 8.72900 48.62900
H  42.31800 0.34400 46.44700
H  48.83100 -0.28800 46.25000
H  49.50900 6.10800 46.52500
H  41.14300 5.17700 46.58100
H  40.88600 2.24500 45.74200
H  41.03600 2.07800 48.48800
H  39.60200 2.21500 47.50500
H  40.30200 3.65300 48.26400
H  40.45000 3.93400 44.18400
H  41.89500 4.91300 43.90000
H  40.17700 6.57000 45.38200
H  39.19000 5.71900 44.23700
H  42.62200 -1.48900 46.08900
H  43.45200 -2.41200 47.29100
H  43.67000 -2.80700 45.58300
H  48.43600 -3.84800 45.99900
H  48.55900 -2.50800 47.08500
H  48.92300 -2.28300 45.45400
H  50.76900 1.41600 45.73800
H  51.01300 3.94700 47.37400
H  51.45500 1.99900 48.36600
H  51.46400 0.49700 47.37600
H  50.09600 0.93600 48.44300
H  51.08000 5.15300 45.21600
H  50.92600 3.51400 44.32700
H  53.05100 3.67900 44.14900
H  53.13400 3.21300 45.88200
H  53.32800 4.88000 45.34600
H  47.65800 9.29000 46.96500
H  48.01500 9.04200 45.35300
H  49.06100 8.32800 46.57100
H  42.58600 7.52500 45.67400
H  39.81500 8.53200 48.05600
H  40.77500 9.75000 49.00700
H  40.77600 8.07300 49.49900
Mg 34.97800 49.37500 26.74500
C  35.42600 46.82800 29.13200
C  34.00000 51.49000 29.29100
C  34.38900 51.60000 24.50000
C  35.80000 46.96800 24.36000
N  34.78300 49.20600 28.96500
C  35.05600 48.08400 29.73400
C  35.01000 48.37700 31.20300
C  34.18400 49.71800 31.19600
C  34.30500 50.24300 29.71000
C  32.70100 49.50100 31.55700
C  36.47000 48.54600 31.85700
C  36.55400 47.94600 33.25300
H  36.33500 48.98900 34.39300
N  34.30100 51.36100 26.84900
C  34.06300 52.10800 28.03000
C  33.91300 53.50800 27.61100
C  34.00500 53.55300 26.18900
C  34.25900 52.14100 25.76800
C  33.71100 54.64800 28.58700
C  34.03400 54.75000 25.27500
O  34.43900 54.72400 24.08100
C  33.63100 56.12600 25.90900
N  34.68900 49.16900 24.69400
C  34.56200 50.30200 23.95700
C  34.75400 49.97800 22.45600
C  35.60500 48.71800 22.60000
C  35.42200 48.27100 23.98200
C  33.40200 49.75700 21.69100
C  37.12900 48.91400 22.39200
C  37.85200 47.95200 21.52800
N  35.58100 47.36100 26.72900
C  35.87100 46.54300 25.67500
C  36.24300 45.19000 26.12900
C  36.09400 45.30500 27.53800
C  35.66800 46.61100 27.77600
C  36.62200 44.03700 25.30900
C  36.20700 44.62800 28.83000
O  36.55100 43.49500 29.09800
C  35.79000 45.62000 29.89200
C  34.59300 45.10900 30.61800
O  33.48300 44.95200 30.18300
O  35.07400 44.63800 31.83000
C  34.16300 43.77100 32.54700
H  33.64200 52.19600 30.04300
H  34.49000 52.38700 23.75000
H  36.15600 46.28300 23.58700
H  34.53900 47.59000 31.79300
H  34.58700 50.40800 31.93700
H  32.05400 49.78600 30.72700
H  32.47400 50.15100 32.40100
H  32.54200 48.46100 31.84200
H  36.72400 49.60200 31.76400
H  37.09400 47.87900 31.26300
H  37.56400 47.54900 33.35100
H  35.85200 47.13800 33.46200
H  34.48600 55.41200 28.51600
H  33.73700 54.26300 29.60700
H  32.68400 54.99600 28.48100
H  32.58400 56.08000 26.20900
H  33.69100 56.82200 25.07200
H  34.33800 56.44800 26.67300
H  35.41600 50.73300 22.03400
H  35.32700 47.95100 21.87700
H  32.65500 49.70800 22.48400
H  33.45500 48.82600 21.12700
H  33.19700 50.54400 20.96500
H  37.68300 48.88800 23.33100
H  37.44100 49.86300 21.95600
H  38.17600 48.49000 20.63700
H  37.37100 46.99900 21.30700
H  38.70300 47.60800 22.11600
H  36.09200 44.07200 24.35700
H  36.44400 43.07400 25.78900
H  37.68700 44.03200 25.07700
H  36.60000 45.78000 30.60300
H  33.49400 44.35300 33.18100
H  34.78800 43.14100 33.18000
H  33.66600 43.15700 31.79500

