158

Mg 24.73900 -4.48800 45.71700
C  26.73000 -2.09200 43.90000
C  22.02500 -3.28800 43.81000
C  23.10800 -7.21800 46.62500
C  27.71600 -5.73100 46.95100
N  24.52900 -2.91500 44.05000
C  25.45100 -2.11100 43.43100
C  24.79600 -1.24500 42.32800
C  23.24800 -1.48500 42.54000
C  23.22200 -2.61500 43.58200
C  22.29600 -0.28000 43.10500
C  25.38100 -1.59600 40.89700
C  25.92300 -0.41600 40.07500
H  25.66600 -0.56400 38.55000
N  22.78900 -5.12900 45.32500
C  21.82100 -4.47800 44.62700
C  20.68100 -5.31200 44.66300
C  20.89600 -6.46100 45.47700
C  22.31200 -6.31900 45.86200
C  19.45800 -4.91600 43.86300
C  19.87300 -7.53800 45.88500
O  18.75200 -7.67400 45.36700
C  20.10200 -8.52600 46.95800
N  25.32000 -6.16500 46.79400
C  24.47300 -7.23300 47.06500
C  25.18000 -8.45000 47.62600
C  26.62500 -7.89900 47.96100
C  26.60100 -6.55100 47.19100
C  24.41700 -9.02000 48.88700
C  27.73700 -8.92000 47.52400
C  28.61300 -9.48300 48.70100
N  26.74600 -3.90400 45.75900
C  27.79500 -4.49700 46.32300
C  28.93900 -3.63300 46.23900
C  28.63300 -2.72000 45.19300
C  27.26100 -2.89600 44.95200
C  30.24400 -3.76700 47.02500
C  29.08900 -1.65200 44.39100
O  30.12400 -1.06700 44.37500
C  27.85000 -1.30400 43.44600
C  27.56500 0.15300 43.65400
O  27.06700 0.71400 44.61800
O  28.10400 0.88000 42.61500
C  28.18600 2.38500 42.66400
H  21.11200 -2.92400 43.33500
H  22.52000 -8.10200 46.88200
H  28.70900 -6.01200 47.30700
H  25.02500 -0.21800 42.61100
H  22.98500 -1.84700 41.54600
H  21.56800 -0.61600 43.84400
H  21.65100 0.13900 42.33300
H  22.89500 0.57200 43.42500
H  24.67700 -2.08200 40.22100
H  26.13800 -2.37500 40.99500
H  26.97600 -0.26000 40.31200
H  25.33000 0.41900 40.44900
H  19.50900 -5.15200 42.80000
H  19.15800 -3.86800 43.87700
H  18.53000 -5.39300 44.17700
H  19.16900 -9.02300 47.22300
H  20.45900 -7.89300 47.77100
H  20.77700 -9.33600 46.68200
H  25.18100 -9.27900 46.91900
H  26.77600 -7.76800 49.03200
H  25.01500 -8.92100 49.79300
H  24.12400 -10.05800 48.73300
H  23.44000 -8.55100 49.00900
H  28.42000 -8.41000 46.84400
H  27.30900 -9.74000 46.94700
H  28.85000 -10.54200 48.60300
H  28.00400 -9.36600 49.59800
H  29.50500 -8.86600 48.80500
H  30.82100 -4.53300 46.50700
H  30.04200 -4.21100 47.99900
H  30.79200 -2.82500 46.97500
H  28.19600 -1.53200 42.43800
H  28.31400 2.64800 41.61400
H  29.06300 2.59100 43.27700
H  27.31600 2.91300 43.05700
Mg 35.03800 2.14100 29.56300
C  33.06300 3.27900 32.15900
C  37.67800 2.06100 31.75800
C  37.05600 1.32700 26.93100
C  32.38900 2.87100 27.38700
N  35.32000 2.56100 31.73300
C  34.38000 3.05600 32.58200
C  34.91000 3.23900 34.03600
C  36.46900 3.15200 33.83600
C  36.52700 2.57900 32.34700
C  37.06400 4.52700 33.87600
C  34.41200 2.16100 34.95900
C  34.33600 2.40200 36.49500
H  34.95200 3.60500 37.12300
N  37.07500 1.70500 29.35600
C  37.98700 1.73600 30.42700
C  39.24700 1.18500 29.95500
C  39.09900 0.97700 28.56000
C  37.71500 1.39400 28.20100
C  40.44900 0.94600 30.80900
C  40.16300 0.56500 27.56200
O  39.98200 0.56100 26.39900
C  41.52300 0.17600 28.06800
N  34.86600 2.38200 27.44900
C  35.80800 1.88500 26.54700
C  35.33500 2.10800 25.10800
C  33.85200 2.49800 25.31300
C  33.63200 2.59000 26.81500
C  36.27400 3.08200 24.30700
C  32.86900 1.66100 24.42700
C  32.49800 0.29300 25.04100
N  33.10900 2.83200 29.68200
C  32.15400 3.10800 28.73800
C  30.93900 3.65300 29.34400
C  31.24000 3.67200 30.76000
C  32.59700 3.26400 30.81300
C  29.64900 3.87200 28.55900
C  30.65000 3.87200 32.06900
O  29.49600 4.19600 32.41000
C  31.89000 3.81000 33.05500
C  32.06000 5.18400 33.47500
O  32.24200 6.11200 32.74900
O  31.99100 5.23000 34.84500
C  32.03200 6.55100 35.47300
H  38.47700 2.14100 32.49800
H  37.69800 0.94300 26.13500
H  31.56000 3.11800 26.72100
H  34.49300 4.15600 34.45200
H  36.98600 2.45100 34.49200
H  36.37700 5.15700 34.44000
H  37.21100 4.99200 32.90100
H  38.03000 4.48700 34.37900
H  34.93300 1.21400 34.81700
H  33.39400 1.91200 34.65900
H  34.81400 1.63800 37.10900
H  33.25800 2.35100 36.65200
H  40.33800 1.47400 31.75600
H  41.32600 1.43700 30.38700
H  40.53900 -0.12900 30.96600
H  42.06600 -0.26200 27.23100
H  41.39500 -0.68800 28.72000
H  42.07300 1.01500 28.49600
H  35.52600 1.17400 24.58000
H  33.71200 3.51700 24.95100
H  35.62000 3.90000 24.00500
H  36.75900 2.53200 23.50100
H  37.09400 3.50700 24.88700
H  33.42800 1.62400 23.49200
H  31.98600 2.29000 24.31200
H  32.66600 -0.41100 24.22700
H  31.44900 0.11300 25.27900
H  32.99100 -0.17500 25.89300
H  28.77200 3.97700 29.19800
H  29.52400 3.02800 27.88000
H  29.68000 4.73300 27.89100
H  31.58100 3.11400 33.83500
H  30.99700 6.89400 35.44500
H  32.66300 7.27900 34.96500
H  32.32800 6.52900 36.52200

