158

Mg 0.77700 -2.51000 44.60700
C  4.04000 -1.59400 43.81600
C  -0.33100 0.30100 42.97600
C  -2.43000 -3.62800 44.97300
C  2.00600 -5.55800 45.95100
N  1.77100 -0.88000 43.49000
C  3.10600 -0.76000 43.25100
C  3.38000 0.44000 42.28200
C  2.02200 1.20900 42.26500
C  1.09500 0.17800 42.97600
C  1.93700 2.60500 42.92800
C  3.98200 0.02200 40.91900
C  5.31500 0.61600 40.44900
H  5.17700 1.56300 39.17200
N  -1.14400 -1.87400 43.99900
C  -1.34800 -0.62500 43.45200
C  -2.73500 -0.35500 43.28400
C  -3.41300 -1.47400 43.89100
C  -2.31700 -2.40300 44.32900
C  -3.27700 0.89800 42.68400
C  -4.92700 -1.73100 43.99400
O  -5.77500 -0.92900 43.53400
C  -5.46300 -2.93500 44.68600
N  -0.12800 -4.33800 45.33800
C  -1.45700 -4.57500 45.34800
C  -1.75600 -5.98300 46.05600
C  -0.34300 -6.52800 46.25900
C  0.58400 -5.41400 45.77500
C  -2.68400 -5.90300 47.27900
C  -0.07500 -7.89600 45.57500
C  0.68900 -8.94200 46.39300
N  2.64300 -3.36200 45.01700
C  2.98900 -4.62800 45.59000
C  4.48300 -4.73200 45.56800
C  4.89600 -3.51800 44.98800
C  3.75600 -2.76000 44.57600
C  5.27100 -5.93500 46.01800
C  6.05100 -2.77600 44.59800
O  7.27300 -3.01600 44.77300
C  5.53500 -1.53900 43.76400
C  6.10200 -0.23700 44.21200
O  6.92100 0.36600 43.52100
O  5.57900 0.24600 45.39600
C  6.07700 1.46500 45.96600
H  -0.74000 1.21300 42.53700
H  -3.35000 -4.13600 45.26800
H  2.27400 -6.58700 46.19700
H  4.11100 1.11700 42.72400
H  1.74800 1.35200 41.22000
H  1.59000 3.37700 42.24000
H  2.94900 2.80900 43.27900
H  1.16300 2.47500 43.68400
H  3.26400 0.23800 40.12800
H  4.08200 -1.06300 40.92400
H  5.99300 -0.15400 40.07800
H  5.76800 1.20500 41.24600
H  -4.34000 0.83400 42.45000
H  -2.73800 1.00800 41.74300
H  -3.03800 1.67300 43.41200
H  -5.00200 -2.85500 45.67000
H  -5.31000 -3.90400 44.21000
H  -6.54700 -2.83500 44.73800
H  -2.28100 -6.54700 45.28500
H  -0.17600 -6.75600 47.31100
H  -2.83700 -4.85800 47.55200
H  -2.18200 -6.24500 48.18400
H  -3.59300 -6.50000 47.20500
H  0.60700 -7.72400 44.74200
H  -0.99000 -8.45400 45.37500
H  1.69100 -9.04900 45.97700
H  0.25400 -9.94100 46.39400
H  0.68600 -8.75400 47.46700
H  4.83500 -6.31900 46.94100
H  6.27200 -5.55600 46.22500
H  5.29300 -6.72200 45.26500
H  5.85400 -1.59800 42.72400
H  6.91900 1.91000 45.43500
H  6.40800 1.16900 46.96200
H  5.22700 2.14700 46.00800
Mg -6.24000 25.00000 25.81800
C  -4.71700 25.97200 28.72300
C  -8.10100 22.67100 27.56100
C  -7.25300 23.65400 22.96900
C  -3.74600 26.84300 24.02400
N  -6.31300 24.28800 27.89100
C  -5.71900 24.99100 28.96900
C  -6.26800 24.47800 30.32100
C  -7.02200 23.09300 29.87800
C  -7.16300 23.29400 28.34000
C  -6.28500 21.74900 30.16800
C  -7.18500 25.53700 31.02200
C  -6.72200 25.88800 32.46900
H  -6.00900 24.82800 33.36000
N  -7.58700 23.44700 25.30200
C  -8.30300 22.68300 26.15500
C  -9.19400 21.79400 25.37900
C  -9.09600 22.24000 24.00800
C  -7.95500 23.15400 24.05500
C  -10.10000 20.82500 26.17300
C  -9.84700 21.83300 22.72600
O  -9.58300 22.23700 21.57900
C  -10.95400 20.80500 22.88700
N  -5.48900 25.10500 23.67500
C  -6.13000 24.48600 22.73700
C  -5.41700 24.81100 21.38600
C  -4.32600 25.85700 21.69900
C  -4.47100 25.94800 23.18600
C  -4.81700 23.57800 20.54400
C  -4.45200 27.32200 21.11400
C  -3.44600 27.74000 20.09500
N  -4.62800 26.22200 26.25300
C  -3.78800 27.02200 25.44300
C  -2.94100 27.87200 26.28600
C  -3.27900 27.48600 27.55900
C  -4.27400 26.49000 27.49700
C  -1.90300 28.89800 25.79400
C  -2.92300 27.62600 28.91600
O  -2.06400 28.39200 29.32300
C  -3.96800 26.80400 29.81200
C  -3.20500 26.07800 30.84300
O  -2.84900 24.89400 30.77100
O  -2.84500 26.96000 31.83200
C  -1.83700 26.51700 32.83500
H  -8.58900 21.90600 28.16800
H  -7.54200 23.26300 21.99100
H  -2.96600 27.51100 23.65300
H  -5.41200 24.23600 30.95000
H  -8.00600 23.02300 30.34200
H  -6.07600 21.23700 29.22800
H  -6.90800 21.17100 30.85000
H  -5.32400 21.89500 30.66200
H  -8.23900 25.38600 30.78900
H  -7.08300 26.49900 30.52000
H  -7.59700 26.17800 33.05100
H  -6.10000 26.78200 32.42300
H  -10.96600 20.71800 25.52000
H  -10.47800 21.29500 27.08100
H  -9.61900 19.85000 26.25600
H  -11.19800 20.29000 21.95800
H  -11.76300 21.25800 23.46000
H  -10.60900 19.96500 23.49000
H  -6.17400 25.26200 20.74400
H  -3.30400 25.55800 21.46400
H  -4.94300 22.62600 21.05900
H  -3.74700 23.77400 20.47700
H  -5.27100 23.58700 19.55400
H  -4.46700 28.07400 21.90300
H  -5.32600 27.46700 20.47900
H  -3.85600 28.12200 19.16000
H  -2.80800 26.86900 19.94700
H  -2.87700 28.50700 20.62100
H  -1.17100 28.30800 25.24200
H  -1.30500 29.33600 26.59300
H  -2.28600 29.65500 25.10900
H  -4.67100 27.45000 30.33700
H  -0.94100 26.16000 32.32700
H  -2.36100 25.74600 33.39900
H  -1.64300 27.40200 33.44200

