158

Mg 24.65100 -6.11600 45.24000
C  26.91200 -3.60400 43.97600
C  22.18700 -4.62200 43.52400
C  22.97600 -8.96700 45.54800
C  27.44400 -7.58100 46.81900
N  24.59800 -4.35500 43.80700
C  25.60400 -3.51500 43.51700
C  25.04700 -2.38900 42.67600
C  23.46200 -2.50300 42.77600
C  23.39700 -3.95200 43.43300
C  22.80300 -1.46500 43.66700
C  25.60400 -2.47300 41.22600
C  25.87300 -1.07800 40.50200
H  25.22400 -0.85800 39.15200
N  22.84800 -6.59500 44.74500
C  21.94700 -5.87000 44.06400
C  20.73200 -6.52800 43.90400
C  20.89900 -7.80800 44.50200
C  22.29800 -7.80400 44.96400
C  19.59200 -6.07100 43.00000
C  19.87400 -8.97700 44.55800
O  18.81300 -8.83800 43.97800
C  20.19900 -10.39600 45.13600
N  25.18400 -8.10400 46.06600
C  24.33200 -9.11300 46.01700
C  24.80800 -10.36400 46.84000
C  26.08400 -9.75300 47.54500
C  26.29700 -8.46600 46.68000
C  23.83400 -11.03500 47.89600
C  27.35100 -10.79400 47.50800
C  28.04900 -11.05500 48.79700
N  26.73600 -5.68100 45.49700
C  27.72200 -6.30600 46.23700
C  28.95900 -5.52100 46.21900
C  28.70400 -4.49700 45.33600
C  27.32500 -4.59200 44.97500
C  30.26500 -5.84100 46.77300
C  29.28000 -3.32100 44.64000
O  30.41000 -2.88100 44.55200
C  28.11600 -2.75900 43.74600
C  27.91200 -1.33200 44.17000
O  27.33100 -0.90100 45.15800
O  28.54200 -0.50300 43.35400
C  28.53400 0.91000 43.69300
H  21.33900 -4.03900 43.15800
H  22.31500 -9.79900 45.80000
H  28.36100 -7.83800 47.35400
H  25.44800 -1.50800 43.17800
H  23.10700 -2.40600 41.75000
H  23.46200 -0.62700 43.89500
H  22.56900 -1.99000 44.59400
H  21.87600 -1.04200 43.28000
H  24.86000 -2.94100 40.58200
H  26.48400 -3.07200 40.98600
H  26.94200 -0.89500 40.39500
H  25.52400 -0.30100 41.18200
H  18.66300 -5.95100 43.55900
H  19.44300 -6.85400 42.25600
H  19.74800 -5.15900 42.42400
H  19.27100 -10.96100 45.05400
H  20.47000 -10.34400 46.19100
H  21.02700 -10.80400 44.55600
H  25.04800 -11.10400 46.07700
H  25.81900 -9.37200 48.53100
H  23.03700 -10.33600 48.15100
H  24.41200 -11.52800 48.67800
H  23.42800 -11.86100 47.31200
H  28.16300 -10.39200 46.90100
H  26.91900 -11.70800 47.10100
H  27.67200 -12.05100 49.03100
H  27.74700 -10.36700 49.58600
H  29.12400 -11.16100 48.65000
H  30.62900 -6.78300 46.36200
H  30.24700 -5.91700 47.86100
H  30.99500 -5.10100 46.44500
H  28.50300 -2.81600 42.72900
H  27.54300 1.35900 43.63000
H  29.23700 1.29400 42.95300
H  28.99300 1.17700 44.64600
Mg 17.18400 52.18400 24.59900
C  18.89000 50.95600 27.31200
C  14.48800 53.04000 26.52000
C  15.36900 53.02300 21.70200
C  19.65500 50.86300 22.47700
N  16.74900 51.96200 26.68900
C  17.67900 51.51100 27.63300
C  17.11600 51.86100 29.00000
C  15.60100 52.23200 28.71100
C  15.59800 52.45800 27.19100
C  14.55100 51.19100 29.22900
C  17.89200 52.99100 29.68700
C  17.49900 53.71000 31.00200
H  16.58800 52.92900 32.01600
N  15.17600 52.94800 24.21900
C  14.24800 53.23100 25.11500
C  13.06500 53.76100 24.46000
C  13.34400 53.92600 23.09100
C  14.70400 53.30500 22.91800
C  11.82900 54.05300 25.22600
C  12.45500 54.50700 22.04900
O  12.80800 54.67200 20.86500
C  11.00000 54.83400 22.36700
N  17.46000 51.98300 22.41800
C  16.60100 52.43200 21.45800
C  17.22800 52.39200 20.10000
C  18.61900 51.90800 20.32300
C  18.61700 51.54300 21.84300
C  16.39700 51.35400 19.16400
C  19.74800 52.87900 19.98600
C  21.10000 52.20300 19.80300
N  19.04800 51.20600 24.81800
C  19.89300 50.68500 23.87200
C  20.96000 49.91600 24.54600
C  20.69200 50.16800 25.98200
C  19.40400 50.77000 26.03200
C  22.08800 49.09900 23.88900
C  21.14800 49.94100 27.25500
O  22.14300 49.36600 27.62300
C  20.01800 50.52100 28.22900
C  19.64500 49.59200 29.30900
O  19.17500 48.45400 29.21400
O  19.86200 50.19300 30.53200
C  19.24200 49.53000 31.72400
H  13.67700 53.28400 27.21000
H  14.76500 53.17800 20.80600
H  20.47400 50.49400 21.85600
H  17.23700 51.02700 29.69100
H  15.25400 53.18800 29.10200
H  13.67700 51.77900 29.50700
H  14.91500 50.56600 30.04400
H  14.21600 50.54000 28.42100
H  17.93700 53.79800 28.95500
H  18.95100 52.75300 29.78900
H  17.01000 54.65700 30.77400
H  18.45900 53.98200 31.44200
H  11.60400 55.09700 25.00800
H  11.99500 54.19200 26.29500
H  11.04700 53.35800 24.92200
H  10.49600 54.20600 23.10300
H  10.38300 54.65100 21.48700
H  10.99800 55.85900 22.73600
H  17.24800 53.37600 19.63200
H  18.84000 50.95700 19.83700
H  17.01300 50.67700 18.57100
H  15.89900 51.92900 18.38400
H  15.70800 50.78200 19.78500
H  19.78600 53.60900 20.79400
H  19.56100 53.34100 19.01700
H  21.85300 52.55600 20.50800
H  21.44900 52.45200 18.80100
H  21.01900 51.11600 19.79900
H  22.74700 49.83500 23.42900
H  21.73800 48.37100 23.15800
H  22.63900 48.49700 24.61200
H  20.42400 51.43200 28.66700
H  19.24700 48.44500 31.62000
H  18.19800 49.83700 31.67500
H  19.74000 49.73400 32.67200

