158

Mg 25.87800 1.15500 29.26200
C  27.83200 0.75000 32.13100
C  23.14000 1.55800 31.26600
C  24.13500 1.37600 26.43800
C  28.78600 0.22300 27.40800
N  25.58800 0.97400 31.51800
C  26.55300 1.04700 32.44600
C  25.96200 1.30700 33.82700
C  24.40900 1.33500 33.54800
C  24.33900 1.29100 32.03700
C  23.57300 0.21000 34.30200
C  26.45400 2.58100 34.50400
C  26.91600 2.51600 35.99000
H  26.37100 3.61700 36.97700
N  23.92500 1.39200 28.89400
C  22.88800 1.59000 29.81600
C  21.61200 1.84500 29.15800
C  21.87200 1.75600 27.75700
C  23.35600 1.51900 27.63200
C  20.37400 2.15800 29.98700
C  20.92400 1.87600 26.59600
O  21.29000 1.65300 25.44200
C  19.47100 2.19500 26.73300
N  26.41400 0.78500 27.23700
C  25.49200 1.01300 26.22800
C  26.12600 0.82000 24.91300
C  27.64200 0.62700 25.22100
C  27.63300 0.49900 26.71700
C  25.53000 -0.33500 23.98800
C  28.64100 1.78000 24.73900
C  28.48600 3.16800 25.29100
N  27.86200 0.50600 29.60600
C  28.89900 0.21200 28.76100
C  30.12300 0.07700 29.53300
C  29.73000 0.37400 30.85100
C  28.33800 0.52500 30.82600
C  31.47400 -0.23000 29.06900
C  30.25300 0.61100 32.17700
O  31.41300 0.57000 32.60000
C  29.05500 0.81800 33.07000
C  28.98600 -0.15800 34.16200
O  28.83600 -1.36900 34.03700
O  29.12700 0.53700 35.33700
C  29.44400 -0.31600 36.47400
H  22.26400 1.75500 31.88700
H  23.60200 1.48300 25.49000
H  29.66100 0.01300 26.78900
H  26.16500 0.42100 34.42800
H  24.05600 2.31700 33.86300
H  23.07000 -0.42400 33.57300
H  22.78800 0.65600 34.91200
H  24.20600 -0.39500 34.95100
H  25.61300 3.27300 34.50200
H  27.19100 3.02100 33.83200
H  27.99500 2.65200 35.91000
H  26.88300 1.58600 36.55600
H  20.32700 3.22500 30.20800
H  20.42400 1.66700 30.95900
H  19.48100 1.92800 29.40500
H  18.88500 1.95800 25.84600
H  19.18300 3.13800 27.19900
H  19.20800 1.42100 27.45300
H  26.04000 1.75600 24.36100
H  28.01500 -0.38500 25.07000
H  24.96500 -0.99800 24.64300
H  26.34500 -0.86400 23.49300
H  24.84500 0.11300 23.26700
H  28.50500 1.83100 23.65900
H  29.61700 1.30000 24.81800
H  27.81300 3.17700 26.14900
H  28.20500 3.94600 24.58100
H  29.41800 3.51900 25.73400
H  31.44900 -1.29900 28.85500
H  32.27000 -0.09900 29.80200
H  31.68900 0.36400 28.18100
H  29.22000 1.80700 33.49900
H  28.65000 -0.37100 37.21800
H  30.21800 0.05500 37.14500
H  29.74500 -1.33100 36.21500
Mg 54.94400 23.68300 44.96700
C  52.61100 26.13600 43.85400
C  52.88400 21.28800 43.67400
C  57.45900 21.54200 45.41300
C  57.06300 26.31500 46.01500
N  53.10800 23.70600 43.68000
C  52.32400 24.83900 43.31200
C  51.14600 24.34600 42.36400
C  51.07800 22.83400 42.83100
C  52.45100 22.56800 43.44200
C  49.96700 22.47200 43.84200
C  51.37300 24.61000 40.79700
C  50.38100 25.61300 40.09800
H  49.57800 25.08400 38.94500
N  55.16200 21.60900 44.56700
C  54.12600 20.73600 44.14300
C  54.58400 19.40700 44.19000
C  55.94600 19.47900 44.58300
C  56.23300 20.93900 44.85300
C  53.72200 18.14100 43.82100
C  56.88100 18.34700 44.75400
O  56.51500 17.20300 44.41700
C  58.26900 18.43500 45.21200
N  57.14900 23.97500 45.49700
C  57.90900 22.90400 45.70000
C  59.24800 23.32500 46.23400
C  59.11600 24.86500 46.58700
C  57.70600 25.08700 45.99700
C  59.72600 22.45600 47.52500
C  60.17500 25.84200 46.01000
C  61.55100 25.88400 46.80500
N  54.82400 25.74000 45.11000
C  55.75300 26.70400 45.51100
C  55.20500 27.96000 45.47600
C  53.91200 27.80700 44.89500
C  53.79700 26.42500 44.55800
C  55.89200 29.18900 46.12800
C  52.71100 28.53000 44.46500
O  52.50500 29.72700 44.60400
C  51.83900 27.46700 43.84000
C  51.39400 27.80700 42.50900
O  52.04000 27.78700 41.47300
O  50.04700 28.18400 42.43300
C  49.62000 28.91600 41.16600
H  52.15600 20.51900 43.40500
H  58.31600 20.90400 45.64100
H  57.71200 27.15400 46.27700
H  50.23700 24.77800 42.78300
H  50.86800 22.17200 41.99100
H  49.81100 21.39900 43.73300
H  49.02100 22.93800 43.56700
H  50.19000 22.87100 44.83100
H  51.29200 23.61400 40.36200
H  52.37800 24.99300 40.62200
H  50.89900 26.54000 39.85100
H  49.62500 25.89000 40.83200
H  54.30300 17.23000 43.67600
H  53.06900 18.25300 42.95600
H  53.16400 17.97000 44.74200
H  58.97100 18.99500 44.59400
H  58.61600 17.40200 45.17000
H  58.44600 18.73000 46.24700
H  59.92200 23.16600 45.39300
H  59.05700 24.93400 47.67400
H  59.74500 23.09900 48.40400
H  60.66200 21.95300 47.27900
H  59.01500 21.63700 47.63600
H  59.88100 26.89200 46.00100
H  60.41800 25.54000 44.99100
H  61.76800 24.99500 47.39800
H  61.47800 26.72400 47.49700
H  62.40700 25.97600 46.13700
H  56.98000 29.23400 46.17900
H  55.43800 29.25000 47.11700
H  55.49100 30.06300 45.61300
H  51.02600 27.23700 44.53000
H  48.91500 29.69800 41.44800
H  49.17900 28.21700 40.45700
H  50.54600 29.25300 40.69900

