158

Mg 30.31600 57.41900 39.52000
C  27.81500 55.36000 38.40800
C  32.70100 55.08200 38.78800
C  32.67300 59.84700 39.89700
C  27.80700 60.11200 39.84400
N  30.23700 55.58000 38.47800
C  29.09400 54.78700 38.31500
C  29.42900 53.29500 38.09800
C  30.86900 53.24400 38.59000
C  31.32100 54.72000 38.62400
C  31.15600 52.38000 39.85800
C  29.04100 52.74500 36.73100
C  29.40300 53.59500 35.51600
H  28.17800 54.01300 34.52800
N  32.44400 57.43700 39.38700
C  33.22000 56.37100 39.05400
C  34.58300 56.85900 39.05900
C  34.64400 58.21900 39.32400
C  33.16900 58.52500 39.56800
C  35.73500 56.07700 38.57700
C  35.90900 59.06000 39.29900
O  36.97600 58.59600 38.98000
C  35.89600 60.46100 39.59700
N  30.23800 59.64500 39.77900
C  31.37400 60.33100 40.02100
C  31.06300 61.80800 40.35400
C  29.47800 61.93500 40.15000
C  29.13700 60.45600 39.93500
C  31.41700 62.22500 41.77900
C  28.92700 62.71100 38.93700
C  27.93800 63.85500 39.16600
N  28.19100 57.72700 39.30200
C  27.34900 58.81100 39.44900
C  25.99000 58.37300 39.02900
C  26.12800 57.00800 38.74200
C  27.48300 56.74800 38.86100
C  24.77800 59.23600 38.78900
C  25.40300 55.82500 38.38700
O  24.20800 55.69500 38.10500
C  26.49700 54.66000 38.30200
C  26.22500 53.70800 39.45300
O  26.82300 53.54900 40.53400
O  25.16500 52.94900 39.00500
C  24.68800 51.97600 39.97500
H  33.39300 54.24900 38.92900
H  33.35000 60.67200 40.12800
H  27.06400 60.90700 39.93500
H  28.76600 52.72500 38.74700
H  31.50100 52.87300 37.78300
H  30.61500 51.44700 39.69800
H  30.73800 52.93600 40.69800
H  32.21800 52.14100 39.90000
H  27.95200 52.72000 36.75700
H  29.52900 51.77400 36.64600
H  30.17700 53.05700 34.96900
H  29.85200 54.53200 35.84300
H  36.49800 56.60500 38.00600
H  35.31600 55.27700 37.96700
H  36.16700 55.55100 39.42900
H  35.26600 61.01600 38.90200
H  36.91700 60.83800 39.53100
H  35.58700 60.61100 40.63100
H  31.63700 62.43200 39.66800
H  29.07400 62.24800 41.11200
H  32.41300 61.86400 42.03600
H  30.70800 61.91000 42.54500
H  31.53800 63.30500 41.86900
H  28.54100 62.03500 38.17400
H  29.81300 63.13800 38.46900
H  27.06200 63.61600 38.56400
H  28.30100 64.87900 39.07200
H  27.54500 63.76200 40.17900
H  24.58800 59.68600 39.76400
H  23.85400 58.67000 38.66700
H  24.81200 60.00800 38.02100
H  26.30100 54.13700 37.36700
H  25.53400 51.44500 40.41100
H  24.17500 51.15100 39.48000
H  24.04000 52.41500 40.73300
Mg -11.04600 38.55500 41.49500
C  -9.04500 35.67400 40.91900
C  -8.50500 40.31900 39.57000
C  -13.21300 41.07900 40.93500
C  -13.63400 36.45500 42.44000
N  -9.06800 38.07900 40.38800
C  -8.50300 36.82600 40.23100
C  -7.17500 36.87200 39.53800
C  -6.91900 38.41400 39.32500
C  -8.15900 39.03100 39.93200
C  -5.64500 38.99200 39.99700
C  -7.16200 36.04000 38.21900
C  -5.89600 35.08000 38.17300
H  -4.78300 35.52800 37.14100
N  -10.82600 40.51400 40.56800
C  -9.75300 40.96800 39.83100
C  -10.04800 42.34000 39.46200
C  -11.31100 42.70200 40.03800
C  -11.85300 41.39800 40.57900
C  -9.08000 43.19500 38.69000
C  -12.04900 44.03200 39.96700
O  -11.54300 45.02700 39.43300
C  -13.43100 44.29800 40.81200
N  -13.03500 38.76400 41.60400
C  -13.70300 39.93700 41.49200
C  -15.22100 39.88400 41.86100
C  -15.43900 38.40400 42.21600
C  -13.93100 37.83800 42.12600
C  -15.57800 40.95900 42.97500
C  -16.54600 37.53500 41.50400
C  -17.40700 36.59800 42.45700
N  -11.26700 36.48000 42.00900
C  -12.36100 35.85900 42.41100
C  -12.02500 34.43000 42.61400
C  -10.66000 34.36800 42.07500
C  -10.30200 35.58900 41.59600
C  -12.86800 33.43400 43.28900
C  -9.45800 33.48600 41.79600
O  -9.18900 32.37200 42.17300
C  -8.57800 34.25800 40.82500
C  -7.14400 33.97300 41.18800
O  -6.57300 32.93600 40.89300
O  -6.66400 34.95200 41.99100
C  -5.27900 34.92800 42.48300
H  -7.75200 40.75300 38.90900
H  -13.91000 41.90000 40.75800
H  -14.53300 35.84000 42.52200
H  -6.41100 36.45500 40.19400
H  -7.02300 38.72800 38.28600
H  -5.91200 39.18400 41.03600
H  -5.33700 39.85400 39.40600
H  -4.76200 38.35400 39.96600
H  -6.95900 36.69700 37.37300
H  -8.07600 35.46000 38.08600
H  -6.26800 34.12400 37.80600
H  -5.42600 35.00300 39.15400
H  -9.52200 44.13700 38.36600
H  -8.88300 42.64000 37.77200
H  -8.28100 43.55700 39.33600
H  -13.31700 43.85800 41.80300
H  -14.21700 43.87600 40.18500
H  -13.54500 45.38000 40.87800
H  -15.87700 40.13900 41.02900
H  -15.70100 38.42400 43.27300
H  -14.67800 41.12100 43.56800
H  -16.36400 40.64100 43.65900
H  -15.96300 41.77100 42.35700
H  -15.99200 36.89300 40.82000
H  -17.16700 38.19100 40.89400
H  -17.62500 37.07000 43.41500
H  -16.89500 35.64000 42.54500
H  -18.28700 36.45500 41.83000
H  -13.88300 33.82900 43.33700
H  -12.48200 33.24500 44.29000
H  -12.68900 32.54900 42.67900
H  -8.64000 33.96900 39.77600
H  -5.15400 35.43100 43.44200
H  -4.52100 35.24500 41.76700
H  -5.08400 33.87300 42.67800

