158

Mg -1.87300 17.37900 27.23500
C  -2.45100 15.36000 30.08000
C  -2.71900 20.12600 29.24300
C  -1.97600 19.19100 24.34300
C  -1.73100 14.35700 25.30600
N  -2.36700 17.67800 29.42900
C  -2.58700 16.73100 30.38200
C  -2.95700 17.35000 31.76200
C  -3.29200 18.83400 31.39200
C  -2.75300 18.89600 29.96800
C  -4.78600 19.15200 31.59500
C  -1.83600 17.16500 32.81600
C  -2.47600 16.62000 34.17100
H  -1.63000 17.02900 35.36800
N  -2.19700 19.34300 26.87600
C  -2.36900 20.34600 27.81600
C  -2.49000 21.61400 27.11300
C  -2.18900 21.36500 25.71600
C  -2.13000 19.92900 25.60800
C  -2.71200 22.92800 27.80700
C  -1.94300 22.44500 24.56600
O  -1.73800 22.11100 23.42100
C  -2.03000 23.99300 24.81900
N  -1.72900 16.87800 25.15000
C  -1.90500 17.78100 24.18200
C  -1.83300 17.13000 22.80900
C  -1.51600 15.67100 23.14500
C  -1.63400 15.59900 24.65500
C  -3.07300 17.32700 21.90400
C  -0.11400 15.21400 22.76000
C  1.15600 16.01000 23.29100
N  -1.91300 15.33000 27.59300
C  -1.94000 14.21800 26.71200
C  -2.13600 13.00500 27.44500
C  -2.38300 13.45100 28.75500
C  -2.20100 14.86500 28.82700
C  -2.10100 11.64800 26.77400
C  -2.66400 12.95500 30.03200
O  -2.93000 11.84800 30.47900
C  -2.63200 14.17300 30.97600
C  -1.58500 13.90300 32.02700
O  -0.42500 14.01800 31.83300
O  -2.17800 13.35100 33.14700
C  -1.21500 12.99000 34.14400
H  -3.06600 21.01400 29.77500
H  -2.09200 19.56900 23.32500
H  -1.76100 13.46800 24.67300
H  -3.86100 16.86100 32.12600
H  -2.66100 19.50000 31.98000
H  -4.71600 20.12500 32.08300
H  -5.18200 18.41400 32.29300
H  -5.37600 19.14000 30.67900
H  -1.38800 18.12600 33.07000
H  -1.04100 16.56500 32.37500
H  -2.34000 15.53900 34.14500
H  -3.53200 16.85700 34.30100
H  -1.95800 23.66500 27.53000
H  -2.81300 22.84600 28.88900
H  -3.63400 23.38900 27.45200
H  -1.89100 24.62300 23.94000
H  -1.30700 24.33800 25.55900
H  -3.00900 24.35300 25.13500
H  -0.96000 17.60800 22.36300
H  -2.25000 15.01300 22.68000
H  -3.56300 18.26900 22.14800
H  -3.85800 16.58400 22.04800
H  -2.84500 17.44100 20.84400
H  -0.09900 15.15800 21.67200
H  -0.10300 14.21400 23.19300
H  0.89600 16.93900 23.79900
H  1.88300 16.25100 22.51500
H  1.81700 15.47200 23.97000
H  -1.11700 11.42300 26.36300
H  -2.78300 11.67700 25.92500
H  -2.56600 10.99500 27.51300
H  -3.62000 14.28000 31.42300
H  -0.57000 13.84400 34.35400
H  -0.55500 12.16400 33.88100
H  -1.67600 12.71000 35.09100
Mg 36.12700 48.77500 24.06100
C  36.57400 47.04700 27.24200
C  34.86800 51.36800 25.97900
C  35.83700 50.35800 21.28700
C  37.43900 46.03800 22.49000
N  35.63600 49.04800 26.33800
C  36.03500 48.34600 27.45300
C  35.62000 49.01000 28.79900
C  34.99000 50.34500 28.27100
C  35.11100 50.25500 26.75900
C  33.54500 50.70600 28.75700
C  36.85900 49.11900 29.71800
C  36.86700 48.42000 31.13200
H  35.52000 48.43400 31.99000
N  35.53200 50.61200 23.68200
C  34.98600 51.54100 24.64800
C  34.55800 52.72200 23.89800
C  34.77600 52.45700 22.49900
C  35.36100 51.09300 22.43700
C  33.94900 53.89000 24.54000
C  34.38600 53.19500 21.23000
O  34.49000 52.73100 20.08600
C  33.67400 54.48900 21.34000
N  36.41100 48.17600 22.12100
C  36.34800 49.06600 21.13700
C  36.63700 48.44200 19.73100
C  37.36400 47.20700 20.18800
C  37.06300 47.11900 21.66800
C  35.39500 48.10200 18.90500
C  38.89300 47.15600 19.81400
C  39.79300 47.96300 20.76200
N  36.82000 46.85600 24.67000
C  37.29300 45.87000 23.88800
C  37.64000 44.73800 24.70200
C  37.36400 45.10900 26.01400
C  36.79500 46.41300 25.96700
C  38.30000 43.42600 24.29500
C  37.55400 44.71800 27.40100
O  38.07300 43.75300 27.98000
C  36.91800 45.94400 28.18000
C  35.73400 45.46800 29.03000
O  34.56100 45.62300 28.72900
O  36.17800 44.95200 30.20300
C  35.11600 44.47200 31.16400
H  34.43800 52.21800 26.51300
H  35.92500 50.87900 20.33200
H  37.77900 45.13000 21.98900
H  34.82500 48.43000 29.26800
H  35.64200 51.14200 28.62900
H  33.06800 49.78200 29.08500
H  32.88500 50.99800 27.94000
H  33.43900 51.44200 29.55300
H  37.08500 50.17000 29.90100
H  37.74300 48.66700 29.26900
H  37.62500 48.96500 31.69300
H  37.26100 47.40500 31.07000
H  32.87400 53.87800 24.71500
H  34.14400 54.84200 24.04800
H  34.30800 53.94800 25.56800
H  33.19600 54.78300 20.40600
H  34.34600 55.20400 21.81600
H  32.89600 54.23300 22.05900
H  37.26900 49.04700 19.08000
H  36.84300 46.32800 19.80700
H  35.26800 48.82500 18.09900
H  34.55200 47.97300 19.58300
H  35.48600 47.16800 18.35100
H  39.09500 47.58100 18.83100
H  39.21800 46.12300 19.94200
H  40.58100 48.47200 20.20700
H  40.18000 47.47600 21.65600
H  39.22900 48.76400 21.23900
H  38.48700 43.32300 23.22600
H  37.70700 42.65500 24.78800
H  39.27100 43.34200 24.78200
H  37.63500 46.24200 28.94500
H  34.98000 43.39200 31.21300
H  34.10500 44.87300 31.08400
H  35.47400 44.79100 32.14300

