158

Mg 47.65700 16.71900 29.44500
C  45.40100 15.88700 31.86900
C  49.57000 18.54300 31.68400
C  49.61900 17.79200 26.92000
C  45.45900 15.32000 27.00400
N  47.53300 17.06600 31.45800
C  46.50200 16.61400 32.31300
C  46.90400 16.84500 33.79000
C  47.95300 18.02100 33.62100
C  48.37600 17.90900 32.15200
C  47.37200 19.39300 34.04200
C  47.43500 15.51800 34.40600
C  47.12500 15.28900 35.86800
H  46.98300 16.66200 36.67800
N  49.44300 17.91500 29.34700
C  50.09700 18.50800 30.37800
C  51.39700 18.89500 29.97300
C  51.44900 18.75600 28.55600
C  50.09800 18.12800 28.22200
C  52.50300 19.40300 30.91000
C  52.57400 19.07000 27.60800
O  52.43400 18.93200 26.40800
C  53.81800 19.54600 28.14000
N  47.35100 16.79300 27.22800
C  48.43900 17.18200 26.48400
C  48.20800 16.93300 24.99200
C  47.01800 15.88500 25.05400
C  46.55600 16.02700 26.52300
C  47.72000 18.30300 24.34700
C  47.37700 14.50800 24.71900
C  46.40400 13.63500 23.89900
N  45.84500 15.71500 29.47200
C  45.12400 15.12400 28.43500
C  43.99400 14.37500 28.98700
C  44.03400 14.70300 30.28000
C  45.14600 15.51300 30.55000
C  42.89700 13.56100 28.25900
C  43.39200 14.70700 31.59500
O  42.25900 14.29600 32.00900
C  44.22000 15.36800 32.63300
C  43.54700 16.36400 33.39500
O  43.20200 17.46600 32.98400
O  43.29000 15.96700 34.67800
C  42.87400 16.88200 35.73500
H  50.09400 19.15600 32.42100
H  50.22600 17.99500 26.03500
H  44.89400 14.74900 26.26500
H  46.08200 17.14400 34.44100
H  48.86400 17.81200 34.18200
H  46.46300 19.31000 34.63700
H  47.25100 20.03600 33.17000
H  48.14500 19.87200 34.64400
H  48.50900 15.61900 34.25000
H  47.06000 14.65500 33.85600
H  47.94600 14.69100 36.26400
H  46.15400 14.79400 35.87100
H  53.42500 18.83500 30.79100
H  52.27500 19.18900 31.95400
H  52.63600 20.47400 30.75800
H  53.60800 20.30200 28.89700
H  54.37700 20.00200 27.32300
H  54.44200 18.74400 28.53500
H  49.17600 16.59000 24.62600
H  46.19400 16.17200 24.40000
H  47.71700 19.11200 25.07800
H  46.67100 18.33300 24.05200
H  48.38100 18.54500 23.51500
H  47.45800 13.99900 25.67900
H  48.40200 14.46300 24.35100
H  45.60500 14.24600 23.48000
H  46.03600 12.79000 24.48200
H  47.06500 13.29400 23.10200
H  43.19300 12.53300 28.04700
H  42.75300 14.12800 27.33900
H  42.02900 13.65400 28.91000
H  44.53400 14.57800 33.31600
H  41.83100 17.17200 35.61300
H  43.57700 17.71300 35.79000
H  42.90200 16.41200 36.71800
Mg 30.10700 57.84100 38.75400
C  27.54100 55.84900 37.64800
C  32.33500 55.33200 38.24800
C  32.58800 60.18400 39.30900
C  27.78300 60.58500 38.89900
N  29.91400 55.88100 37.85600
C  28.71500 55.21500 37.66500
C  28.98700 53.72100 37.15900
C  30.52700 53.63700 37.44300
C  31.00500 55.02600 37.84500
C  30.98400 52.47300 38.31700
C  28.61700 53.49200 35.61300
C  29.03400 54.68600 34.72300
H  27.99000 55.22600 33.70700
N  32.15200 57.74600 38.86400
C  32.87100 56.59800 38.65800
C  34.29500 56.86000 39.02600
C  34.39500 58.25500 39.39000
C  32.99300 58.78600 39.17400
C  35.35800 55.72400 38.81800
C  35.72900 58.89100 39.87300
O  36.66800 58.13700 40.21000
C  35.83600 60.33200 40.01800
N  30.12200 60.10300 38.98000
C  31.37000 60.76300 39.27600
C  31.08700 62.24300 39.34800
C  29.49500 62.43000 39.37300
C  29.11300 60.95700 39.04200
C  31.98800 63.11500 40.34600
C  29.07400 63.48500 38.39100
C  27.81600 64.23000 38.75300
N  28.09200 58.18500 38.49800
C  27.26600 59.34300 38.50100
C  25.94700 59.00800 38.04700
C  25.95400 57.62700 37.88700
C  27.30600 57.19500 37.98400
C  24.75800 59.92000 37.87100
C  25.17200 56.48400 37.52200
O  23.94600 56.32400 37.33200
C  26.17700 55.24500 37.45300
C  25.72400 54.12900 38.38700
O  26.18500 53.88900 39.46700
O  24.78700 53.39400 37.69000
C  24.05600 52.51900 38.60400
H  33.04900 54.50700 38.29400
H  33.37600 60.88800 39.58900
H  27.17100 61.46000 39.12400
H  28.44300 53.04400 37.81700
H  31.09600 53.54100 36.51800
H  31.40700 52.78700 39.27100
H  31.69900 51.78300 37.86800
H  30.12400 51.84200 38.54100
H  27.60700 53.12500 35.43000
H  29.26200 52.67100 35.30100
H  29.86900 54.32400 34.12200
H  29.34500 55.57600 35.27000
H  35.16900 55.13400 37.92100
H  35.15800 54.99800 39.60600
H  36.39400 56.06400 38.81900
H  35.09600 60.80300 40.66500
H  35.58300 60.79500 39.06400
H  36.84500 60.67800 40.24300
H  31.46800 62.66800 38.41900
H  29.14300 62.72900 40.36000
H  32.53600 63.94400 39.89700
H  32.70400 62.44600 40.82300
H  31.32700 63.52700 41.10800
H  28.93500 62.96700 37.44100
H  29.80300 64.29300 38.33000
H  27.15000 64.14700 37.89400
H  27.94300 65.23500 39.15500
H  27.35700 63.75800 39.62100
H  24.11300 59.63500 38.70200
H  24.18800 59.84600 36.94400
H  24.96300 60.94900 38.16700
H  26.22100 54.88100 36.42700
H  23.03200 52.84200 38.79500
H  24.57100 52.22100 39.51700
H  23.96400 51.60100 38.02400

