158

Mg 44.93800 4.51200 48.30700
C  43.04900 7.15500 47.27600
C  42.43900 2.43800 47.62700
C  47.05600 1.83800 48.85600
C  47.75600 6.56800 48.31100
N  43.04200 4.81200 47.43700
C  42.35600 5.94900 47.14800
C  40.90300 5.71000 46.59500
C  40.67300 4.24100 47.12200
C  42.14700 3.80200 47.49600
C  39.49700 4.08600 48.16000
C  40.82200 5.84000 45.03500
C  40.01400 7.01300 44.39100
H  39.05500 6.71900 43.27800
N  44.75200 2.44400 48.06000
C  43.64900 1.76100 47.82900
C  43.89500 0.39900 47.78500
C  45.24200 0.16900 48.18000
C  45.79000 1.48400 48.35900
C  42.73800 -0.60800 47.66900
C  45.87300 -1.15000 48.48600
O  45.31500 -2.18900 48.12400
C  47.23300 -1.38400 49.01500
N  47.16700 4.19000 48.42700
C  47.75400 3.06000 48.93200
C  49.15800 3.15000 49.24000
C  49.32900 4.69300 49.07200
C  48.02700 5.21600 48.44800
C  49.59600 2.59800 50.59500
C  50.56600 5.16300 48.24000
C  51.43900 6.20300 48.87600
N  45.34100 6.50100 47.99300
C  46.54500 7.19300 47.99900
C  46.23100 8.62300 47.77700
C  44.86100 8.63500 47.55900
C  44.42400 7.36800 47.59700
C  47.08200 9.79900 47.79300
C  43.74500 9.61700 47.27100
O  43.63900 10.81800 47.15000
C  42.49600 8.54300 47.08600
C  41.44700 8.84700 48.19300
O  41.15800 8.09300 49.11400
O  40.89100 10.05400 47.89700
C  39.82700 10.44800 48.83200
H  41.49600 1.88900 47.59800
H  47.77800 1.03100 49.00200
H  48.61100 7.23400 48.45000
H  40.26700 6.47600 47.03900
H  40.30000 3.67900 46.26600
H  39.20100 5.06900 48.52600
H  39.91000 3.57700 49.03100
H  38.57400 3.71100 47.71800
H  40.42800 4.87100 44.72900
H  41.84400 5.91900 44.66300
H  40.71000 7.76900 44.02800
H  39.55500 7.50100 45.25200
H  42.92500 -1.29400 46.84300
H  41.79600 -0.11800 47.42500
H  42.58500 -1.25500 48.53400
H  47.41100 -2.44600 49.18200
H  47.38700 -0.74500 49.88400
H  47.78800 -1.08300 48.12700
H  49.69300 2.59900 48.46700
H  49.38200 5.08700 50.08700
H  48.68800 2.47900 51.18700
H  50.33300 3.21300 51.11200
H  50.09100 1.64300 50.41800
H  50.36800 5.60900 47.26500
H  51.28900 4.35100 48.15400
H  51.56200 6.02200 49.94300
H  50.84000 7.10700 48.76700
H  52.41200 6.32800 48.40100
H  46.70100 10.49300 48.54200
H  47.03600 10.22700 46.79200
H  48.07300 9.38800 47.98200
H  41.93600 8.62200 46.15500
H  38.95500 10.96300 48.43000
H  40.15800 10.91800 49.75800
H  39.27700 9.61100 49.26100
Mg -13.04900 16.00000 42.37300
C  -9.99200 14.47500 41.69500
C  -11.75400 18.82500 40.45200
C  -16.13200 17.30200 41.92500
C  -14.40300 12.90100 43.18200
N  -11.15200 16.53700 41.16700
C  -10.00700 15.73500 41.12000
C  -8.82300 16.49600 40.38100
C  -9.40900 17.94300 40.21100
C  -10.89600 17.73600 40.59200
C  -8.73600 19.06500 41.06400
C  -8.30700 15.93400 39.01100
C  -6.78400 16.26300 38.91400
H  -6.39300 16.88400 37.66300
N  -13.82800 17.85900 41.61000
C  -13.08300 18.84200 40.88000
C  -14.08800 19.88500 40.42800
C  -15.39200 19.30400 40.46100
C  -15.17100 18.09700 41.34800
C  -13.77900 21.21000 39.86700
C  -16.65000 19.95700 40.01200
O  -16.60900 20.99200 39.39200
C  -17.94900 19.33500 40.28700
N  -14.96600 15.15800 42.37800
C  -16.04800 15.97400 42.39200
C  -17.30000 15.16000 42.77300
C  -16.82600 13.64600 42.81000
C  -15.31600 13.87700 42.80200
C  -17.83900 15.65900 44.13200
C  -17.41800 12.75800 41.67100
C  -18.03700 11.41300 42.19500
N  -12.33600 14.06700 42.75700
C  -12.94800 12.98000 43.12400
C  -11.96000 11.98200 43.27500
C  -10.77300 12.48200 42.74500
C  -11.05900 13.76100 42.38700
C  -12.19700 10.56000 43.66600
C  -9.38200 12.27100 42.47200
O  -8.69500 11.26400 42.61900
C  -8.83200 13.58300 41.76500
C  -7.72500 14.05700 42.60900
O  -7.79200 14.19700 43.82200
O  -6.63400 14.23600 41.75100
C  -5.29300 14.66900 42.31300
H  -11.51100 19.76200 39.94600
H  -17.08900 17.82600 41.96500
H  -14.81900 11.95500 43.53500
H  -8.03600 16.56400 41.13200
H  -9.42000 18.20900 39.15400
H  -7.93700 18.69400 41.70500
H  -9.40400 19.51200 41.80000
H  -8.38000 19.75200 40.29600
H  -8.84700 16.37600 38.17300
H  -8.45800 14.85900 39.11300
H  -6.17600 15.38100 39.11400
H  -6.55500 17.01400 39.67000
H  -14.18400 22.04900 40.43300
H  -14.13400 21.16600 38.83700
H  -12.72400 21.45000 39.73300
H  -18.02200 18.26800 40.07600
H  -18.63700 19.87800 39.63900
H  -18.26800 19.52200 41.31300
H  -17.91000 15.45200 41.91800
H  -17.02600 13.26700 43.81100
H  -17.01600 16.16400 44.63800
H  -17.92200 14.80800 44.80700
H  -18.75200 16.23700 43.99000
H  -16.54000 12.37400 41.15200
H  -18.05800 13.24800 40.93600
H  -19.12600 11.43800 42.16200
H  -17.86600 11.23900 43.25700
H  -17.69200 10.49000 41.73000
H  -12.89600 10.19300 42.91400
H  -12.70700 10.53500 44.62800
H  -11.30800 9.93000 43.69100
H  -8.64200 13.26300 40.74000
H  -4.61200 14.78400 41.46900
H  -4.88200 13.93400 43.00500
H  -5.40300 15.63400 42.80800

