158

Mg 26.85500 49.70600 25.79500
C  24.96800 50.61600 28.52400
C  29.27400 48.43200 28.13900
C  29.00200 48.85500 23.20900
C  24.68400 50.98700 23.56900
N  27.22000 49.70600 28.16500
C  26.14200 49.90900 29.01100
C  26.42900 49.40100 30.45100
C  27.92600 49.06800 30.30400
C  28.11000 48.90700 28.72300
C  28.87500 50.13000 30.83200
C  25.51700 48.28800 31.02000
C  25.01700 48.32900 32.45900
H  25.67600 49.26700 33.62500
N  28.85800 48.80400 25.68500
C  29.62600 48.41800 26.76800
C  30.88600 47.93700 26.22000
C  30.89300 48.24900 24.83400
C  29.48200 48.57500 24.54400
C  31.88800 47.27700 27.13300
C  32.05600 48.10500 23.84300
O  31.96200 48.41300 22.66300
C  33.37800 47.62000 24.40200
N  26.87600 50.02900 23.69600
C  27.80400 49.45500 22.85300
C  27.46100 49.67900 21.38700
C  25.94800 50.27500 21.51600
C  25.78900 50.43200 23.01100
C  28.52400 50.49200 20.66800
C  24.76400 49.31000 21.00700
C  23.74200 49.88200 19.95100
N  25.24800 50.71000 26.00800
C  24.43300 51.23100 24.94900
C  23.35300 51.99500 25.59600
C  23.48900 51.62000 26.95300
C  24.68300 50.90900 27.16200
C  22.25000 52.80300 24.93800
C  22.82600 51.75100 28.20300
O  21.74100 52.24400 28.54800
C  23.68400 51.00700 29.29500
C  23.94500 51.92000 30.51700
O  24.04800 53.12000 30.54300
O  23.78900 51.11100 31.67100
C  23.32400 51.80400 32.89200
H  29.98400 47.91100 28.78600
H  29.56100 48.30700 22.44800
H  23.93200 51.31700 22.84900
H  26.10400 50.25100 31.05100
H  28.42400 48.19000 30.71500
H  29.29300 49.74800 31.76400
H  28.41500 51.06700 31.14400
H  29.66900 50.28200 30.10100
H  26.04600 47.34000 30.92500
H  24.71800 48.28000 30.27900
H  25.16200 47.34400 32.90200
H  23.93800 48.47900 32.51700
H  32.66400 47.95800 27.48200
H  32.38000 46.37800 26.76100
H  31.49500 46.88700 28.07300
H  34.08700 47.60300 23.57400
H  33.24600 46.58400 24.71300
H  33.74700 48.20700 25.24300
H  27.39800 48.67700 20.96400
H  25.91200 51.19200 20.92600
H  29.43100 50.42900 21.26800
H  28.21100 51.53600 20.66400
H  28.58900 50.09900 19.65300
H  24.18700 48.95300 21.86100
H  25.25600 48.45300 20.54700
H  23.85500 50.96300 19.87300
H  22.75200 49.54700 20.26100
H  23.87000 49.68700 18.88600
H  22.60400 53.16700 23.97300
H  22.10200 53.66700 25.58600
H  21.36300 52.19100 24.77500
H  23.17200 50.14900 29.73000
H  23.96400 52.67400 33.03900
H  23.31600 51.15700 33.77000
H  22.27000 52.04900 32.76200
Mg 17.61000 51.49000 25.74000
C  19.38900 50.14800 28.40100
C  15.22100 52.46700 28.00600
C  15.89000 52.79700 23.15500
C  19.80000 50.06500 23.46300
N  17.44400 51.50600 28.04100
C  18.30400 50.88100 28.90000
C  17.75400 50.85500 30.30800
C  16.34400 51.59800 30.17200
C  16.25200 51.82300 28.63200
C  15.14300 50.74800 30.57500
C  18.65000 51.54200 31.39500
C  18.45800 51.06200 32.83800
H  17.50400 51.78100 33.84800
N  15.89300 52.43200 25.61800
C  15.03000 52.72500 26.60500
C  13.83000 53.33900 26.11400
C  13.99800 53.54300 24.64300
C  15.30100 52.93700 24.42400
C  12.76500 53.80700 27.02200
C  13.09600 54.24600 23.60800
O  13.24300 54.31100 22.38600
C  11.90100 54.85800 24.20700
N  17.73300 51.31000 23.59900
C  16.97100 52.00700 22.73400
C  17.27900 51.75000 21.20700
C  18.59400 50.99000 21.39200
C  18.79900 50.79200 22.90700
C  16.15400 51.07700 20.33500
C  19.85800 51.67500 20.73600
C  20.83200 52.60800 21.52600
N  19.18300 50.32600 25.83200
C  20.01400 49.73800 24.84800
C  21.03600 48.99100 25.52400
C  20.80600 49.10100 26.90800
C  19.73100 49.92700 27.02500
C  22.14400 48.29100 24.81600
C  21.29100 48.70700 28.16800
O  22.23000 48.00300 28.47900
C  20.35500 49.41000 29.22700
C  19.88500 48.38500 30.12200
O  19.18400 47.39000 29.87200
O  20.51400 48.55800 31.36300
C  20.24400 47.57500 32.43100
H  14.42500 52.77900 28.68600
H  15.36800 53.14300 22.26000
H  20.40500 49.51400 22.74000
H  17.61100 49.80200 30.55400
H  16.21600 52.56300 30.66300
H  14.28600 50.94300 29.93100
H  14.76000 50.80500 31.59400
H  15.20600 49.74500 30.15200
H  18.34200 52.58600 31.44100
H  19.70100 51.39600 31.14600
H  19.48700 51.08400 33.19500
H  18.20500 50.00500 32.75300
H  11.74800 53.64500 26.66500
H  13.00700 54.86300 27.14400
H  12.73100 53.19700 27.92500
H  11.36500 55.38700 23.41900
H  12.19800 55.49500 25.04000
H  11.07500 54.19500 24.46400
H  17.58000 52.68200 20.72800
H  18.42700 49.99500 20.98200
H  16.55800 50.46600 19.52900
H  15.61700 51.91500 19.88900
H  15.60900 50.43600 21.02800
H  19.58800 52.20900 19.82500
H  20.46200 50.86900 20.31900
H  21.76700 52.12100 21.80100
H  20.32800 52.91000 22.44400
H  21.05400 53.44400 20.86300
H  22.83400 49.06400 24.47900
H  21.73900 47.95800 23.86100
H  22.66400 47.51200 25.37200
H  20.96400 50.06500 29.84900
H  19.90600 46.62400 32.02100
H  19.54200 47.80600 33.23300
H  21.23700 47.51300 32.87700

