158

Mg 1.93800 -0.97500 43.87800
C  5.34400 -0.10600 43.03400
C  0.86600 1.41600 41.92900
C  -1.13600 -2.57200 44.00700
C  3.39300 -4.04000 45.17600
N  3.05300 0.43900 42.56200
C  4.38500 0.70500 42.41100
C  4.57500 1.92900 41.56700
C  3.17800 2.49400 41.37900
C  2.29300 1.39400 42.06900
C  2.87600 3.99600 41.70400
C  5.28300 1.60200 40.23000
C  6.69000 2.23500 39.96900
H  6.81200 2.96900 38.62400
N  0.08200 -0.48700 43.19900
C  -0.14000 0.55800 42.41800
C  -1.54500 0.68800 42.35900
C  -2.15500 -0.48200 42.89200
C  -1.06100 -1.24600 43.39300
C  -2.13400 1.83500 41.68800
C  -3.64900 -0.74700 42.98900
O  -4.37500 0.11900 42.53500
C  -4.26000 -1.92000 43.67100
N  1.26700 -3.09900 44.48100
C  -0.04800 -3.42100 44.53700
C  -0.22900 -4.86700 45.18200
C  1.25300 -5.14500 45.77500
C  2.01000 -4.04300 45.08100
C  -1.37200 -4.93000 46.27300
C  1.85100 -6.60500 45.62600
C  2.31700 -7.34800 46.86400
N  3.97700 -1.82200 44.24400
C  4.32200 -3.07900 44.79200
C  5.79600 -3.02900 45.07700
C  6.28500 -1.87800 44.34600
C  5.10700 -1.20700 43.84300
C  6.56700 -4.11500 45.72300
C  7.43100 -1.12700 43.88500
O  8.66200 -1.28400 44.11500
C  6.87600 0.08100 43.06900
C  7.45000 1.28500 43.73400
O  7.01900 1.85800 44.78600
O  8.47200 1.85900 42.96600
C  8.84100 3.24300 43.16000
H  0.54900 2.28500 41.34800
H  -2.11600 -3.01400 44.19400
H  3.68100 -4.89400 45.79300
H  5.05800 2.75500 42.08700
H  2.79500 2.37300 40.36600
H  2.18400 4.21600 42.51700
H  2.50900 4.43600 40.77600
H  3.74900 4.54900 42.04900
H  4.62900 1.96500 39.43700
H  5.34500 0.51400 40.22300
H  7.36500 1.38000 40.00100
H  6.85900 2.91900 40.80100
H  -1.41000 2.65000 41.67200
H  -2.91900 2.26500 42.31000
H  -2.31800 1.71300 40.62100
H  -3.66800 -1.99300 44.58300
H  -4.07200 -2.75800 43.00000
H  -5.33300 -1.74200 43.74400
H  -0.55600 -5.67400 44.52700
H  1.38100 -4.80500 46.80200
H  -0.93800 -5.32800 47.19000
H  -2.08900 -5.69400 45.97500
H  -1.86900 -3.96200 46.34100
H  2.60800 -6.63900 44.84300
H  1.06900 -7.24000 45.20800
H  2.45200 -6.61700 47.66100
H  3.25000 -7.87200 46.65600
H  1.64700 -8.08600 47.30600
H  6.22100 -4.18200 46.75500
H  7.63700 -3.93900 45.61300
H  6.37000 -5.00900 45.13300
H  7.32700 0.00200 42.08000
H  7.99200 3.79700 42.76000
H  9.73700 3.40800 42.56200
H  9.18000 3.51200 44.16000
Mg 9.79400 47.81000 26.50500
C  7.69900 48.18700 29.42800
C  12.31400 49.22200 28.34500
C  11.62500 47.35800 23.89600
C  6.86600 47.53900 24.69600
N  9.97200 48.51000 28.70800
C  9.02500 48.46700 29.68700
C  9.72000 48.91600 31.00400
C  10.97700 49.69000 30.53100
C  11.15900 49.04800 29.15400
C  10.73700 51.21100 30.34800
C  10.19800 47.71600 31.93300
C  10.05900 47.87600 33.41800
H  9.75200 46.66000 34.33500
N  11.77500 48.25700 26.12400
C  12.64400 48.73800 27.03700
C  14.00000 48.62600 26.46600
C  13.82800 47.99100 25.21700
C  12.38600 47.86200 25.01400
C  15.24600 48.96100 27.29800
C  14.82600 47.55000 24.14800
O  14.45000 47.09000 23.09400
C  16.25900 47.61300 24.36500
N  9.30000 47.70200 24.47700
C  10.28700 47.35300 23.58200
C  9.70000 46.81600 22.31300
C  8.15600 46.95000 22.58000
C  8.06600 47.46700 23.98900
C  10.18400 47.60500 21.08600
C  7.38700 45.61800 22.30500
C  6.19900 45.71000 21.41000
N  7.69400 47.75700 26.92900
C  6.61700 47.65300 26.10200
C  5.40600 47.61300 26.77500
C  5.80200 47.79700 28.08500
C  7.17100 47.95100 28.13500
C  4.03500 47.33800 26.37400
C  5.32100 47.79500 29.47300
O  4.22500 47.65500 29.94400
C  6.56900 48.03300 30.41700
C  6.69800 46.92900 31.34700
O  7.27500 45.85800 31.13500
O  6.01300 47.22200 32.50000
C  5.64100 46.04600 33.36800
H  13.10100 49.72300 28.91100
H  12.20900 46.98100 23.05300
H  5.96500 47.31300 24.12200
H  8.99500 49.54400 31.52300
H  11.85700 49.50500 31.14700
H  11.39300 51.79300 30.99500
H  9.73100 51.52200 30.62800
H  10.88100 51.51500 29.31100
H  11.26200 47.52300 31.80100
H  9.72000 46.75400 31.74500
H  9.33300 48.64100 33.69400
H  11.02200 48.24200 33.77400
H  15.07400 48.89000 28.37200
H  15.70700 49.93400 27.13300
H  15.91500 48.15600 26.99500
H  16.51700 46.88200 25.13100
H  16.48600 48.58900 24.79300
H  16.77500 47.45400 23.41800
H  9.98400 45.76500 22.25400
H  7.80300 47.72000 21.89400
H  10.61500 48.51000 21.51600
H  9.45000 47.81100 20.30700
H  10.95600 46.97600 20.64100
H  6.98000 45.23200 23.23900
H  8.00000 44.81700 21.89300
H  5.97700 46.74200 21.13800
H  5.27600 45.40800 21.90400
H  6.31500 45.22200 20.44200
H  3.48400 48.27300 26.47100
H  3.54200 46.62900 27.03900
H  3.93500 46.93500 25.36600
H  6.44400 48.95400 30.98600
H  6.10500 46.14500 34.34900
H  5.92500 45.05700 33.00900
H  4.57200 46.07200 33.58100

