158

Mg 1.18400 41.91900 26.21200
C  3.21000 42.54500 28.98900
C  -1.26700 40.81400 28.54200
C  -0.59200 40.93300 23.69100
C  3.90400 42.61000 24.11700
N  1.09100 41.69300 28.52000
C  1.98300 42.10900 29.42100
C  1.39600 42.08300 30.89500
C  0.01500 41.41500 30.63500
C  -0.06600 41.28700 29.14400
C  -0.24900 40.07400 31.38800
C  1.17200 43.65700 31.25400
C  1.27800 44.03800 32.78400
H  1.19400 42.83600 33.70600
N  -0.70700 41.00700 26.09900
C  -1.54000 40.63800 27.17400
C  -2.73500 40.04000 26.64800
C  -2.53400 39.97400 25.24000
C  -1.27300 40.71200 24.91300
C  -3.79700 39.45400 27.59200
C  -3.32900 39.16200 24.21100
O  -3.06900 39.18200 23.00200
C  -4.49200 38.40100 24.64100
N  1.57300 41.89200 24.19800
C  0.60600 41.46500 23.32800
C  1.01800 41.59700 21.81100
C  2.34000 42.49100 22.07800
C  2.70100 42.35300 23.50100
C  1.31600 40.27900 21.00500
C  2.24300 43.97300 21.68500
C  3.37900 44.67100 20.91400
N  3.15800 42.42200 26.42700
C  4.14400 42.62500 25.49100
C  5.35400 42.94000 26.15700
C  5.07900 42.89200 27.53800
C  3.70500 42.55100 27.66900
C  6.54900 43.56600 25.50700
C  5.61300 43.02300 28.85400
O  6.79500 43.21800 29.19500
C  4.48700 42.73500 29.83100
C  4.88100 41.61300 30.69700
O  4.71800 40.44700 30.36300
O  5.34400 42.07400 31.88500
C  5.84100 41.07100 32.80100
H  -2.08700 40.69400 29.25200
H  -1.09700 40.52700 22.81300
H  4.66200 42.84700 23.36800
H  2.11000 41.55100 31.52400
H  -0.82400 42.09300 30.79100
H  0.56200 39.89600 32.09300
H  -0.36300 39.32500 30.60300
H  -1.17600 40.32500 31.90300
H  0.17200 44.00200 30.99300
H  1.92900 44.29900 30.80200
H  0.43500 44.70400 32.96600
H  2.22200 44.53700 33.00000
H  -4.81300 39.60100 27.22300
H  -3.90500 39.90600 28.57800
H  -3.59400 38.39200 27.72700
H  -4.92400 37.81000 23.83300
H  -5.21700 39.10800 25.04200
H  -4.18600 37.63800 25.35700
H  0.15400 42.02900 21.30600
H  3.17500 42.09800 21.49900
H  0.69700 39.54200 21.51700
H  2.34800 39.93300 21.07300
H  1.13300 40.55000 19.96500
H  2.10000 44.62000 22.55100
H  1.37800 44.11500 21.03700
H  2.98200 44.89600 19.92400
H  4.28800 44.06900 20.89000
H  3.69800 45.56700 21.44600
H  6.94000 44.13500 26.35100
H  6.20900 44.30800 24.78400
H  7.27200 42.85700 25.10600
H  4.38600 43.63600 30.43700
H  6.92000 41.11000 32.94500
H  5.56100 40.06200 32.49900
H  5.45700 41.24200 33.80600
Mg -2.39000 34.18300 26.70800
C  -3.95300 32.73900 29.42100
C  -0.81300 36.40300 28.79700
C  -1.16800 35.98600 24.07200
C  -4.52500 32.50800 24.60500
N  -2.49400 34.65800 28.85600
C  -3.05900 33.78900 29.80300
C  -2.51900 34.03200 31.20800
C  -1.66800 35.30600 30.92600
C  -1.73800 35.57700 29.42100
C  -2.07900 36.59000 31.72400
C  -1.75100 32.81000 31.79500
C  -2.38100 32.27900 33.20300
H  -1.42500 32.35300 34.36400
N  -1.12800 35.92900 26.46600
C  -0.55400 36.64300 27.46800
C  0.52000 37.53000 26.93400
C  0.39100 37.33500 25.52200
C  -0.73300 36.40200 25.30800
C  1.25600 38.54000 27.75800
C  1.20700 37.89700 24.44600
O  1.10500 37.71200 23.24700
C  2.43200 38.60700 24.88400
N  -3.02100 34.50000 24.62800
C  -2.23500 35.17000 23.77600
C  -2.55300 34.67000 22.35300
C  -3.35600 33.41300 22.55900
C  -3.68800 33.50000 23.98700
C  -3.40900 35.69200 21.61000
C  -2.59300 32.04400 22.14700
C  -3.20700 31.08200 21.10300
N  -3.92800 32.87000 26.90000
C  -4.70400 32.27100 25.96200
C  -5.46200 31.20100 26.60900
C  -5.17600 31.31900 27.93900
C  -4.28400 32.41900 28.06500
C  -6.33900 30.09800 25.93500
C  -5.43500 30.81800 29.21800
O  -6.21100 29.93600 29.55900
C  -4.65400 31.66000 30.25600
C  -5.59700 32.23600 31.24600
O  -6.28000 33.19900 31.14100
O  -5.66400 31.42600 32.38500
C  -6.62200 31.91000 33.35600
H  -0.17500 36.95400 29.49100
H  -0.74800 36.27600 23.10600
H  -5.00800 31.81200 23.91600
H  -3.40500 34.25000 31.80500
H  -0.63500 34.99300 31.08100
H  -1.21400 36.88700 32.31700
H  -3.01700 36.43400 32.25700
H  -2.18800 37.43800 31.04800
H  -0.71900 33.08700 32.01300
H  -1.75300 32.02900 31.03500
H  -2.80700 31.27600 33.24600
H  -3.18900 32.90100 33.58900
H  0.63800 38.79700 28.61800
H  1.41800 39.49200 27.25100
H  2.20100 38.15000 28.13600
H  3.06900 38.71700 24.00600
H  3.03900 38.02400 25.57700
H  2.21700 39.62400 25.21300
H  -1.65500 34.35500 21.82200
H  -4.29300 33.41500 22.00100
H  -2.97300 36.65200 21.88800
H  -4.47900 35.57800 21.78500
H  -3.27400 35.57300 20.53500
H  -2.45300 31.42300 23.03100
H  -1.58700 32.24600 21.77700
H  -3.34200 30.06700 21.47800
H  -2.50000 30.86400 20.30300
H  -4.05500 31.54200 20.59600
H  -6.04200 29.06100 26.08800
H  -6.43000 30.25000 24.85900
H  -7.32500 30.20500 26.38800
H  -3.93100 30.97200 30.69300
H  -7.56500 31.98300 32.81500
H  -6.19100 32.86300 33.66400
H  -6.56700 31.20400 34.18500

