158

Mg 35.02100 2.24800 30.19800
C  32.64400 3.30200 32.45500
C  37.44800 2.60500 32.55800
C  37.17400 1.63900 27.72600
C  32.41300 2.24900 27.81700
N  35.02500 2.87700 32.22700
C  33.94200 3.10200 32.99900
C  34.26400 3.36700 34.40900
C  35.83600 3.31900 34.47600
C  36.16000 3.00300 32.93000
C  36.49100 4.62100 35.03900
C  33.54200 2.47300 35.50800
C  33.02200 3.22100 36.75500
H  33.83800 4.33000 37.43100
N  37.00200 2.04500 30.13500
C  37.86400 2.12900 31.26600
C  39.22900 1.87800 30.85400
C  39.19900 1.59700 29.47400
C  37.75400 1.76800 29.01800
C  40.37600 1.76900 31.81800
C  40.37100 1.32600 28.48800
O  40.22800 1.26900 27.29400
C  41.71500 1.42200 28.98800
N  34.85300 2.15500 27.99200
C  35.89200 1.73800 27.25900
C  35.41500 1.36500 25.72400
C  33.88800 1.43700 25.91700
C  33.73200 1.96500 27.34600
C  35.83700 2.21800 24.45700
C  33.16700 0.07200 25.67400
C  33.07200 -0.23200 24.15500
N  32.92300 2.57700 30.08300
C  32.00700 2.58200 28.99500
C  30.74200 2.99200 29.49900
C  30.95800 3.34200 30.84500
C  32.26900 3.00200 31.17600
C  29.57300 3.17900 28.69500
C  30.36700 4.00100 31.95800
O  29.25900 4.52300 32.11800
C  31.45000 3.80900 33.15900
C  31.52100 5.09800 33.92900
O  32.28500 6.03900 33.64100
O  30.62200 5.13900 34.97400
C  30.57400 6.36000 35.81500
H  38.15500 2.67200 33.38800
H  37.82300 1.21300 26.95800
H  31.57700 2.14900 27.12200
H  34.06800 4.42300 34.59400
H  36.10800 2.46100 35.09000
H  36.09700 5.57200 34.68000
H  37.53500 4.64600 34.72800
H  36.48700 4.58600 36.12800
H  34.23600 1.74600 35.93100
H  32.70700 2.02500 34.96900
H  32.69200 2.42700 37.42500
H  32.14100 3.66400 36.29000
H  39.91300 1.82200 32.80400
H  41.12800 2.52800 31.60000
H  40.79100 0.78500 31.59800
H  41.85100 2.46300 29.28200
H  42.54300 1.17200 28.32500
H  41.80400 0.76500 29.85300
H  35.70700 0.32400 25.58500
H  33.35000 2.17100 25.31700
H  36.61400 1.67000 23.92300
H  36.17100 3.08400 25.02800
H  34.99200 2.59300 23.88000
H  32.13500 0.19000 26.00600
H  33.68600 -0.72600 26.20500
H  33.42000 0.60000 23.54300
H  32.12600 -0.67800 23.84600
H  33.82500 -1.00200 23.98900
H  29.04600 4.05200 29.07900
H  28.93400 2.31900 28.89400
H  29.79300 3.29600 27.63400
H  31.08800 3.00600 33.80200
H  29.60500 6.79500 35.56800
H  31.31300 7.12900 35.59000
H  30.72500 6.04800 36.84900
Mg -12.00300 16.24500 41.33700
C  -9.07000 14.50700 40.59100
C  -10.64100 18.98900 39.84100
C  -15.12300 17.50300 41.07900
C  -13.46100 13.15200 42.38800
N  -10.07100 16.57000 40.16100
C  -8.95800 15.81500 40.16300
C  -7.79400 16.62100 39.63600
C  -8.33400 18.06200 39.46100
C  -9.77800 17.88600 39.82100
C  -7.61300 19.21000 40.23700
C  -7.31900 16.02200 38.26000
C  -5.75700 15.94200 38.16500
H  -5.16400 16.78900 36.99500
N  -12.76300 18.00200 40.59700
C  -12.03100 19.00500 40.00400
C  -12.91200 20.09700 39.66000
C  -14.22400 19.70300 40.05700
C  -14.10100 18.36600 40.58500
C  -12.41900 21.36500 38.88800
C  -15.42700 20.55700 39.93300
O  -15.28700 21.59200 39.36300
C  -16.77800 20.27300 40.49200
N  -14.08900 15.31200 41.53000
C  -15.17900 16.15000 41.45100
C  -16.43800 15.42900 41.92900
C  -15.90700 14.07300 42.62300
C  -14.41000 14.16100 42.16500
C  -17.52000 16.15700 42.77900
C  -16.61400 12.77800 42.25500
C  -16.63100 11.66600 43.33800
N  -11.42000 14.31500 41.60400
C  -12.09600 13.17500 42.04200
C  -11.20300 12.02600 42.10500
C  -10.04200 12.56200 41.58800
C  -10.20400 13.92000 41.23700
C  -11.47000 10.63700 42.53900
C  -8.73300 12.13200 41.17600
O  -8.14900 11.02600 41.22700
C  -8.05100 13.44400 40.52400
C  -6.88200 13.71400 41.35700
O  -6.89400 14.27500 42.46700
O  -5.70100 13.42300 40.68000
C  -4.57900 14.05500 41.28600
H  -10.13700 19.92500 39.58900
H  -16.11800 17.94400 40.99400
H  -13.90700 12.24100 42.79300
H  -6.96900 16.49100 40.33600
H  -8.32600 18.50300 38.46500
H  -8.02500 20.17500 39.94200
H  -6.53100 19.14600 40.11900
H  -7.82500 19.07100 41.29600
H  -7.67200 16.54700 37.37200
H  -7.73500 15.02500 38.11400
H  -5.50200 14.89900 37.97500
H  -5.26800 16.21400 39.10100
H  -13.06300 22.20900 39.13700
H  -12.34700 21.20200 37.81300
H  -11.38300 21.53300 39.18300
H  -17.48400 20.99100 40.07500
H  -16.72200 20.10100 41.56700
H  -17.06600 19.39000 39.92100
H  -16.78500 15.18900 40.92300
H  -16.01000 14.15300 43.70500
H  -17.32800 17.22700 42.86300
H  -17.60800 15.76200 43.79100
H  -18.47300 16.02200 42.26800
H  -16.26600 12.21600 41.38800
H  -17.63900 13.02900 41.98500
H  -16.45300 12.13800 44.30400
H  -15.94100 10.85900 43.09200
H  -17.62500 11.22200 43.27200
H  -11.73200 9.95500 41.73000
H  -12.26400 10.51800 43.27800
H  -10.53200 10.36700 43.02400
H  -7.71500 13.26400 39.50300
H  -4.69500 15.13800 41.30900
H  -3.75100 13.88900 40.59700
H  -4.28300 13.74100 42.28700

