158

Mg 1.50700 -2.63800 45.68000
C  4.91900 -1.94100 45.46700
C  0.85800 0.26800 43.98400
C  -1.75400 -3.68300 45.33700
C  2.25300 -5.61700 47.20600
N  2.75700 -1.15300 44.57000
C  4.12600 -1.04800 44.68500
C  4.65500 0.18600 43.92100
C  3.35700 1.01700 43.92900
C  2.23600 0.02800 44.14000
C  3.35200 2.26700 44.89700
C  5.25600 -0.14300 42.59500
C  6.41200 0.81100 42.18400
H  6.40100 1.31700 40.74900
N  -0.16300 -1.79000 44.75500
C  -0.23500 -0.49500 44.22400
C  -1.60700 -0.23100 43.97100
C  -2.47000 -1.32600 44.38900
C  -1.45200 -2.38200 44.87300
C  -2.01100 1.15200 43.37000
C  -3.94100 -1.40100 44.24100
O  -4.50900 -0.32200 43.95900
C  -4.73100 -2.61100 44.58700
N  0.32000 -4.53400 46.10500
C  -0.94200 -4.75000 45.83800
C  -1.39500 -6.06100 46.33100
C  -0.00500 -6.78800 46.73700
C  0.91300 -5.53600 46.76200
C  -2.28800 -5.98700 47.62300
C  0.47700 -7.71900 45.51900
C  1.12000 -9.07600 45.86600
N  3.20800 -3.59100 46.23900
C  3.36400 -4.77500 46.94300
C  4.75000 -4.94600 47.35200
C  5.40300 -3.82700 46.76200
C  4.42600 -3.06800 46.08600
C  5.22600 -6.04200 48.21100
C  6.67000 -3.14800 46.61200
O  7.77900 -3.34700 47.11900
C  6.42700 -1.95200 45.63900
C  6.89600 -0.69200 46.32500
O  6.59800 -0.41200 47.50500
O  7.67900 0.10200 45.56900
C  8.03100 1.49900 45.97100
H  0.63100 1.30800 43.73900
H  -2.81200 -3.94600 45.28000
H  2.48200 -6.55400 47.71800
H  5.39600 0.69000 44.54000
H  3.05800 1.53600 43.01800
H  2.63400 2.17200 45.71200
H  3.07100 3.18400 44.38000
H  4.38300 2.51400 45.14900
H  4.44200 -0.12700 41.87000
H  5.73300 -1.12300 42.59500
H  7.39400 0.36500 42.33800
H  6.29000 1.67000 42.84300
H  -2.68700 1.60100 44.09800
H  -2.42400 1.21300 42.36300
H  -1.17300 1.84900 43.37800
H  -4.55100 -2.92600 45.61400
H  -4.46600 -3.32500 43.80700
H  -5.80200 -2.50100 44.41800
H  -1.97600 -6.50500 45.52300
H  -0.13400 -7.19900 47.73800
H  -2.48800 -4.93500 47.82300
H  -1.79300 -6.40400 48.50000
H  -3.26100 -6.46500 47.51200
H  1.18900 -7.17100 44.90300
H  -0.37000 -8.08500 44.93900
H  2.14900 -9.13100 45.51000
H  0.75200 -9.88000 45.22900
H  1.05800 -9.36000 46.91600
H  5.27600 -6.87800 47.51300
H  4.53400 -6.29000 49.01600
H  6.26600 -5.88400 48.49800
H  7.06000 -2.16900 44.77900
H  7.94200 2.19200 45.13500
H  9.04800 1.54900 46.36000
H  7.33000 1.91000 46.69700
Mg 41.96700 41.91100 27.76100
C  40.52200 44.39300 29.97300
C  42.82100 40.07400 30.52100
C  43.75000 39.96900 25.71800
C  42.11800 44.50300 25.41000
N  41.75300 42.30900 29.92000
C  40.91900 43.20100 30.58200
C  40.74800 42.79700 32.05100
C  41.63000 41.58200 32.24700
C  42.12900 41.30600 30.78900
C  42.71100 41.86500 33.33800
C  39.26600 42.68600 32.61600
C  38.98700 43.30800 33.99800
H  38.75000 42.37700 35.16300
N  43.07600 40.14900 27.97800
C  43.18300 39.51300 29.24000
C  43.88600 38.24100 28.98100
C  44.15800 38.19100 27.53400
C  43.69400 39.43400 27.00500
C  44.17400 37.16700 30.06700
C  44.79200 37.15400 26.68800
O  44.86400 37.27100 25.45100
C  45.35800 35.94800 27.34100
N  42.88300 42.20400 25.91000
C  43.37200 41.18700 25.21400
C  43.56100 41.62700 23.71100
C  42.93400 42.95400 23.62600
C  42.64200 43.26000 25.05700
C  45.06000 41.61500 23.18900
C  41.65400 42.98000 22.68100
C  40.23500 42.69600 23.33100
N  41.32100 44.03800 27.57200
C  41.45500 44.96800 26.52800
C  40.96700 46.27400 26.87100
C  40.56600 46.10100 28.22800
C  40.80200 44.72600 28.60000
C  40.91800 47.48300 25.97400
C  40.09700 46.75200 29.42900
O  39.86100 47.95900 29.61800
C  40.03800 45.71800 30.59700
C  40.90400 46.24400 31.68000
O  42.11100 46.51800 31.55000
O  40.08300 46.59500 32.84400
C  40.87900 47.35000 33.90700
H  42.97100 39.49100 31.43200
H  44.00300 39.31900 24.87700
H  42.03900 45.21600 24.58700
H  41.17200 43.67200 32.54400
H  40.99300 40.77800 32.61400
H  42.14800 41.95500 34.26700
H  43.17500 42.84300 33.21800
H  43.51600 41.13000 33.32200
H  38.95100 41.64400 32.67700
H  38.57600 43.13100 31.89900
H  38.09500 43.89700 33.78300
H  39.84900 43.92800 34.24400
H  45.23400 36.91700 30.02800
H  43.68800 36.21800 29.84300
H  44.00600 37.43600 31.11000
H  44.67700 35.36100 27.95800
H  46.12400 36.40300 27.96800
H  45.80300 35.25700 26.62500
H  42.94100 40.91900 23.16000
H  43.67700 43.68800 23.31400
H  45.32000 42.45000 22.53900
H  45.16800 40.71200 22.58700
H  45.81900 41.53800 23.96800
H  41.82000 42.56500 21.68700
H  41.46600 44.01400 22.39200
H  40.36100 42.37100 24.36300
H  39.75400 41.95400 22.69400
H  39.50100 43.50100 23.29400
H  40.43000 47.39300 25.00300
H  41.93800 47.79900 25.75500
H  40.47300 48.28500 26.56300
H  38.98800 45.64100 30.88100
H  41.27500 48.32700 33.62900
H  41.60600 46.71900 34.41800
H  40.20100 47.66000 34.70300

