158

Mg 23.31100 -6.19100 45.98500
C  25.64800 -3.88300 44.87800
C  21.11300 -4.67800 43.55900
C  21.32000 -8.83100 46.12000
C  25.87800 -8.08600 47.61400
N  23.44900 -4.56900 44.31300
C  24.48900 -3.75800 44.14100
C  24.22700 -2.58500 43.21100
C  22.72200 -2.86400 42.86400
C  22.36500 -4.08700 43.67200
C  21.77400 -1.64900 43.30900
C  25.16300 -2.68400 41.96500
C  25.33500 -1.41600 41.22800
H  24.66000 -1.27700 39.80000
N  21.38900 -6.56900 45.15900
C  20.67300 -5.84900 44.22100
C  19.42500 -6.49900 43.90300
C  19.39900 -7.71200 44.67700
C  20.76800 -7.74900 45.43400
C  18.43700 -6.09700 42.82600
C  18.26200 -8.70600 44.65000
O  17.18100 -8.49600 44.05500
C  18.34800 -9.96200 45.44400
N  23.52600 -8.11800 46.85800
C  22.52700 -9.01500 46.80400
C  22.94200 -10.38800 47.23900
C  24.36200 -10.21700 47.76200
C  24.61400 -8.69000 47.46500
C  21.96200 -11.29500 48.07300
C  25.48000 -11.08600 47.20000
C  26.48200 -11.52500 48.18200
N  25.29800 -5.96300 46.34100
C  26.21900 -6.78800 47.06700
C  27.42500 -5.98400 47.25200
C  27.27200 -4.89600 46.46200
C  25.96900 -4.91100 45.90100
C  28.61200 -6.46800 48.02600
C  27.90300 -3.70400 45.96400
O  28.99500 -3.21600 46.23500
C  26.95400 -3.08100 44.88600
C  26.88800 -1.61200 45.17100
O  27.19700 -0.75000 44.34700
O  26.35600 -1.43900 46.45900
C  25.77600 -0.04500 46.66700
H  20.45100 -4.06300 42.94600
H  20.68900 -9.71900 46.19700
H  26.57300 -8.68300 48.20800
H  24.43900 -1.70200 43.81300
H  22.71300 -3.05400 41.79000
H  21.23800 -1.95800 44.20600
H  21.10400 -1.44100 42.47400
H  22.30400 -0.72000 43.51700
H  24.66300 -3.21700 41.15600
H  26.05700 -3.26400 42.19500
H  26.40700 -1.22200 41.24500
H  24.91500 -0.67700 41.90900
H  18.34000 -6.84200 42.03600
H  18.86700 -5.18800 42.40400
H  17.54800 -5.72800 43.33800
H  18.59000 -9.88400 46.50400
H  19.02800 -10.65100 44.94300
H  17.32500 -10.32900 45.35700
H  23.02500 -10.94500 46.30500
H  24.26000 -10.38800 48.83400
H  21.13700 -10.69000 48.44800
H  22.47400 -11.69500 48.94800
H  21.55000 -12.10400 47.46900
H  26.10200 -10.50700 46.51700
H  25.03400 -11.92000 46.65800
H  26.05300 -11.57900 49.18300
H  27.35500 -10.87700 48.26100
H  26.71500 -12.55500 47.91400
H  29.38000 -5.70800 48.16600
H  29.00000 -7.29400 47.43100
H  28.37200 -6.88400 49.00500
H  27.41000 -3.12500 43.89600
H  26.02500 0.77100 45.98900
H  26.08400 0.38900 47.61800
H  24.72100 -0.32000 46.62800
Mg 44.17900 4.10500 47.63200
C  42.15900 6.93400 47.04400
C  41.37100 2.12300 47.39200
C  46.25800 1.54300 47.94200
C  47.02300 6.37300 47.53000
N  41.99400 4.52700 47.13000
C  41.44500 5.72400 46.98200
C  39.97200 5.55500 46.56700
C  39.63900 4.09300 47.01400
C  41.08200 3.47900 47.17500
C  38.83600 3.94300 48.25500
C  39.77000 5.79500 45.07600
C  38.85500 6.97100 44.65800
H  39.27700 7.72100 43.46000
N  43.88900 2.05800 47.73600
C  42.62600 1.45200 47.57200
C  42.78600 0.05700 47.69200
C  44.18400 -0.18600 47.95800
C  44.85100 1.14900 47.90600
C  41.75700 -0.94500 47.46600
C  44.74800 -1.60800 48.08800
O  44.10500 -2.65700 48.02000
C  46.21200 -1.75200 48.25000
N  46.31700 3.98200 47.59500
C  46.86600 2.78800 47.83500
C  48.40500 2.90300 47.70000
C  48.65700 4.44900 47.55400
C  47.23400 5.00400 47.47800
C  49.31400 2.19100 48.79700
C  49.59600 4.88500 46.38700
C  50.73000 5.89300 46.69700
N  44.60800 6.30100 47.40800
C  45.77300 7.04200 47.50200
C  45.39400 8.48500 47.43000
C  44.00600 8.50700 47.23300
C  43.57100 7.12000 47.17200
C  46.27100 9.76000 47.69900
C  42.79600 9.39200 47.08900
O  42.64000 10.56900 47.05000
C  41.59300 8.36800 46.86000
C  40.40700 8.56800 47.84900
O  40.31900 8.01500 48.90700
O  39.54800 9.51800 47.32600
C  38.35600 9.80900 48.11600
H  40.49200 1.47700 47.36000
H  46.94600 0.70200 48.05400
H  47.92700 6.96800 47.67500
H  39.42700 6.28900 47.16000
H  39.19800 3.53900 46.18500
H  38.49700 4.96600 48.42100
H  39.37500 3.57700 49.12900
H  37.97000 3.28300 48.18900
H  39.44900 4.88100 44.57500
H  40.74800 6.11200 44.71400
H  38.80000 7.69100 45.47500
H  37.86300 6.67500 44.31600
H  40.86800 -0.55800 46.96800
H  41.45800 -1.44200 48.38800
H  42.15800 -1.62600 46.71500
H  46.85000 -1.68400 47.37000
H  46.61100 -2.58900 48.82400
H  46.49800 -0.96700 48.95000
H  48.71600 2.36500 46.80500
H  48.95600 4.82600 48.53100
H  48.53700 1.86200 49.48700
H  50.07200 2.81100 49.27600
H  49.84200 1.28000 48.51400
H  48.94100 5.37300 45.66600
H  50.01900 3.99400 45.92300
H  50.55300 6.89700 46.31100
H  51.70900 5.44800 46.51600
H  50.81100 6.00300 47.77800
H  45.81900 10.63800 47.23800
H  47.23300 9.57200 47.22000
H  46.43300 9.79200 48.77600
H  41.25800 8.35100 45.82300
H  38.31600 9.17200 48.99900
H  37.55900 9.73800 47.37600
H  38.39400 10.84300 48.45900

