158

Mg 0.47700 44.25300 26.16700
C  3.03900 44.45600 28.70100
C  -1.72400 43.55500 28.67500
C  -1.81000 43.90400 23.71100
C  3.00800 44.79200 23.69600
N  0.66800 44.23100 28.42200
C  1.75300 44.40500 29.22900
C  1.33600 44.21400 30.66000
C  -0.14200 43.74100 30.67400
C  -0.44600 43.80400 29.15900
C  -0.37000 42.41400 31.37600
C  1.68500 45.57800 31.44600
C  1.49600 45.57300 32.94000
H  1.37900 44.25300 33.71700
N  -1.48900 43.75200 26.19600
C  -2.22100 43.55400 27.36200
C  -3.62700 43.50500 26.92300
C  -3.68400 43.49700 25.55600
C  -2.31600 43.73200 25.06800
C  -4.73500 43.34800 28.01200
C  -4.90300 43.48500 24.61800
O  -4.77300 43.60700 23.39300
C  -6.25600 43.34600 25.18200
N  0.54100 44.34000 24.03700
C  -0.48900 44.13400 23.25700
C  -0.10900 44.04300 21.78800
C  1.32000 44.66100 21.77700
C  1.68700 44.55900 23.26500
C  -0.26700 42.69900 21.07100
C  1.34600 46.04600 21.07100
C  2.49300 46.19300 20.14600
N  2.61900 44.50800 26.07300
C  3.49200 44.77100 25.04000
C  4.85300 44.94400 25.64700
C  4.68600 44.82500 27.00500
C  3.30700 44.54100 27.27100
C  6.06200 45.26100 24.90400
C  5.41000 44.83200 28.20000
O  6.62200 44.86300 28.47500
C  4.28800 44.70400 29.31300
C  4.73200 43.58700 30.25000
O  4.76500 42.40600 29.96400
O  5.06100 44.07500 31.57400
C  5.41400 43.04300 32.59900
H  -2.43800 43.40200 29.48700
H  -2.52500 43.61200 22.93900
H  3.77700 44.91200 22.93000
H  2.01300 43.46600 31.07200
H  -0.70900 44.48400 31.23500
H  0.62700 42.03600 31.60200
H  -0.80300 41.71300 30.66200
H  -0.99600 42.48100 32.26600
H  1.15600 46.42100 31.00200
H  2.74400 45.77600 31.28400
H  0.60500 46.16400 33.15300
H  2.36000 46.08800 33.36100
H  -5.48700 42.61200 27.72800
H  -5.25000 44.30800 27.98500
H  -4.49500 43.17500 29.06100
H  -6.25800 44.27000 25.76000
H  -6.42600 42.42100 25.73200
H  -7.01000 43.28800 24.39700
H  -0.81800 44.64400 21.21900
H  1.85300 43.93300 21.16500
H  -0.43900 41.87900 21.76800
H  0.60500 42.32200 20.53800
H  -0.98700 42.80400 20.25900
H  1.45300 46.73800 21.90700
H  0.43600 46.30500 20.53000
H  2.99600 47.14600 20.31100
H  2.16000 46.11100 19.11200
H  3.17800 45.35300 20.26300
H  5.77800 45.57600 23.90000
H  6.67500 44.37000 24.76500
H  6.72300 45.98500 25.38200
H  4.23900 45.63600 29.87700
H  5.96400 43.54100 33.39700
H  6.05100 42.28000 32.15100
H  4.57100 42.59600 33.12600
Mg -9.84000 17.47600 40.77100
C  -6.39200 17.04800 41.02200
C  -9.30200 20.96600 40.38700
C  -13.01100 17.67700 39.89600
C  -10.15900 13.84800 40.74200
N  -8.10300 18.82300 40.62900
C  -6.75800 18.42900 40.75600
C  -5.79400 19.61200 40.64400
C  -6.80800 20.75100 41.01000
C  -8.18500 20.19200 40.64400
C  -6.74600 21.33700 42.37900
C  -5.12200 19.86400 39.19000
C  -3.67200 19.44600 39.10800
H  -3.04600 18.42300 38.17800
N  -10.98900 19.08900 40.10800
C  -10.58300 20.43100 40.00700
C  -11.77700 21.18200 39.69600
C  -12.83600 20.30800 39.66800
C  -12.30200 18.95800 39.94300
C  -11.59100 22.63800 39.26400
C  -14.23400 20.73600 39.45900
O  -14.58200 21.91800 39.19900
C  -15.35100 19.67500 39.54700
N  -11.35100 15.90900 40.50400
C  -12.60700 16.33700 40.15300
C  -13.60200 15.14900 40.25500
C  -12.66800 13.88400 40.18100
C  -11.30900 14.55900 40.54200
C  -14.63600 15.29100 41.37200
C  -12.72800 13.18500 38.79100
C  -12.46600 11.62100 38.82200
N  -8.61400 15.79500 40.84300
C  -8.84100 14.41800 40.93200
C  -7.63400 13.68000 41.03300
C  -6.64900 14.68700 41.10900
C  -7.27700 15.97300 40.93900
C  -7.44200 12.19900 40.95300
C  -5.19800 14.89400 41.30200
O  -4.32100 14.09800 41.54200
C  -4.99600 16.47200 41.25000
C  -4.42900 17.02700 42.46800
O  -3.24100 17.37300 42.52900
O  -5.36600 17.12100 43.46200
C  -4.98800 18.11100 44.54300
H  -9.09500 22.03800 40.34600
H  -14.03200 17.54800 39.53000
H  -10.19000 12.75800 40.70100
H  -5.09800 19.52300 41.47700
H  -6.61900 21.64400 40.41500
H  -7.70500 21.48900 42.87600
H  -6.18900 22.27200 42.31100
H  -6.16700 20.73300 43.07700
H  -5.40100 20.86800 38.87100
H  -5.79600 19.32400 38.52500
H  -3.40800 19.17500 40.13100
H  -3.14000 20.37400 38.90100
H  -12.21700 22.78300 38.38400
H  -10.51500 22.57900 39.10100
H  -11.72700 23.51900 39.89200
H  -15.33500 18.90800 38.77300
H  -16.15700 20.39300 39.39000
H  -15.30400 19.27100 40.55800
H  -14.07900 15.21300 39.27700
H  -12.90200 13.20700 41.00200
H  -14.34700 14.54600 42.11400
H  -15.57900 14.91700 40.97300
H  -14.75600 16.33300 41.66700
H  -12.02300 13.70900 38.14500
H  -13.72100 13.13900 38.34400
H  -11.68200 11.51400 38.07200
H  -13.31300 11.01200 38.50600
H  -12.15100 11.37600 39.83600
H  -8.11400 11.73100 41.67200
H  -6.40500 11.91900 41.14000
H  -7.60200 11.86700 39.92700
H  -4.48000 16.59700 40.29800
H  -5.71200 18.92600 44.55600
H  -4.03500 18.63000 44.44800
H  -5.13000 17.67000 45.53000

