158

Mg 0.04100 44.20000 26.17300
C  1.78900 43.32200 29.05800
C  -2.86400 43.21000 27.87800
C  -1.67000 44.33900 23.27400
C  3.02600 44.86700 24.69900
N  -0.43900 43.17300 28.23300
C  0.40300 43.07600 29.27600
C  -0.30800 42.93000 30.66100
C  -1.78900 42.74400 30.13500
C  -1.73700 43.09300 28.64300
C  -2.43800 41.39300 30.43000
C  -0.11800 44.11400 31.53200
C  0.14600 43.91800 32.99700
H  -0.27800 42.55500 33.68500
N  -2.03900 44.05200 25.67700
C  -3.02700 43.64000 26.46100
C  -4.25300 43.63900 25.75600
C  -3.93100 43.98200 24.40400
C  -2.47900 44.13500 24.40000
C  -5.56000 43.30500 26.35500
C  -4.85700 44.28700 23.20000
O  -4.40800 44.73800 22.16900
C  -6.35400 43.98100 23.25300
N  0.56800 44.44100 24.27900
C  -0.31000 44.66300 23.21500
C  0.32900 45.21900 21.97800
C  1.76200 45.58300 22.58800
C  1.80300 44.95400 23.96800
C  0.39400 44.06500 20.87200
C  2.14100 47.06800 22.56300
C  3.47800 47.39200 21.90900
N  1.99700 44.11000 26.72000
C  3.11400 44.39800 26.03600
C  4.35200 44.21700 26.79900
C  3.87100 43.85000 28.08800
C  2.48000 43.79100 27.93300
C  5.84800 44.35500 26.37500
C  4.26100 43.49500 29.43300
O  5.31400 43.37100 29.96000
C  2.94800 43.09200 30.15600
C  3.06900 41.71200 30.73200
O  2.60500 40.64600 30.24600
O  3.98500 41.75700 31.70100
C  4.47700 40.52900 32.40100
H  -3.81600 42.93600 28.33800
H  -2.13600 44.31800 22.28700
H  3.90600 45.26400 24.18900
H  -0.02800 42.01500 31.18400
H  -2.42100 43.51300 30.57800
H  -3.38700 41.55100 30.94100
H  -1.85800 40.78100 31.12100
H  -2.74300 41.01300 29.45500
H  -0.85500 44.91500 31.48200
H  0.73600 44.66500 31.13900
H  -0.16700 44.77100 33.59900
H  1.22900 43.86400 33.10300
H  -6.30500 42.97700 25.63000
H  -5.97200 44.20600 26.80800
H  -5.46500 42.41700 26.97900
H  -6.38900 42.89600 23.35700
H  -6.87100 44.25500 22.33400
H  -6.93300 44.51600 24.00600
H  -0.27800 46.08100 21.70300
H  2.56500 45.09200 22.03900
H  1.38000 44.04900 20.40700
H  -0.30200 44.24800 20.05400
H  0.32100 43.02200 21.17900
H  2.33000 47.52300 23.53600
H  1.36400 47.71400 22.15400
H  3.74600 46.65500 21.15200
H  4.30300 47.56800 22.60000
H  3.38700 48.31400 21.33500
H  6.41900 43.76300 27.09000
H  6.32900 45.33200 26.31800
H  5.83800 43.90100 25.38400
H  2.87200 43.84000 30.94400
H  5.46300 40.74400 32.81400
H  4.42100 39.53000 31.96900
H  3.79100 40.51900 33.24800
Mg -6.11300 25.26500 25.68100
C  -4.59200 26.66600 28.60200
C  -7.79200 22.95000 27.74500
C  -7.32200 23.81200 22.85000
C  -4.20500 27.52000 23.71400
N  -6.05100 24.83200 27.96300
C  -5.51000 25.67000 28.91200
C  -6.08500 25.26000 30.21100
C  -6.93100 23.93100 29.94500
C  -6.92800 23.86600 28.44600
C  -6.30600 22.66000 30.73000
C  -6.87400 26.43000 30.88700
C  -6.63900 26.56200 32.37600
H  -6.12400 25.35400 33.19700
N  -7.41800 23.70200 25.36300
C  -8.00200 22.87000 26.30100
C  -8.75800 21.85500 25.66200
C  -8.61800 22.06500 24.22200
C  -7.78900 23.29900 24.09500
C  -9.50400 20.85300 26.44800
C  -9.26400 21.30400 23.07800
O  -9.09300 21.65500 21.90900
C  -10.11400 20.06200 23.30000
N  -5.96600 25.71300 23.54300
C  -6.37000 24.87200 22.61700
C  -5.84300 25.22500 21.24400
C  -5.13200 26.58800 21.48500
C  -5.01700 26.62300 23.00600
C  -4.93800 24.18300 20.56300
C  -5.82000 27.86300 20.94000
C  -5.27900 28.22200 19.50600
N  -4.65500 26.72000 25.98100
C  -4.08900 27.63200 25.07900
C  -3.28600 28.60200 25.84100
C  -3.45400 28.28600 27.22500
C  -4.26800 27.08900 27.25300
C  -2.42100 29.63800 25.22500
C  -3.07400 28.67900 28.53500
O  -2.33100 29.56700 28.91100
C  -3.85800 27.64800 29.53500
C  -2.76700 27.12900 30.48300
O  -1.85900 26.41200 30.10200
O  -2.91100 27.54000 31.73700
C  -2.02200 26.99100 32.72300
H  -8.42600 22.33300 28.38500
H  -7.76400 23.42700 21.92900
H  -3.54800 28.06400 23.03200
H  -5.21700 25.00100 30.81800
H  -7.98800 23.94400 30.21200
H  -6.05600 21.81900 30.08300
H  -7.08500 22.22900 31.35900
H  -5.41300 22.95100 31.28300
H  -7.94700 26.25700 30.80700
H  -6.66200 27.33400 30.31600
H  -7.58100 26.77100 32.88300
H  -5.91400 27.36400 32.51600
H  -8.80900 20.33600 27.11000
H  -10.05300 20.13900 25.83500
H  -10.22900 21.30200 27.12700
H  -10.34800 19.71800 22.29300
H  -10.82500 20.44900 24.03000
H  -9.42300 19.37200 23.78500
H  -6.73700 25.27300 20.62200
H  -4.15100 26.39300 21.05200
H  -3.88700 24.45900 20.64700
H  -5.16800 24.07800 19.50200
H  -5.14700 23.29900 21.16400
H  -5.76300 28.67400 21.66500
H  -6.87700 27.72000 20.71600
H  -4.64000 27.41300 19.14900
H  -4.88400 29.23600 19.45500
H  -6.16000 28.22000 18.86500
H  -1.63900 30.03300 25.87300
H  -3.04400 30.50300 24.99400
H  -1.94700 29.19000 24.35100
H  -4.60900 28.22300 30.07700
H  -1.10100 27.55000 32.89300
H  -1.76800 25.93500 32.62600
H  -2.53700 27.04900 33.68200

