158

Mg 16.17900 -2.07700 28.05300
C  15.30400 0.22400 30.72800
C  18.05600 -3.81200 30.30600
C  17.16000 -3.84000 25.42900
C  14.57300 0.30600 25.81800
N  16.72700 -1.70600 30.29600
C  16.17800 -0.83600 31.16900
C  16.77600 -0.97700 32.58700
C  17.75300 -2.26600 32.34400
C  17.46200 -2.65000 30.87600
C  19.26700 -2.02100 32.51100
C  15.67500 -1.09400 33.76800
C  15.95200 -0.35800 35.10700
H  17.40400 0.01500 35.40500
N  17.49200 -3.67800 27.86800
C  18.07800 -4.28900 28.91100
C  18.59100 -5.54000 28.40200
C  18.35300 -5.53900 26.95400
C  17.65500 -4.32800 26.67300
C  19.27900 -6.48700 29.29900
C  18.76500 -6.57500 25.99000
O  18.54300 -6.50800 24.75800
C  19.39600 -7.81500 26.44400
N  15.97400 -1.68800 25.89000
C  16.46800 -2.64200 25.04100
C  16.22100 -2.13400 23.55000
C  15.58900 -0.69200 23.64500
C  15.25400 -0.72000 25.15600
C  17.52200 -2.22400 22.66800
C  14.31200 -0.59800 22.79100
C  13.91900 0.85900 22.51200
N  14.98600 -0.30000 28.19700
C  14.49100 0.54500 27.19400
C  13.81400 1.60500 27.87700
C  14.15700 1.58800 29.22000
C  14.91600 0.38200 29.34000
C  12.90300 2.58600 27.27700
C  13.97000 2.25000 30.49100
O  13.22200 3.19300 30.71600
C  14.80400 1.44700 31.49100
C  15.81700 2.46700 31.96900
O  16.47900 3.18100 31.23500
O  15.73500 2.56800 33.35200
C  16.50500 3.74900 33.91900
H  18.53100 -4.48200 31.02500
H  17.51100 -4.39100 24.55400
H  14.08900 1.08900 25.23100
H  17.33700 -0.07000 32.81200
H  17.50700 -3.12700 32.96500
H  19.59400 -1.40200 33.34700
H  19.68400 -1.61900 31.58700
H  19.63400 -3.03900 32.64100
H  15.32600 -2.12300 33.86100
H  14.81100 -0.55800 33.37800
H  15.67500 -0.91300 36.00400
H  15.39700 0.57900 35.06400
H  20.00300 -7.21300 28.92800
H  18.65200 -7.05600 29.98600
H  19.86600 -5.91100 30.01400
H  18.76700 -8.26600 27.21200
H  20.43600 -7.71100 26.75200
H  19.31900 -8.54100 25.63500
H  15.49900 -2.82300 23.11100
H  16.19800 0.19900 23.49500
H  17.81700 -1.24200 22.29900
H  17.30700 -2.81200 21.77600
H  18.39600 -2.59400 23.20400
H  13.55200 -1.04100 23.43500
H  14.42200 -1.20900 21.89600
H  12.93100 1.09500 22.90600
H  13.95700 0.87700 21.42200
H  14.63000 1.64800 22.75500
H  13.46600 3.31400 26.69400
H  12.26800 2.95000 28.08500
H  12.19800 2.05800 26.63400
H  14.15400 1.12300 32.30400
H  15.93100 4.02100 34.80600
H  16.64200 4.67800 33.36500
H  17.51200 3.41700 34.17000
Mg 0.48400 42.98200 25.40300
C  1.78300 43.01300 28.63700
C  -2.40100 41.67800 26.79000
C  -0.63400 42.03200 22.32300
C  3.61400 43.54800 24.10300
N  -0.25700 42.38000 27.55000
C  0.37900 42.70100 28.71600
C  -0.51200 42.41500 29.94200
C  -1.85900 41.96000 29.32300
C  -1.49600 42.01800 27.77600
C  -2.43200 40.59900 29.82200
C  -0.62000 43.77200 30.84300
C  0.09500 43.74100 32.13000
H  -0.75200 43.68400 33.43500
N  -1.31300 42.10600 24.65100
C  -2.36800 41.64900 25.34100
C  -3.42600 41.36800 24.40600
C  -2.90900 41.41500 23.08500
C  -1.54800 41.88100 23.32000
C  -4.76400 41.01200 24.88200
C  -3.56100 41.15700 21.73100
O  -3.02400 41.32200 20.59200
C  -4.99000 40.80900 21.55600
N  1.33400 42.83200 23.52800
C  0.68400 42.39200 22.40100
C  1.55400 42.48300 21.11000
C  2.88400 43.13900 21.60100
C  2.60500 43.16300 23.16700
C  1.83300 41.12300 20.41400
C  3.07700 44.46600 20.86500
C  2.22100 45.64900 21.34300
N  2.27600 43.32100 26.17900
C  3.47500 43.58200 25.50100
C  4.53600 43.79700 26.46900
C  3.88800 43.61500 27.69900
C  2.50700 43.24600 27.47000
C  5.96300 44.10900 26.17900
C  4.12000 43.61600 29.21700
O  5.05500 43.88000 29.89100
C  2.73600 43.21100 29.80500
C  2.93000 42.02800 30.62300
O  2.44700 40.92900 30.40500
O  3.32500 42.38300 31.89400
C  2.91600 41.47900 33.04300
H  -3.38400 41.35400 27.13600
H  -0.95000 41.87200 21.29000
H  4.61600 43.72300 23.70600
H  -0.09900 41.57100 30.49600
H  -2.62000 42.69100 29.59800
H  -2.56700 40.02400 28.90600
H  -3.33900 40.74600 30.40900
H  -1.66300 40.11500 30.42500
H  -1.65300 44.09100 30.98200
H  -0.23700 44.55500 30.18800
H  0.60800 44.70200 32.16600
H  0.93300 43.04300 32.14700
H  -5.56000 41.29100 24.19100
H  -4.87700 41.49900 25.85100
H  -4.79500 39.92900 24.99900
H  -5.53200 41.71000 21.84200
H  -5.17700 39.99800 22.26100
H  -5.34000 40.47000 20.58200
H  0.99000 43.10100 20.41200
H  3.76400 42.50900 21.47400
H  1.89100 40.32600 21.15600
H  2.79000 41.15900 19.89200
H  1.12200 40.87900 19.62400
H  2.73900 44.30300 19.84200
H  4.13600 44.72100 20.82100
H  1.48800 45.31200 22.07600
H  1.65300 46.07800 20.51800
H  2.83100 46.49500 21.66100
H  6.17500 45.17700 26.20900
H  6.22000 43.94500 25.13300
H  6.68000 43.71000 26.89700
H  2.40200 44.08400 30.36600
H  3.90600 41.05500 33.21100
H  2.13800 40.76600 32.77200
H  2.67900 41.99000 33.97700

