158

Mg 2.44100 -0.84900 43.23500
C  5.87200 0.01600 43.13200
C  1.71800 2.13000 41.83900
C  -0.74700 -1.98700 42.81700
C  3.47500 -4.13200 43.97800
N  3.74800 0.71800 42.43100
C  5.06200 0.96900 42.57000
C  5.40400 2.33800 42.08800
C  4.01300 3.13600 42.29800
C  3.08700 1.95500 42.19400
C  3.83800 4.00500 43.63000
C  5.78700 2.40500 40.54800
C  5.64000 1.10400 39.72900
H  6.38200 1.02400 38.41300
N  0.68800 -0.02000 42.40900
C  0.62300 1.26400 41.86300
C  -0.72800 1.56200 41.53000
C  -1.43900 0.39800 41.89500
C  -0.55000 -0.58600 42.40500
C  -1.17700 2.87700 40.91600
C  -2.99000 0.31800 41.88000
O  -3.64500 1.22500 41.35200
C  -3.70800 -0.73300 42.46200
N  1.47900 -2.80700 43.56100
C  0.13700 -3.03600 43.25200
C  -0.15000 -4.51500 43.03800
C  1.22500 -5.11100 43.45000
C  2.13400 -3.94700 43.67500
C  -1.39100 -5.04800 43.90300
C  1.72200 -6.12700 42.34800
C  1.72600 -7.63000 42.59200
N  4.26800 -1.88100 43.65400
C  4.48800 -3.16200 43.97500
C  5.87700 -3.34100 44.34300
C  6.51700 -2.12000 43.99800
C  5.49700 -1.24700 43.57500
C  6.65300 -4.60100 44.71800
C  7.79800 -1.39200 43.85300
O  8.96100 -1.70100 44.03300
C  7.37200 0.07100 43.28400
C  7.72500 1.19600 44.20000
O  8.55200 2.01900 43.95900
O  6.99500 1.15800 45.36500
C  7.21000 2.23800 46.28200
H  1.41800 3.14600 41.57700
H  -1.68800 -2.42000 42.47300
H  3.75900 -5.18300 44.06400
H  6.20800 2.71500 42.72000
H  3.88300 3.78200 41.43000
H  3.44600 5.01200 43.49000
H  4.72800 3.83700 44.23700
H  2.97500 3.59500 44.15400
H  6.76100 2.84500 40.33300
H  5.12400 3.11600 40.05500
H  4.59400 0.80200 39.66800
H  6.10100 0.31800 40.32800
H  -1.69400 2.68500 39.97600
H  -0.34300 3.55800 40.75200
H  -1.89100 3.42300 41.53300
H  -3.39100 -0.89400 43.49200
H  -3.77300 -1.62700 41.84100
H  -4.77700 -0.54000 42.54700
H  -0.31400 -4.60400 41.96500
H  1.15300 -5.70100 44.36300
H  -1.88000 -4.18300 44.35000
H  -1.13700 -5.71000 44.73200
H  -2.02700 -5.67700 43.28000
H  2.73100 -5.89600 42.00500
H  1.03400 -6.11600 41.50300
H  2.78200 -7.86900 42.71700
H  1.35700 -8.21800 41.75200
H  1.13600 -7.94600 43.45300
H  6.86100 -4.81200 45.76700
H  7.63200 -4.63500 44.23900
H  6.08300 -5.45500 44.35200
H  7.89300 0.25300 42.34400
H  6.41700 2.16700 47.02600
H  7.10500 3.17000 45.72700
H  8.14200 2.17600 46.84300
Mg 8.64400 47.69500 25.40000
C  6.82600 47.58000 28.31900
C  11.29800 48.99500 27.03200
C  10.34900 47.55900 22.45000
C  5.76800 46.97300 23.58600
N  9.03300 48.14700 27.52800
C  8.14700 48.00600 28.51500
C  8.76700 48.54300 29.84300
C  10.08300 49.22700 29.34000
C  10.14900 48.81300 27.87100
C  10.03800 50.77500 29.45700
C  8.98200 47.39000 30.86000
C  8.50500 47.52400 32.32500
H  8.81200 46.39100 33.29200
N  10.59600 48.01300 24.94200
C  11.54000 48.59000 25.70500
C  12.87500 48.42100 25.09500
C  12.61900 48.01800 23.71300
C  11.14600 47.84600 23.65800
C  14.20900 48.83700 25.75400
C  13.57600 47.72100 22.56900
O  13.23000 47.29700 21.43100
C  15.00700 47.93800 22.75600
N  8.12000 47.57500 23.29500
C  8.97500 47.43400 22.28600
C  8.29700 47.17600 20.93700
C  6.93000 46.73000 21.37000
C  6.88900 47.21200 22.80100
C  8.30000 48.49900 20.05800
C  6.68800 45.17200 21.13200
C  5.41600 44.81500 20.34400
N  6.67100 47.48800 25.76500
C  5.62100 47.16100 24.96800
C  4.48900 46.94700 25.72900
C  4.90600 47.01000 27.06900
C  6.26800 47.34200 27.04600
C  3.16600 46.53200 25.25700
C  4.46600 47.00800 28.41600
O  3.31600 46.86500 28.80700
C  5.74300 47.32300 29.30500
C  5.92300 46.15400 30.12800
O  6.62600 45.19700 29.81500
O  5.35500 46.34100 31.36000
C  5.51600 45.19300 32.29400
H  12.22000 49.22100 27.57100
H  10.93400 47.46900 21.53200
H  4.92700 46.72500 22.93600
H  8.14800 49.31300 30.30200
H  10.92900 48.81500 29.89000
H  10.35500 51.07200 30.45700
H  8.97600 50.98000 29.32000
H  10.65500 51.23300 28.68400
H  10.04700 47.16000 30.83400
H  8.52400 46.48600 30.45800
H  7.42900 47.36200 32.25300
H  8.67100 48.55100 32.65000
H  14.85300 47.96100 25.67700
H  14.09200 49.08800 26.80800
H  14.71000 49.65000 25.23000
H  15.20200 48.98500 22.98800
H  15.59600 47.77700 21.85400
H  15.43200 47.28900 23.52100
H  8.85200 46.45700 20.33400
H  6.16000 47.25000 20.80000
H  9.05800 48.40000 19.28100
H  8.69500 49.31100 20.66900
H  7.32900 48.84900 19.70800
H  6.54200 44.86200 22.16600
H  7.55300 44.60000 20.79700
H  5.74600 44.33900 19.42000
H  4.87000 45.69100 19.99300
H  4.81200 44.16200 20.97400
H  3.11800 45.49700 25.59500
H  3.14900 46.44000 24.17100
H  2.37000 47.20000 25.58600
H  5.49900 48.19300 29.91400
H  4.56900 44.75300 32.60800
H  5.99900 45.58800 33.18800
H  6.32300 44.51100 32.02300

