158

Mg -9.59100 18.00100 42.53100
C  -6.13600 17.45800 42.55700
C  -8.91300 21.44600 41.87200
C  -12.84900 18.40100 41.69900
C  -10.06200 14.46500 42.67800
N  -7.78000 19.29700 42.33000
C  -6.48500 18.84600 42.42800
C  -5.44800 20.00100 42.15500
C  -6.40400 21.31400 42.29200
C  -7.79100 20.68700 42.19600
C  -6.13900 22.24500 43.46900
C  -4.71500 19.84500 40.72200
C  -5.64900 19.18700 39.69700
H  -5.04100 19.16700 38.30600
N  -10.74100 19.74200 42.02200
C  -10.30400 20.98300 41.72100
C  -11.41900 21.79400 41.34400
C  -12.60600 20.97000 41.45600
C  -12.11600 19.64200 41.70100
C  -11.33300 23.25300 40.94800
C  -14.06200 21.43600 41.24800
O  -14.30200 22.63100 40.91900
C  -15.27000 20.60200 41.35500
N  -11.18900 16.59200 42.16500
C  -12.42600 17.09000 41.89900
C  -13.46000 15.92500 41.91300
C  -12.56000 14.67100 42.29100
C  -11.14800 15.23300 42.31700
C  -14.67100 16.22000 42.76800
C  -12.74300 13.50800 41.29500
C  -14.06700 12.68200 41.46200
N  -8.39200 16.27000 42.70600
C  -8.69200 14.91600 42.79800
C  -7.44100 14.15700 42.95200
C  -6.46400 15.07700 42.77300
C  -7.06500 16.38600 42.68200
C  -7.28200 12.72900 43.05600
C  -5.05200 15.22600 42.81800
O  -4.13600 14.47100 43.05500
C  -4.78300 16.73900 42.59700
C  -3.74300 17.19200 43.56100
O  -2.58300 17.27800 43.35600
O  -4.37300 17.54200 44.70700
C  -3.53400 18.25100 45.68900
H  -8.89300 22.52700 41.71900
H  -13.85500 18.46900 41.27800
H  -10.18500 13.39400 42.84600
H  -4.70900 20.06400 42.95300
H  -6.19200 21.84800 41.36600
H  -5.30000 21.82700 44.02600
H  -7.11000 22.42100 43.93200
H  -5.69900 23.17500 43.10900
H  -3.79200 19.28300 40.86400
H  -4.50500 20.86800 40.41200
H  -6.56500 19.72000 39.44100
H  -5.98900 18.17400 39.91400
H  -12.15800 23.42900 40.25800
H  -10.41100 23.50200 40.42200
H  -11.29900 23.92400 41.80700
H  -15.08500 19.80200 42.07200
H  -15.50500 20.08100 40.42700
H  -16.15300 21.20900 41.55400
H  -13.87200 15.83700 40.90800
H  -12.79800 14.31400 43.29400
H  -14.63600 17.24500 43.13500
H  -14.80700 15.47800 43.55500
H  -15.58100 16.06700 42.18700
H  -11.91300 12.81500 41.43000
H  -12.76400 13.89900 40.27800
H  -14.34100 13.02900 42.45800
H  -13.71300 11.65100 41.46900
H  -14.86900 12.93900 40.77000
H  -8.23600 12.28400 42.77200
H  -6.97900 12.47300 44.07200
H  -6.46200 12.50900 42.37300
H  -4.27700 16.85200 41.63800
H  -2.62800 17.69500 45.93200
H  -4.05700 18.31300 46.64300
H  -3.35300 19.30000 45.45400
Mg -4.88100 24.99300 25.92800
C  -3.16100 26.66300 28.52800
C  -5.64000 22.57000 28.24300
C  -6.28100 23.31300 23.42000
C  -3.15600 27.06500 23.66000
N  -4.14100 24.48500 28.19100
C  -3.74800 25.50300 29.04100
C  -4.16900 25.18000 30.52800
C  -4.77400 23.76600 30.34100
C  -4.87000 23.58800 28.88300
C  -3.85400 22.63800 30.99400
C  -4.95600 26.27900 31.18100
C  -4.57600 26.75300 32.63600
H  -4.17700 25.66500 33.61100
N  -5.77200 23.20000 25.82200
C  -6.00400 22.37600 26.89900
C  -6.83300 21.24000 26.49100
C  -7.02400 21.39700 25.04100
C  -6.34800 22.72300 24.67800
C  -7.19700 20.07800 27.41600
C  -7.78400 20.54700 24.08400
O  -7.76500 20.74200 22.90400
C  -8.51600 19.42300 24.62700
N  -4.76300 25.20200 23.89400
C  -5.55300 24.43200 23.03600
C  -5.28700 24.84600 21.59500
C  -4.35100 26.08200 21.74200
C  -4.12200 26.18800 23.23100
C  -4.60500 23.70900 20.74600
C  -4.96900 27.40800 21.18400
C  -4.01200 28.09500 20.13200
N  -3.45900 26.53400 26.04900
C  -2.84100 27.23700 25.03600
C  -2.02300 28.32800 25.60700
C  -2.10100 28.13800 26.95600
C  -2.98400 27.00400 27.18900
C  -1.32700 29.35900 24.78500
C  -1.69700 28.62300 28.29900
O  -0.97200 29.54800 28.60300
C  -2.51100 27.70200 29.34900
C  -1.57900 27.13300 30.27600
O  -0.81700 26.25700 30.03300
O  -1.58200 27.91300 31.35600
C  -0.60100 27.63100 32.32600
H  -6.10500 21.89400 28.96300
H  -6.79500 22.80500 22.60100
H  -2.73100 27.72700 22.90200
H  -3.24600 25.01300 31.08200
H  -5.76600 23.54600 30.73600
H  -4.36500 22.07000 31.77200
H  -2.87700 22.91400 31.39100
H  -3.60200 22.01100 30.13900
H  -6.00700 26.03200 31.03600
H  -4.88300 27.23000 30.65200
H  -5.33000 27.42200 33.05200
H  -3.74900 27.46000 32.57900
H  -7.59600 19.13300 27.04700
H  -7.94700 20.39300 28.14200
H  -6.27200 19.74300 27.88400
H  -8.89400 19.74600 25.59700
H  -7.78900 18.61300 24.56500
H  -9.35600 19.12400 24.00000
H  -6.22500 25.11300 21.11000
H  -3.35600 25.97000 21.31300
H  -4.14900 23.06300 21.49600
H  -3.90600 23.92300 19.93800
H  -5.49300 23.14000 20.46900
H  -5.15800 28.08000 22.02100
H  -5.97800 27.16600 20.85200
H  -4.62100 28.41100 19.28500
H  -3.23700 27.37600 19.86800
H  -3.67500 28.98900 20.65800
H  -1.95500 29.77800 23.99900
H  -0.47600 28.87800 24.30300
H  -1.01600 30.24500 25.33900
H  -3.17900 28.34200 29.92400
H  -0.71000 26.61000 32.69200
H  -0.71800 28.35300 33.13300
H  0.38100 27.76800 31.87400

