158

Mg 0.94400 8.29100 25.92700
C  1.88500 10.41300 28.66900
C  1.16300 5.66000 28.03100
C  0.57600 6.29700 23.21600
C  1.22000 11.10400 23.90100
N  1.55800 8.07400 28.23400
C  1.81500 9.06600 29.11100
C  2.10800 8.42300 30.47700
C  2.06700 6.80400 30.12400
C  1.50400 6.83600 28.70500
C  3.32500 5.93300 30.28400
C  1.17700 8.99600 31.57300
C  1.38800 8.48700 33.09100
H  2.61000 7.59400 33.25100
N  0.68400 6.26100 25.62500
C  0.74200 5.39300 26.68900
C  0.36100 4.04000 26.24800
C  0.26600 4.15700 24.80500
C  0.58700 5.56500 24.45600
C  0.23600 2.91700 27.27500
C  0.12700 3.04100 23.72400
O  0.14200 3.39300 22.51700
C  0.02600 1.65300 24.10100
N  1.11000 8.60000 23.83700
C  0.82500 7.62700 22.91200
C  0.75400 8.29200 21.54000
C  0.47300 9.76600 21.83900
C  0.91800 9.85900 23.25400
C  2.09400 7.95600 20.77500
C  -0.97800 10.48500 21.74800
C  -0.88500 11.79300 20.92800
N  1.47200 10.33900 26.11800
C  1.47400 11.34100 25.21100
C  1.79900 12.63000 25.81500
C  1.93200 12.28600 27.17800
C  1.74300 10.89700 27.33000
C  2.01500 13.99000 25.17300
C  2.13800 12.85200 28.46500
O  2.43900 14.01500 28.70800
C  2.09700 11.67900 29.48800
C  3.41500 11.57600 30.25800
O  4.54200 11.37300 29.82100
O  3.05700 11.89800 31.59900
C  4.19000 11.73000 32.57600
H  1.17500 4.76700 28.66000
H  0.18000 5.69100 22.39800
H  1.09100 11.95400 23.22700
H  3.12600 8.66400 30.78000
H  1.28200 6.31400 30.70000
H  4.06600 6.62500 30.68200
H  3.59200 5.56100 29.29400
H  3.04200 5.14200 30.97900
H  0.12800 8.94200 31.28500
H  1.46900 10.04600 31.60000
H  0.46300 8.10900 33.52600
H  1.66000 9.32300 33.73500
H  0.00300 2.01600 26.70800
H  -0.45400 3.19200 28.07400
H  1.25300 2.86300 27.66400
H  0.00300 1.09600 23.16400
H  -0.83600 1.35300 24.69600
H  0.84600 1.30200 24.72700
H  -0.03200 7.75100 21.01300
H  1.15800 10.34900 21.22400
H  2.80000 8.76800 20.60100
H  1.77200 7.71200 19.76300
H  2.66600 7.10500 21.14300
H  -1.25300 10.66600 22.78700
H  -1.61200 9.72800 21.28500
H  0.11300 12.18800 20.73900
H  -1.48900 12.58000 21.38100
H  -1.31000 11.52200 19.96100
H  2.96500 14.46900 25.40800
H  1.30200 14.62000 25.70500
H  1.77100 14.00600 24.11000
H  1.33200 11.89000 30.23600
H  5.21200 11.72700 32.19800
H  4.07400 10.82100 33.16700
H  4.02900 12.39500 33.42400
Mg -11.25800 14.86600 41.47700
C  -7.87100 14.32800 41.30400
C  -10.92100 17.83700 39.81300
C  -14.65700 15.02800 41.28600
C  -11.55300 11.53700 42.73800
N  -9.56600 15.88300 40.53400
C  -8.26600 15.50600 40.64800
C  -7.36700 16.36800 39.83300
C  -8.28200 17.54900 39.31300
C  -9.62400 17.11900 39.98200
C  -7.81900 19.01200 39.47000
C  -6.66400 15.53500 38.67100
C  -5.17100 15.71200 38.45500
H  -4.66500 16.38100 37.11500
N  -12.61200 16.20100 40.52400
C  -12.28900 17.45400 40.10200
C  -13.46900 18.12500 39.73200
C  -14.57900 17.31700 40.17200
C  -13.98700 16.12100 40.67600
C  -13.51400 19.51800 39.09900
C  -16.01200 17.77200 40.03200
O  -16.18900 18.83200 39.42000
C  -17.20800 17.02500 40.48700
N  -12.87300 13.45500 41.76100
C  -14.17800 13.79100 41.74700
C  -15.06900 12.66600 42.09000
C  -14.06000 11.54500 42.61600
C  -12.70900 12.17700 42.32100
C  -16.21800 13.06400 43.09200
C  -14.22700 10.10900 42.11000
C  -14.93300 9.00300 43.00100
N  -10.04000 13.27400 42.10000
C  -10.24200 12.02500 42.63500
C  -9.01700 11.36900 42.90500
C  -8.03200 12.24000 42.34600
C  -8.71200 13.35900 41.85500
C  -8.85700 10.10400 43.59300
C  -6.60800 12.42100 42.21100
O  -5.66500 11.68800 42.60100
C  -6.46600 13.80000 41.56600
C  -5.70300 14.69200 42.47900
O  -6.25600 15.31800 43.40700
O  -4.35800 14.75600 42.02800
C  -3.61400 15.81600 42.74700
H  -10.78900 18.74500 39.22100
H  -15.72300 15.08800 41.51500
H  -11.60500 10.63300 43.34800
H  -6.68800 16.75400 40.59300
H  -8.48300 17.37500 38.25600
H  -7.05800 18.92200 40.24500
H  -8.65800 19.58900 39.85800
H  -7.31500 19.33600 38.55900
H  -7.18900 15.82100 37.76000
H  -7.03000 14.50900 38.68200
H  -4.76200 14.70800 38.56700
H  -4.61200 16.41900 39.06900
H  -14.01900 20.30300 39.66200
H  -13.94900 19.54000 38.09900
H  -12.51700 19.92000 38.92200
H  -18.16000 17.55100 40.41500
H  -17.01800 16.71700 41.51500
H  -17.15800 16.02100 40.06800
H  -15.39400 12.34100 41.10100
H  -14.05700 11.52600 43.70600
H  -17.20400 12.99600 42.63400
H  -16.06100 14.07400 43.47000
H  -16.27200 12.49200 44.01800
H  -13.28000 9.69200 41.76500
H  -14.80800 9.99900 41.19500
H  -15.47300 8.31200 42.35400
H  -15.66000 9.44400 43.68400
H  -14.15700 8.48200 43.56100
H  -9.60600 10.13900 44.38400
H  -7.84200 9.86200 43.91000
H  -9.13000 9.29900 42.91100
H  -5.94600 13.81600 40.60900
H  -4.17700 16.73600 42.90300
H  -2.62500 15.95000 42.30800
H  -3.58800 15.59100 43.81300

