158

Mg 9.21400 4.59300 27.28700
C  10.39700 2.78100 30.17900
C  7.26700 6.38900 29.45300
C  8.05700 6.09000 24.68600
C  10.64000 2.05100 25.35300
N  8.95500 4.66200 29.65800
C  9.60800 3.86900 30.60400
C  9.16800 4.29200 32.00400
C  7.99900 5.41000 31.78700
C  8.05300 5.55800 30.23200
C  6.56200 5.05400 32.28900
C  10.47000 4.84300 32.68200
C  10.88400 4.16100 34.04100
H  10.87300 4.91400 35.35600
N  7.80000 5.99500 27.05800
C  7.08600 6.66200 28.07700
C  6.18500 7.59600 27.48000
C  6.30800 7.46300 26.11300
C  7.45400 6.52200 25.88400
C  5.39900 8.43300 28.42300
C  5.51100 8.07400 25.03400
O  5.76300 8.00200 23.82800
C  4.27200 8.95800 25.48700
N  9.38000 4.15500 25.31600
C  8.91700 5.00600 24.34500
C  9.26200 4.47500 22.93100
C  10.07900 3.22900 23.23700
C  9.97700 3.11900 24.70000
C  8.06400 4.07000 22.03300
C  11.57800 3.28300 22.70500
C  11.80200 2.28300 21.58800
N  10.38900 2.79000 27.63000
C  10.76000 1.83000 26.71000
C  11.39300 0.73100 27.39300
C  11.26800 1.02000 28.77800
C  10.68600 2.28900 28.89100
C  12.01300 -0.51300 26.73900
C  11.61000 0.61600 30.14000
O  12.18500 -0.40500 30.50600
C  11.02400 1.70500 31.04500
C  10.09000 0.98700 32.04300
O  8.97700 0.63400 31.83400
O  10.66400 0.83600 33.27300
C  9.97200 0.09500 34.31800
H  6.69600 6.97400 30.17700
H  7.90600 6.59900 23.73200
H  11.03600 1.28200 24.68600
H  8.77400 3.33500 32.34700
H  8.15800 6.42200 32.15900
H  5.94000 5.94800 32.26100
H  6.57800 4.84000 33.35700
H  6.04700 4.29200 31.70400
H  10.45900 5.92200 32.84000
H  11.33100 4.85900 32.01400
H  11.91100 3.82500 33.89300
H  10.34200 3.22300 34.15800
H  4.46600 7.88900 28.57000
H  5.06700 9.39900 28.04400
H  6.00700 8.66300 29.29800
H  3.44800 8.46300 26.00100
H  3.87800 9.23200 24.50900
H  4.65400 9.87700 25.93100
H  9.99000 5.13200 22.45500
H  9.66100 2.30600 22.83500
H  7.63300 3.15600 22.44300
H  8.32100 3.83800 20.99900
H  7.38400 4.92100 21.98700
H  12.28600 3.01100 23.48800
H  11.91200 4.24500 22.31700
H  10.90800 2.36800 20.97100
H  11.97600 1.25200 21.89500
H  12.68500 2.60200 21.03500
H  12.03500 -0.39700 25.65600
H  11.51500 -1.44500 27.00500
H  13.05000 -0.56100 27.07100
H  11.86700 2.13100 31.59000
H  9.18300 -0.49600 33.85300
H  9.55000 0.83500 34.99800
H  10.71400 -0.54400 34.79600
Mg 36.43800 49.77400 24.61300
C  36.99300 48.32900 27.57100
C  34.95500 52.55900 26.25900
C  35.56000 51.09500 21.58400
C  37.55700 46.94300 22.91400
N  36.15000 50.39500 26.71600
C  36.36600 49.61400 27.79800
C  35.99300 50.29600 29.10700
C  35.05400 51.42900 28.60500
C  35.42300 51.51600 27.10100
C  33.52300 51.26400 29.06200
C  37.19000 50.76200 29.96600
C  37.31900 50.23900 31.41500
H  36.06800 50.12300 32.21400
N  35.58600 51.65400 24.01400
C  35.03600 52.65400 24.82900
C  34.55300 53.75400 24.01200
C  34.56700 53.29000 22.63600
C  35.33300 51.98200 22.68600
C  34.01100 55.05100 24.58400
C  34.01400 53.92300 21.34500
O  34.04200 53.28500 20.25300
C  33.51500 55.37300 21.49100
N  36.50500 49.08400 22.55100
C  36.11700 49.81600 21.53200
C  36.34900 49.10400 20.08600
C  37.11500 47.85100 20.48600
C  37.01500 47.90600 22.12600
C  35.02700 48.89600 19.36100
C  38.60800 47.65200 19.98900
C  39.61600 48.77200 20.39500
N  37.04100 47.98300 25.11200
C  37.55100 46.94600 24.33700
C  37.95800 45.83200 25.15400
C  37.72800 46.34700 26.52600
C  37.19700 47.65800 26.39600
C  38.33800 44.42400 24.70800
C  37.88000 45.98000 27.90000
O  38.14100 44.90500 28.46700
C  37.43000 47.30600 28.64200
C  36.29600 46.79700 29.54400
O  35.11300 46.72400 29.28300
O  36.87500 46.37800 30.77500
C  35.94300 45.78200 31.70900
H  34.55400 53.42000 26.79900
H  35.15500 51.40600 20.61900
H  37.81400 46.01000 22.40800
H  35.43500 49.50900 29.61400
H  35.33700 52.39300 29.02900
H  33.30300 52.24700 29.47800
H  33.35700 50.45800 29.77600
H  32.88200 51.06600 28.20300
H  37.23400 51.84500 30.08500
H  38.09200 50.48500 29.42000
H  38.08000 50.82000 31.93800
H  37.70600 49.22000 31.42900
H  34.61800 55.88200 24.22500
H  34.07600 55.01900 25.67100
H  32.96300 55.09500 24.28800
H  32.68700 55.32800 22.20000
H  33.24200 55.80600 20.52900
H  34.31000 56.00800 21.88300
H  36.93200 49.84600 19.53900
H  36.57900 46.98500 20.09800
H  34.15100 49.10800 19.97400
H  35.00400 47.83800 19.09900
H  34.81000 49.42600 18.43400
H  38.58800 47.62000 18.89900
H  38.91800 46.62700 20.19200
H  39.07300 49.59600 20.85900
H  40.10600 49.12000 19.48600
H  40.21500 48.48600 21.26000
H  38.41000 44.28400 23.63000
H  37.72000 43.65300 25.16900
H  39.39800 44.34800 24.94700
H  38.22700 47.50700 29.35800
H  35.09100 46.46200 31.72600
H  36.38700 45.65600 32.69600
H  35.60200 44.80700 31.36200

