158

Mg 17.77400 -1.90000 26.11200
C  16.81400 -0.08100 29.04200
C  19.50000 -4.00600 28.28500
C  18.72500 -3.47800 23.37700
C  16.31200 0.62400 24.19400
N  18.24600 -1.82500 28.39500
C  17.61800 -1.16700 29.36000
C  17.96500 -1.68000 30.78400
C  19.09100 -2.76300 30.43900
C  18.89000 -2.89900 28.94800
C  20.56100 -2.41300 30.85300
C  16.75700 -2.28500 31.60300
C  16.76100 -1.95500 33.14800
H  18.10400 -1.98200 33.84600
N  18.83900 -3.64000 25.87300
C  19.46900 -4.40200 26.84200
C  20.09300 -5.55800 26.14700
C  19.88000 -5.41000 24.66000
C  19.20300 -4.15300 24.60900
C  20.85100 -6.66600 26.86000
C  20.31100 -6.33900 23.53000
O  19.97000 -6.09600 22.38100
C  21.09900 -7.60900 23.92700
N  17.72500 -1.36700 24.07300
C  18.08800 -2.22400 23.08500
C  18.00500 -1.52700 21.70400
C  17.00200 -0.32400 21.99000
C  17.02300 -0.32800 23.52200
C  19.37100 -1.16800 21.10600
C  15.59400 -0.42300 21.39400
C  15.19300 0.74700 20.43100
N  16.74600 -0.20800 26.48100
C  16.07600 0.63100 25.58900
C  15.29200 1.54700 26.27100
C  15.56700 1.35600 27.63100
C  16.45700 0.22200 27.67900
C  14.38600 2.55700 25.61500
C  15.38200 1.86200 28.99300
O  14.83500 2.90400 29.40100
C  16.12500 0.87700 29.94400
C  17.11500 1.65800 30.73300
O  17.97600 2.40100 30.25700
O  17.06300 1.43900 32.12200
C  17.90200 2.18800 33.03300
H  20.05100 -4.65500 28.96900
H  19.04600 -3.93800 22.44000
H  15.83500 1.40500 23.59800
H  18.46500 -0.87100 31.31600
H  18.89600 -3.72400 30.91400
H  20.61500 -1.36400 31.14700
H  21.26300 -2.39400 30.01900
H  20.94500 -3.04300 31.65500
H  16.81200 -3.37300 31.59800
H  15.76000 -2.04100 31.23700
H  16.19100 -2.76400 33.60600
H  16.36000 -0.97600 33.41300
H  20.99300 -6.62700 27.94000
H  21.84700 -6.62400 26.42000
H  20.48700 -7.64800 26.55900
H  20.51600 -8.18700 24.64400
H  22.05800 -7.25100 24.29900
H  21.18700 -8.19500 23.01100
H  17.46800 -2.25300 21.09300
H  17.40800 0.63600 21.67100
H  19.67900 -0.14000 21.29800
H  19.18700 -1.32300 20.04300
H  20.20900 -1.74300 21.49900
H  14.83200 -0.53400 22.16500
H  15.46500 -1.38700 20.90200
H  14.28600 1.22700 20.79800
H  15.06800 0.31700 19.43700
H  15.97000 1.49100 20.25600
H  13.46600 2.02200 25.38300
H  14.91500 3.04800 24.79800
H  14.09400 3.31300 26.34500
H  15.48200 0.32600 30.63100
H  17.26600 2.90200 33.55800
H  18.69500 2.83200 32.65400
H  18.42200 1.39900 33.57500
Mg 26.43200 -0.10800 28.60700
C  27.88300 -0.61200 31.78900
C  23.44100 0.01200 30.30400
C  25.04500 0.26300 25.71500
C  29.50700 -1.11000 27.09700
N  25.69000 -0.47800 30.85700
C  26.53100 -0.42900 31.93700
C  25.78800 -0.21300 33.28200
C  24.32400 -0.19000 32.77800
C  24.42700 -0.29100 31.22600
C  23.41600 -1.33400 33.28300
C  26.33600 1.01600 34.11700
C  26.77300 0.75300 35.58000
H  26.57600 1.87500 36.62400
N  24.55400 0.13100 28.05900
C  23.43200 0.21900 28.90500
C  22.26100 0.59700 28.11000
C  22.70600 0.68100 26.78200
C  24.14200 0.41900 26.79800
C  20.84800 0.72700 28.65700
C  21.85900 0.93300 25.47200
O  22.44200 0.99900 24.39500
C  20.36100 1.03300 25.52100
N  27.16200 -0.23000 26.63900
C  26.36700 -0.05800 25.61400
C  27.17900 -0.04200 24.32000
C  28.45300 -0.80700 24.75400
C  28.41700 -0.72300 26.26300
C  26.40300 -0.76500 23.15900
C  29.71300 -0.09600 24.17000
C  30.93300 -1.00500 23.84800
N  28.31300 -0.66400 29.24600
C  29.41500 -1.05700 28.53200
C  30.48900 -1.21600 29.42600
C  29.99900 -1.00200 30.69400
C  28.60700 -0.78800 30.57400
C  31.99000 -1.55900 29.14200
C  30.35200 -1.01400 32.12800
O  31.40400 -1.29600 32.67800
C  29.00900 -0.72800 32.84600
C  28.81900 -1.84700 33.83100
O  28.14200 -2.88800 33.63900
O  29.45500 -1.48700 35.01500
C  29.11500 -2.25200 36.21000
H  22.53400 0.08800 30.90800
H  24.51100 0.32400 24.76400
H  30.41700 -1.45200 26.60100
H  26.16400 -1.10400 33.78400
H  23.90400 0.80100 32.95000
H  22.55100 -0.95800 33.82900
H  23.92000 -1.99600 33.98800
H  23.00200 -1.90900 32.45400
H  25.54600 1.76700 34.13300
H  27.20700 1.59500 33.80900
H  27.83600 0.52900 35.67100
H  26.26800 -0.09100 36.04900
H  20.10500 0.09700 28.16800
H  20.47500 1.73100 28.45500
H  20.69800 0.51200 29.71500
H  20.02300 1.87400 26.12600
H  20.10400 0.06300 25.94800
H  20.06400 1.22900 24.49100
H  27.40500 0.98600 24.03900
H  28.45100 -1.85700 24.45800
H  26.95900 -1.67400 22.93200
H  26.34900 -0.07700 22.31500
H  25.39500 -1.07600 23.43500
H  30.11800 0.61800 24.88700
H  29.51800 0.40500 23.22200
H  31.04600 -1.71900 24.66400
H  31.87900 -0.48900 23.68500
H  30.78700 -1.56500 22.92500
H  32.06300 -1.77900 28.07700
H  32.26000 -2.41700 29.75800
H  32.58700 -0.73500 29.53300
H  29.06700 0.19100 33.42900
H  28.91700 -3.29400 35.95700
H  28.24600 -1.74900 36.63500
H  29.94200 -2.14900 36.91200

