158

Mg 53.93800 25.07600 44.34500
C  50.96000 26.99500 43.82200
C  52.02500 22.38500 43.41300
C  56.78400 23.33800 44.14400
C  55.77900 27.96900 44.81100
N  51.68300 24.69300 43.71500
C  50.67400 25.63900 43.65900
C  49.45900 25.03600 43.10100
C  49.72300 23.57300 43.52600
C  51.22000 23.48300 43.44600
C  49.23500 23.13800 44.95100
C  49.20800 25.18100 41.59600
C  47.77800 25.23000 41.08100
H  47.54600 25.08200 39.61300
N  54.33200 23.09900 43.94500
C  53.37600 22.19600 43.51100
C  54.07000 20.96100 43.21300
C  55.49000 21.17400 43.35200
C  55.61300 22.53400 43.88800
C  53.36500 19.67600 42.90000
C  56.67100 20.32600 43.02400
O  56.51600 19.30200 42.35800
C  58.01600 20.70200 43.25600
N  56.00600 25.60600 44.43400
C  56.95900 24.69200 44.40100
C  58.36000 25.27200 44.56200
C  58.00500 26.78900 44.91100
C  56.52100 26.83400 44.77300
C  59.30900 24.50500 45.62000
C  58.79800 27.82400 44.10100
C  59.64700 28.82100 44.83500
N  53.52900 27.09400 44.33300
C  54.32800 28.18100 44.58100
C  53.53900 29.35800 44.52200
C  52.22000 28.96000 44.33100
C  52.28300 27.57500 44.14900
C  54.04500 30.75200 44.78400
C  50.82000 29.35100 44.22300
O  50.31700 30.44200 44.40900
C  50.02400 28.18100 43.65400
C  49.71100 28.54000 42.23600
O  50.51400 28.92300 41.36700
O  48.37900 28.52800 42.13700
C  47.81400 29.13500 40.86600
H  51.43800 21.47200 43.29100
H  57.77400 22.88000 44.09900
H  56.28400 28.89800 45.08300
H  48.63300 25.41000 43.70600
H  49.24400 22.93300 42.78500
H  48.34700 22.51200 44.87100
H  48.86700 23.95400 45.57200
H  50.02800 22.68300 45.54400
H  49.77200 24.45300 41.01200
H  49.66600 26.12900 41.31700
H  47.31600 26.18100 41.34800
H  47.23200 24.47300 41.64400
H  54.05600 18.89800 42.57500
H  52.62800 19.76500 42.10200
H  52.84400 19.37500 43.80800
H  58.37800 21.57000 42.70500
H  58.58200 19.79000 43.06400
H  58.07300 20.92700 44.32100
H  58.82600 25.19000 43.58000
H  58.09400 27.02500 45.97100
H  58.95700 23.51400 45.90700
H  59.37000 25.14700 46.49900
H  60.28900 24.32300 45.17900
H  58.07800 28.35100 43.47600
H  59.48700 27.21700 43.51400
H  60.68700 28.50100 44.89800
H  59.23300 28.87200 45.84200
H  59.50700 29.85600 44.52300
H  54.07200 30.91200 45.86200
H  53.48400 31.46600 44.18200
H  55.04200 30.85400 44.35600
H  49.15300 28.06200 44.29800
H  46.81800 29.45800 41.17000
H  47.76400 28.48200 39.99500
H  48.22900 30.12500 40.67500
Mg 49.22000 47.06500 42.93200
C  45.99500 48.07600 42.14700
C  48.93800 44.31700 40.83200
C  52.51000 46.51000 43.11000
C  49.67500 50.58200 43.68500
N  47.59400 46.33100 41.58700
C  46.40700 46.92400 41.41300
C  45.72500 46.31200 40.22700
C  46.60600 45.04200 39.87500
C  47.76900 45.22100 40.87800
C  45.80800 43.75600 39.82100
C  45.50500 47.29500 39.09000
C  44.03600 47.31800 38.61400
H  43.71500 46.93800 37.20800
N  50.43700 45.44000 42.33000
C  50.15200 44.41300 41.54200
C  51.23800 43.47400 41.57600
C  52.30000 44.04700 42.28700
C  51.77800 45.41000 42.62500
C  51.18900 42.05800 40.96000
C  53.73700 43.31800 42.48900
O  53.96700 42.23900 41.96300
C  54.79900 44.05800 43.25600
N  50.79800 48.40300 43.17800
C  52.09300 47.86700 43.28400
C  53.14400 48.86200 43.76600
C  52.22400 50.18900 43.78100
C  50.80000 49.69800 43.63400
C  53.82500 48.57700 45.09300
C  52.69300 51.22900 42.78700
C  53.57000 52.44200 43.29500
N  48.03900 48.87800 43.33500
C  48.35600 50.17900 43.54200
C  47.11300 50.99400 43.67600
C  46.17000 50.13800 43.26400
C  46.79000 48.93200 42.93500
C  47.09600 52.44900 44.15200
C  44.73700 50.05500 43.00100
O  43.77700 50.78000 43.18900
C  44.60200 48.72900 42.16600
C  43.46400 47.86900 42.71500
O  43.23800 47.53300 43.89500
O  42.87100 47.32800 41.66300
C  41.93500 46.21100 41.76100
H  48.74100 43.48800 40.15000
H  53.54500 46.26400 43.35600
H  49.86300 51.59500 44.04600
H  44.80000 45.94200 40.67000
H  47.06000 45.15300 38.89000
H  44.73600 43.85600 39.99400
H  46.06000 43.10900 40.66100
H  46.05800 43.37700 38.83000
H  46.15200 47.05800 38.24500
H  45.72500 48.29900 39.45300
H  43.53800 48.27800 38.75000
H  43.46300 46.63200 39.23800
H  52.03200 41.87500 40.29500
H  50.26200 41.87200 40.41700
H  51.32000 41.35700 41.78500
H  55.45600 43.30900 43.69800
H  54.32000 44.53800 44.10800
H  55.21900 44.85100 42.63700
H  53.94100 49.06800 43.05200
H  52.32800 50.72200 44.72600
H  53.03700 48.76100 45.82400
H  54.67400 49.23800 45.26800
H  54.06700 47.51800 45.17400
H  51.73100 51.67500 42.53500
H  52.98800 50.85600 41.80700
H  53.29000 52.69800 44.31700
H  53.58900 53.34400 42.68300
H  54.54800 51.96200 43.30300
H  48.10700 52.74300 44.43600
H  46.40600 52.43100 44.99600
H  46.61200 52.96800 43.32500
H  44.27100 49.02800 41.17100
H  40.93600 46.35100 41.34900
H  41.96000 45.89000 42.80200
H  42.31600 45.35200 41.20800

