158

Mg -12.32600 37.43400 42.46000
C  -10.16800 35.00800 41.41800
C  -10.21300 39.92500 40.93600
C  -14.71500 39.83800 43.11400
C  -14.65700 34.87500 43.31400
N  -10.46800 37.45000 41.23200
C  -9.72100 36.28700 40.99200
C  -8.46400 36.57600 40.22200
C  -8.44300 38.16600 40.16100
C  -9.80900 38.58800 40.77800
C  -7.25400 38.87300 40.90000
C  -8.54200 35.86200 38.76200
C  -7.45900 34.88300 38.39700
H  -6.54500 35.30000 37.18100
N  -12.45200 39.58500 42.08300
C  -11.43800 40.40700 41.49600
C  -11.87700 41.82100 41.58800
C  -13.26400 41.84400 42.07800
C  -13.52700 40.40400 42.47700
C  -11.00600 43.01600 41.21100
C  -14.33800 42.97400 42.02000
O  -13.92700 44.04800 41.55600
C  -15.72700 42.91400 42.64900
N  -14.40600 37.33800 43.13400
C  -15.11800 38.50400 43.34600
C  -16.52000 38.19000 43.84700
C  -16.50900 36.62800 43.73200
C  -15.11400 36.20900 43.36500
C  -16.96700 38.80300 45.17700
C  -17.56500 36.17000 42.54900
C  -18.66800 35.29500 43.00800
N  -12.40500 35.41400 42.43700
C  -13.40900 34.46000 42.91700
C  -12.84200 33.06800 42.73100
C  -11.54700 33.30900 42.24700
C  -11.36000 34.69400 42.10100
C  -13.52400 31.71200 43.13400
C  -10.41000 32.58300 41.81100
O  -10.26600 31.35900 41.75600
C  -9.34100 33.70800 41.33000
C  -8.09000 33.63700 42.16900
O  -7.00400 33.82000 41.64500
O  -8.19300 33.54200 43.49600
C  -7.08100 33.98700 44.34300
H  -9.52700 40.72000 40.63600
H  -15.50200 40.50800 43.46600
H  -15.36400 34.04800 43.22700
H  -7.61700 36.17300 40.77800
H  -8.63600 38.47600 39.13400
H  -7.44100 38.99000 41.96800
H  -6.94700 39.85400 40.53900
H  -6.36500 38.25900 40.75200
H  -8.40400 36.65500 38.02600
H  -9.50100 35.40100 38.52400
H  -7.86900 33.89100 38.20800
H  -6.81100 34.84800 39.27300
H  -10.01800 42.74400 41.58200
H  -11.30100 43.85100 41.84600
H  -10.81500 43.16800 40.14800
H  -16.24900 43.87200 42.64800
H  -15.51200 42.47600 43.62400
H  -16.33500 42.22900 42.05900
H  -17.25100 38.64000 43.17600
H  -16.68100 36.12000 44.68100
H  -16.16600 39.06700 45.86800
H  -17.72900 38.17500 45.63800
H  -17.55500 39.69900 44.97700
H  -17.02600 35.58500 41.80300
H  -18.08000 36.99500 42.05900
H  -18.50400 34.96000 44.03300
H  -18.69100 34.32600 42.50800
H  -19.62800 35.77500 42.82100
H  -13.25100 30.89500 42.46600
H  -14.60700 31.75800 43.24900
H  -13.04700 31.45600 44.08000
H  -9.21900 33.47700 40.27200
H  -7.34100 34.49600 45.27100
H  -6.27200 34.42800 43.76000
H  -6.67400 33.01800 44.63200
Mg -12.33100 15.52200 41.89500
C  -9.25700 13.91800 41.80000
C  -10.74000 18.26800 40.60700
C  -15.27500 16.90300 41.47900
C  -13.90700 12.38900 42.74400
N  -10.25900 15.94100 41.06100
C  -9.18200 15.12600 41.19600
C  -7.89600 15.76500 40.63500
C  -8.32900 17.24700 40.64500
C  -9.86400 17.24400 40.79300
C  -7.78200 18.09700 41.93700
C  -7.60900 15.15300 39.20400
C  -6.07600 14.88400 38.87000
H  -5.62500 15.76300 37.69600
N  -12.90700 17.39700 41.18900
C  -12.12900 18.42700 40.75000
C  -12.99500 19.55800 40.42700
C  -14.31800 19.21300 40.77400
C  -14.21500 17.76900 41.12700
C  -12.47500 20.87200 39.88700
C  -15.58700 20.02500 40.74300
O  -15.48800 21.14700 40.28900
C  -16.92200 19.59300 41.04500
N  -14.31100 14.65900 41.78800
C  -15.32500 15.51700 41.85500
C  -16.72900 14.87600 42.05700
C  -16.25600 13.36000 42.25800
C  -14.76600 13.46400 42.28900
C  -17.52900 15.36700 43.28300
C  -16.76200 12.39700 41.04100
C  -17.99600 11.53400 41.26900
N  -11.72300 13.58400 42.30800
C  -12.45600 12.48500 42.77100
C  -11.51400 11.46400 43.16900
C  -10.26700 11.93800 42.82600
C  -10.41400 13.18800 42.24300
C  -11.81100 10.12700 43.84500
C  -8.87500 11.64700 42.87700
O  -8.21600 10.69700 43.29200
C  -8.12100 12.96200 42.18000
C  -7.13700 13.63800 43.15900
O  -7.46600 14.38800 44.04500
O  -5.85600 13.49000 42.74900
C  -4.86100 14.31100 43.44400
H  -10.20900 19.21700 40.50400
H  -16.30800 17.25600 41.50300
H  -14.37600 11.42700 42.96100
H  -7.09700 15.56500 41.34900
H  -8.00800 17.76800 39.74300
H  -7.27500 17.42600 42.63100
H  -8.58000 18.70900 42.35700
H  -6.98500 18.70600 41.50900
H  -8.04800 15.80500 38.45000
H  -7.92700 14.11100 39.17700
H  -5.98900 13.84100 38.56500
H  -5.40600 15.06000 39.71100
H  -13.00400 21.28800 39.02900
H  -11.38900 20.89900 39.80700
H  -12.67800 21.56000 40.70800
H  -17.68300 20.37300 41.02100
H  -16.79800 19.30600 42.08900
H  -17.19500 18.73800 40.42700
H  -17.42400 14.88700 41.21800
H  -16.67200 12.95200 43.17900
H  -18.60300 15.44300 43.10900
H  -17.13200 16.32700 43.61200
H  -17.46300 14.72700 44.16300
H  -15.93600 11.84400 40.59500
H  -16.97500 13.11000 40.24400
H  -18.25800 11.40500 42.31900
H  -17.84800 10.49800 40.96400
H  -18.86400 11.96700 40.77300
H  -11.93400 10.22200 44.92400
H  -11.00500 9.45100 43.55900
H  -12.75000 9.65800 43.55200
H  -7.50000 12.66900 41.33300
H  -4.26300 14.79800 42.67400
H  -4.24500 13.62000 44.01900
H  -5.17600 15.10300 44.12300

