158

Mg 47.38700 24.92100 28.66500
C  48.22400 27.17700 31.18800
C  46.29600 22.74900 30.98900
C  46.84800 22.75500 26.20400
C  48.72400 27.25500 26.25100
N  47.31100 24.98900 30.77600
C  47.64700 25.99800 31.66400
C  47.25600 25.68200 33.11900
C  46.91300 24.19100 32.98400
C  46.91100 23.89900 31.46000
C  47.93000 23.25200 33.73500
C  46.00000 26.60200 33.59100
C  45.92100 27.02300 35.10700
H  46.92900 26.40600 36.10600
N  46.69300 22.97800 28.59800
C  46.25300 22.26700 29.68500
C  45.69500 20.94700 29.22200
C  45.96000 20.94700 27.80400
C  46.53000 22.21600 27.47100
C  45.02800 19.94800 30.22700
C  45.63900 19.86900 26.82900
O  45.86600 19.82700 25.61100
C  45.00800 18.56200 27.34000
N  47.98900 24.94300 26.57800
C  47.52300 23.90600 25.83500
C  47.91800 24.12500 24.28600
C  48.50600 25.60600 24.29000
C  48.39700 25.99900 25.79100
C  48.92900 23.06300 23.74500
C  47.68000 26.57700 23.37800
C  48.42100 27.20100 22.21500
N  48.15300 26.82200 28.64000
C  48.66700 27.60600 27.60800
C  48.94000 28.96700 28.13400
C  48.76800 28.91400 29.52300
C  48.32700 27.56300 29.77900
C  49.51500 30.04400 27.23200
C  48.97000 29.61400 30.83900
O  49.34400 30.73100 31.16300
C  48.62700 28.51000 31.90400
C  49.84200 28.35300 32.86300
O  51.01400 28.14300 32.54600
O  49.42600 28.71500 34.09500
C  50.48900 29.11600 35.03700
H  45.84300 22.10900 31.74800
H  46.44300 22.10000 25.43000
H  49.02600 27.93400 25.45200
H  48.19000 25.89300 33.64000
H  45.94500 24.04200 33.46300
H  48.30900 23.81100 34.59100
H  48.69900 23.08600 32.98100
H  47.33500 22.42700 34.12700
H  45.12000 26.01200 33.33400
H  46.11300 27.48000 32.95500
H  44.89000 26.98300 35.45700
H  46.22000 28.07100 35.10300
H  45.33500 20.01200 31.27100
H  45.24300 18.89000 30.07700
H  43.97000 20.07900 29.99800
H  44.75700 17.88600 26.52200
H  44.16800 18.79300 27.99500
H  45.72000 18.00200 27.94600
H  46.97600 24.09000 23.73800
H  49.57200 25.58900 24.06200
H  48.41200 22.28500 23.18300
H  49.52500 22.75900 24.60500
H  49.59400 23.52200 23.01400
H  47.50000 27.51200 23.90900
H  46.72900 26.19200 23.01300
H  48.06900 26.74500 21.29000
H  49.47300 26.93300 22.11300
H  48.36500 28.28900 22.25400
H  49.51200 30.96700 27.81200
H  48.80500 30.16300 26.41300
H  50.51200 29.75800 26.89900
H  47.80000 29.02200 32.39600
H  50.12600 29.90500 35.69500
H  51.44900 29.32800 34.56600
H  50.54000 28.17200 35.58000
Mg 49.38500 44.60100 43.18300
C  46.09600 45.42900 42.30000
C  48.99700 41.53400 41.53300
C  52.74400 44.20200 43.20200
C  49.78000 47.92800 44.11600
N  47.75000 43.65400 41.95900
C  46.51400 44.18300 41.73000
C  45.62300 43.20200 40.98800
C  46.36000 41.87900 41.32400
C  47.80800 42.34600 41.64700
C  45.62300 40.95100 42.45400
C  45.40700 43.50600 39.49200
C  43.95800 43.60200 38.88400
H  43.74800 44.39800 37.61000
N  50.65600 43.08900 42.52800
C  50.31400 41.87800 41.90600
C  51.47100 40.96900 41.74600
C  52.61700 41.76400 42.20200
C  52.03600 43.09000 42.66100
C  51.47900 39.46000 41.28700
C  54.03800 41.30300 42.12600
O  54.45700 40.22600 41.66200
C  55.13800 42.22000 42.69600
N  51.05500 45.96500 43.45500
C  52.32900 45.45200 43.57500
C  53.34700 46.54000 43.94800
C  52.41000 47.75600 44.33600
C  50.96200 47.17100 43.97500
C  54.38900 46.24100 45.06000
C  52.77800 49.17300 43.71200
C  53.02600 50.26500 44.63600
N  48.10900 46.31100 43.28200
C  48.43500 47.57500 43.79900
C  47.23000 48.41500 43.91500
C  46.31500 47.63600 43.27800
C  46.83500 46.35500 42.95200
C  47.07800 49.84800 44.30500
C  44.97500 47.65400 42.69400
O  44.07800 48.47700 42.61900
C  44.77300 46.17100 42.12900
C  43.60700 45.41300 42.62600
O  42.80000 44.89000 41.91000
O  43.34500 45.61000 43.92300
C  42.05400 45.12200 44.43500
H  48.86700 40.49800 41.21300
H  53.81400 44.18900 43.42100
H  50.02900 48.93400 44.46200
H  44.63000 43.09400 41.42300
H  46.26700 41.31100 40.39900
H  44.92600 41.61500 42.96600
H  46.40200 40.73200 43.18400
H  45.34100 39.97300 42.06300
H  45.97700 42.73000 38.98200
H  45.98100 44.37500 39.17000
H  43.17400 43.90100 39.57900
H  43.67700 42.56000 38.73100
H  51.88000 39.35900 40.27800
H  50.47100 39.04500 41.29700
H  52.04100 38.80900 41.95700
H  55.22000 43.10500 42.06600
H  56.13000 41.77300 42.63800
H  54.93400 42.50000 43.73000
H  53.96900 46.81900 43.09800
H  52.48500 47.94700 45.40600
H  54.16800 46.87800 45.91600
H  55.40100 46.37400 44.67800
H  54.13000 45.27300 45.48800
H  51.96600 49.51700 43.07100
H  53.66800 48.98400 43.11100
H  52.52800 50.25300 45.60600
H  52.64500 51.17800 44.17900
H  54.05400 50.55600 44.85400
H  47.93600 50.37400 43.88700
H  47.16800 49.85100 45.39100
H  46.17900 50.34900 43.94700
H  44.63700 46.23600 41.04900
H  41.19600 45.51200 43.88800
H  41.96000 45.50500 45.45100
H  41.96900 44.03700 44.49400

