158

Mg -0.40800 7.33500 25.65100
C  0.62900 9.03600 28.62000
C  -0.43200 4.31600 27.50700
C  -0.57800 5.56100 22.83900
C  0.79900 10.08100 23.83100
N  0.07200 6.77700 27.81900
C  0.25700 7.68900 28.84100
C  0.14600 6.96300 30.30300
C  0.14100 5.44200 29.78400
C  -0.08300 5.43300 28.30500
C  1.41700 4.73200 30.34900
C  -1.20300 7.29000 30.95000
C  -1.13600 7.62400 32.46400
H  0.14800 7.20600 33.25900
N  -0.65300 5.21900 25.26600
C  -0.68200 4.21100 26.15800
C  -1.12100 2.99900 25.42700
C  -1.22900 3.35400 24.05200
C  -0.71900 4.74000 24.03700
C  -1.38300 1.65500 26.13200
C  -1.68100 2.49600 22.82300
O  -1.88700 3.01700 21.73500
C  -1.91900 1.01300 22.93800
N  -0.02300 7.75300 23.72300
C  -0.24700 6.92600 22.69700
C  -0.06100 7.48100 21.27800
C  0.42400 8.86300 21.62800
C  0.44900 8.89000 23.13300
C  0.72500 6.66000 20.28100
C  -0.36800 9.98800 20.93200
C  -1.64700 10.35700 21.67000
N  0.48700 9.16800 26.04500
C  0.89600 10.22400 25.22000
C  1.40000 11.32000 25.99200
C  1.24600 10.86100 27.29200
C  0.80400 9.55200 27.30200
C  1.75700 12.66400 25.51500
C  1.40500 11.37900 28.61700
O  1.83500 12.49200 29.01600
C  0.85400 10.22900 29.58700
C  1.80100 9.91800 30.64300
O  2.89300 9.34300 30.50900
O  1.41500 10.63400 31.70000
C  2.27900 10.62700 32.87000
H  -0.36700 3.42100 28.12800
H  -0.86300 5.05900 21.91200
H  1.15300 10.92400 23.23400
H  1.02800 7.18200 30.90600
H  -0.68400 4.82900 30.14700
H  1.83600 4.13700 29.53800
H  1.02400 4.14400 31.17800
H  2.13700 5.41300 30.80300
H  -1.79900 6.38300 30.84700
H  -1.64300 8.16700 30.47400
H  -1.93400 6.93600 32.74700
H  -1.31800 8.69400 32.56500
H  -2.44600 1.48500 25.95800
H  -1.07000 1.47400 27.16000
H  -0.82700 0.89700 25.57900
H  -1.00100 0.60500 23.36100
H  -1.94900 0.51900 21.96600
H  -2.77500 0.90700 23.60400
H  -1.01300 7.60500 20.76100
H  1.42400 9.03100 21.23000
H  -0.13000 6.15300 19.83400
H  1.53900 6.03800 20.65200
H  1.16200 7.24300 19.47100
H  -0.68400 9.84700 19.89900
H  0.31900 10.81600 20.75800
H  -2.46700 10.53000 20.97300
H  -1.57300 11.31200 22.19000
H  -1.96900 9.50300 22.26700
H  1.19600 12.89200 24.60800
H  2.80100 12.89400 25.30300
H  1.41000 13.33200 26.30300
H  -0.12600 10.51300 29.96900
H  1.74200 11.14000 33.66800
H  3.17800 11.19100 32.62300
H  2.66300 9.64200 33.13800
Mg 5.86700 53.82000 40.62300
C  5.45400 50.33800 40.61800
C  9.08500 53.31700 39.68500
C  6.01700 57.20200 40.14200
C  2.54100 54.17100 41.60500
N  6.98700 52.13000 40.10300
C  6.67600 50.77100 40.15700
C  7.77900 49.89200 39.70900
C  8.99400 50.78700 40.00200
C  8.31200 52.18400 39.84300
C  9.75200 50.62500 41.30000
C  7.70200 49.44200 38.25800
C  6.76100 50.22700 37.29400
H  7.48600 51.23500 36.42500
N  7.29100 55.11900 40.03900
C  8.58800 54.67600 39.71400
C  9.35900 55.89500 39.38800
C  8.51500 57.08000 39.53800
C  7.23600 56.49300 39.97300
C  10.74800 55.77500 38.85800
C  8.92000 58.58700 39.28000
O  10.07600 58.80300 38.87200
C  7.95000 59.74700 39.38300
N  4.46900 55.41600 40.58200
C  4.75900 56.74900 40.52600
C  3.55300 57.70800 40.80000
C  2.43600 56.65700 41.24000
C  3.18100 55.29400 41.15700
C  3.84000 58.69300 41.97700
C  1.21100 56.68800 40.19100
C  -0.14600 56.62800 40.89900
N  4.22100 52.56900 41.03400
C  2.93900 52.81800 41.52300
C  2.33200 51.59700 41.95900
C  3.24700 50.60000 41.56800
C  4.36100 51.26700 41.04000
C  0.95500 51.45900 42.47900
C  3.47500 49.17000 41.48800
O  2.73000 48.19600 41.72200
C  4.91000 48.96500 40.76000
C  4.67600 48.32800 39.42300
O  4.29300 48.83300 38.33500
O  5.27400 47.08700 39.48900
C  5.39700 46.23500 38.23500
H  10.12700 53.01000 39.57000
H  6.01800 58.28600 40.00500
H  1.59000 54.01900 42.12100
H  7.83900 49.05400 40.40500
H  9.73700 50.64300 39.21800
H  9.31600 49.86000 41.94300
H  9.57700 51.47400 41.96200
H  10.80000 50.33800 41.22100
H  7.36100 48.40700 38.23600
H  8.67100 49.45500 37.75900
H  6.03600 50.81600 37.85600
H  6.08400 49.55800 36.76400
H  11.30100 55.18200 39.58500
H  11.21900 56.74700 38.70500
H  10.71300 55.19900 37.93300
H  7.39900 59.85900 40.31600
H  7.25200 59.86800 38.55400
H  8.52500 60.67200 39.34100
H  3.47700 58.30000 39.88700
H  2.17600 56.69100 42.29800
H  3.86400 59.71900 41.60900
H  4.82200 58.49500 42.40600
H  3.18200 58.66300 42.84500
H  1.15100 55.84500 39.50300
H  1.20400 57.67500 39.72700
H  -0.17200 56.94400 41.94200
H  -0.59700 55.63600 40.87100
H  -0.91600 57.22900 40.41500
H  0.30700 51.89900 41.72000
H  0.78700 51.91400 43.45400
H  0.74100 50.39100 42.44300
H  5.50400 48.37100 41.45400
H  6.32700 45.69900 38.42800
H  5.50300 46.76700 37.29000
H  4.60100 45.50000 38.11800

