158

Mg 17.61800 51.64100 25.90900
C  19.29100 50.49900 28.93200
C  15.15600 52.93800 27.90000
C  15.94500 52.70000 23.11500
C  19.80300 49.78300 24.12500
N  17.27800 51.60300 28.30600
C  18.09000 51.15500 29.28000
C  17.61500 51.60700 30.65100
C  16.12100 52.11600 30.26200
C  16.13300 52.24000 28.74100
C  14.84500 51.37800 30.75500
C  18.52500 52.67200 31.31500
C  18.80800 52.47000 32.86600
H  17.79700 51.69700 33.64800
N  15.79500 52.68800 25.58200
C  14.94000 53.14200 26.53300
C  13.87600 53.87700 25.95500
C  14.07800 53.85300 24.53500
C  15.31500 53.05300 24.34500
C  12.68200 54.45900 26.68300
C  13.20400 54.28100 23.37000
O  13.41900 53.88200 22.20200
C  11.90900 55.12900 23.56600
N  17.73400 51.12300 23.90900
C  17.02400 51.79300 22.95200
C  17.50500 51.41300 21.51800
C  18.83400 50.63100 21.87000
C  18.80500 50.46300 23.40400
C  16.37700 50.80000 20.67200
C  20.17800 51.36400 21.40200
C  20.26100 52.86600 21.77500
N  19.32900 50.51200 26.35300
C  20.09700 49.81200 25.49300
C  21.26600 49.26300 26.17500
C  20.96700 49.50600 27.55400
C  19.74200 50.19500 27.61200
C  22.47800 48.55800 25.55500
C  21.44300 49.28800 28.89700
O  22.45400 48.74200 29.31700
C  20.44900 49.95900 29.88800
C  20.11600 48.90800 30.91500
O  19.32100 47.98200 30.77300
O  20.87900 49.08200 32.06600
C  20.71300 48.03400 33.16200
H  14.41300 53.39800 28.55500
H  15.57100 53.04200 22.14800
H  20.60600 49.32000 23.54800
H  17.67200 50.70800 31.26600
H  16.04500 53.11700 30.68600
H  15.10500 50.43900 31.24300
H  14.24100 51.14300 29.87800
H  14.34500 52.08000 31.42300
H  18.10600 53.65700 31.10800
H  19.50500 52.63500 30.83900
H  18.90600 53.47000 33.28900
H  19.83100 52.14200 33.05300
H  12.62200 55.54200 26.57700
H  12.68100 54.17600 27.73600
H  11.83200 53.93900 26.24200
H  11.98200 55.79300 24.42600
H  10.98800 54.54600 23.53800
H  11.87000 55.88300 22.78000
H  17.74600 52.27600 20.89600
H  18.95200 49.63600 21.44000
H  15.54600 51.49300 20.53600
H  15.97400 49.87000 21.07200
H  16.72000 50.73400 19.63900
H  20.26300 51.24800 20.32200
H  21.06000 50.86400 21.80400
H  20.68700 53.23200 20.84100
H  20.97600 53.15900 22.54400
H  19.35700 53.44000 21.98300
H  22.74600 49.12900 24.66600
H  22.15200 47.54900 25.30300
H  23.30500 48.50800 26.26200
H  21.06400 50.79100 30.23100
H  20.30900 48.49200 34.06400
H  21.69600 47.64500 33.42700
H  20.03600 47.23700 32.85300
Mg -1.73400 34.42700 27.72100
C  -3.29700 32.39300 30.07400
C  -0.26400 36.16100 30.40700
C  -0.53700 36.56900 25.50400
C  -3.66500 32.82500 25.20600
N  -1.89800 34.40000 30.01900
C  -2.55100 33.39100 30.73500
C  -2.36600 33.62800 32.26100
C  -1.55000 34.92500 32.29400
C  -1.10200 35.11800 30.84500
C  -2.39500 36.24600 32.74600
C  -1.65200 32.38800 32.88800
C  -2.36200 31.75700 34.08900
H  -1.71900 31.64500 35.47100
N  -0.46000 36.04500 27.92200
C  0.15500 36.51900 29.07500
C  1.04000 37.61400 28.69700
C  0.91300 37.77400 27.29700
C  -0.06600 36.75600 26.81800
C  1.91400 38.41000 29.72900
C  1.64500 38.82300 26.41600
O  1.46400 38.99900 25.24500
C  2.72400 39.67900 27.14700
N  -2.13400 34.66600 25.67200
C  -1.49200 35.65200 25.01300
C  -2.18900 35.83900 23.59300
C  -2.87200 34.39100 23.35800
C  -2.90700 33.91800 24.83000
C  -3.32400 36.96800 23.58300
C  -2.02500 33.44200 22.52700
C  -2.66000 33.09000 21.18200
N  -3.16900 32.87600 27.63900
C  -3.78600 32.33300 26.50200
C  -4.58300 31.18900 26.93000
C  -4.43000 31.20900 28.34700
C  -3.55000 32.27100 28.71400
C  -5.27600 30.26200 26.07800
C  -4.85100 30.47000 29.55500
O  -5.58500 29.50900 29.67000
C  -4.16900 31.26500 30.74200
C  -5.07600 31.65600 31.83500
O  -5.75800 32.68000 31.91400
O  -5.09400 30.56600 32.72200
C  -5.88900 30.77300 33.83100
H  0.12900 36.83600 31.17000
H  -0.12300 37.34000 24.85000
H  -4.36000 32.35300 24.51000
H  -3.39400 33.76500 32.59400
H  -0.65100 34.83600 32.90400
H  -3.43000 36.14400 33.07200
H  -2.45600 36.99200 31.95400
H  -1.94000 36.78400 33.57800
H  -0.67800 32.72000 33.24800
H  -1.33700 31.63100 32.16900
H  -2.49000 30.69700 33.86700
H  -3.32400 32.25100 34.22200
H  2.98300 38.24100 29.59900
H  1.58300 38.12800 30.72900
H  1.71000 39.47300 29.85700
H  3.20800 40.40100 26.49000
H  3.60000 39.05500 27.32800
H  2.45900 40.28400 28.01400
H  -1.51600 36.17500 22.80500
H  -3.81100 34.66500 22.87700
H  -4.35800 36.63100 23.51400
H  -3.14800 37.64800 22.75000
H  -3.27400 37.63300 24.44500
H  -1.89900 32.52000 23.09500
H  -1.07700 33.87100 22.20300
H  -1.91100 33.14300 20.39200
H  -3.53200 33.67700 20.89700
H  -2.92800 32.03300 21.19300
H  -6.31100 30.60100 26.02400
H  -5.50200 29.28300 26.49900
H  -4.92800 30.19500 25.04700
H  -3.50600 30.59500 31.29000
H  -6.91500 31.04200 33.57700
H  -5.49600 31.58100 34.44800
H  -5.82700 29.84900 34.40500

