158

Mg 1.91100 -1.63000 45.15600
C  5.25700 -0.73100 44.62500
C  0.95200 1.28500 43.51500
C  -1.23200 -2.84800 45.22700
C  3.13200 -4.79000 46.42800
N  3.03300 0.03600 44.10900
C  4.37400 0.25400 44.14300
C  4.74700 1.68300 43.46200
C  3.34400 2.29900 43.36700
C  2.34300 1.19000 43.74700
C  3.12900 3.65400 44.08600
C  5.40100 1.55500 42.11100
C  6.03400 2.93800 41.55300
H  5.79200 3.31200 40.03900
N  0.17300 -0.90500 44.33900
C  -0.04600 0.34200 43.75700
C  -1.44800 0.43100 43.51900
C  -2.14900 -0.72400 43.98300
C  -1.06600 -1.58400 44.48800
C  -2.04200 1.77000 42.97900
C  -3.59300 -0.94800 43.85600
O  -4.23400 -0.01200 43.40400
C  -4.28900 -2.20000 44.37900
N  1.10500 -3.54100 45.66600
C  -0.23400 -3.65500 45.78600
C  -0.67000 -4.94700 46.46100
C  0.69700 -5.64800 46.81100
C  1.75100 -4.67900 46.22300
C  -1.64700 -4.85400 47.62100
C  0.77100 -7.06200 46.18200
C  1.40500 -8.14400 47.03600
N  3.77900 -2.56700 45.56100
C  4.08900 -3.80800 46.07600
C  5.49900 -4.03300 46.02000
C  6.00600 -2.80300 45.50900
C  4.90500 -1.92700 45.20000
C  6.19300 -5.24100 46.48200
C  7.22500 -2.08200 45.15400
O  8.42400 -2.44600 45.35100
C  6.80900 -0.75200 44.47900
C  7.46700 0.41700 45.13400
O  7.73300 0.52200 46.32400
O  7.91700 1.25800 44.14100
C  8.65300 2.37200 44.74100
H  0.68700 2.33900 43.41000
H  -2.26000 -3.16100 45.42300
H  3.45900 -5.76500 46.79500
H  5.30700 2.33300 44.13500
H  3.11800 2.60800 42.34700
H  2.43000 4.35600 43.63200
H  4.09400 4.16000 44.10000
H  2.89500 3.51100 45.14100
H  4.66400 1.04900 41.48700
H  6.21800 0.84200 42.22100
H  7.07100 2.60300 41.54800
H  5.85300 3.76000 42.24500
H  -2.49500 1.58700 42.00500
H  -1.26400 2.51800 42.82800
H  -2.81200 2.28600 43.55400
H  -4.09000 -2.37700 45.43600
H  -3.82500 -3.02800 43.84200
H  -5.36900 -2.10500 44.27200
H  -1.23200 -5.52200 45.72500
H  0.75500 -5.72800 47.89600
H  -1.69200 -3.81100 47.93600
H  -1.33100 -5.54200 48.40600
H  -2.65800 -5.16400 47.35400
H  1.38200 -7.00700 45.28000
H  -0.25700 -7.34900 45.96400
H  1.81000 -7.73700 47.96200
H  2.23300 -8.69300 46.58800
H  0.58000 -8.81600 47.27200
H  7.16600 -4.81100 46.71800
H  6.26400 -5.91500 45.62900
H  5.70500 -5.71800 47.33200
H  7.09400 -0.85700 43.43200
H  7.92700 3.05000 45.19100
H  9.26300 2.92300 44.02600
H  9.34300 2.00300 45.49900
Mg 35.22700 49.01100 25.25800
C  35.58400 47.33200 28.36500
C  33.95300 51.69200 26.94900
C  34.89300 50.45700 22.27900
C  36.65700 46.19900 23.70200
N  34.71400 49.38000 27.43500
C  34.95000 48.58500 28.55600
C  34.52400 49.36400 29.79400
C  33.83000 50.66100 29.25500
C  34.17400 50.59700 27.79400
C  32.35900 50.99400 29.62400
C  35.74400 49.50400 30.85100
C  35.50000 49.82400 32.32900
H  34.05400 49.56500 32.89400
N  34.56400 50.79800 24.69300
C  34.13500 51.82500 25.52000
C  33.98700 53.04300 24.77500
C  34.09200 52.70200 23.42500
C  34.51700 51.24100 23.42300
C  33.83500 54.36600 25.39300
C  33.97700 53.58000 22.20000
O  34.38200 53.15700 21.12600
C  33.38200 54.98900 22.28100
N  35.79500 48.45000 23.21400
C  35.41300 49.17100 22.12500
C  35.98600 48.56500 20.79400
C  36.65200 47.27200 21.35800
C  36.36800 47.29600 22.83400
C  34.91500 48.30200 19.71200
C  38.17300 47.05900 20.93600
C  39.30100 47.63300 21.86700
N  35.91700 47.14100 25.83100
C  36.48700 46.09900 25.06400
C  36.68200 44.99400 25.94100
C  36.36400 45.45600 27.21900
C  35.95600 46.79100 27.13800
C  37.33000 43.66600 25.46800
C  36.31300 44.99300 28.59900
O  36.59200 43.91300 29.11900
C  35.86200 46.25500 29.43000
C  34.61000 45.88000 30.16200
O  33.49000 45.79700 29.64500
O  35.01000 45.45900 31.46200
C  33.81700 44.92500 32.14400
H  33.44700 52.43300 27.57100
H  34.84500 50.96900 21.31500
H  37.17500 45.35000 23.25100
H  33.73300 48.80000 30.28900
H  34.34500 51.52100 29.68400
H  31.86800 50.12700 30.06700
H  31.79000 51.10500 28.70100
H  32.30000 51.92300 30.19100
H  36.24300 50.41100 30.51000
H  36.39300 48.65200 30.64900
H  35.83200 50.82400 32.60500
H  36.10600 49.22800 33.01200
H  32.90900 54.89800 25.17400
H  34.68900 54.94800 25.04800
H  33.89800 54.21700 26.47100
H  33.93800 55.66500 22.93000
H  32.33000 54.87700 22.54300
H  33.41600 55.38200 21.26500
H  36.79300 49.23600 20.49800
H  36.19300 46.36100 20.97500
H  34.46400 47.32000 19.85700
H  35.43600 48.27200 18.75500
H  34.17500 49.10200 19.68900
H  38.38100 47.49300 19.95900
H  38.33300 45.98200 20.89200
H  39.80500 46.80700 22.37000
H  38.80600 48.30300 22.56900
H  39.96300 48.22200 21.23200
H  36.51800 43.22700 24.88800
H  37.43300 43.24100 26.46600
H  38.25300 43.84800 24.91700
H  36.66700 46.33600 30.16000
H  32.92900 45.55600 32.18500
H  34.09600 44.80800 33.19100
H  33.59000 43.91500 31.80200

