158

Mg 36.29000 50.01500 24.98600
C  36.51000 47.86200 27.76500
C  34.91500 52.46700 26.93100
C  35.45300 51.77900 22.20300
C  37.07800 47.16600 23.08600
N  35.73200 50.14900 27.07000
C  35.98900 49.16800 28.04600
C  35.64600 49.73600 29.44200
C  35.03200 51.12700 29.12300
C  35.29100 51.33000 27.64100
C  33.47500 51.51700 29.49100
C  36.99300 49.80000 30.24900
C  36.98800 49.61900 31.80200
H  35.59000 49.50900 32.50900
N  35.43300 51.87700 24.66100
C  34.97100 52.77100 25.55700
C  34.59500 54.02200 24.86800
C  34.71900 53.85500 23.44200
C  35.16000 52.43600 23.37500
C  34.12000 55.26400 25.63800
C  34.40100 54.86500 22.36100
O  34.51600 54.62800 21.14000
C  33.86500 56.25300 22.68600
N  36.08800 49.53000 22.86700
C  35.89300 50.51700 21.94200
C  36.33500 49.94900 20.58300
C  37.18100 48.64200 20.93900
C  36.68100 48.36700 22.39600
C  35.23200 49.82000 19.49300
C  38.68700 48.84000 20.87100
C  39.58500 47.77800 20.30900
N  36.77400 47.91600 25.25300
C  37.08100 46.88200 24.44900
C  37.42300 45.71600 25.17300
C  37.21800 46.07800 26.54000
C  36.77100 47.37600 26.47000
C  37.76100 44.43200 24.47000
C  37.10200 45.52000 27.91700
O  37.24400 44.36700 28.37000
C  36.76800 46.74300 28.74600
C  35.60300 46.41300 29.65900
O  34.39700 46.53000 29.38100
O  36.05000 45.78100 30.77300
C  34.95900 45.14800 31.54600
H  34.65000 53.35600 27.50800
H  35.37800 52.38300 21.29600
H  37.47700 46.42000 22.39600
H  34.88500 49.06700 29.84400
H  35.61100 51.95900 29.52300
H  33.23700 51.00200 30.42200
H  32.72900 51.27400 28.73400
H  33.56200 52.58500 29.69000
H  37.52500 50.72700 30.03300
H  37.70000 49.06100 29.87200
H  37.43000 50.54800 32.16300
H  37.75500 48.88300 32.04300
H  34.63900 56.19800 25.42200
H  34.03300 55.08300 26.70900
H  33.06500 55.43900 25.43000
H  32.95200 56.33400 23.27600
H  33.71000 56.77900 21.74400
H  34.72700 56.63800 23.23200
H  36.96700 50.71300 20.13000
H  36.77500 47.79500 20.38600
H  34.41000 50.23800 20.07400
H  35.08100 48.81000 19.11300
H  35.44100 50.51800 18.68200
H  39.12300 48.82600 21.87000
H  38.96600 49.80900 20.45700
H  39.73900 47.08400 21.13500
H  40.55400 48.19800 20.04000
H  39.05100 47.33500 19.46800
H  37.80300 44.53900 23.38600
H  36.97100 43.70900 24.67600
H  38.66400 43.97700 24.87700
H  37.61700 46.92400 29.40400
H  34.05300 45.73500 31.69700
H  35.32500 44.93500 32.55000
H  34.66400 44.19300 31.11100
Mg -1.94900 34.08200 26.30400
C  -3.56300 32.75000 29.00400
C  -0.03200 36.03200 28.56400
C  -0.49100 35.51300 23.73100
C  -3.69700 32.03200 24.11900
N  -1.89500 34.36800 28.53000
C  -2.60800 33.68500 29.42800
C  -2.20800 33.99300 30.90300
C  -1.27200 35.23600 30.65300
C  -1.04700 35.19600 29.11600
C  -1.80000 36.52400 31.21300
C  -1.57700 32.73700 31.56000
C  -2.45100 32.13800 32.64600
H  -1.86000 32.02800 34.00900
N  -0.36600 35.53700 26.11700
C  0.29300 36.22700 27.19100
C  1.22100 37.19900 26.61500
C  1.11300 37.04000 25.15400
C  0.01600 36.03600 24.89900
C  1.93600 38.25400 27.47900
C  1.96700 37.67200 24.07900
O  1.86900 37.56600 22.87000
C  3.22000 38.46300 24.55300
N  -2.26100 33.96600 24.22500
C  -1.52100 34.61600 23.41000
C  -1.62300 34.19400 21.88300
C  -2.41200 32.83800 22.01600
C  -2.87300 32.94400 23.53300
C  -2.28300 35.25500 20.87900
C  -1.43500 31.55500 21.85500
C  -1.95000 30.27400 21.30100
N  -3.43000 32.67800 26.46800
C  -3.94100 31.84800 25.51900
C  -4.91800 30.96600 26.13500
C  -4.74400 31.23100 27.51000
C  -3.88100 32.34800 27.64500
C  -5.83700 30.07700 25.52900
C  -5.13500 30.80500 28.82900
O  -5.85600 29.91000 29.17400
C  -4.45000 31.84300 29.82400
C  -5.46300 32.49700 30.69500
O  -6.03400 33.57400 30.41400
O  -5.71500 31.76900 31.84500
C  -6.77700 32.25400 32.66900
H  0.60800 36.59400 29.24700
H  0.06900 35.87700 22.86700
H  -4.15400 31.22800 23.53900
H  -3.16800 34.16900 31.38700
H  -0.30800 35.01800 31.11200
H  -2.88500 36.59500 31.13200
H  -1.41700 37.29200 30.54000
H  -1.40900 36.74400 32.20600
H  -0.65500 33.05400 32.04700
H  -1.49100 31.99300 30.76900
H  -2.75000 31.13800 32.33100
H  -3.38500 32.69000 32.75300
H  1.53300 38.34000 28.48700
H  1.78800 39.20500 26.96800
H  2.98000 37.95500 27.57400
H  3.65400 38.84400 23.62900
H  3.74400 37.64800 25.05200
H  2.83200 39.29100 25.14700
H  -0.59600 34.06300 21.54200
H  -3.27900 32.77700 21.35800
H  -3.01000 34.67400 20.31200
H  -1.55000 35.65500 20.17900
H  -2.92900 35.99000 21.35900
H  -0.80500 31.27700 22.69900
H  -0.67500 31.89900 21.15400
H  -1.53000 30.19700 20.29800
H  -3.03100 30.25600 21.16500
H  -1.58100 29.46600 21.93400
H  -5.47800 29.60100 24.61600
H  -6.81900 30.54500 25.45900
H  -5.81200 29.24000 26.22600
H  -3.77500 31.36200 30.53100
H  -7.48000 31.42300 32.72900
H  -7.27600 33.13600 32.26700
H  -6.57100 32.52400 33.70500

