158

Mg 47.07100 44.47500 43.52000
C  43.52000 44.13800 43.14400
C  47.19500 41.06900 42.58900
C  50.41400 44.76700 43.25200
C  46.70100 47.92100 43.58600
N  45.53200 42.84600 42.92000
C  44.22000 42.95200 42.88200
C  43.60800 41.60300 42.68200
C  44.72600 40.54000 42.77800
C  45.92500 41.54900 42.75700
C  44.68200 39.44400 43.88400
C  42.61400 41.34500 41.45500
C  42.86600 42.14800 40.15700
H  42.89700 41.44700 38.85100
N  48.66400 43.14400 43.00200
C  48.43300 41.84700 42.54900
C  49.73700 41.25500 42.27600
C  50.71000 42.25200 42.52600
C  49.97000 43.45000 42.96400
C  49.89600 39.75800 42.01300
C  52.16500 42.04000 42.49700
O  52.62200 41.04900 41.92500
C  53.15600 43.05300 43.05500
N  48.44900 46.12800 43.58800
C  49.76000 46.02200 43.51000
C  50.46300 47.34600 43.45600
C  49.26700 48.30200 43.15400
C  48.06200 47.41900 43.44800
C  51.18000 47.62900 44.74000
C  49.26600 48.97600 41.78600
C  49.66700 50.45000 41.77600
N  45.49300 45.83200 43.47900
C  45.44300 47.19100 43.61800
C  44.07300 47.59900 43.94600
C  43.31700 46.43800 43.70100
C  44.16600 45.36000 43.44800
C  43.64300 49.09600 44.25300
C  41.98600 45.93100 43.65100
O  40.94100 46.52000 43.78500
C  42.01300 44.43300 43.26700
C  41.35300 43.58900 44.22600
O  40.71300 42.63200 43.95600
O  41.43100 44.00900 45.49500
C  41.16000 42.99600 46.47100
H  47.12500 40.01400 42.31500
H  51.49800 44.89300 43.21600
H  46.77600 49.00900 43.64300
H  43.06400 41.56400 43.62600
H  44.76500 40.04200 41.80800
H  43.66400 39.40700 44.27300
H  45.33400 39.60100 44.74300
H  44.91000 38.60500 43.22600
H  41.59100 41.47900 41.80700
H  42.74200 40.26700 41.36000
H  43.76800 42.75900 40.16400
H  42.09700 42.91900 40.10900
H  50.00600 39.52800 40.95300
H  49.11400 39.17300 42.49800
H  50.81700 39.48900 42.53000
H  53.33000 43.87000 42.35400
H  54.09000 42.52400 43.24200
H  52.78200 43.38700 44.02300
H  51.16800 47.31600 42.62600
H  49.33500 49.15000 43.83500
H  51.44200 46.73500 45.30500
H  50.72100 48.37100 45.39400
H  52.17500 48.02900 44.55000
H  48.28900 48.88700 41.31000
H  49.91000 48.42400 41.10100
H  50.11400 50.75800 42.72200
H  48.75900 51.04500 41.67000
H  50.35900 50.70200 40.97300
H  43.29100 49.59300 43.34900
H  44.42400 49.73300 44.66800
H  42.78100 49.01900 44.91500
H  41.56300 44.36600 42.27600
H  41.41300 41.97700 46.17900
H  40.08300 42.98800 46.63400
H  41.66700 43.24900 47.40200
Mg -1.69500 34.75700 26.06400
C  -3.06100 32.91600 28.69400
C  -0.10300 36.76200 28.42100
C  -0.58600 36.64300 23.61400
C  -3.36100 32.71100 23.79600
N  -1.67200 34.86400 28.26200
C  -2.13700 33.87900 29.14500
C  -1.94100 34.32500 30.60300
C  -1.30000 35.75500 30.42100
C  -0.90000 35.74800 28.98400
C  -2.29900 36.91600 30.64300
C  -1.08800 33.37000 31.48700
C  -1.77200 32.56100 32.58900
H  -1.07900 32.19700 33.90100
N  -0.51300 36.52200 26.01800
C  0.14200 37.07300 27.04700
C  0.86600 38.18700 26.53300
C  0.85200 38.18600 25.13700
C  -0.13800 37.10000 24.83700
C  1.59500 39.06400 27.45400
C  1.58500 39.08800 24.10700
O  1.43100 38.99300 22.87600
C  2.73500 40.05300 24.53900
N  -2.11600 34.80200 23.99900
C  -1.48200 35.66500 23.15500
C  -1.60300 35.23900 21.68400
C  -2.36500 33.90600 21.77100
C  -2.59200 33.72200 23.33500
C  -2.19900 36.35800 20.80600
C  -1.74400 32.70900 21.03500
C  -0.50700 32.11500 21.68200
N  -3.12300 33.22600 26.16300
C  -3.73100 32.50900 25.18300
C  -4.55300 31.54300 25.80600
C  -4.36500 31.61200 27.22500
C  -3.48400 32.68800 27.34900
C  -5.37200 30.49600 25.14500
C  -4.68100 31.09600 28.52400
O  -5.48200 30.22200 28.80400
C  -3.96700 31.97600 29.64200
C  -4.99200 32.82900 30.38500
O  -5.63900 33.78800 29.93300
O  -5.19200 32.38200 31.62000
C  -6.34900 33.09100 32.29900
H  0.48700 37.33700 29.13800
H  -0.18800 37.12300 22.71700
H  -3.72300 32.02200 23.03000
H  -2.89600 34.53600 31.08300
H  -0.39600 35.83600 31.02300
H  -1.83300 37.77900 31.12100
H  -3.18500 36.58000 31.18200
H  -2.81400 37.28600 29.75700
H  -0.15100 33.78600 31.85700
H  -0.70200 32.60100 30.81800
H  -1.95300 31.58800 32.13300
H  -2.70600 33.05500 32.85700
H  2.61900 39.09600 27.08200
H  1.60200 38.76600 28.50300
H  1.22200 40.08900 27.45200
H  2.59000 40.67200 25.42500
H  3.02700 40.57200 23.62700
H  3.44500 39.27000 24.80500
H  -0.60800 35.04700 21.28200
H  -3.41100 33.99000 21.47900
H  -2.14900 37.31200 21.33100
H  -3.27400 36.29700 20.63700
H  -1.77900 36.56100 19.82100
H  -1.33200 32.91300 20.04600
H  -2.49000 31.91700 20.97300
H  -0.60800 31.03100 21.63600
H  -0.27000 32.34600 22.72000
H  0.36800 32.29600 21.05600
H  -5.21400 29.49000 25.53400
H  -5.13900 30.54500 24.08200
H  -6.37400 30.84100 25.40200
H  -3.46300 31.28700 30.31900
H  -6.04300 34.03800 32.74500
H  -6.62900 32.40000 33.09400
H  -7.28200 33.19500 31.74600

