158

Mg 16.70000 -1.67400 28.30300
C  15.63300 0.20300 30.96200
C  18.86400 -3.46600 30.39400
C  18.04600 -3.24200 25.66000
C  14.89300 0.34600 26.13800
N  17.13600 -1.60200 30.46300
C  16.59900 -0.78500 31.40900
C  17.16400 -1.05100 32.83600
C  18.32300 -2.16500 32.56900
C  18.14700 -2.42600 31.04400
C  19.78700 -1.76600 32.98600
C  16.10600 -1.52400 33.83200
C  16.44600 -1.36100 35.28800
H  17.52400 -0.33700 35.69100
N  18.26100 -3.14400 28.07500
C  18.97300 -3.80100 29.04000
C  19.72900 -4.90000 28.48100
C  19.51900 -4.84900 27.10200
C  18.62300 -3.67600 26.87400
C  20.50400 -5.88000 29.25400
C  20.05400 -5.72600 25.91100
O  19.61200 -5.71100 24.77600
C  20.94200 -6.75800 26.27800
N  16.45900 -1.45700 26.17900
C  17.16500 -2.21500 25.34200
C  16.81800 -1.81800 23.87500
C  15.73700 -0.69200 23.99700
C  15.72200 -0.58800 25.47800
C  18.00400 -1.42600 22.90200
C  14.35500 -1.24000 23.47900
C  13.58500 -0.26700 22.57700
N  15.47300 -0.10500 28.47900
C  14.80800 0.64000 27.49500
C  14.05000 1.66600 28.17500
C  14.36700 1.58000 29.55700
C  15.21700 0.48200 29.66800
C  13.15600 2.65300 27.46200
C  14.10500 2.14000 30.87700
O  13.40000 3.07500 31.19000
C  14.97300 1.22400 31.87900
C  15.80500 2.13500 32.69400
O  16.95500 2.43800 32.53100
O  15.01600 2.69000 33.70400
C  15.67100 3.60100 34.65300
H  19.61700 -3.91800 31.04200
H  18.50400 -3.61100 24.73900
H  14.29200 1.01900 25.52300
H  17.64400 -0.09100 33.02900
H  18.08400 -3.15200 32.96500
H  19.68100 -0.83600 33.54500
H  20.44900 -1.50800 32.16000
H  20.35500 -2.46400 33.60300
H  15.94500 -2.58200 33.62700
H  15.21900 -0.93600 33.59800
H  16.61000 -2.33500 35.74900
H  15.56900 -1.07400 35.86800
H  20.41900 -5.74900 30.33200
H  21.54600 -5.99600 28.95700
H  20.11800 -6.89800 29.20500
H  21.85500 -6.45900 26.79400
H  21.16100 -7.31600 25.36800
H  20.44600 -7.41500 26.99200
H  16.38700 -2.70600 23.41200
H  16.09700 0.26400 23.61800
H  18.20300 -2.31300 22.30000
H  18.84800 -1.14500 23.53200
H  17.67900 -0.59000 22.28300
H  13.79900 -1.71100 24.28900
H  14.48900 -2.07400 22.79000
H  14.23600 0.57900 22.35600
H  12.72400 0.22200 23.03400
H  13.29000 -0.77900 21.66100
H  12.72300 2.05800 26.65800
H  13.71300 3.58100 27.33500
H  12.41400 2.91600 28.21600
H  14.20800 0.75700 32.50000
H  15.67100 4.61700 34.25800
H  16.65400 3.31100 35.02200
H  15.00000 3.51900 35.50800
Mg 27.17500 50.10300 26.52900
C  25.11200 51.12800 29.19400
C  29.37600 49.10300 28.74500
C  29.23400 49.61700 23.93900
C  24.91400 51.69800 24.32500
N  27.25800 50.36600 28.72400
C  26.24000 50.59000 29.58800
C  26.65100 50.13000 30.98900
C  28.10000 49.65900 30.83400
C  28.20600 49.63500 29.32800
C  29.19100 50.63500 31.49300
C  25.73600 49.01000 31.53000
C  25.35500 49.08200 33.06800
H  26.30200 49.52800 34.15100
N  29.07800 49.41100 26.32400
C  29.81800 48.96000 27.36700
C  31.02800 48.29000 26.84700
C  30.99800 48.45900 25.46200
C  29.70400 49.17400 25.17600
C  32.03700 47.70200 27.76600
C  32.07900 48.14800 24.39000
O  31.94600 48.48400 23.21400
C  33.36800 47.55600 24.95600
N  27.10400 50.59800 24.47800
C  28.04700 50.37700 23.61400
C  27.62800 50.55800 22.14500
C  26.07000 50.85300 22.29500
C  25.98000 51.01000 23.83100
C  28.48900 51.71100 21.54700
C  25.15600 49.76300 21.72400
C  23.89700 50.27400 21.03100
N  25.48900 51.31400 26.70600
C  24.63200 51.83000 25.72300
C  23.45800 52.44900 26.29500
C  23.60400 52.14300 27.62800
C  24.80100 51.48200 27.84300
C  22.42300 53.19600 25.55900
C  22.94800 52.11200 28.96600
O  21.86600 52.52300 29.23100
C  23.95800 51.50900 30.03900
C  24.25900 52.56900 31.05500
O  24.97400 53.56800 30.88600
O  23.59500 52.25900 32.18400
C  24.13000 53.01800 33.29500
H  30.11100 48.70300 29.44600
H  29.80600 49.38300 23.03800
H  24.20700 52.14400 23.62200
H  26.60800 50.93600 31.72000
H  28.22300 48.61500 31.11900
H  28.65800 51.47100 31.94500
H  29.81300 50.91700 30.64400
H  29.79700 50.25800 32.31700
H  26.24000 48.04800 31.43400
H  24.73800 49.01100 31.09100
H  24.90100 48.10300 33.22500
H  24.58900 49.85700 33.05200
H  32.31500 46.68500 27.49200
H  31.75000 47.68500 28.81700
H  32.89300 48.37600 27.73600
H  34.09500 47.54600 24.14400
H  33.23400 46.51900 25.26300
H  33.81400 48.07300 25.80500
H  27.79400 49.64500 21.57300
H  25.76000 51.82800 21.91800
H  29.44800 51.87600 22.03800
H  27.92000 52.62800 21.70000
H  28.68000 51.51500 20.49200
H  24.77100 49.08500 22.48600
H  25.66000 49.14000 20.98500
H  23.92100 51.36400 21.00100
H  23.04400 49.88600 21.58700
H  23.76500 49.95700 19.99700
H  21.59200 52.59800 25.18400
H  22.87600 53.78300 24.76100
H  22.03900 53.85500 26.33800
H  23.37600 50.72000 30.51400
H  25.11600 52.61600 33.52500
H  23.49400 52.80000 34.15300
H  24.21700 54.10300 33.35100

