158

Mg 26.11100 1.39700 29.77700
C  27.93300 0.99100 32.67900
C  23.31600 1.93100 31.69200
C  24.08200 1.66200 26.96900
C  28.74400 0.54000 27.77700
N  25.70900 1.30000 31.89400
C  26.62100 1.22200 32.93200
C  26.00200 1.40500 34.31800
C  24.49600 1.61500 33.93400
C  24.53400 1.72300 32.40700
C  23.53200 0.46800 34.32200
C  26.52700 2.50400 35.18700
C  26.00700 2.60600 36.64500
H  26.95100 2.40100 37.83300
N  23.95200 1.67500 29.39500
C  22.99400 1.91100 30.33600
C  21.70000 2.24900 29.75000
C  21.96900 2.27100 28.29600
C  23.36000 1.86500 28.14000
C  20.46100 2.51700 30.57100
C  21.00000 2.54800 27.21100
O  21.35000 2.61200 26.04600
C  19.48300 2.76800 27.44200
N  26.39900 1.47700 27.62200
C  25.43100 1.44100 26.69000
C  25.88800 1.09900 25.19200
C  27.44300 0.82800 25.46500
C  27.54800 0.98800 27.06300
C  25.07600 0.07500 24.44000
C  28.46600 1.70500 24.71900
C  28.91600 1.13600 23.42700
N  28.01900 0.92400 30.07800
C  28.98500 0.60600 29.21500
C  30.17100 0.22300 29.90200
C  29.81700 0.41300 31.31000
C  28.46300 0.76200 31.34100
C  31.43200 -0.16200 29.34400
C  30.33600 0.46500 32.70300
O  31.51600 0.41000 33.13700
C  29.09700 0.68700 33.68900
C  28.87700 -0.37400 34.68500
O  28.18500 -1.37600 34.52300
O  29.61700 -0.06600 35.80600
C  29.56100 -0.98600 36.97200
H  22.47300 2.14200 32.35300
H  23.57700 1.70100 26.00200
H  29.55300 0.15300 27.15500
H  26.03900 0.44500 34.83300
H  24.15800 2.56400 34.35000
H  23.60000 -0.00600 35.30100
H  23.60500 -0.38400 33.64600
H  22.51100 0.83000 34.19900
H  26.51300 3.46600 34.67300
H  27.58400 2.33700 35.39500
H  25.24400 1.83500 36.75900
H  25.49600 3.56000 36.77600
H  20.55500 2.70900 31.64000
H  19.73800 1.74700 30.30200
H  20.02300 3.47100 30.27700
H  18.97400 2.97800 26.50100
H  19.34700 3.61500 28.11300
H  19.00600 1.82500 27.70600
H  25.76700 2.10300 24.78400
H  27.58600 -0.23300 25.26000
H  25.77100 -0.49200 23.82100
H  24.28200 0.58400 23.89400
H  24.43000 -0.48400 25.11800
H  29.38000 1.73700 25.31200
H  28.17900 2.75600 24.67200
H  28.71000 1.97200 22.75800
H  28.36500 0.20500 23.29400
H  29.96500 0.91100 23.23700
H  32.24500 -0.12000 30.06900
H  31.63200 0.52400 28.52100
H  31.26100 -1.18600 29.01200
H  29.31200 1.65800 34.13500
H  28.72200 -0.63000 37.57100
H  30.42600 -1.02300 37.63500
H  29.30900 -2.01400 36.71400
Mg 9.38300 48.63000 25.60000
C  7.24500 48.67000 28.45500
C  11.95000 49.51500 27.70000
C  11.24000 48.18200 23.01200
C  6.44000 48.04900 23.64700
N  9.57100 49.01700 27.81100
C  8.54800 48.97600 28.73600
C  9.07000 49.48400 30.15200
C  10.52500 50.09400 29.71800
C  10.71100 49.51300 28.34000
C  10.64400 51.66200 29.71900
C  9.12900 48.35200 31.20000
C  8.93800 48.61900 32.71000
H  8.69800 47.46600 33.75200
N  11.32500 48.79400 25.47500
C  12.28600 49.14400 26.38000
C  13.56400 49.13700 25.68300
C  13.38500 48.53000 24.40100
C  11.94500 48.48100 24.21800
C  14.85400 49.41300 26.38300
C  14.37300 48.18700 23.35700
O  13.93000 47.62700 22.34300
C  15.78100 48.46300 23.50300
N  8.86800 48.24400 23.54700
C  9.88000 48.06100 22.68000
C  9.41000 47.61700 21.29300
C  7.84400 47.68300 21.44000
C  7.69500 47.98300 22.95900
C  9.93500 48.48700 20.17800
C  6.97900 46.50000 20.94000
C  6.45100 46.58200 19.51700
N  7.26300 48.46200 25.90900
C  6.18000 48.35100 25.01200
C  4.97400 48.31400 25.74700
C  5.31900 48.50100 27.04500
C  6.73900 48.57300 27.13800
C  3.61100 48.20200 25.25600
C  4.76200 48.64100 28.39700
O  3.63700 48.74100 28.82500
C  6.01200 48.70700 29.32900
C  5.93700 47.59100 30.29600
O  6.37500 46.45000 30.15200
O  5.37100 48.05500 31.42700
C  5.15600 47.08200 32.48200
H  12.74900 50.03200 28.23500
H  11.82900 48.05900 22.10100
H  5.55600 47.91400 23.02100
H  8.47300 50.31900 30.52000
H  11.30700 49.62700 30.31800
H  11.50500 52.09900 30.22500
H  9.76800 52.18200 30.10600
H  10.68100 52.13000 28.73500
H  10.17500 48.06100 31.29600
H  8.60700 47.43300 30.93300
H  8.07900 49.24100 32.96000
H  9.80900 49.15600 33.08700
H  15.34800 50.21100 25.82800
H  15.49300 48.53000 26.36200
H  14.70400 49.72700 27.41500
H  16.30000 48.31200 22.55700
H  16.21700 47.87000 24.30700
H  15.97200 49.47700 23.85400
H  9.85900 46.62400 21.30900
H  7.33500 48.43600 20.83800
H  10.39400 49.34900 20.66300
H  9.13400 48.78100 19.50100
H  10.66500 47.99200 19.53700
H  6.12900 46.32900 21.60000
H  7.46200 45.52500 20.99500
H  7.10900 47.29100 19.01400
H  5.42300 46.94300 19.51700
H  6.51200 45.59300 19.06400
H  3.29700 49.21400 25.00200
H  2.98200 47.75000 26.02300
H  3.60300 47.49400 24.42800
H  5.98600 49.64100 29.89000
H  4.33400 46.42000 32.20900
H  4.95800 47.50500 33.46700
H  6.12300 46.61200 32.66100

