158

Mg 17.50800 -2.83200 28.19900
C  16.31400 -0.73800 30.91700
C  19.33400 -4.59000 30.51400
C  18.80600 -4.33800 25.70400
C  15.66100 -0.76100 25.99600
N  17.69700 -2.73000 30.45300
C  17.08600 -1.78000 31.33500
C  17.57500 -2.11400 32.79300
C  18.65600 -3.15700 32.60600
C  18.65300 -3.49800 31.07900
C  20.02900 -2.66200 33.07000
C  16.36700 -2.43600 33.72000
C  16.28000 -1.68400 35.08800
H  17.52100 -1.18900 35.79600
N  18.79100 -4.39200 28.07600
C  19.38200 -5.01200 29.11000
C  20.13600 -6.14800 28.55200
C  20.05100 -6.07100 27.10200
C  19.18100 -4.85900 26.91300
C  21.16000 -7.01600 29.36400
C  20.71100 -6.94400 26.07500
O  20.66000 -6.72700 24.88600
C  21.42200 -8.21600 26.41200
N  17.48400 -2.39200 26.18700
C  18.03000 -3.27700 25.31100
C  17.74500 -2.89500 23.84800
C  16.53400 -2.04800 24.02400
C  16.56200 -1.68500 25.46900
C  18.96400 -2.19900 23.22300
C  15.23100 -2.78100 23.57100
C  14.08600 -1.97900 23.06100
N  16.30000 -1.01900 28.37500
C  15.53600 -0.36200 27.39800
C  14.63600 0.58100 27.99100
C  15.00100 0.56600 29.36700
C  15.97200 -0.45300 29.54600
C  13.69000 1.35700 27.22900
C  14.66600 1.14400 30.64600
O  13.77200 1.97300 30.97600
C  15.51700 0.27600 31.78200
C  16.48900 1.27100 32.44400
O  17.63900 1.55400 32.09800
O  15.81400 1.82100 33.50200
C  16.44300 2.74900 34.43400
H  19.94700 -5.27700 31.10100
H  19.12600 -4.91600 24.83500
H  15.20100 -0.15100 25.21600
H  18.00400 -1.17500 33.14200
H  18.33400 -4.12600 32.98700
H  20.76700 -3.39600 32.74800
H  20.10800 -2.53500 34.14900
H  20.17600 -1.70400 32.56900
H  16.46300 -3.48200 34.01200
H  15.41000 -2.24400 33.23500
H  15.77900 -2.40400 35.73400
H  15.49400 -0.97500 34.82500
H  22.00900 -7.25400 28.72300
H  20.81600 -7.93800 29.83200
H  21.52300 -6.45400 30.22400
H  21.00300 -8.61900 27.33400
H  22.45200 -7.93200 26.63100
H  21.48500 -8.95200 25.61100
H  17.64900 -3.89800 23.43100
H  16.67400 -1.11600 23.47700
H  19.90400 -2.05400 23.75500
H  18.65500 -1.18700 22.96200
H  19.23800 -2.78000 22.34200
H  14.93100 -3.26400 24.50100
H  15.34900 -3.39900 22.68000
H  14.14700 -1.01900 23.57400
H  13.20700 -2.55300 23.35500
H  14.17500 -1.88100 21.97900
H  13.11900 0.74800 26.52700
H  14.25100 1.99300 26.54500
H  13.07200 1.95100 27.90200
H  14.81600 -0.11800 32.51700
H  17.21900 3.33800 33.94500
H  16.74300 2.30700 35.38400
H  15.67200 3.46600 34.71800
Mg -8.22400 40.25300 42.32700
C  -7.10100 36.78000 41.40300
C  -5.74900 41.46700 40.71500
C  -9.87600 43.06400 42.80800
C  -11.14200 38.59400 43.56300
N  -6.63300 39.18700 41.15800
C  -6.31200 37.85500 40.88300
C  -5.02200 37.80200 40.08300
C  -4.58800 39.31900 39.93400
C  -5.71500 40.04500 40.63300
C  -3.24700 39.62400 40.55200
C  -5.32000 37.05000 38.74100
C  -4.30000 35.88100 38.44500
H  -3.31700 35.99800 37.28900
N  -7.82500 42.05900 41.93100
C  -6.73500 42.35500 41.19800
C  -6.70500 43.79800 41.05800
C  -7.88900 44.30500 41.71700
C  -8.58600 43.09400 42.14500
C  -5.60600 44.58000 40.32700
C  -8.21300 45.84200 41.90800
O  -7.51600 46.70600 41.37800
C  -9.36000 46.36900 42.76400
N  -10.30100 40.76600 43.05400
C  -10.62200 42.03600 43.27500
C  -12.08900 42.13200 43.80800
C  -12.47400 40.67700 44.11400
C  -11.26600 39.94800 43.53900
C  -12.49200 43.15100 44.88400
C  -13.84200 40.14400 43.37800
C  -14.67400 39.05700 44.10700
N  -9.01200 38.11800 42.55400
C  -10.22400 37.68300 43.05600
C  -10.33900 36.25400 43.07300
C  -9.11500 35.86600 42.50700
C  -8.34900 37.04700 42.10000
C  -11.33900 35.34100 43.76300
C  -8.32500 34.66700 42.09100
O  -8.53900 33.48600 42.26900
C  -6.97800 35.20900 41.41700
C  -5.82000 34.71000 42.17100
O  -5.69800 34.72000 43.37500
O  -4.87800 34.33500 41.32500
C  -3.55100 33.92900 41.92100
H  -4.93300 42.08400 40.33200
H  -10.30300 44.06000 42.94400
H  -12.02200 38.04500 43.90400
H  -4.35000 37.21500 40.70900
H  -4.52200 39.57300 38.87600
H  -2.51300 40.12100 39.91800
H  -2.89400 38.61200 40.75200
H  -3.53300 40.27000 41.38200
H  -5.18200 37.72000 37.89300
H  -6.33400 36.65000 38.75900
H  -4.88400 35.07700 37.99800
H  -3.78300 35.59200 39.36000
H  -5.85200 45.64000 40.26500
H  -5.62400 44.16100 39.32000
H  -4.65700 44.37300 40.82100
H  -9.34700 47.45200 42.88900
H  -9.15600 45.95700 43.75200
H  -10.29300 45.96500 42.37100
H  -12.62600 42.56600 42.96400
H  -12.44000 40.41000 45.17000
H  -12.55500 42.63800 45.84400
H  -13.48200 43.53000 44.63200
H  -11.65900 43.84700 44.98800
H  -13.50200 39.55900 42.52400
H  -14.44600 41.00200 43.08400
H  -14.63800 39.30500 45.16700
H  -14.14600 38.11500 43.95700
H  -15.69100 38.94400 43.73300
H  -10.86100 34.38700 43.98500
H  -12.27100 35.14400 43.23200
H  -11.70300 35.85200 44.65400
H  -6.99900 34.76900 40.41900
H  -2.89100 34.77100 42.12900
H  -3.09200 33.28300 41.17300
H  -3.63800 33.38800 42.86300

