158

Mg 10.12400 48.12100 26.07100
C  8.21600 48.16100 29.01900
C  12.57500 49.59400 27.63300
C  11.74900 48.32400 23.10100
C  7.27900 47.10300 24.30800
N  10.29000 48.84400 28.06600
C  9.53000 48.61900 29.15700
C  10.17200 49.08700 30.43100
C  11.32800 49.97500 29.82100
C  11.42600 49.46200 28.43500
C  11.06700 51.52200 29.82200
C  10.76000 47.92800 31.37900
C  10.85400 48.24300 32.90000
H  10.32200 47.25400 33.90500
N  11.97300 48.83900 25.44500
C  12.86500 49.42400 26.25300
C  14.14900 49.66800 25.59900
C  13.88900 49.20800 24.23000
C  12.48800 48.81200 24.17300
C  15.35800 50.10700 26.23500
C  14.90400 49.13400 23.08000
O  14.59600 48.58700 22.04000
C  16.29100 49.59800 23.24000
N  9.57700 47.86100 23.92800
C  10.46000 47.87700 22.91800
C  9.86400 47.28100 21.57700
C  8.43100 46.88400 22.07800
C  8.43700 47.26700 23.52100
C  9.96200 48.12000 20.27300
C  8.36900 45.34000 21.88300
C  9.18000 44.41600 22.80200
N  8.19300 47.73200 26.47300
C  7.13200 47.28000 25.69600
C  5.92600 47.10300 26.50200
C  6.34500 47.40300 27.80900
C  7.65900 47.73300 27.79700
C  4.56900 46.87300 26.07500
C  5.92700 47.37600 29.14000
O  4.83000 47.09400 29.68300
C  7.12800 47.73500 30.03600
C  7.39700 46.48900 30.88900
O  8.41900 45.79400 30.77800
O  6.45800 46.30200 31.82400
C  6.65900 45.12900 32.73800
H  13.32100 50.07600 28.26900
H  12.19200 48.44600 22.11100
H  6.39500 46.81900 23.73300
H  9.50100 49.59300 31.12500
H  12.21000 49.67700 30.38800
H  11.06900 51.85700 28.78500
H  11.86700 52.08300 30.30600
H  10.13500 51.91300 30.23200
H  11.81200 47.83800 31.10600
H  10.31700 46.96300 31.13200
H  10.38700 49.22500 32.96400
H  11.89000 48.38800 33.20800
H  15.18500 49.98300 27.30400
H  15.55000 51.16400 26.05400
H  16.19000 49.49100 25.89300
H  16.94800 49.61100 22.37100
H  16.68500 48.77800 23.84000
H  16.24100 50.61000 23.64200
H  10.44200 46.37700 21.38700
H  7.68000 47.42200 21.49900
H  8.97600 48.34700 19.86800
H  10.54300 47.51700 19.57500
H  10.43800 49.08600 20.44100
H  8.75800 45.18600 20.87600
H  7.33800 45.01800 22.03200
H  8.42600 43.76200 23.24000
H  9.83800 44.77300 23.59500
H  9.80700 43.76900 22.18800
H  4.03200 47.80900 25.91900
H  3.99800 46.19800 26.71200
H  4.65700 46.30600 25.14800
H  7.05900 48.61200 30.67900
H  5.92400 44.36900 32.47000
H  6.34400 45.49100 33.71600
H  7.68400 44.76000 32.72200
Mg -4.96900 25.02900 26.58900
C  -3.46900 26.42500 29.53100
C  -6.81400 23.06200 28.71600
C  -6.22600 23.52300 23.95100
C  -2.52300 26.75800 24.64200
N  -4.99000 24.76700 28.89300
C  -4.40500 25.49900 29.86700
C  -4.99500 25.16000 31.23800
C  -5.85600 23.85200 30.98600
C  -5.87000 23.88600 29.39500
C  -5.27500 22.49800 31.63800
C  -5.72000 26.36600 31.80300
C  -6.12400 26.42700 33.31900
H  -5.75500 25.17300 34.18500
N  -6.30200 23.54300 26.35200
C  -7.00900 22.87600 27.36900
C  -8.03500 22.08200 26.80200
C  -7.94800 22.20600 25.39500
C  -6.77300 23.04600 25.18400
C  -9.09100 21.36200 27.64400
C  -8.77200 21.53500 24.33900
O  -8.66500 21.73500 23.15700
C  -9.90700 20.62700 24.75100
N  -4.53500 25.19000 24.56200
C  -5.17400 24.40100 23.65800
C  -4.42100 24.48400 22.23400
C  -3.31600 25.55800 22.48700
C  -3.46500 25.93400 23.96600
C  -3.95100 23.18500 21.48600
C  -3.35300 26.87400 21.68000
C  -1.97800 27.26200 20.97900
N  -3.40400 26.32900 26.94600
C  -2.56600 27.03000 26.05100
C  -1.75000 27.93300 26.81100
C  -1.98400 27.71800 28.16000
C  -3.02200 26.70200 28.21100
C  -0.71300 28.88100 26.28000
C  -1.75400 28.16800 29.48600
O  -1.08600 29.05300 29.96600
C  -2.81900 27.43100 30.47400
C  -2.06500 26.78000 31.61200
O  -1.45800 25.69700 31.56300
O  -2.30100 27.51200 32.81600
C  -1.83300 26.96200 34.09900
H  -7.44300 22.47700 29.39000
H  -6.57500 23.18700 22.97300
H  -1.75200 27.24800 24.04400
H  -4.19200 24.95900 31.94700
H  -6.84800 23.92100 31.43200
H  -6.06400 21.77700 31.85200
H  -4.57100 22.65800 32.45500
H  -4.62700 22.08700 30.86400
H  -6.65700 26.48400 31.25900
H  -5.13500 27.27700 31.67900
H  -7.16500 26.72300 33.45000
H  -5.46400 27.18900 33.73500
H  -9.09000 20.27700 27.54000
H  -10.09700 21.60600 27.30300
H  -9.10400 21.55300 28.71700
H  -9.58200 19.70100 25.22500
H  -10.48600 20.40900 23.85300
H  -10.56800 21.24300 25.36100
H  -5.19100 24.95100 21.62000
H  -2.39900 25.01800 22.24900
H  -2.92700 23.17100 21.11100
H  -4.48200 23.13600 20.53600
H  -4.20100 22.30200 22.07500
H  -3.72700 27.74900 22.21300
H  -4.10400 26.75100 20.89900
H  -1.18600 26.62900 21.38000
H  -1.72100 28.32100 21.00400
H  -2.12600 27.13700 19.90600
H  0.19800 28.91000 26.87700
H  -1.15200 29.86700 26.12500
H  -0.43600 28.51100 25.29300
H  -3.48900 28.22700 30.79800
H  -2.07800 25.94400 34.40000
H  -2.15300 27.64100 34.88900
H  -0.74400 26.94200 34.15000

