158

Mg 2.09500 -1.64400 43.71400
C  5.50400 -1.41200 43.18500
C  1.68100 1.18000 41.75500
C  -1.19500 -2.53300 43.30600
C  2.67600 -4.76700 45.13300
N  3.45600 -0.41400 42.39200
C  4.77400 -0.42700 42.49300
C  5.34300 0.72000 41.59100
C  4.13600 1.76200 41.55700
C  3.05200 0.76500 41.82700
C  4.24800 3.04700 42.44400
C  5.77800 0.15400 40.17300
C  6.44600 1.07300 39.14700
H  5.83600 1.22700 37.72000
N  0.42300 -0.70800 42.81300
C  0.48500 0.46300 42.06800
C  -0.88900 0.90600 41.87700
C  -1.77200 -0.14200 42.26900
C  -0.86900 -1.19000 42.88500
C  -1.18500 2.17600 41.20500
C  -3.36600 -0.21900 42.23200
O  -3.97000 0.71800 41.74300
C  -4.15300 -1.24200 42.75800
N  0.98200 -3.38500 44.08200
C  -0.28900 -3.53800 43.82200
C  -0.84500 -4.92100 44.22400
C  0.26300 -5.42200 45.17500
C  1.41600 -4.50000 44.74400
C  -2.28500 -4.82700 45.00300
C  0.57900 -6.94600 45.14200
C  1.02300 -7.64900 46.48700
N  3.76900 -2.97000 44.16300
C  3.80700 -4.08500 44.83900
C  5.25000 -4.48500 44.94900
C  5.96500 -3.36500 44.34400
C  4.97700 -2.51500 43.89700
C  5.82800 -5.78800 45.56500
C  7.26000 -2.68900 44.16100
O  8.35300 -2.99000 44.59600
C  6.97100 -1.42900 43.31600
C  7.72600 -0.31800 43.86600
O  8.91700 -0.36400 44.02400
O  6.96900 0.61300 44.41900
C  7.63900 1.45600 45.47600
H  1.52700 2.20900 41.42400
H  -2.22600 -2.88600 43.24800
H  2.95600 -5.68100 45.66100
H  6.26000 1.21900 41.90200
H  3.97600 2.07000 40.52400
H  5.29200 3.11000 42.74900
H  3.52900 2.94800 43.25700
H  3.86300 3.94000 41.95100
H  4.94600 -0.44500 39.80300
H  6.52700 -0.61200 40.37700
H  7.40000 0.57000 38.99200
H  6.47200 2.08800 39.54200
H  -2.23400 2.42900 41.35900
H  -1.05700 2.06300 40.12900
H  -0.61100 2.91300 41.76600
H  -5.23500 -1.13300 42.68200
H  -3.90400 -1.43800 43.80100
H  -4.08100 -2.19000 42.22400
H  -1.04600 -5.45200 43.29400
H  0.05700 -5.11500 46.20000
H  -2.60600 -3.81300 45.24200
H  -2.25000 -5.41900 45.91700
H  -3.04000 -5.26300 44.34800
H  1.38400 -7.02500 44.41300
H  -0.34600 -7.45500 44.87000
H  0.17500 -8.11700 46.98800
H  1.38700 -6.95900 47.24900
H  1.82800 -8.32300 46.19600
H  6.90300 -5.61000 45.58200
H  5.58300 -6.60700 44.88900
H  5.46200 -6.01600 46.56600
H  7.33000 -1.67600 42.31700
H  7.00800 1.83900 46.27800
H  8.00900 2.38100 45.03400
H  8.50000 1.04000 45.99900
Mg 29.45400 58.00500 39.41400
C  26.93600 55.77200 38.23500
C  31.72500 55.43500 38.34500
C  31.87400 60.15000 40.01900
C  27.10800 60.42800 39.67600
N  29.29300 55.88000 38.34200
C  28.17500 55.20300 38.05500
C  28.44900 53.69600 37.65200
C  29.96900 53.62600 37.82200
C  30.37100 55.13500 38.13100
C  30.65400 52.65800 38.90000
C  28.04900 53.31500 36.22600
C  28.42800 54.36000 35.02200
H  27.32100 54.80800 34.02800
N  31.49500 57.89500 39.24300
C  32.25300 56.66800 38.86200
C  33.67200 57.02600 38.97400
C  33.75200 58.33800 39.56200
C  32.33700 58.87000 39.60800
C  34.70100 56.12200 38.45100
C  35.07200 59.01100 39.91600
O  36.12500 58.50900 39.77700
C  35.06800 60.34300 40.42900
N  29.54700 60.19800 39.41900
C  30.59500 60.80700 40.01100
C  30.24400 62.25000 40.42900
C  28.73900 62.06600 40.61600
C  28.39200 60.82900 39.83500
C  31.01300 62.91400 41.63900
C  28.01800 63.28500 40.01900
C  27.00700 64.02100 40.99800
N  27.35400 58.08400 39.11600
C  26.58500 59.14800 39.29200
C  25.20400 58.83000 39.07900
C  25.29600 57.46700 38.65900
C  26.63600 57.05500 38.66800
C  24.00400 59.78700 39.15000
C  24.44800 56.36200 38.28900
O  23.21400 56.27400 38.19100
C  25.50000 55.16100 38.09500
C  25.17000 54.06300 39.10000
O  25.73700 53.82600 40.13000
O  23.95900 53.42100 38.75300
C  23.44500 52.34100 39.57800
H  32.45900 54.62800 38.39300
H  32.66600 60.84000 40.31600
H  26.33800 61.16300 39.92000
H  27.96300 53.03300 38.36700
H  30.49000 53.45700 36.88000
H  29.98300 51.80200 38.97500
H  30.81700 53.11400 39.87600
H  31.61400 52.25600 38.57700
H  27.00500 53.01000 36.30500
H  28.71000 52.49100 35.95800
H  29.26600 53.89400 34.50300
H  28.81500 55.30500 35.40400
H  35.42700 55.93800 39.24200
H  35.14800 56.57300 37.56500
H  34.33700 55.11400 38.25300
H  36.05700 60.77100 40.59100
H  34.68300 60.19500 41.43800
H  34.62600 61.08700 39.76600
H  30.63700 62.87100 39.62400
H  28.55800 61.86100 41.67200
H  30.29200 63.32100 42.34800
H  31.79800 63.57300 41.26900
H  31.54400 62.15400 42.21100
H  27.42100 63.03800 39.14100
H  28.71200 64.08400 39.75600
H  26.98300 65.05200 40.64700
H  27.21800 64.02200 42.06700
H  26.01300 63.64900 40.74800
H  24.30200 60.80100 38.88400
H  23.56200 59.67000 40.14000
H  23.31300 59.44500 38.37900
H  25.41100 54.95500 37.02800
H  24.08600 51.46000 39.61100
H  22.46500 51.99400 39.24900
H  23.25600 52.50600 40.63800

