158

Mg 25.89400 0.93300 29.21600
C  27.85500 0.93600 32.09700
C  23.11900 1.69900 31.13500
C  24.05100 0.47600 26.42000
C  28.66500 -0.24400 27.40600
N  25.60400 1.20100 31.32500
C  26.52900 1.28700 32.35400
C  25.92600 1.79400 33.74500
C  24.38900 1.78300 33.37000
C  24.30600 1.48100 31.84800
C  23.67400 0.73800 34.15400
C  26.56700 3.18700 34.26000
C  27.14300 3.04400 35.68500
H  26.31400 3.83100 36.73900
N  23.90000 1.12800 28.86200
C  22.93300 1.49500 29.81700
C  21.65700 1.58800 29.01100
C  21.87200 1.16900 27.69300
C  23.37100 0.87700 27.59100
C  20.30000 2.02000 29.57800
C  20.88900 1.02500 26.52900
O  21.25300 0.73300 25.39300
C  19.47000 1.32600 26.67700
N  26.34300 0.25800 27.14000
C  25.42100 0.28900 26.14600
C  26.06800 -0.03200 24.79800
C  27.59400 -0.06800 25.10700
C  27.58500 -0.03600 26.61700
C  25.45800 -1.21600 23.96800
C  28.47400 0.98600 24.44000
C  28.62100 0.77000 22.95700
N  27.82900 0.37100 29.61600
C  28.85600 0.00300 28.78500
C  30.11400 -0.21000 29.55400
C  29.72000 0.30700 30.81400
C  28.37300 0.60500 30.83200
C  31.44400 -0.73600 29.15400
C  30.26600 0.37800 32.18600
O  31.40600 0.14600 32.55100
C  29.01600 0.86600 33.08300
C  28.84900 -0.25300 34.13400
O  28.32900 -1.30500 33.84900
O  29.51800 0.01200 35.27900
C  29.36500 -1.02300 36.33600
H  22.29800 1.97900 31.79800
H  23.51900 0.41200 25.46800
H  29.55900 -0.56500 26.86600
H  26.09900 1.00500 34.47700
H  23.92700 2.75100 33.56000
H  22.68500 0.61900 33.71300
H  23.50000 0.90200 35.21700
H  24.14700 -0.24400 34.14500
H  25.86100 4.01400 34.19500
H  27.32800 3.42200 33.51600
H  28.14500 3.46900 35.75100
H  27.22800 2.00700 36.00900
H  20.08000 3.05900 29.33200
H  20.36700 1.77500 30.63800
H  19.58600 1.24000 29.31300
H  18.87400 0.57500 27.19600
H  19.02000 1.34900 25.68400
H  19.46800 2.34200 27.07100
H  25.78000 0.83000 24.19600
H  27.97700 -1.06600 24.89400
H  24.48700 -1.47300 24.39100
H  26.12100 -2.07000 23.82800
H  25.21000 -0.88400 22.96000
H  29.37900 0.85700 25.03500
H  28.17500 2.02100 24.60200
H  28.28100 1.60400 22.34400
H  28.13800 -0.15200 22.63300
H  29.70600 0.72500 22.86200
H  32.21300 -0.35000 29.82300
H  31.69400 -0.50300 28.11900
H  31.41200 -1.82500 29.12300
H  29.34700 1.81700 33.50100
H  28.35900 -1.43100 36.24800
H  29.47400 -0.51800 37.29600
H  30.18800 -1.72800 36.21400
Mg 47.05600 24.40000 28.26000
C  47.66700 26.80000 30.95200
C  46.26400 22.14200 30.73200
C  46.76900 22.17100 25.83000
C  48.49500 26.71700 26.17400
N  46.85800 24.51400 30.59200
C  47.05800 25.62000 31.41500
C  46.79400 25.14900 32.82300
C  46.56700 23.61400 32.73600
C  46.61900 23.39500 31.25800
C  47.63000 22.82100 33.54500
C  45.69600 25.95700 33.65700
C  46.16600 26.54500 35.05100
H  46.45900 25.61200 36.18300
N  46.54800 22.43600 28.26500
C  46.14300 21.72100 29.37800
C  45.64100 20.40000 28.96500
C  45.79300 20.35800 27.53000
C  46.34800 21.68000 27.12400
C  45.21200 19.38100 29.89000
C  45.30300 19.31200 26.51600
O  45.35500 19.46800 25.29300
C  44.56500 18.14700 27.02500
N  47.52300 24.47600 26.31000
C  47.30900 23.41600 25.45300
C  47.57800 23.76700 23.98700
C  48.06100 25.21200 24.10800
C  47.99100 25.52800 25.60100
C  48.63600 22.83100 23.39500
C  47.11400 26.14500 23.26700
C  45.63200 26.15000 23.71400
N  47.82900 26.38400 28.43300
C  48.43900 27.16500 27.46900
C  48.81300 28.36400 28.04200
C  48.57500 28.29300 29.43800
C  47.92000 27.05500 29.61700
C  49.40100 29.53100 27.27300
C  48.61000 29.09900 30.68900
O  48.91500 30.24200 30.78700
C  48.07800 28.05100 31.71700
C  49.18000 27.73900 32.72400
O  50.05000 26.95400 32.50100
O  49.06000 28.48500 33.87900
C  50.02800 28.19700 34.98900
H  46.01600 21.39000 31.48300
H  46.48500 21.55500 24.97400
H  48.88300 27.40400 25.42000
H  47.77500 25.27900 33.27900
H  45.61700 23.37500 33.21300
H  47.87500 21.92200 32.97900
H  47.23700 22.62600 34.54300
H  48.57900 23.32900 33.71600
H  44.78400 25.37500 33.79400
H  45.30000 26.73700 33.00700
H  45.35900 27.23100 35.30800
H  47.06400 27.14600 34.90700
H  46.09500 18.74500 29.95600
H  44.26700 18.95000 29.56000
H  45.09600 19.71600 30.92100
H  44.23800 17.48700 26.22200
H  43.69500 18.55000 27.54200
H  45.36600 17.69500 27.61100
H  46.60200 23.63800 23.51800
H  49.12600 25.37300 23.94000
H  49.00800 22.02500 24.02700
H  49.51700 23.43900 23.18800
H  48.32200 22.37800 22.45500
H  47.24600 25.86400 22.22200
H  47.46000 27.17700 23.32400
H  45.18100 27.13800 23.81000
H  45.53600 25.63400 24.66900
H  44.94900 25.62800 23.04400
H  48.59600 30.12700 26.84500
H  49.92000 29.09500 26.41900
H  50.07500 30.14700 27.86800
H  47.20000 28.44700 32.22600
H  49.60300 27.52200 35.73200
H  50.26500 29.13700 35.48700
H  50.98300 27.81200 34.63200

