158

Mg 49.41700 46.85500 43.18000
C  46.18300 47.44100 42.15700
C  49.22800 43.96400 41.16400
C  52.69300 46.39800 43.56000
C  49.66600 49.97900 44.36500
N  47.90900 45.81700 41.86600
C  46.68500 46.32900 41.55000
C  46.02300 45.53200 40.44200
C  46.94600 44.29600 40.19200
C  48.13600 44.72500 41.11900
C  46.25600 42.85700 40.40700
C  45.65300 46.23200 39.19000
C  44.23100 45.92700 38.64800
H  44.15000 45.82000 37.08500
N  50.82300 45.29100 42.64300
C  50.46300 44.17200 41.85500
C  51.65900 43.25500 41.86000
C  52.65700 43.91500 42.69500
C  52.05100 45.22700 43.06900
C  51.83100 41.90300 41.14400
C  53.98700 43.39400 43.09500
O  54.38300 42.25700 42.72400
C  54.82500 44.01800 44.27100
N  50.94000 48.04200 43.95800
C  52.21700 47.64300 43.97700
C  53.20300 48.70700 44.59700
C  52.18100 49.77200 44.96800
C  50.81200 49.23200 44.41800
C  54.23100 48.32800 45.63000
C  52.56400 51.21100 44.34600
C  52.53700 52.27200 45.41200
N  48.22400 48.39000 43.39200
C  48.42000 49.60800 43.91700
C  47.13300 50.35600 43.95300
C  46.22500 49.46200 43.35800
C  46.93000 48.29600 42.98600
C  46.87100 51.79500 44.51400
C  44.90100 49.35900 42.94900
O  44.01300 50.19200 43.03100
C  44.77900 48.02700 42.13600
C  43.78600 47.03700 42.76300
O  43.79900 46.78900 43.96700
O  42.87400 46.68300 41.77100
C  41.80300 45.83300 42.35100
H  49.32200 43.14200 40.45100
H  53.72800 46.16400 43.81700
H  49.75600 51.00800 44.72100
H  45.07300 45.25200 40.89700
H  47.37100 44.30600 39.18800
H  45.31900 42.86300 40.96400
H  47.05400 42.32600 40.92500
H  46.08800 42.47400 39.40000
H  46.39900 46.07600 38.41000
H  45.86500 47.29100 39.33300
H  43.58100 46.71200 39.03600
H  43.90200 44.98200 39.07900
H  52.54800 42.02200 40.33200
H  50.89900 41.55100 40.70200
H  52.19700 41.14000 41.83000
H  55.41700 43.21300 44.70600
H  54.19900 44.32600 45.10800
H  55.41200 44.87900 43.95300
H  53.74400 48.91000 43.67300
H  52.05000 49.77200 46.05100
H  54.40700 49.07500 46.40400
H  55.18100 48.06400 45.16600
H  53.76900 47.46800 46.11300
H  51.94000 51.49700 43.49900
H  53.61300 51.19100 44.04900
H  51.73800 52.90400 45.02400
H  53.53900 52.69900 45.37200
H  52.32400 51.95900 46.43400
H  45.92700 51.86500 45.05500
H  46.83400 52.60400 43.78400
H  47.64800 52.07500 45.22500
H  44.48400 48.29400 41.12100
H  41.28000 46.36500 43.14600
H  42.29800 44.99300 42.83800
H  41.10400 45.37600 41.65100
Mg -5.77800 24.52400 26.48000
C  -4.31500 25.97400 29.38100
C  -7.74900 22.73700 28.48300
C  -6.81300 22.95500 23.73800
C  -3.38900 26.24400 24.57700
N  -5.97800 24.31300 28.74200
C  -5.34200 25.02800 29.72800
C  -5.81400 24.58700 31.08400
C  -6.71500 23.38800 30.77900
C  -6.90100 23.45000 29.28600
C  -6.15800 22.05700 31.22500
C  -6.61300 25.84900 31.75900
C  -6.36500 26.15900 33.20800
H  -6.03100 24.98800 34.09800
N  -7.19400 23.22900 26.10300
C  -7.95300 22.64500 27.05200
C  -8.93400 21.73800 26.38100
C  -8.69200 21.83500 24.96800
C  -7.54600 22.68200 24.89000
C  -10.07200 21.11900 27.09500
C  -9.43000 21.18500 23.78800
O  -9.13800 21.35700 22.57800
C  -10.62800 20.27100 24.01200
N  -5.20000 24.60500 24.46400
C  -5.73900 23.84500 23.52900
C  -5.14100 24.03800 22.15100
C  -4.16200 25.18600 22.33300
C  -4.20700 25.30800 23.85400
C  -4.44800 22.70100 21.64900
C  -4.53500 26.61400 21.70100
C  -3.44400 27.27700 20.80300
N  -4.27600 26.02500 26.82000
C  -3.38000 26.55200 25.87400
C  -2.46400 27.47400 26.61900
C  -2.76100 27.22100 28.00200
C  -3.84500 26.29400 28.05500
C  -1.35700 28.31000 25.98200
C  -2.40200 27.45800 29.39600
O  -1.46900 28.08800 29.92600
C  -3.44000 26.77500 30.29800
C  -2.79100 26.03000 31.49900
O  -2.33900 24.86900 31.46700
O  -2.88500 26.81500 32.62200
C  -2.16500 26.24800 33.78900
H  -8.43300 22.17400 29.12200
H  -6.97600 22.61500 22.71300
H  -2.65700 26.76600 23.95700
H  -4.99200 24.26300 31.72200
H  -7.67100 23.51900 31.28600
H  -5.89300 21.33700 30.45100
H  -6.96400 21.50800 31.71400
H  -5.34900 22.14000 31.95100
H  -7.67500 25.66500 31.59500
H  -6.33800 26.67300 31.10100
H  -7.01600 26.90700 33.66000
H  -5.42400 26.70600 33.15800
H  -10.96200 21.52500 26.61400
H  -10.11200 21.44800 28.13300
H  -10.23000 20.05200 26.93900
H  -10.32600 19.37900 24.56100
H  -10.93900 19.92700 23.02600
H  -11.42200 20.73200 24.59900
H  -5.98500 24.41700 21.57400
H  -3.16100 24.90500 22.00500
H  -4.83800 21.89300 22.26800
H  -3.37300 22.62600 21.81100
H  -4.82100 22.41300 20.66600
H  -4.93200 27.28000 22.46700
H  -5.43900 26.40900 21.12800
H  -3.73300 27.61200 19.80600
H  -2.62200 26.61600 20.52600
H  -3.00500 28.03700 21.44900
H  -1.31800 29.27300 26.49000
H  -1.60600 28.42600 24.92700
H  -0.34700 27.90200 25.94500
H  -3.99700 27.61500 30.71300
H  -1.11200 26.15800 33.52300
H  -2.50200 25.23600 34.01300
H  -2.17100 27.02300 34.55600

