158

Mg 16.33300 -1.75500 28.65600
C  15.65400 0.15400 31.59000
C  18.58100 -3.53600 30.59400
C  17.46200 -3.43800 25.92600
C  14.57500 0.47300 26.81100
N  17.00700 -1.72400 30.87700
C  16.51000 -0.88400 31.89300
C  17.02300 -1.40200 33.23500
C  18.20000 -2.37700 32.82400
C  17.95600 -2.56000 31.32700
C  19.70500 -1.80700 33.04900
C  16.01400 -2.14100 34.17700
C  15.84100 -1.61200 35.60800
H  17.02800 -0.84200 36.24100
N  17.76700 -3.28300 28.30400
C  18.44500 -3.95900 29.28500
C  19.17100 -5.04300 28.67100
C  19.06600 -4.89000 27.28800
C  18.03500 -3.84500 27.10700
C  20.18000 -6.01900 29.40000
C  19.71000 -5.69300 26.09900
O  19.46500 -5.47600 24.92600
C  20.64400 -6.87300 26.42400
N  15.97300 -1.55800 26.62900
C  16.50800 -2.39700 25.70200
C  16.40100 -1.75600 24.33700
C  15.27000 -0.57000 24.52300
C  15.25300 -0.52700 26.08100
C  17.71500 -1.15100 23.93100
C  13.86500 -0.88800 23.82900
C  13.69700 -0.10900 22.51700
N  15.21700 -0.11200 29.05400
C  14.60500 0.72800 28.18500
C  13.81100 1.70500 28.89400
C  14.21500 1.56900 30.23500
C  15.05500 0.43000 30.29900
C  12.93400 2.79300 28.29700
C  14.04900 2.08200 31.59100
O  13.42600 3.07600 32.00100
C  14.96300 1.19100 32.56600
C  15.82400 2.19400 33.22800
O  16.62400 2.85100 32.57900
O  15.38000 2.43300 34.51700
C  15.86100 3.76800 35.04300
H  19.28700 -4.14700 31.16000
H  17.88800 -3.96100 25.06700
H  14.08100 1.19200 26.15300
H  17.43800 -0.55900 33.78800
H  18.04700 -3.34200 33.30800
H  20.35600 -2.05700 32.21100
H  20.16700 -2.25900 33.92700
H  19.66200 -0.74000 33.26300
H  16.37800 -3.15900 34.31800
H  15.04000 -2.14700 33.68900
H  15.70900 -2.45500 36.28700
H  15.04600 -0.86700 35.59000
H  20.13600 -7.08900 29.19800
H  20.16100 -5.78800 30.46500
H  21.20100 -5.74800 29.12800
H  21.55900 -6.62800 26.96200
H  20.91100 -7.30300 25.45900
H  20.00800 -7.50000 27.05000
H  16.06500 -2.51100 23.62500
H  15.74200 0.36800 24.22800
H  18.16800 -0.57200 24.73500
H  17.57700 -0.43600 23.12100
H  18.27000 -2.04500 23.64600
H  13.11900 -0.55800 24.55200
H  13.70500 -1.95800 23.69600
H  14.57600 0.34100 22.05600
H  13.13100 0.79000 22.75900
H  13.22400 -0.65600 21.70100
H  13.34400 3.11500 27.34000
H  12.83000 3.56900 29.05600
H  11.97300 2.33800 28.05500
H  14.40900 0.61800 33.31000
H  15.68500 3.71400 36.11700
H  15.38400 4.56400 34.47100
H  16.94900 3.81900 35.01900
Mg -10.66500 38.72900 41.55800
C  -9.22700 35.69800 40.62000
C  -8.09900 40.45000 40.11300
C  -12.47000 41.63600 41.86500
C  -13.54300 36.96500 42.57600
N  -8.87400 38.10600 40.52000
C  -8.41700 36.79100 40.28100
C  -7.16000 36.82500 39.44500
C  -6.76900 38.38800 39.48100
C  -7.99300 39.06500 40.02100
C  -5.49600 38.54300 40.29600
C  -7.44500 36.32600 37.98600
C  -6.81500 35.00100 37.65900
H  -5.63700 34.88900 36.74000
N  -10.25100 40.81400 41.22900
C  -9.12900 41.28600 40.61200
C  -9.17600 42.76000 40.49200
C  -10.50300 43.10200 40.94700
C  -11.14300 41.84000 41.41200
C  -8.05300 43.59400 39.76100
C  -11.04200 44.56100 40.87400
O  -10.35200 45.49700 40.46300
C  -12.46400 44.91800 41.24900
N  -12.76200 39.28700 42.15900
C  -13.24800 40.51900 42.06200
C  -14.78600 40.53200 42.31500
C  -15.11800 38.98900 42.38200
C  -13.73900 38.36400 42.48400
C  -15.17300 41.28000 43.66400
C  -15.85600 38.44000 41.19000
C  -17.22800 38.99400 40.87700
N  -11.25700 36.72400 41.73700
C  -12.40700 36.21300 42.30700
C  -12.19700 34.74200 42.40900
C  -11.09000 34.48300 41.70900
C  -10.50200 35.70800 41.26500
C  -12.94800 33.79300 43.23900
C  -10.23300 33.42000 41.30000
O  -10.32600 32.21600 41.45100
C  -8.95100 34.14600 40.56800
C  -7.75200 33.61000 41.25200
O  -7.10500 32.63300 40.89500
O  -7.48400 34.41400 42.33400
C  -6.34700 33.93700 43.23000
H  -7.34600 40.99800 39.54200
H  -13.10200 42.52500 41.92000
H  -14.38000 36.33900 42.89200
H  -6.39300 36.11800 39.76100
H  -6.66800 38.80000 38.47700
H  -4.86000 39.14500 39.64700
H  -4.99100 37.61700 40.56900
H  -5.76300 39.10800 41.18900
H  -7.25200 37.12800 37.27300
H  -8.53200 36.28500 37.90800
H  -7.62900 34.38000 37.28400
H  -6.51200 34.43700 38.54000
H  -8.26800 43.55300 38.69300
H  -7.10700 43.10100 39.98400
H  -7.98800 44.59900 40.18000
H  -12.65800 44.62300 42.28000
H  -13.12300 44.42300 40.53500
H  -12.63600 45.99100 41.15400
H  -15.38200 41.01200 41.53900
H  -15.61600 38.74300 43.32000
H  -15.52300 42.27400 43.38400
H  -14.29900 41.52100 44.26800
H  -15.94100 40.71100 44.18800
H  -15.86400 37.35000 41.19500
H  -15.21800 38.71500 40.35000
H  -17.08300 39.48600 39.91600
H  -17.69000 39.70800 41.55900
H  -17.93300 38.16900 40.77900
H  -13.80000 33.35300 42.72100
H  -13.47400 34.36700 44.00200
H  -12.14400 33.19500 43.66800
H  -8.89000 33.85600 39.51900
H  -5.66000 33.13200 42.96900
H  -6.71400 33.72400 44.23400
H  -5.74500 34.84200 43.31500

