158

Mg -1.44400 17.69900 27.24500
C  -2.18700 15.55200 29.88400
C  -2.37400 20.35900 29.35900
C  -1.81300 19.80200 24.52300
C  -1.45200 14.94600 25.13200
N  -2.21400 17.93700 29.48400
C  -2.33300 16.88300 30.32900
C  -2.47700 17.45000 31.77400
C  -2.72600 18.99500 31.53700
C  -2.49400 19.14100 29.98500
C  -4.04100 19.60800 32.07700
C  -1.28600 17.02700 32.65100
C  -0.69000 17.98800 33.74300
H  -0.28200 17.39000 35.09100
N  -2.00800 19.73400 26.99200
C  -2.20600 20.64900 27.99000
C  -2.44100 21.96100 27.42000
C  -2.15300 21.88500 26.04000
C  -2.05700 20.41100 25.77200
C  -2.95000 23.19300 28.21200
C  -2.05200 22.96400 24.95600
O  -2.05600 22.71200 23.75500
C  -2.16100 24.43700 25.31600
N  -1.65200 17.41300 25.09500
C  -1.61000 18.45900 24.21200
C  -1.40900 17.96400 22.72100
C  -1.14600 16.42300 22.94300
C  -1.47400 16.25700 24.49900
C  -2.62300 18.36500 21.79500
C  0.26300 15.93100 22.45000
C  1.35900 16.51500 23.40300
N  -1.67800 15.58300 27.39800
C  -1.70100 14.67600 26.45700
C  -1.80800 13.38200 27.02900
C  -2.05300 13.61800 28.40900
C  -1.97100 14.98600 28.60800
C  -1.89400 12.04400 26.36500
C  -2.25300 13.08100 29.73200
O  -2.42300 11.95700 30.14500
C  -2.35700 14.26900 30.68400
C  -1.29300 14.01800 31.72700
O  -0.15000 14.25300 31.60100
O  -1.85600 13.42300 32.83800
C  -0.87600 12.94200 33.78800
H  -2.51600 21.29400 29.90500
H  -1.58700 20.51200 23.72400
H  -1.36300 14.10100 24.44500
H  -3.39000 16.98800 32.14900
H  -1.90600 19.58600 31.94300
H  -4.83200 19.74200 31.33900
H  -3.88400 20.61700 32.45700
H  -4.46900 19.09800 32.94000
H  -0.38100 16.88900 32.06000
H  -1.58000 16.07400 33.09100
H  -1.39000 18.78900 33.98000
H  0.13000 18.46300 33.20500
H  -2.19600 23.96500 28.36100
H  -3.29200 22.93000 29.21300
H  -3.82400 23.49700 27.63500
H  -1.27900 24.64100 25.92300
H  -3.11200 24.68700 25.78600
H  -2.01800 25.05600 24.43000
H  -0.47900 18.37200 22.32500
H  -1.83400 15.73000 22.45900
H  -3.51800 18.33100 22.41500
H  -2.69300 17.61700 21.00500
H  -2.38900 19.35900 21.41500
H  0.44300 16.38500 21.47600
H  0.13800 14.84900 22.47600
H  1.02600 17.16200 24.21500
H  2.07200 17.10300 22.82500
H  1.96200 15.73500 23.86800
H  -1.14500 12.15300 25.58000
H  -2.88500 11.91500 25.92900
H  -1.66100 11.26300 27.08800
H  -3.25700 14.32500 31.29600
H  -0.17700 13.71500 34.10700
H  -0.42500 12.02200 33.41300
H  -1.58800 12.62900 34.55100
Mg 35.54900 48.48500 25.00300
C  36.14600 46.76600 27.93100
C  34.42100 51.23700 26.78200
C  35.00100 50.03400 22.16700
C  36.64700 45.54400 23.29700
N  34.95700 48.84700 27.08800
C  35.46100 47.97300 28.08800
C  35.33800 48.70600 29.45800
C  34.60900 49.99800 29.03000
C  34.64100 50.07500 27.53700
C  33.16300 50.08000 29.61200
C  36.68600 48.86300 30.24200
C  36.65100 48.57300 31.76100
H  35.21100 48.54800 32.38400
N  34.91100 50.43200 24.55500
C  34.55500 51.42100 25.37000
C  34.31100 52.61300 24.59200
C  34.46800 52.24500 23.21100
C  34.77600 50.85200 23.29700
C  34.15900 53.99100 25.27800
C  34.32700 53.08900 21.98700
O  34.37300 52.68800 20.81700
C  34.36700 54.61400 22.25500
N  35.61700 47.78300 23.08700
C  35.42400 48.72900 22.07200
C  35.64700 48.05400 20.68900
C  36.21400 46.66800 21.06200
C  36.18900 46.69200 22.58600
C  34.35400 48.00700 19.80900
C  37.57600 46.44600 20.47300
C  37.72000 45.90300 19.06500
N  36.22000 46.48000 25.45200
C  36.69400 45.46700 24.68800
C  37.08100 44.33600 25.52100
C  36.90000 44.80100 26.85100
C  36.39600 46.14500 26.73500
C  37.52900 42.99900 25.17400
C  36.95600 44.44400 28.27300
O  37.31000 43.46100 28.97800
C  36.57000 45.74500 28.99400
C  35.47300 45.38300 29.96500
O  34.31200 45.19900 29.66800
O  36.08200 45.22200 31.18000
C  35.29800 44.34800 32.12500
H  34.00800 52.00100 27.44300
H  34.93800 50.56800 21.21600
H  36.98900 44.66800 22.74100
H  34.68000 48.08000 30.06100
H  35.09000 50.84800 29.51500
H  33.29900 50.53800 30.59200
H  32.81100 49.07600 29.84800
H  32.45100 50.55200 28.93500
H  37.06800 49.87100 30.08100
H  37.45100 48.24800 29.76900
H  37.19300 49.28200 32.38600
H  37.18600 47.66000 32.02200
H  35.10300 54.53600 25.27800
H  34.05800 54.02300 26.36300
H  33.37100 54.57300 24.80100
H  33.48300 55.00000 22.76200
H  34.35200 55.14800 21.30500
H  35.24800 54.69900 22.89000
H  36.37600 48.63400 20.12400
H  35.65000 45.80200 20.71900
H  34.06800 47.06700 19.33700
H  34.27700 48.75500 19.02000
H  33.49300 48.14100 20.46400
H  38.17100 45.71600 21.02200
H  38.11900 47.38100 20.60700
H  38.04700 44.86500 19.01100
H  38.40400 46.50200 18.46400
H  36.78800 46.04200 18.51700
H  38.48800 42.99600 24.65600
H  36.69600 42.56500 24.62000
H  37.70300 42.30000 25.99200
H  37.49900 45.92600 29.53400
H  35.84200 44.05600 33.02300
H  34.92300 43.41500 31.70500
H  34.39600 44.92800 32.32300

