158

Mg 44.28700 5.37600 46.58800
C  42.29700 8.18700 46.49600
C  41.20700 3.49700 46.06100
C  45.98200 2.48700 46.47300
C  47.18100 7.24100 46.50100
N  42.00000 5.75400 46.42700
C  41.47300 7.03100 46.32300
C  39.95900 7.01700 46.08700
C  39.63000 5.47500 45.97000
C  40.98900 4.85500 46.24000
C  38.37500 5.09300 46.80900
C  39.32100 7.73300 44.77900
C  40.30100 7.81300 43.56900
H  39.92000 7.06500 42.26400
N  43.67100 3.31800 46.16000
C  42.39000 2.78400 46.03900
C  42.58000 1.35000 45.78900
C  43.98600 1.02400 45.85900
C  44.61200 2.28400 46.21800
C  41.53000 0.39800 45.47000
C  44.66200 -0.29700 45.65200
O  43.91600 -1.17200 45.24300
C  46.19100 -0.62300 45.78100
N  46.18500 5.00200 46.22400
C  46.66000 3.73700 46.51100
C  48.15000 3.61500 46.92800
C  48.64800 5.09800 46.63300
C  47.29700 5.84400 46.44600
C  48.28200 3.24800 48.43700
C  49.48300 5.19100 45.34800
C  50.98900 5.21300 45.56100
N  44.67400 7.30900 46.58800
C  45.91600 7.97100 46.44400
C  45.59500 9.37800 46.52900
C  44.24100 9.50800 46.58700
C  43.69600 8.24400 46.56400
C  46.64900 10.51900 46.50800
C  43.11300 10.49000 46.66700
O  43.11400 11.72200 46.80800
C  41.88500 9.62200 46.60700
C  41.04900 9.82900 47.77800
O  41.02800 9.13400 48.76800
O  40.21800 10.84900 47.49500
C  39.14000 10.84000 48.45700
H  40.41600 2.86000 45.66000
H  46.63200 1.61400 46.55900
H  48.11600 7.78500 46.64800
H  39.47400 7.35500 47.00300
H  39.55400 5.11200 44.94500
H  37.62200 5.87500 46.89800
H  38.72700 4.95700 47.83200
H  37.94200 4.17500 46.41100
H  39.10100 8.76800 45.04200
H  38.38700 7.24100 44.50700
H  41.35300 7.64500 43.79800
H  40.38900 8.85100 43.24800
H  41.61200 -0.20100 44.56400
H  40.54100 0.81900 45.29200
H  41.38700 -0.33500 46.26400
H  46.54700 -0.30400 46.76100
H  46.66500 0.03900 45.05700
H  46.49500 -1.66700 45.70500
H  48.59100 2.95900 46.17700
H  49.14100 5.48100 47.52600
H  47.35000 2.75500 48.71500
H  48.45000 4.09900 49.09600
H  49.05100 2.48100 48.53000
H  49.21600 6.13800 44.87900
H  49.22100 4.38500 44.66300
H  51.25400 5.01700 46.60000
H  51.33200 6.18300 45.20000
H  51.41800 4.49100 44.86700
H  46.87500 10.81500 45.48300
H  47.59300 10.13800 46.90000
H  46.16000 11.39000 46.94300
H  41.22900 9.85700 45.76900
H  38.54700 11.67100 48.07600
H  39.27600 11.31300 49.43000
H  38.48800 9.98000 48.60600
Mg 47.69600 25.50200 27.72900
C  48.71600 27.79400 30.24300
C  46.61100 23.40900 30.17500
C  47.26700 23.32400 25.48800
C  49.88500 27.23400 25.43400
N  47.71600 25.70100 29.95900
C  47.97100 26.74200 30.75300
C  47.35500 26.58500 32.16300
C  46.92300 25.11400 32.04800
C  46.95000 24.71000 30.59700
C  47.43100 24.13700 33.14900
C  46.22700 27.64500 32.44600
C  46.36300 28.45300 33.80300
H  45.23200 28.14800 34.78700
N  46.94700 23.68000 27.79600
C  46.62800 22.88700 28.87100
C  45.89800 21.68900 28.37400
C  45.90300 21.74000 27.03900
C  46.70400 22.99800 26.70400
C  45.27800 20.71800 29.35500
C  45.25200 20.83800 26.06800
O  45.37400 21.01100 24.85000
C  44.59000 19.54000 26.60800
N  48.59000 25.20200 25.79600
C  47.99400 24.31800 25.04300
C  48.47500 24.32800 23.59200
C  49.09700 25.72200 23.53100
C  49.23200 26.07200 24.99800
C  49.54100 23.26800 23.35400
C  48.21400 26.74800 22.84300
C  48.45400 26.95400 21.35200
N  49.01900 27.15500 27.74800
C  49.75800 27.76500 26.74800
C  50.33700 28.98400 27.33600
C  49.98200 29.05500 28.61400
C  49.17700 27.91900 28.86000
C  51.20700 29.91400 26.56000
C  50.02700 29.86900 29.76400
O  50.55400 30.94300 29.99700
C  49.17600 29.15000 30.90500
C  49.92800 29.07800 32.20800
O  51.02800 28.69000 32.32800
O  49.20900 29.75800 33.13800
C  49.85000 29.91600 34.44100
H  46.36000 22.68900 30.95800
H  47.09700 22.62000 24.67200
H  50.41600 27.79300 24.66000
H  48.08900 26.71600 32.95800
H  45.84400 25.05900 32.19400
H  46.57700 23.55600 33.49500
H  47.80100 24.58600 34.07100
H  48.20500 23.52500 32.68500
H  45.27900 27.11900 32.55500
H  46.15300 28.34200 31.61100
H  46.34600 29.53600 33.68100
H  47.28600 28.12500 34.28100
H  44.20200 20.74500 29.18800
H  45.61700 20.81200 30.38700
H  45.64800 19.75700 28.99700
H  43.80100 19.77700 27.32200
H  45.39800 18.98300 27.08300
H  44.26400 18.92700 25.76800
H  47.60500 24.18900 22.94900
H  50.05200 25.83400 23.01800
H  50.47300 23.76100 23.07700
H  49.18600 22.47300 22.69700
H  49.70200 22.71900 24.28200
H  48.19900 27.73900 23.29500
H  47.18000 26.47700 23.05200
H  47.53500 26.86700 20.77200
H  49.16100 26.21100 20.98400
H  48.95900 27.91800 21.29200
H  50.86500 29.93700 25.52500
H  52.21200 29.49400 26.55000
H  51.37200 30.88500 27.02700
H  48.27500 29.75000 31.02900
H  49.59700 29.09900 35.11700
H  49.46200 30.87000 34.79600
H  50.92500 30.07600 34.34900

