158

Mg 40.49200 9.01300 28.83900
C  42.61300 10.37500 31.26000
C  38.90300 7.18600 31.28500
C  38.71600 7.43000 26.38600
C  42.91300 9.91000 26.42900
N  40.79400 8.65000 31.09800
C  41.54300 9.57000 31.80400
C  41.04500 9.55000 33.29200
C  40.02500 8.31800 33.32800
C  39.89700 7.96800 31.84300
C  40.33500 7.06400 34.21200
C  40.49600 10.92400 33.68400
C  40.02300 11.10100 35.12800
H  40.81500 11.91500 36.18900
N  39.02300 7.61700 28.75400
C  38.51200 6.93500 29.88300
C  37.34800 6.13600 29.46700
C  37.19000 6.34300 28.06900
C  38.35900 7.14600 27.68100
C  36.40000 5.39700 30.36100
C  36.04500 5.95400 27.14700
O  36.07700 6.29500 25.94900
C  34.86400 5.02500 27.53100
N  40.83500 8.68200 26.67700
C  39.92200 7.97100 25.92200
C  40.27100 8.11000 24.40900
C  41.65600 8.93000 24.46000
C  41.83600 9.19600 25.96200
C  40.37100 6.73100 23.60900
C  41.74400 10.16700 23.53200
C  41.04200 11.53100 23.91800
N  42.32700 10.00600 28.77100
C  43.14600 10.36100 27.73500
C  44.20900 11.08200 28.16100
C  44.04000 11.23500 29.54000
C  42.88900 10.47400 29.88500
C  45.37600 11.47400 27.32200
C  44.54700 11.76400 30.79500
O  45.46900 12.51200 31.07600
C  43.61400 11.34000 31.91200
C  44.31200 10.78300 33.12400
O  44.46500 9.61100 33.32500
O  44.59900 11.74100 34.03300
C  45.08100 11.29100 35.32800
H  38.33700 6.65200 32.05100
H  38.10800 7.07200 25.55200
H  43.72200 10.16700 25.74200
H  41.93300 9.28000 33.86400
H  39.04600 8.75900 33.51900
H  41.28900 7.11800 34.73700
H  40.17600 6.19300 33.57600
H  39.53600 7.00400 34.95100
H  39.62600 11.00800 33.03200
H  41.20300 11.71700 33.43900
H  40.07600 10.10000 35.55600
H  39.01900 11.52300 35.17000
H  36.81000 5.44600 31.36900
H  36.14000 4.36700 30.11800
H  35.55800 6.08800 30.31800
H  35.31400 4.12800 27.95500
H  34.32300 4.59700 26.68800
H  34.24000 5.45100 28.31700
H  39.49700 8.69700 23.91500
H  42.44500 8.28500 24.07400
H  39.84400 6.83000 22.66000
H  39.88600 5.89700 24.11700
H  41.42300 6.58900 23.36000
H  41.38600 9.84000 22.55600
H  42.79000 10.41600 23.35200
H  40.41100 11.48000 24.80500
H  40.36100 11.84800 23.12800
H  41.82800 12.26800 24.08000
H  45.13400 12.02700 26.41500
H  45.97000 10.61100 27.02100
H  46.01000 12.08500 27.96500
H  43.04100 12.19900 32.26200
H  44.19400 10.95600 35.86600
H  45.62900 12.02000 35.92500
H  45.80000 10.48400 35.19200
Mg -5.67100 25.31600 26.34300
C  -4.09900 27.11900 28.90300
C  -6.76400 23.18300 28.75300
C  -6.87500 23.43700 23.86500
C  -4.06000 27.25000 24.03000
N  -5.37800 25.13000 28.50100
C  -4.95300 26.12000 29.29500
C  -5.44500 25.91600 30.71600
C  -5.97600 24.48800 30.67500
C  -6.04400 24.29700 29.19700
C  -5.19100 23.35200 31.41100
C  -6.40400 27.04500 31.05700
C  -6.50400 27.47200 32.54300
H  -6.00900 26.50800 33.57900
N  -6.73100 23.59400 26.30900
C  -7.11600 22.83700 27.38700
C  -7.96500 21.76600 26.97300
C  -8.08900 21.80700 25.51800
C  -7.16900 22.97200 25.16900
C  -8.83300 20.89700 27.86700
C  -8.81000 20.89300 24.51200
O  -8.84900 21.18000 23.30800
C  -9.56800 19.76700 24.84000
N  -5.39200 25.30900 24.24300
C  -6.09800 24.48300 23.44200
C  -5.72800 24.71100 21.92200
C  -5.05000 26.12500 22.02300
C  -4.79200 26.22400 23.49400
C  -4.82100 23.65100 21.33200
C  -5.90300 27.30700 21.47700
C  -5.84500 27.56200 19.97600
N  -4.26600 26.77100 26.40400
C  -3.73800 27.55900 25.39500
C  -2.87100 28.52300 25.92500
C  -3.01200 28.37900 27.34400
C  -3.86400 27.32300 27.55600
C  -2.17200 29.65700 25.15600
C  -2.61200 28.96100 28.58100
O  -1.93300 29.96800 28.74500
C  -3.41600 28.18700 29.75200
C  -2.50200 27.51500 30.74600
O  -1.70900 26.69100 30.41400
O  -2.71200 27.97600 32.01200
C  -1.97300 27.48000 33.11500
H  -7.05100 22.45100 29.51100
H  -7.45100 22.95300 23.07400
H  -3.50000 27.85400 23.31400
H  -4.58800 25.98200 31.38700
H  -6.94900 24.39700 31.15700
H  -5.94500 22.94700 32.08700
H  -4.49900 23.76100 32.14800
H  -4.72200 22.60700 30.76900
H  -7.38300 26.69000 30.73500
H  -6.18900 27.94400 30.48000
H  -7.57500 27.58500 32.71100
H  -5.90600 28.35500 32.76700
H  -8.70400 21.21600 28.90100
H  -8.54100 19.84800 27.81700
H  -9.90000 21.04300 27.69800
H  -9.86600 19.17700 23.97300
H  -10.49000 20.02900 25.35900
H  -8.90800 19.12700 25.42400
H  -6.59700 24.86400 21.28200
H  -4.20600 26.13700 21.33400
H  -4.75500 22.73800 21.92400
H  -3.81100 23.92700 21.03100
H  -5.34800 23.29700 20.44500
H  -5.57100 28.23000 21.95200
H  -6.98100 27.21600 21.61600
H  -5.24300 26.82800 19.44100
H  -5.45300 28.55900 19.77500
H  -6.81000 27.33000 19.52600
H  -1.43000 30.22100 25.72100
H  -2.84200 30.32400 24.61400
H  -1.62100 29.26900 24.29900
H  -4.13700 28.82300 30.26700
H  -1.18000 26.80000 32.80400
H  -2.68600 27.04000 33.81200
H  -1.46000 28.33500 33.55700

