158

Mg 17.78000 -0.85100 27.93700
C  16.22400 1.01200 30.52500
C  19.74900 -2.29100 30.36700
C  19.38600 -2.51200 25.50400
C  15.86000 0.76500 25.72600
N  17.72800 -0.79600 30.34200
C  17.15100 0.06200 31.11400
C  17.67700 -0.15200 32.56800
C  18.84700 -1.19200 32.48400
C  18.77200 -1.46700 30.94900
C  20.17200 -0.62600 32.95300
C  16.43900 -0.57900 33.53100
C  16.41400 0.24400 34.81400
H  17.71800 0.81500 35.36000
N  19.28600 -2.31600 27.95700
C  19.90700 -2.86400 29.07600
C  20.85000 -3.80200 28.68100
C  20.77500 -3.87600 27.24600
C  19.79300 -2.90100 26.82500
C  21.74800 -4.66700 29.61700
C  21.44100 -4.79300 26.26900
O  21.20900 -4.67200 25.04400
C  22.49300 -5.81800 26.75600
N  17.57800 -0.94900 25.87900
C  18.45500 -1.61200 25.06400
C  18.22800 -1.23700 23.59500
C  17.03500 -0.20400 23.64100
C  16.78400 -0.09200 25.14600
C  19.48200 -0.67200 22.89100
C  15.76300 -0.66700 22.89900
C  15.11600 0.35500 21.99300
N  16.36100 0.57400 28.02800
C  15.65800 1.08500 27.06400
C  14.68200 2.04300 27.57000
C  14.96700 2.08100 28.88000
C  15.94600 1.12600 29.12900
C  13.59700 2.86900 26.88300
C  14.68000 2.70200 30.18800
O  13.97800 3.63600 30.49500
C  15.48800 2.02400 31.27400
C  16.27500 3.00300 32.06900
O  17.46400 3.18000 31.84500
O  15.51400 3.68800 32.99400
C  16.26900 4.63100 33.83200
H  20.35500 -2.76900 31.13900
H  19.84000 -3.06200 24.67700
H  15.29400 1.39100 25.03300
H  18.16900 0.76400 32.89400
H  18.57700 -2.13100 32.96800
H  20.75300 -1.45700 33.35300
H  20.08200 0.21700 33.63900
H  20.68800 -0.19500 32.09500
H  16.43300 -1.63300 33.80900
H  15.51800 -0.53100 32.95000
H  16.00200 -0.42000 35.57300
H  15.67800 1.04600 34.75500
H  21.44300 -5.71400 29.61500
H  21.59500 -4.29600 30.63000
H  22.80400 -4.64400 29.34600
H  22.15100 -6.50000 27.53400
H  23.39300 -5.35400 27.16000
H  22.79100 -6.44500 25.91700
H  17.96400 -2.17700 23.11000
H  17.28500 0.79600 23.28600
H  20.30400 -0.62800 23.60600
H  19.41100 0.33000 22.46800
H  19.65400 -1.33700 22.04500
H  15.00600 -0.95000 23.63000
H  16.05000 -1.45500 22.20200
H  14.47500 -0.01900 21.19400
H  15.94400 0.93300 21.58100
H  14.38900 0.93300 22.56300
H  13.44800 2.43400 25.89400
H  13.76900 3.94500 26.87000
H  12.66400 2.65300 27.40400
H  14.62700 1.54500 31.74100
H  16.76200 5.35800 33.18600
H  16.86000 4.17400 34.62600
H  15.62600 5.35400 34.33400
Mg -6.03100 25.57800 24.59100
C  -4.31800 26.44800 27.41400
C  -7.74000 23.13900 26.59100
C  -7.23800 24.00900 21.73700
C  -4.01500 27.49900 22.60700
N  -6.14100 24.89700 26.72700
C  -5.27600 25.46700 27.68100
C  -5.71900 25.09300 29.06200
C  -6.61100 23.82500 28.87500
C  -6.88400 23.95400 27.33000
C  -5.91600 22.45800 29.27200
C  -6.53200 26.28000 29.73900
C  -6.27600 26.55600 31.25000
H  -5.66900 25.45700 32.14200
N  -7.41600 23.86400 24.22300
C  -8.03200 23.06100 25.21000
C  -8.82100 22.06400 24.53100
C  -8.71500 22.28100 23.10200
C  -7.71900 23.35600 22.94100
C  -9.75300 21.08900 25.22600
C  -9.46400 21.64600 21.93400
O  -9.19200 21.86800 20.74700
C  -10.61300 20.60900 22.16800
N  -5.73200 25.69600 22.46600
C  -6.34200 25.05000 21.51800
C  -6.08100 25.66500 20.10700
C  -5.16700 26.85600 20.42700
C  -4.95500 26.71800 21.93800
C  -5.47900 24.63300 19.06700
C  -5.73900 28.34100 20.08200
C  -6.36200 28.47400 18.64400
N  -4.44000 26.79500 24.88900
C  -3.74800 27.54400 24.03200
C  -2.77100 28.30500 24.80100
C  -3.01600 27.98600 26.09400
C  -3.94900 26.95800 26.11800
C  -1.85900 29.38800 24.29400
C  -2.65300 28.28500 27.50900
O  -1.92200 29.13200 28.01200
C  -3.60800 27.32800 28.35300
C  -2.67700 26.57600 29.28400
O  -2.15500 25.48100 29.06500
O  -2.48500 27.36300 30.39900
C  -1.63400 26.91400 31.49700
H  -8.29600 22.42700 27.20400
H  -7.61100 23.69600 20.76000
H  -3.48400 28.15300 21.91200
H  -4.85000 24.79000 29.64600
H  -7.56800 23.90200 29.39100
H  -5.74600 21.75600 28.45500
H  -6.48100 21.95700 30.05800
H  -4.94800 22.74200 29.68600
H  -7.61800 26.18400 29.72600
H  -6.41600 27.16000 29.10600
H  -7.20600 26.88500 31.71400
H  -5.57700 27.38900 31.31600
H  -9.45700 21.07900 26.27500
H  -9.67700 20.08000 24.81900
H  -10.78800 21.42900 25.20700
H  -11.30800 20.59400 21.32900
H  -11.17300 21.01000 23.01300
H  -10.15800 19.62300 22.25700
H  -7.03300 26.09000 19.78800
H  -4.32800 26.83800 19.73200
H  -4.98600 23.77800 19.53000
H  -4.74200 25.17400 18.47400
H  -6.31800 24.35900 18.42700
H  -4.96400 29.10100 20.17600
H  -6.48400 28.58400 20.83900
H  -6.06700 29.38700 18.12700
H  -7.44400 28.58000 18.71600
H  -6.04200 27.64600 18.01200
H  -2.39100 30.33700 24.35800
H  -1.52200 29.20700 23.27300
H  -0.99600 29.26900 24.94900
H  -4.30500 27.88000 28.98300
H  -1.16600 25.94200 31.34500
H  -2.36400 26.78800 32.29700
H  -0.88600 27.69500 31.63400

