158

Mg 44.77200 4.12300 47.21400
C  42.90600 7.10700 46.95500
C  41.88300 2.35300 47.42600
C  46.55400 1.45200 46.70100
C  47.64100 6.14300 46.73600
N  42.62700 4.68000 47.01400
C  42.18000 5.94100 46.84800
C  40.70600 5.78800 46.54400
C  40.25700 4.32300 46.99200
C  41.72600 3.75300 47.14100
C  39.46700 4.21500 48.30400
C  40.48200 6.08500 45.05100
C  39.37700 7.06600 44.64100
H  39.83400 8.10700 43.74000
N  44.31700 2.10000 47.12400
C  43.04100 1.58900 47.30800
C  43.10900 0.15300 47.17600
C  44.44800 -0.17200 46.90700
C  45.21500 1.16900 46.90900
C  41.93100 -0.86800 47.17400
C  44.93400 -1.57800 46.73400
O  44.23500 -2.50600 47.11700
C  46.35600 -1.92700 46.42500
N  46.93400 3.78000 47.06700
C  47.32800 2.57800 46.73300
C  48.81400 2.64200 46.34200
C  49.26000 4.14800 46.50600
C  47.84600 4.78300 46.74600
C  49.74600 1.57400 47.13700
C  49.95500 4.88100 45.29500
C  51.28600 5.56700 45.71600
N  45.25500 6.17500 47.11600
C  46.42600 6.86300 46.93000
C  46.23400 8.25800 47.08100
C  44.82200 8.45600 47.21500
C  44.28500 7.12600 47.06600
C  47.27400 9.31600 46.88400
C  43.82100 9.43400 47.32800
O  43.83200 10.63900 47.45700
C  42.48600 8.53200 47.06900
C  41.55600 8.73900 48.19600
O  41.33300 8.01800 49.15000
O  40.89200 9.95800 47.91700
C  39.91500 10.47700 48.85300
H  40.98400 1.75400 47.58700
H  47.06100 0.53900 46.37900
H  48.43000 6.83700 46.43800
H  40.07500 6.45900 47.12600
H  39.70200 3.89600 46.15700
H  40.13600 4.65300 49.04500
H  39.08300 3.22700 48.55700
H  38.55700 4.80000 48.17100
H  40.20000 5.12700 44.61600
H  41.37600 6.31900 44.47300
H  38.92500 7.55500 45.50400
H  38.63700 6.47000 44.10700
H  40.96700 -0.40600 47.38700
H  42.02800 -1.73200 47.83200
H  41.97800 -1.15700 46.12400
H  46.98500 -1.46300 47.18600
H  46.36300 -1.58000 45.39200
H  46.56800 -2.99300 46.50300
H  48.84100 2.33400 45.29700
H  49.88000 4.28900 47.39100
H  49.13600 0.78700 47.58000
H  50.24000 2.09400 47.95700
H  50.43100 1.03500 46.48300
H  49.33800 5.59000 44.74300
H  50.31700 4.08100 44.64900
H  51.28100 6.65600 45.76900
H  52.07300 5.25000 45.03200
H  51.48000 5.05100 46.65600
H  46.82700 10.30600 46.79600
H  47.85200 9.18700 45.96900
H  47.94900 9.15600 47.72500
H  41.94200 8.76700 46.15400
H  40.25700 11.28400 49.50100
H  39.40900 9.68000 49.39800
H  39.06200 10.81900 48.26700
Mg 47.89500 15.28900 27.79800
C  46.10600 15.19600 30.67800
C  50.11500 17.61600 29.28200
C  49.52300 15.56100 24.89000
C  45.15400 13.95200 26.18800
N  48.16700 16.21500 29.75100
C  47.33500 15.92600 30.78800
C  47.97400 16.34500 32.10500
C  49.24600 17.24400 31.70900
C  49.08800 17.07900 30.18100
C  49.21600 18.76500 32.15100
C  48.32400 15.18300 33.08000
C  48.25100 15.50600 34.58400
H  48.54800 16.90300 35.07100
N  49.71800 16.31300 27.18800
C  50.47100 17.21300 27.92600
C  51.59600 17.66200 27.09200
C  51.49200 17.01500 25.87600
C  50.24000 16.24400 25.94900
C  52.63100 18.75900 27.49100
C  52.44700 17.08700 24.70100
O  52.21500 16.44300 23.68200
C  53.88300 17.70500 24.81700
N  47.45500 14.76400 25.80500
C  48.27000 14.96900 24.76100
C  47.45500 14.83900 23.39100
C  46.12800 14.18000 23.81900
C  46.22600 14.27900 25.34900
C  47.28900 16.15500 22.54800
C  45.89200 12.67300 23.43400
C  46.41900 11.51300 24.39400
N  46.10300 14.60800 28.28500
C  45.06200 14.11000 27.55100
C  43.89000 13.90600 28.32200
C  44.25300 14.28500 29.63300
C  45.59700 14.67900 29.51700
C  42.55200 13.34700 27.80800
C  43.87300 14.41300 31.05900
O  42.80700 14.19500 31.57800
C  45.04300 14.94900 31.77300
C  44.69200 16.17300 32.47300
O  44.64900 17.27000 31.99000
O  44.37000 15.84100 33.77300
C  43.76100 16.86500 34.59900
H  50.87400 18.17400 29.83400
H  50.02300 15.52800 23.92000
H  44.26400 13.64300 25.63400
H  47.22300 16.98800 32.56400
H  50.15800 16.71500 31.98700
H  48.24900 19.06800 32.55200
H  49.35000 19.53500 31.39200
H  50.04000 18.88900 32.85400
H  49.32100 14.89300 32.74700
H  47.58300 14.44300 32.77800
H  48.98700 14.81000 34.98400
H  47.35900 15.24700 35.15500
H  53.49600 18.39600 28.04700
H  52.17800 19.46900 28.18200
H  53.14500 19.22700 26.65100
H  53.93300 18.79000 24.72500
H  54.45000 17.36100 23.95200
H  54.43600 17.25200 25.64000
H  48.04200 14.24400 22.69000
H  45.34600 14.81700 23.40600
H  47.46600 17.00600 23.20600
H  46.24100 16.26700 22.27300
H  48.02600 16.05000 21.75100
H  46.24000 12.28400 22.47800
H  44.80900 12.62100 23.32500
H  45.59400 11.17500 25.02000
H  47.28000 11.80400 24.99700
H  46.61400 10.65800 23.74600
H  42.77600 12.35500 27.41500
H  42.24900 13.89000 26.91200
H  41.79200 13.21600 28.57800
H  45.19100 14.13100 32.47900
H  43.40600 17.70100 33.99700
H  44.63300 17.13600 35.19500
H  43.02200 16.33300 35.19900

