158

Mg 40.54000 9.06700 29.89900
C  42.35900 10.44900 32.63200
C  38.63000 7.34600 31.93100
C  39.05900 7.85700 27.14400
C  43.03700 10.55800 27.84000
N  40.63300 8.80500 32.05400
C  41.29100 9.55000 33.04900
C  40.84300 9.16700 34.50800
C  39.74000 8.12900 34.25900
C  39.61300 8.08400 32.63100
C  40.07200 6.70500 34.78500
C  40.46400 10.40100 35.39900
C  39.86800 10.23600 36.76400
H  40.35300 11.10300 37.93000
N  39.03800 7.73500 29.53500
C  38.19600 7.25400 30.58200
C  37.10400 6.49300 29.99500
C  37.18400 6.73300 28.58600
C  38.45700 7.44300 28.36600
C  36.01000 5.79000 30.76300
C  36.28600 6.20800 27.49300
O  36.49800 6.39200 26.26000
C  35.10700 5.31600 27.84100
N  41.07500 9.05700 27.77700
C  40.18400 8.67500 26.88400
C  40.70500 8.88200 25.47500
C  41.84100 9.84200 25.67200
C  41.96700 9.92200 27.18300
C  40.81600 7.64300 24.60500
C  41.75200 11.26200 24.99900
C  42.71700 11.52400 23.88600
N  42.37700 10.11700 30.08700
C  43.25000 10.63100 29.23600
C  44.23700 11.46600 29.88700
C  43.94200 11.47100 31.24300
C  42.80400 10.58800 31.32800
C  45.38400 12.16300 29.28200
C  44.34300 11.93700 32.51900
O  45.15500 12.75000 32.84700
C  43.42200 11.21300 33.53600
C  44.10200 10.26400 34.47000
O  44.81700 9.41100 34.00600
O  43.75600 10.46500 35.79300
C  44.00800 9.39400 36.79400
H  37.94600 6.87000 32.63600
H  38.61300 7.57800 26.18700
H  43.74800 11.08400 27.20000
H  41.66100 8.62900 34.99000
H  38.76900 8.43400 34.64800
H  40.19300 6.04900 33.92200
H  39.31600 6.27700 35.44200
H  41.02000 6.68300 35.32400
H  39.74400 10.99600 34.83700
H  41.39600 10.91700 35.62900
H  39.79900 9.18600 37.04900
H  38.82300 10.54600 36.72700
H  36.20600 6.07100 31.79800
H  36.08700 4.71200 30.62100
H  35.00600 6.15400 30.54500
H  34.37500 5.77400 28.50700
H  35.50700 4.45200 28.37200
H  34.60900 4.95600 26.94100
H  39.93600 9.38100 24.88500
H  42.77000 9.36000 25.36700
H  40.44400 6.72300 25.05600
H  41.88500 7.44900 24.51600
H  40.41400 7.94900 23.63900
H  41.75900 12.05400 25.74700
H  40.73500 11.39400 24.62900
H  43.22800 12.43500 24.19600
H  42.32500 11.70800 22.88500
H  43.58600 10.86600 23.88300
H  45.72000 11.73000 28.34000
H  46.17500 12.47500 29.96400
H  44.89800 13.07500 28.93700
H  42.97300 12.00000 34.14400
H  43.54900 9.52300 37.77400
H  45.07500 9.35300 37.00900
H  43.76400 8.45100 36.30400
Mg 53.12600 22.98800 44.04700
C  50.67400 25.40500 43.46800
C  50.97200 20.53700 43.03300
C  55.76000 20.94300 44.01300
C  55.24200 25.55700 45.37200
N  51.13900 23.02900 43.09800
C  50.31700 24.11500 43.05600
C  49.06200 23.68400 42.23900
C  49.02700 22.15400 42.50800
C  50.43800 21.86300 42.85500
C  48.12100 21.74400 43.72900
C  49.22000 23.95000 40.73300
C  47.95600 23.92700 39.99600
H  47.82700 23.30500 38.58100
N  53.35700 20.98800 43.59200
C  52.32400 20.13900 43.27400
C  52.86200 18.80300 43.09700
C  54.29500 18.90400 43.32000
C  54.53200 20.34300 43.66400
C  52.03600 17.63400 42.79300
C  55.30200 17.71600 43.28000
O  54.77400 16.57800 43.18000
C  56.76100 17.81100 43.39500
N  55.21600 23.25500 44.48800
C  56.08700 22.24800 44.33600
C  57.51500 22.66500 44.68700
C  57.35700 24.12300 45.23700
C  55.90200 24.35600 45.04200
C  58.29500 21.72100 45.65600
C  58.27400 25.28600 44.75500
C  59.07500 26.01800 45.78600
N  52.97700 25.07700 44.38400
C  53.84400 25.95500 45.04600
C  53.21900 27.20600 45.20100
C  51.95300 27.10900 44.54900
C  51.91900 25.74700 44.06800
C  53.80200 28.40600 45.85700
C  50.71100 27.74900 44.15800
O  50.23600 28.84700 44.32800
C  49.90500 26.71200 43.33300
C  49.70900 27.21700 41.99000
O  50.53500 27.21800 41.05000
O  48.41400 27.54300 41.86800
C  47.96300 27.99100 40.56700
H  50.17900 19.79800 42.89900
H  56.59300 20.25500 43.85300
H  55.89500 26.33600 45.77200
H  48.14900 24.15200 42.61000
H  48.71300 21.66100 41.58700
H  47.94200 22.67600 44.26500
H  48.58900 20.97500 44.34300
H  47.20300 21.28400 43.36200
H  49.91200 23.18300 40.38400
H  49.69300 24.90900 40.52100
H  47.62900 24.95700 39.85500
H  47.16000 23.41800 40.54000
H  52.32700 17.23500 41.82200
H  50.97300 17.87600 42.79800
H  52.27200 16.91800 43.58100
H  57.09300 18.59200 42.71100
H  57.20500 16.91700 42.95600
H  57.08500 17.96700 44.42400
H  57.95300 22.63500 43.69000
H  57.50600 24.12500 46.31700
H  58.66800 22.26500 46.52300
H  59.19800 21.33000 45.18800
H  57.63700 20.90400 45.95200
H  57.59600 26.00800 44.30000
H  58.99100 24.89500 44.03300
H  60.13600 25.77400 45.73400
H  58.61300 25.83000 46.75600
H  59.04100 27.09100 45.59700
H  53.59100 28.34400 46.92500
H  53.26300 29.30900 45.56800
H  54.88700 28.50500 45.82700
H  48.94300 26.66700 43.84500
H  47.81600 29.07100 40.58200
H  47.04300 27.45100 40.34500
H  48.69000 27.77100 39.78600

