158

Mg 0.96500 7.60000 26.93600
C  1.26200 9.67500 29.67000
C  0.86100 4.87400 29.17800
C  0.27400 5.45800 24.30100
C  1.00200 10.16400 24.87800
N  1.13600 7.28000 29.18300
C  1.13600 8.36700 30.07500
C  1.11700 7.86400 31.48400
C  1.16200 6.31200 31.32100
C  1.03700 6.08200 29.80700
C  2.42600 5.57100 31.94300
C  -0.15300 8.30900 32.31700
C  -0.14300 8.36200 33.82600
H  1.11100 7.97400 34.61800
N  0.69300 5.52900 26.80200
C  0.64500 4.54600 27.79000
C  0.45700 3.25300 27.21100
C  0.26300 3.45400 25.84900
C  0.41400 4.86000 25.56800
C  0.54600 2.02800 28.16200
C  -0.11200 2.43300 24.76600
O  -0.24300 2.59100 23.60100
C  -0.43400 1.05400 25.24200
N  0.94900 7.71300 24.88800
C  0.53700 6.77500 23.99600
C  0.46200 7.31700 22.53300
C  0.35600 8.84400 22.86500
C  0.78200 8.94400 24.25700
C  1.70900 7.14000 21.58400
C  -1.07800 9.47300 22.89200
C  -1.50100 10.01300 21.51400
N  1.05400 9.53200 27.18200
C  1.08400 10.49100 26.21800
C  1.33000 11.75500 26.78700
C  1.40000 11.53200 28.17800
C  1.17000 10.15800 28.36500
C  1.46400 13.03000 25.95600
C  1.63000 12.12600 29.46700
O  1.95000 13.27900 29.78000
C  1.41300 10.89100 30.47900
C  2.55200 10.83100 31.47700
O  3.68300 10.64900 31.14300
O  2.08100 11.37900 32.67300
C  2.95600 11.84100 33.74100
H  0.52800 4.10200 29.87500
H  0.03800 4.88700 23.40000
H  1.07600 10.91600 24.09000
H  2.00700 8.13200 32.05400
H  0.31800 5.79800 31.78100
H  2.21000 5.36800 32.99200
H  3.26800 6.24700 31.79600
H  2.68200 4.65100 31.41800
H  -1.00300 7.68000 32.05100
H  -0.42500 9.31900 32.00900
H  -0.92800 7.69300 34.17900
H  -0.45800 9.39600 33.96600
H  -0.47900 1.78100 28.44000
H  1.01900 2.31900 29.10000
H  1.09700 1.19600 27.72300
H  0.48400 0.52000 25.48700
H  -0.76500 0.46200 24.38900
H  -1.17700 1.06300 26.04000
H  -0.50200 7.03200 22.11300
H  1.02800 9.46300 22.27000
H  2.22300 6.22400 21.87700
H  2.47900 7.90700 21.50000
H  1.19900 7.02800 20.62800
H  -1.13600 10.26900 23.63500
H  -1.89400 8.81800 23.19600
H  -2.42000 9.50600 21.22100
H  -0.73000 9.81600 20.76900
H  -1.63400 11.09400 21.48200
H  1.22300 13.78500 26.70500
H  0.75400 13.15200 25.13800
H  2.48000 13.14200 25.57800
H  0.50500 10.99700 31.07300
H  3.71200 12.45100 33.24700
H  3.33600 11.11900 34.46400
H  2.37500 12.62000 34.23500
Mg 9.49700 47.58000 25.60900
C  7.57800 47.32600 28.63100
C  11.96700 49.06700 27.48000
C  11.14000 48.04400 22.77700
C  6.61000 46.63100 23.84000
N  9.75300 48.13800 27.86400
C  8.90600 47.83400 28.92400
C  9.47900 48.22300 30.20200
C  10.62500 49.25700 29.70300
C  10.83800 48.80100 28.31800
C  10.16000 50.75500 29.98300
C  9.94100 47.03700 31.10600
C  9.36900 47.08000 32.50900
H  9.41500 45.85400 33.45800
N  11.33300 48.32000 25.25700
C  12.19700 48.84600 26.10200
C  13.37100 49.33600 25.35700
C  13.14300 48.98500 24.02900
C  11.84100 48.40800 23.94900
C  14.57700 49.88100 26.00200
C  14.11600 49.01300 22.83200
O  13.84600 48.57500 21.72000
C  15.44800 49.58700 23.01900
N  8.91100 47.32500 23.63100
C  9.80400 47.52900 22.57500
C  9.16700 47.38100 21.17600
C  7.88700 46.49600 21.52700
C  7.82400 46.81500 23.10300
C  8.77800 48.74100 20.44300
C  8.05400 44.99500 21.32000
C  7.62400 44.42400 19.97300
N  7.50200 47.04600 26.07400
C  6.44700 46.75000 25.25600
C  5.26800 46.57000 25.99800
C  5.64300 46.75400 27.33200
C  7.07200 47.05600 27.34100
C  3.82400 46.20100 25.46200
C  5.21100 46.67700 28.68900
O  4.09500 46.34700 29.12800
C  6.44000 47.13800 29.60900
C  6.77800 46.02900 30.53900
O  7.53000 45.07400 30.35500
O  5.92300 46.12800 31.68100
C  5.75400 45.04200 32.60300
H  12.73000 49.59500 28.05500
H  11.52700 48.24800 21.77700
H  5.68800 46.40500 23.30100
H  8.69000 48.77000 30.71900
H  11.50300 48.98700 30.29000
H  9.41100 50.68600 30.77200
H  9.79600 51.07900 29.00800
H  11.01500 51.31500 30.36200
H  11.01300 47.16900 31.25300
H  9.86500 46.08400 30.58400
H  8.39800 47.57500 32.52200
H  10.09000 47.73600 32.99500
H  14.26200 50.31100 26.95300
H  14.94800 50.79100 25.53100
H  15.35900 49.13600 26.14500
H  16.07400 49.45000 22.13800
H  15.92500 49.13500 23.88900
H  15.22800 50.63900 23.20200
H  9.84100 46.85500 20.50100
H  7.01600 46.95900 21.06400
H  7.72000 48.88900 20.22900
H  9.52000 48.86400 19.65400
H  9.00200 49.56800 21.11700
H  7.55400 44.43500 22.11100
H  9.07600 44.66400 21.50600
H  7.25200 45.32100 19.47900
H  6.80800 43.72900 20.17200
H  8.44500 43.90000 19.48400
H  3.22300 45.42500 25.93400
H  3.81500 45.91300 24.41100
H  3.23800 47.11700 25.38500
H  6.08700 47.99400 30.18400
H  6.01500 45.38100 33.60600
H  6.32200 44.14600 32.35300
H  4.78600 44.54800 32.69100

