158

Mg 1.01600 8.03200 27.92400
C  1.37200 10.21100 30.51900
C  1.39300 5.35900 30.00600
C  1.64900 6.07900 25.21600
C  1.15900 10.80000 25.71200
N  1.49000 7.83800 30.02700
C  1.33100 8.85600 30.92000
C  1.34100 8.31400 32.40500
C  1.48000 6.79100 32.18800
C  1.41800 6.66800 30.63500
C  2.83100 6.19500 32.72000
C  0.15700 8.79100 33.27400
C  0.49700 9.16300 34.76400
H  0.04900 8.12500 35.73600
N  1.28600 5.97300 27.63700
C  1.34100 5.05100 28.58000
C  1.45300 3.78000 28.02200
C  1.62500 3.98200 26.61600
C  1.52200 5.39800 26.44700
C  1.36600 2.50600 28.86300
C  1.72900 2.90000 25.39600
O  1.95400 3.12500 24.25900
C  1.64600 1.46000 25.83400
N  1.23200 8.33800 25.85900
C  1.45800 7.37200 24.87600
C  1.75600 7.88400 23.47600
C  1.34500 9.36300 23.59200
C  1.20400 9.51900 25.15300
C  3.24400 7.58000 23.03800
C  0.15500 9.81900 22.71200
C  -1.28200 9.39700 23.09200
N  1.22700 10.14200 28.01400
C  1.20900 11.07000 27.11100
C  1.42600 12.30300 27.71600
C  1.58000 12.11400 29.06300
C  1.34300 10.69100 29.18600
C  1.41000 13.64000 27.10200
C  1.87200 12.67900 30.42600
O  2.20700 13.82800 30.79200
C  1.63600 11.43700 31.43200
C  2.80300 11.35000 32.28200
O  3.92900 10.95300 31.94200
O  2.57600 11.95800 33.51700
C  3.71300 12.25400 34.37800
H  1.32200 4.60100 30.79000
H  1.97700 5.54100 24.32400
H  1.28400 11.66700 25.06000
H  2.23900 8.78900 32.80000
H  0.64900 6.17400 32.52900
H  3.29800 5.71800 31.85800
H  2.59500 5.46500 33.49400
H  3.56300 6.90400 33.10800
H  -0.51500 7.93400 33.24000
H  -0.32200 9.64000 32.78700
H  0.10900 10.16500 34.94600
H  1.58300 9.21800 34.84000
H  2.18700 1.86500 28.54200
H  0.44700 2.11400 28.42800
H  1.32000 2.56100 29.95100
H  2.50900 1.24400 26.46400
H  1.68000 0.81900 24.95300
H  0.70400 1.21700 26.32600
H  1.10300 7.33900 22.79500
H  2.24300 9.93000 23.34400
H  3.90300 7.39300 23.88700
H  3.60600 8.48000 22.54000
H  3.38200 6.83000 22.26000
H  0.36800 9.38600 21.73400
H  0.23000 10.88800 22.51100
H  -1.76600 8.67400 22.43600
H  -1.84600 10.32800 23.16100
H  -1.35200 9.06300 24.12700
H  0.75900 14.39200 27.54900
H  1.14600 13.58400 26.04600
H  2.39400 14.09500 27.21600
H  0.78100 11.75500 32.02900
H  4.23600 13.13800 34.01400
H  4.46900 11.47800 34.50500
H  3.24800 12.67600 35.26900
Mg 25.71200 1.81800 29.36300
C  27.52300 1.42300 32.36000
C  22.89600 2.23300 31.22100
C  24.07600 2.12500 26.54100
C  28.60800 1.09600 27.67500
N  25.32000 1.79500 31.55200
C  26.14900 1.70900 32.57100
C  25.45100 1.89100 33.96600
C  23.92800 2.04500 33.53700
C  24.05500 2.01500 32.01600
C  23.09300 0.81400 33.98500
C  26.05800 3.12500 34.58300
C  26.82100 2.97500 35.97200
H  26.55700 4.06200 37.07300
N  23.80100 2.24600 29.01100
C  22.73800 2.19800 29.84700
C  21.46200 2.47000 29.14900
C  21.76100 2.42800 27.76000
C  23.26000 2.23000 27.72600
C  20.13000 2.69000 29.88800
C  20.81900 2.76200 26.61800
O  21.12500 2.77200 25.42100
C  19.35300 2.95800 26.96300
N  26.22500 1.40300 27.39400
C  25.41300 1.74700 26.35200
C  26.09000 1.59400 24.96500
C  27.57600 1.45200 25.37600
C  27.48000 1.33100 26.90800
C  25.46400 0.48600 24.04500
C  28.52100 2.63900 24.90700
C  29.67000 2.23700 23.99400
N  27.66500 1.25900 29.81700
C  28.75500 0.98400 29.06400
C  29.95500 0.71700 29.85200
C  29.42700 0.76400 31.16900
C  28.10100 1.14600 31.04100
C  31.34200 0.48400 29.35700
C  29.79200 0.62300 32.63000
O  30.78900 0.26300 33.19900
C  28.50900 0.99200 33.38700
C  28.13700 -0.11100 34.35200
O  27.36300 -1.00700 34.05800
O  28.87200 -0.00700 35.54600
C  28.41300 -0.86100 36.67800
H  22.01700 2.36700 31.85600
H  23.59100 2.27500 25.57400
H  29.49400 0.77100 27.12500
H  25.55000 0.92700 34.46500
H  23.45300 2.93300 33.95300
H  23.17500 -0.08500 33.37500
H  22.05500 1.14700 33.97800
H  23.22800 0.44300 35.00100
H  25.27000 3.79200 34.93200
H  26.63100 3.66100 33.82700
H  27.88500 2.93000 35.73900
H  26.59300 1.96800 36.32100
H  19.74800 3.70300 29.76100
H  20.18400 2.34600 30.92100
H  19.48800 2.04400 29.28900
H  18.81700 3.46200 26.15900
H  19.15100 3.64900 27.78200
H  18.86000 1.98900 27.04700
H  25.94200 2.51300 24.39800
H  27.86100 0.50100 24.92500
H  24.57200 0.06600 24.50900
H  26.19600 -0.25000 23.71200
H  25.04900 1.02800 23.19500
H  28.98200 3.10400 25.77900
H  27.89500 3.30300 24.31100
H  29.56500 2.82800 23.08400
H  29.61800 1.20300 23.65300
H  30.63100 2.36000 24.49300
H  32.05500 0.91200 30.06200
H  31.42400 0.89200 28.34900
H  31.56400 -0.58100 29.29700
H  28.78100 1.83900 34.01800
H  28.67500 -1.89200 36.44300
H  27.36300 -0.69000 36.91200
H  29.01500 -0.62900 37.55700

