158

Mg -1.98900 18.15900 27.44800
C  -2.55900 16.02400 30.22000
C  -2.71500 20.88800 29.44300
C  -2.36900 20.02000 24.68100
C  -1.98100 15.32300 25.50300
N  -2.56900 18.40700 29.55600
C  -2.61400 17.37000 30.57100
C  -2.71900 17.91200 31.97800
C  -3.11200 19.43700 31.63700
C  -2.75900 19.62100 30.12200
C  -4.57500 19.79700 32.00200
C  -1.43000 17.87800 32.88600
C  -1.57300 17.10400 34.26000
H  -0.43200 17.15800 35.19000
N  -2.22200 20.22500 27.09900
C  -2.55600 21.16800 28.08100
C  -2.66300 22.49000 27.40800
C  -2.37800 22.23000 26.03600
C  -2.29100 20.76300 25.83000
C  -2.98600 23.74600 28.20300
C  -2.29000 23.27800 24.88900
O  -1.98000 22.94500 23.79500
C  -2.30200 24.74300 25.15900
N  -2.10100 17.69600 25.37200
C  -2.31200 18.68700 24.44700
C  -2.32600 18.08600 22.99000
C  -2.29400 16.59000 23.32600
C  -1.97600 16.49800 24.80800
C  -3.51100 18.46100 22.09600
C  -1.31400 15.71400 22.45000
C  0.15200 15.55200 22.88500
N  -2.11300 16.11800 27.72700
C  -2.06900 15.10400 26.87700
C  -2.06800 13.78800 27.50900
C  -2.30000 14.13700 28.83100
C  -2.27700 15.55700 28.92700
C  -1.92900 12.39400 26.99900
C  -2.53700 13.58000 30.09100
O  -2.65100 12.43900 30.35800
C  -2.70200 14.77700 31.16500
C  -1.73300 14.59000 32.23800
O  -0.62500 15.02600 32.27600
O  -2.26500 13.74000 33.14500
C  -1.28300 13.08000 34.08000
H  -2.90800 21.62900 30.22200
H  -2.54500 20.58500 23.76300
H  -2.19600 14.39000 24.97700
H  -3.55800 17.44100 32.49100
H  -2.48300 20.09500 32.23600
H  -4.63700 20.60300 32.73300
H  -5.11500 18.92000 32.35800
H  -5.01500 20.26700 31.12200
H  -1.11500 18.85300 33.25900
H  -0.59300 17.45900 32.32700
H  -1.99200 16.09900 34.21000
H  -2.29100 17.63600 34.88400
H  -4.00700 23.88600 27.84700
H  -2.33400 24.57400 27.92500
H  -2.97100 23.56900 29.27800
H  -2.48600 25.43600 24.33700
H  -1.35000 24.96500 25.64100
H  -3.11600 25.04200 25.82000
H  -1.33000 18.32400 22.61800
H  -3.26900 16.10800 23.25200
H  -4.27800 17.69100 22.01700
H  -3.20200 18.77000 21.09700
H  -4.11300 19.30600 22.43200
H  -1.24200 16.12200 21.44100
H  -1.79600 14.73800 22.39000
H  0.31100 14.48900 23.06700
H  0.23800 15.92400 23.90700
H  0.90200 15.99000 22.22600
H  -1.02600 12.15600 26.43700
H  -2.85100 12.19400 26.45200
H  -1.96900 11.73400 27.86600
H  -3.71100 14.94700 31.54200
H  -0.77000 12.30300 33.51400
H  -1.83600 12.65000 34.91500
H  -0.50800 13.66500 34.57600
Mg 9.02500 4.82000 27.90400
C  10.21700 3.00300 30.60300
C  7.01900 6.61200 30.08000
C  7.46500 6.26500 25.17400
C  10.68200 2.64000 25.71600
N  8.55400 4.70400 30.10800
C  9.30900 4.02300 31.02500
C  8.83600 4.33300 32.50700
C  7.89200 5.44500 32.21300
C  7.85000 5.59000 30.69000
C  6.50600 5.46200 32.90600
C  10.10500 4.47500 33.44800
C  9.75500 5.37800 34.59100
H  10.61200 5.28000 35.89800
N  7.64200 6.35700 27.68000
C  6.94500 6.99600 28.66400
C  6.16300 8.06200 28.04800
C  6.26900 7.96800 26.63100
C  7.15500 6.80600 26.44200
C  5.31400 8.95300 28.82800
C  5.80600 8.83300 25.51100
O  6.05800 8.55900 24.36500
C  5.18900 10.15800 25.82900
N  9.13100 4.59500 25.75600
C  8.39600 5.22800 24.88600
C  8.57500 4.66000 23.49300
C  9.63700 3.46600 23.59800
C  9.84800 3.59600 25.12700
C  7.29700 4.30600 22.64000
C  10.95200 3.55200 22.80200
C  11.17800 2.19800 21.94400
N  10.20800 3.26200 28.02700
C  10.84700 2.45400 27.08800
C  11.57000 1.45200 27.75600
C  11.42100 1.64200 29.11900
C  10.56400 2.75100 29.23100
C  12.28800 0.33200 27.07700
C  11.74100 1.16300 30.44000
O  12.50300 0.30300 30.84000
C  11.07200 2.13700 31.45600
C  10.42100 1.31400 32.47200
O  9.35300 0.69400 32.34800
O  11.21400 1.32000 33.68900
C  10.36300 0.93900 34.81600
H  6.45800 7.23200 30.78200
H  6.93300 6.60500 24.28200
H  11.18100 1.93400 25.04800
H  8.27200 3.48600 32.89700
H  8.47900 6.29400 32.56500
H  6.42500 4.61700 33.59000
H  5.69500 5.33900 32.18900
H  6.27900 6.36600 33.47100
H  10.92500 4.97700 32.93500
H  10.45000 3.49900 33.78800
H  8.68500 5.37100 34.80000
H  9.90500 6.39900 34.24000
H  5.23300 8.76400 29.89800
H  4.34900 8.79800 28.34600
H  5.72200 9.94400 28.63200
H  5.92300 10.92500 26.07400
H  4.50400 10.03700 26.66900
H  4.57900 10.48100 24.98500
H  9.03400 5.44000 22.88500
H  9.02900 2.58200 23.40300
H  6.35400 4.76400 22.93700
H  6.99400 3.27200 22.80900
H  7.44100 4.57700 21.59400
H  11.81400 3.74100 23.44100
H  10.85700 4.41800 22.14700
H  10.23600 1.65700 21.85400
H  11.98600 1.53900 22.26200
H  11.53300 2.52500 20.96700
H  13.05100 0.79700 26.45200
H  11.71700 -0.29800 26.39600
H  12.83200 -0.29600 27.78200
H  11.84800 2.77200 31.88300
H  10.52600 -0.13600 34.89200
H  9.30700 1.20700 34.79400
H  10.73800 1.55000 35.63800

