158

Mg 46.34300 17.34300 28.70400
C  44.48700 16.76200 31.54700
C  48.57800 19.19400 30.59300
C  47.74500 18.59400 25.87800
C  43.81900 15.92100 26.85900
N  46.51100 17.86800 30.91000
C  45.65300 17.52800 31.84900
C  46.12300 17.95200 33.22700
C  47.36600 18.80600 32.93900
C  47.49600 18.64600 31.36900
C  47.28400 20.27000 33.38300
C  46.43600 16.62700 34.08900
C  46.71400 16.90900 35.54600
H  46.50600 18.35100 36.09400
N  48.05700 18.70200 28.30100
C  48.84300 19.33300 29.23100
C  49.88800 20.00700 28.54800
C  49.65100 19.83200 27.13400
C  48.44900 19.08900 27.01500
C  50.87500 20.79100 29.24800
C  50.37900 20.50500 25.93700
O  50.05000 20.28000 24.78400
C  51.65300 21.41600 26.27800
N  45.85800 17.35500 26.75000
C  46.56300 17.89800 25.73900
C  45.94500 17.67200 24.32500
C  45.09700 16.43400 24.74000
C  44.85400 16.57500 26.20800
C  45.38300 19.05800 23.64000
C  45.61700 15.00900 24.23100
C  46.28700 14.19600 25.32400
N  44.53300 16.49000 29.08500
C  43.63700 15.85800 28.23400
C  42.62400 15.22700 28.99300
C  42.88500 15.60000 30.35500
C  44.06300 16.31100 30.32700
C  41.53500 14.51100 28.43600
C  42.46700 15.51400 31.74700
O  41.51000 14.89800 32.18300
C  43.45200 16.35100 32.56300
C  42.76400 17.51000 33.16900
O  42.23000 18.40900 32.57900
O  42.70100 17.31800 34.54700
C  41.87700 18.27300 35.23600
H  49.21400 19.83200 31.21000
H  48.17500 18.86800 24.91200
H  43.11400 15.39800 26.20900
H  45.27300 18.57300 33.51100
H  48.27300 18.36100 33.34800
H  47.33500 20.96600 32.54600
H  48.19300 20.41100 33.96900
H  46.35900 20.56900 33.87600
H  47.29900 16.15400 33.62200
H  45.58500 15.94600 34.05700
H  47.74400 16.71200 35.84300
H  46.10000 16.21900 36.12300
H  51.87200 20.40000 29.04500
H  50.74400 20.78100 30.33000
H  50.76900 21.84400 28.98800
H  52.21600 20.84900 27.02100
H  51.33800 22.37400 26.69200
H  52.12000 21.58900 25.30800
H  46.80300 17.27000 23.78600
H  44.21700 16.64300 24.13200
H  44.32200 18.96300 23.40600
H  45.92800 19.24400 22.71500
H  45.51000 19.84900 24.37900
H  46.40200 15.20000 23.49900
H  44.82600 14.46800 23.71200
H  45.73300 13.26000 25.40400
H  46.40600 14.52200 26.35700
H  47.32700 14.07700 25.02200
H  40.81700 15.07100 27.83700
H  41.06000 13.90700 29.20900
H  42.01100 13.86100 27.70200
H  43.87200 15.65400 33.28800
H  40.85800 18.01000 34.95400
H  42.09700 19.27400 34.86300
H  42.15200 18.26500 36.29000
Mg -11.99700 37.68100 42.24900
C  -9.91200 35.02400 41.28200
C  -9.96300 39.97200 40.63500
C  -14.46400 39.97400 42.62700
C  -14.32000 35.25700 43.25000
N  -10.21500 37.45500 41.00700
C  -9.44100 36.31500 40.82600
C  -8.14400 36.57800 40.06000
C  -8.16300 38.17700 39.92200
C  -9.50700 38.62600 40.63700
C  -6.93200 38.99800 40.30500
C  -8.06000 35.79700 38.66700
C  -6.84400 34.95500 38.37200
H  -5.84600 35.52100 37.32900
N  -12.20500 39.70400 41.72200
C  -11.22900 40.49800 41.10600
C  -11.63200 41.86000 41.15800
C  -12.96700 41.91200 41.62900
C  -13.27900 40.49900 41.95500
C  -10.80800 43.04300 40.58800
C  -13.78800 43.19400 41.80500
O  -13.27300 44.23600 41.37500
C  -15.14200 43.14600 42.36400
N  -14.04000 37.59000 42.96700
C  -14.82500 38.67700 43.06300
C  -16.20100 38.37000 43.63200
C  -16.22800 36.83700 43.61600
C  -14.79800 36.51000 43.23500
C  -16.48600 38.98800 45.00200
C  -17.33900 36.33000 42.65900
C  -18.78900 36.43400 43.20800
N  -12.13700 35.54000 42.33100
C  -13.11000 34.75900 42.81300
C  -12.65900 33.36100 42.87500
C  -11.42800 33.40800 42.23500
C  -11.16000 34.77600 41.91000
C  -13.33400 32.09000 43.45500
C  -10.29700 32.63900 41.85700
O  -10.04700 31.46100 41.96700
C  -9.22000 33.72000 41.36100
C  -8.01900 33.67600 42.27000
O  -6.88600 33.29800 41.97900
O  -8.35500 34.01000 43.60800
C  -7.33900 34.08300 44.67000
H  -9.21100 40.70100 40.32500
H  -15.26500 40.70500 42.75500
H  -15.08600 34.50800 43.46100
H  -7.28400 36.39700 40.70500
H  -8.24000 38.38600 38.85500
H  -7.14000 39.82200 40.98900
H  -6.49900 39.45600 39.41600
H  -6.18400 38.29000 40.66100
H  -8.15300 36.42300 37.78000
H  -8.91400 35.12000 38.64800
H  -7.10900 33.91500 38.17900
H  -6.26800 34.95000 39.29800
H  -9.96600 42.64800 40.02100
H  -10.36300 43.75800 41.28000
H  -11.37500 43.61600 39.85400
H  -15.53900 44.14200 42.55900
H  -15.10400 42.79000 43.39300
H  -15.85800 42.60700 41.74300
H  -16.92200 38.79500 42.93400
H  -16.34700 36.46900 44.63500
H  -15.61900 39.53300 45.37400
H  -16.72300 38.25900 45.77700
H  -17.31500 39.68900 44.90500
H  -17.13400 35.31300 42.32500
H  -17.37800 36.86100 41.70800
H  -19.30400 35.47400 43.23900
H  -19.33500 37.26400 42.75900
H  -18.64400 36.56700 44.28000
H  -13.43500 31.33400 42.67700
H  -14.35000 32.31000 43.78200
H  -12.67800 31.71900 44.24300
H  -8.94000 33.44100 40.34500
H  -6.92500 35.08700 44.58600
H  -6.64800 33.24100 44.61500
H  -7.85500 33.89900 45.61200

