158

Mg 0.10000 42.71800 24.64700
C  1.47500 42.83600 27.98600
C  -2.68900 41.33700 25.98900
C  -0.79300 41.87400 21.69700
C  3.46400 43.38000 23.50400
N  -0.48600 42.27400 26.82600
C  0.09900 42.53800 28.03200
C  -0.83000 42.30600 29.18400
C  -2.17600 41.74000 28.47500
C  -1.76600 41.72600 26.99600
C  -2.67100 40.32400 28.93900
C  -0.99600 43.43800 30.21100
C  -0.53000 43.37400 31.70900
H  -1.71900 43.50200 32.75600
N  -1.64600 42.11700 23.95200
C  -2.71300 41.59300 24.65100
C  -3.82000 41.29200 23.73300
C  -3.27000 41.39200 22.38000
C  -1.86500 41.81700 22.57800
C  -5.24300 40.90200 24.10400
C  -3.82400 41.01800 21.01500
O  -3.22300 41.33200 19.96400
C  -5.17600 40.32600 21.01100
N  1.14400 42.72100 22.79600
C  0.53600 42.37500 21.65800
C  1.44800 42.37800 20.45400
C  2.75200 43.00100 21.06500
C  2.48500 43.01000 22.57400
C  1.67800 40.95400 19.79000
C  3.09200 44.41100 20.45900
C  2.50900 45.66000 21.07400
N  2.05800 43.09200 25.45400
C  3.33200 43.33900 24.91100
C  4.29700 43.50800 25.90900
C  3.56700 43.44700 27.10200
C  2.22500 43.11000 26.81900
C  5.72200 43.83700 25.76900
C  3.69200 43.69900 28.51600
O  4.60500 44.08500 29.19400
C  2.31400 43.18800 29.11400
C  2.68300 42.02400 29.95600
O  2.54600 40.81300 29.75900
O  3.04600 42.54600 31.16100
C  3.58900 41.60100 32.11000
H  -3.53300 40.78400 26.40400
H  -1.04600 41.72700 20.64500
H  4.39800 43.64900 23.00600
H  -0.45700 41.42600 29.70800
H  -2.95500 42.50200 28.48500
H  -2.06700 39.92700 29.75400
H  -2.60000 39.69800 28.04900
H  -3.74500 40.33800 29.12800
H  -2.04400 43.73000 30.14900
H  -0.50900 44.34700 29.85900
H  0.25400 44.12600 31.79200
H  -0.08000 42.38800 31.82900
H  -5.35800 39.83200 24.28100
H  -5.99100 41.24000 23.38800
H  -5.54400 41.32100 25.06400
H  -5.14700 39.66400 20.14500
H  -5.92900 41.09700 20.85100
H  -5.34500 39.70700 21.89200
H  1.18200 43.11000 19.69200
H  3.63500 42.41500 20.80900
H  2.72700 40.68400 19.90300
H  1.38600 40.96500 18.74000
H  1.02600 40.25100 20.30800
H  2.77300 44.42100 19.41700
H  4.18100 44.41700 20.50600
H  3.32500 46.20400 21.55000
H  1.87100 45.30100 21.88100
H  1.82200 46.15700 20.38900
H  5.99800 44.07000 24.74100
H  6.35300 43.08400 26.24200
H  5.93900 44.70600 26.38900
H  1.81000 43.90700 29.76100
H  3.40800 42.18200 33.01500
H  4.65800 41.45800 31.95300
H  3.10900 40.63000 32.23400
Mg -2.61800 34.14900 26.24200
C  -4.16100 32.75500 29.10000
C  -1.48400 36.66900 28.29200
C  -1.38100 35.67500 23.49800
C  -4.30700 31.83200 24.23700
N  -2.86900 34.69500 28.36300
C  -3.37900 33.89800 29.31800
C  -3.21600 34.41200 30.71600
C  -2.51700 35.75700 30.51400
C  -2.19900 35.68900 28.98100
C  -3.33200 37.02400 30.89700
C  -2.47000 33.24800 31.53300
C  -2.99900 32.81700 32.92700
H  -2.04200 32.66700 34.13900
N  -1.50900 35.86200 25.93200
C  -1.04300 36.71100 26.92500
C  -0.22300 37.70200 26.29500
C  -0.13200 37.31100 24.94700
C  -0.99200 36.20100 24.74800
C  0.27600 38.97500 26.93600
C  0.59100 38.11200 23.81800
O  0.57200 37.88300 22.63600
C  1.45800 39.36000 24.15800
N  -2.84300 33.78700 24.15200
C  -2.31300 34.65400 23.22100
C  -2.63100 34.10800 21.80300
C  -3.52900 32.89400 22.05800
C  -3.55400 32.78600 23.52900
C  -3.29900 35.04400 20.79700
C  -3.09100 31.65600 21.17100
C  -2.08800 30.67400 21.75300
N  -3.86500 32.54000 26.52900
C  -4.46200 31.69500 25.62700
C  -5.22600 30.72800 26.33300
C  -5.21100 31.15300 27.66200
C  -4.34500 32.25400 27.77500
C  -5.92600 29.60300 25.71800
C  -5.78700 30.92500 29.04400
O  -6.60700 30.13300 29.42200
C  -5.01000 31.83300 30.05400
C  -6.04500 32.60800 30.81100
O  -6.89500 33.33000 30.31000
O  -6.17900 32.14900 32.10800
C  -7.30500 32.63300 32.87800
H  -0.97700 37.41200 28.91200
H  -1.06900 36.23600 22.61400
H  -4.86800 31.16000 23.58400
H  -4.20000 34.48300 31.18000
H  -1.57400 35.93800 31.03000
H  -3.50600 37.66400 30.03200
H  -2.87400 37.64200 31.67000
H  -4.29900 36.66500 31.24900
H  -1.42700 33.54500 31.64500
H  -2.51200 32.33400 30.94100
H  -3.59100 31.90700 32.82300
H  -3.71300 33.59800 33.18800
H  -0.12300 39.85200 26.42700
H  1.35600 39.03600 26.80400
H  0.06800 39.22600 27.97600
H  2.00500 39.62100 23.25200
H  2.25400 39.17200 24.87900
H  0.84100 40.21200 24.44600
H  -1.64000 33.81400 21.45600
H  -4.58600 33.08600 21.87500
H  -3.70800 35.96000 21.22400
H  -3.94400 34.51300 20.09700
H  -2.44400 35.39900 20.22200
H  -2.57100 32.03600 20.29200
H  -3.98300 31.14200 20.81000
H  -2.51000 29.69800 21.99200
H  -1.69600 31.06600 22.69100
H  -1.18500 30.64100 21.14400
H  -5.42200 29.35300 24.78500
H  -6.95700 29.89100 25.50900
H  -6.02300 28.72300 26.35400
H  -4.56800 31.03400 30.64800
H  -7.93700 31.78600 33.14500
H  -8.00400 33.35800 32.46100
H  -6.88000 32.98000 33.81900

