158

Mg 25.24100 1.23700 30.01400
C  27.26600 1.17400 32.76400
C  22.54800 1.53800 31.99400
C  23.44700 1.19400 27.16700
C  28.11100 0.51900 28.09300
N  24.96500 1.32800 32.18200
C  25.90400 1.45000 33.12400
C  25.33500 1.60900 34.54700
C  23.74500 1.64600 34.29600
C  23.72100 1.39700 32.76900
C  22.86900 0.60700 35.13300
C  25.91200 2.79600 35.39000
C  26.42400 2.53200 36.83000
H  26.10600 3.46400 37.98500
N  23.21600 1.18200 29.59300
C  22.27300 1.38900 30.56900
C  20.97800 1.49900 29.87300
C  21.22400 1.46100 28.50000
C  22.67100 1.21500 28.34900
C  19.67300 1.66800 30.65000
C  20.17300 1.51500 27.32200
O  20.46200 1.44100 26.10000
C  18.63200 1.55100 27.67500
N  25.71000 0.79400 27.87700
C  24.76200 0.97500 26.92400
C  25.37000 1.06100 25.52200
C  26.93100 0.79200 25.82400
C  26.91100 0.63800 27.34000
C  24.74000 0.11100 24.45200
C  27.95300 1.84400 25.20300
C  27.86500 3.22400 25.88800
N  27.22100 0.82100 30.34000
C  28.25300 0.56500 29.47900
C  29.49800 0.30400 30.22000
C  29.14400 0.54800 31.49500
C  27.76400 0.90400 31.52300
C  30.89100 -0.07400 29.63000
C  29.69200 0.63700 32.85600
O  30.77100 0.53800 33.33000
C  28.39600 0.99000 33.76900
C  28.18000 -0.10600 34.76200
O  27.58000 -1.14100 34.52100
O  28.61700 0.31300 36.00700
C  28.50200 -0.66800 37.09700
H  21.66300 1.58000 32.63200
H  22.80500 1.28900 26.28900
H  29.02200 0.31500 27.52600
H  25.61300 0.73500 35.13600
H  23.27900 2.62600 34.40400
H  22.38200 1.18500 35.91900
H  23.58300 -0.13500 35.49100
H  22.24900 0.06200 34.42200
H  25.15600 3.57900 35.44200
H  26.76200 3.17800 34.82400
H  27.50600 2.44000 36.93000
H  26.14100 1.50400 37.05400
H  19.76600 1.79800 31.72800
H  19.11600 0.73000 30.64600
H  19.09000 2.55200 30.39200
H  18.33000 0.63500 28.18400
H  18.14700 1.59500 26.70000
H  18.36000 2.47400 28.18600
H  25.26700 2.11000 25.24700
H  27.21900 -0.21100 25.50900
H  24.13700 0.65400 23.72400
H  24.05400 -0.59900 24.91300
H  25.53900 -0.31100 23.84300
H  27.74200 1.99600 24.14500
H  28.92100 1.38700 25.41300
H  27.73400 3.05300 26.95700
H  27.07900 3.84000 25.45100
H  28.87700 3.60100 25.74600
H  30.76600 -0.47900 28.62600
H  31.30400 -0.83000 30.29700
H  31.49100 0.83700 29.63900
H  28.59400 1.88400 34.36100
H  28.98100 -1.59500 36.78100
H  27.46700 -0.82200 37.40300
H  29.01700 -0.34000 38.00000
Mg 26.65600 49.43300 26.02900
C  24.89000 50.87600 28.77000
C  29.21400 48.87200 28.38700
C  28.65000 48.65700 23.49500
C  24.34100 50.83500 23.88800
N  26.99700 49.90000 28.23600
C  26.07200 50.33400 29.23500
C  26.62200 50.19400 30.67400
C  28.10000 49.95100 30.42200
C  28.12700 49.50700 28.89800
C  28.92900 51.25600 30.68200
C  25.97700 49.04200 31.42900
C  25.30800 49.34100 32.76500
H  26.20800 49.79800 33.94000
N  28.55400 48.69500 25.96100
C  29.43100 48.45800 27.03600
C  30.65000 47.87100 26.47800
C  30.60300 47.97900 25.05000
C  29.22700 48.45700 24.81800
C  31.84000 47.43200 27.29300
C  31.61500 47.81300 23.98500
O  31.47200 48.18800 22.83900
C  32.99600 47.46600 24.46200
N  26.56900 49.84000 24.00600
C  27.45600 49.28800 23.13400
C  26.98900 49.35300 21.63800
C  25.55200 50.00200 21.81800
C  25.44300 50.23600 23.31600
C  27.80900 50.26900 20.76700
C  24.37900 48.93300 21.44100
C  23.03800 49.57800 20.93900
N  24.94700 50.62100 26.28000
C  24.07000 51.03300 25.29300
C  23.00300 51.79900 25.88000
C  23.24200 51.71500 27.25300
C  24.42100 50.97100 27.42600
C  21.90600 52.57000 25.22900
C  22.71300 52.04700 28.57200
O  21.67800 52.56900 28.91900
C  23.79200 51.56600 29.58700
C  24.34400 52.66200 30.34200
O  25.01000 53.53500 29.82900
O  23.96700 52.56400 31.65100
C  24.64300 53.29600 32.66900
H  30.02000 48.68800 29.09900
H  29.15400 48.21000 22.63600
H  23.67500 51.29400 23.15400
H  26.41500 51.12500 31.20100
H  28.57900 49.26100 31.11600
H  29.51100 51.44600 29.78000
H  29.64000 50.97400 31.45900
H  28.37700 52.10800 31.07900
H  26.67600 48.22400 31.60500
H  25.20300 48.63200 30.77900
H  24.74200 48.46900 33.09300
H  24.68000 50.18200 32.47000
H  32.65800 48.14600 27.19300
H  32.04800 46.39800 27.01900
H  31.59200 47.63100 28.33600
H  32.93600 46.55800 25.06100
H  33.45900 48.29100 25.00400
H  33.57900 47.24600 23.56800
H  26.81800 48.36500 21.21100
H  25.34800 50.91700 21.26200
H  28.83000 50.30000 21.14700
H  27.37400 51.26400 20.67500
H  27.77800 49.65900 19.86400
H  24.36200 48.38000 22.37900
H  24.77500 48.27800 20.66500
H  22.30500 49.59800 21.74500
H  22.53800 49.03300 20.13900
H  23.15500 50.53000 20.42100
H  22.23100 53.59900 25.38400
H  20.98600 52.53300 25.81300
H  21.77600 52.29400 24.18300
H  23.36700 50.79700 30.23200
H  23.88900 53.99300 33.03300
H  25.55400 53.77400 32.30900
H  24.85400 52.59400 33.47700

