158

Mg 6.95500 57.12700 42.11300
C  6.12000 53.65300 42.30600
C  10.09500 56.11400 41.12700
C  7.60400 60.24900 41.64900
C  3.65400 57.77400 43.30300
N  7.99900 55.09400 41.72000
C  7.38700 53.85900 41.78600
C  8.42800 52.77000 41.41200
C  9.69500 53.47600 41.56900
C  9.30700 54.96700 41.49800
C  10.38500 53.23000 43.00300
C  8.40400 52.18500 39.97300
C  8.14900 53.15700 38.81800
H  7.07000 52.88000 37.67200
N  8.63500 58.10200 41.38600
C  9.83000 57.48000 40.97100
C  10.68100 58.50400 40.45100
C  10.03000 59.76600 40.57000
C  8.69600 59.41900 41.22800
C  12.02900 58.24300 39.77800
C  10.45600 61.11400 40.14200
O  11.60800 61.36700 39.81100
C  9.57300 62.26700 40.21900
N  5.75700 58.77200 42.29300
C  6.33100 59.96900 42.17700
C  5.43400 61.08100 42.68800
C  4.18900 60.29300 43.32600
C  4.57500 58.79300 43.01900
C  6.04800 62.01300 43.83900
C  2.81900 60.57400 42.59100
C  1.70200 60.77100 43.66200
N  5.18100 56.04000 42.57300
C  3.95200 56.38900 43.06800
C  3.12800 55.24800 43.50900
C  3.92400 54.12400 43.14000
C  5.14100 54.62200 42.64300
C  1.84800 55.25200 44.21100
C  3.87200 52.78800 43.07400
O  3.00300 51.97900 43.32300
C  5.35000 52.31800 42.46800
C  5.05700 51.64400 41.15600
O  5.24000 52.14400 40.08500
O  4.73900 50.34200 41.33300
C  4.88700 49.40100 40.19600
H  11.07600 55.77000 40.79300
H  7.70200 61.33600 41.62500
H  2.75000 58.00000 43.87100
H  8.29400 51.95100 42.11800
H  10.45600 53.35900 40.79800
H  11.35400 52.73700 42.93400
H  9.76200 52.61700 43.65500
H  10.47400 54.20800 43.47800
H  7.69100 51.36100 39.93600
H  9.37400 51.78800 39.67500
H  9.07700 53.29800 38.26300
H  7.85700 54.10900 39.26000
H  12.17800 58.70100 38.80000
H  12.15500 57.17100 39.62100
H  12.80500 58.44300 40.51700
H  9.34400 62.64600 41.21500
H  8.62000 62.04900 39.73600
H  10.06100 63.07600 39.67500
H  5.16300 61.58200 41.75800
H  4.18800 60.31900 44.41600
H  5.56500 61.96500 44.81500
H  5.91900 63.02200 43.44800
H  7.10900 61.77300 43.90500
H  2.53800 59.88500 41.79500
H  2.86700 61.50000 42.01800
H  1.97200 60.54300 44.69300
H  0.88900 60.10800 43.36700
H  1.41000 61.82100 43.63700
H  1.58400 56.21300 44.65100
H  1.68600 54.45700 44.93800
H  1.08000 55.08900 43.45400
H  5.82600 51.69700 43.22700
H  4.14700 49.59600 39.42000
H  4.73200 48.35800 40.47200
H  5.89800 49.51100 39.80300
Mg -8.80400 40.45800 42.57900
C  -8.08200 36.97100 41.70700
C  -6.10200 41.35300 40.90000
C  -10.01500 43.52200 42.75300
C  -12.08600 39.16900 43.52000
N  -7.49700 39.28500 41.19400
C  -7.17700 37.91400 41.22400
C  -5.90100 37.61800 40.37900
C  -5.16900 39.02300 40.45900
C  -6.31900 39.96200 40.86000
C  -4.01700 39.20900 41.52500
C  -6.18300 37.03800 38.93900
C  -5.42700 35.76200 38.50900
H  -4.53400 35.81700 37.24700
N  -8.10700 42.27400 42.01600
C  -6.89800 42.41200 41.37500
C  -6.66400 43.82300 41.19100
C  -7.74800 44.53700 41.76000
C  -8.68000 43.47200 42.28900
C  -5.40800 44.26100 40.45400
C  -8.03000 46.04200 41.72400
O  -7.23400 46.77400 41.11500
C  -9.24200 46.62300 42.29700
N  -10.78200 41.16900 43.06100
C  -10.92100 42.51000 43.08100
C  -12.36500 42.90300 43.52400
C  -13.08200 41.50500 43.74500
C  -11.98100 40.54800 43.36800
C  -12.58900 43.85100 44.67700
C  -14.36100 41.25500 42.94100
C  -15.60900 40.58300 43.56500
N  -9.78900 38.48800 42.90900
C  -11.07100 38.19600 43.31200
C  -11.24800 36.75800 43.26300
C  -10.08400 36.26800 42.77500
C  -9.28200 37.33000 42.37800
C  -12.48700 36.08500 43.81100
C  -9.39300 35.03900 42.41200
O  -9.59000 33.84100 42.61900
C  -8.09000 35.53600 41.63500
C  -6.84000 35.00100 42.21800
O  -6.31100 35.37200 43.25500
O  -6.36400 33.98700 41.43700
C  -5.05700 33.50700 41.98900
H  -5.07000 41.60500 40.64800
H  -10.45600 44.49500 42.97900
H  -12.99100 38.70400 43.91600
H  -5.22100 36.93800 40.89200
H  -4.78000 39.18000 39.45300
H  -3.89800 38.31500 42.13800
H  -4.37000 39.89400 42.29600
H  -3.05900 39.49100 41.08700
H  -6.00400 37.86500 38.25100
H  -7.27200 37.01200 38.90100
H  -6.20100 35.03900 38.25200
H  -4.89900 35.35600 39.37100
H  -5.03500 45.13800 40.98300
H  -5.53700 44.65700 39.44700
H  -4.54400 43.60800 40.56900
H  -9.31700 47.71000 42.27000
H  -9.21500 46.26800 43.32700
H  -10.15000 46.34100 41.76300
H  -12.76400 43.37100 42.62400
H  -13.32600 41.39200 44.80100
H  -11.62000 44.24700 44.98000
H  -13.09000 43.39700 45.53200
H  -13.20000 44.71000 44.39600
H  -14.12700 40.76000 41.99900
H  -14.65800 42.20100 42.48700
H  -15.44200 40.47400 44.63700
H  -15.81300 39.60900 43.12100
H  -16.49400 41.21900 43.53200
H  -12.08300 35.11600 44.10300
H  -13.19800 36.05000 42.98500
H  -12.89400 36.59000 44.68700
H  -7.95500 35.13600 40.63000
H  -4.33200 34.30700 42.14400
H  -4.65300 32.94400 41.14700
H  -5.05700 32.83600 42.84700

