158

Mg -0.00400 7.73800 26.54500
C  1.00900 9.86500 28.98200
C  -0.27300 5.17100 28.78300
C  -0.91500 5.63200 24.01800
C  0.68100 10.32900 24.19500
N  0.47900 7.57600 28.69900
C  0.66300 8.60000 29.52800
C  0.59700 8.13200 30.96400
C  0.58100 6.54600 30.88500
C  0.31100 6.38400 29.35400
C  1.84500 5.73700 31.37700
C  -0.65800 8.76500 31.61400
C  -0.73400 8.80900 33.17100
H  0.53000 8.52800 34.03700
N  -0.63400 5.71400 26.43400
C  -0.74000 4.83700 27.46300
C  -1.37300 3.58200 27.02800
C  -1.59300 3.80100 25.66200
C  -1.02900 5.09200 25.28600
C  -1.55400 2.31300 27.88800
C  -2.24000 2.75600 24.62800
O  -2.28400 2.90100 23.37400
C  -2.87600 1.46100 25.14500
N  -0.05400 7.87000 24.38600
C  -0.44900 6.87400 23.54400
C  -0.35100 7.28400 22.06800
C  0.27900 8.70600 22.11500
C  0.33800 9.01400 23.61000
C  0.29600 6.33600 21.04400
C  -0.47400 9.79100 21.41100
C  -1.87600 10.06700 21.95700
N  0.92800 9.64600 26.51300
C  0.95600 10.61400 25.52800
C  1.36900 11.90300 26.05900
C  1.47800 11.64000 27.45700
C  1.20500 10.26500 27.60900
C  1.84900 13.19500 25.38700
C  1.77400 12.25500 28.77100
O  2.13200 13.41000 29.17100
C  1.46500 11.09600 29.74300
C  2.63000 10.82900 30.53300
O  3.59800 10.12100 30.27400
O  2.48200 11.63600 31.61100
C  3.46900 11.34700 32.63200
H  -0.45900 4.35900 29.48900
H  -1.35700 5.05700 23.20100
H  0.64600 11.22300 23.56900
H  1.41500 8.54500 31.55400
H  -0.37700 6.23300 31.30200
H  1.49600 4.87900 31.95200
H  2.46400 6.43900 31.93700
H  2.32900 5.30600 30.50100
H  -1.50700 8.23900 31.17700
H  -0.80400 9.74600 31.16400
H  -1.51500 8.12000 33.49100
H  -1.04800 9.83000 33.38900
H  -1.00200 2.48700 28.81200
H  -1.08700 1.47900 27.36500
H  -2.58600 2.06400 28.13500
H  -3.22000 0.93600 24.25400
H  -3.78000 1.82600 25.63200
H  -2.18000 0.78300 25.63900
H  -1.36400 7.35900 21.67200
H  1.32300 8.85400 21.83900
H  0.79300 6.96700 20.30800
H  -0.50900 5.79000 20.55200
H  0.95200 5.62300 21.54300
H  -0.78500 9.44700 20.42500
H  0.06300 10.73900 21.37400
H  -2.59700 10.08000 21.14000
H  -1.85700 11.13000 22.19700
H  -2.21100 9.39900 22.75100
H  0.99800 13.62800 24.86200
H  2.52900 12.86100 24.60400
H  2.37800 13.83200 26.09700
H  0.60600 11.35500 30.36100
H  4.47600 11.46100 32.23100
H  3.46600 10.34200 33.05400
H  3.35500 12.01400 33.48700
Mg 34.90500 47.84100 25.95800
C  35.03200 45.78700 28.83100
C  33.63700 50.28000 27.90300
C  34.22900 49.38300 23.11900
C  35.62000 44.90000 24.10400
N  34.22000 47.95800 28.16300
C  34.54400 47.07100 29.11000
C  34.53100 47.70600 30.48600
C  33.74500 49.03800 30.19000
C  33.83900 49.13000 28.63600
C  32.22300 49.00500 30.68100
C  35.90000 47.79600 31.15700
C  36.02700 47.24600 32.61500
H  36.37000 48.23600 33.68400
N  33.94000 49.65900 25.52700
C  33.60500 50.53900 26.49900
C  33.17400 51.72300 25.81400
C  33.42700 51.57900 24.39900
C  33.92000 50.20500 24.22500
C  32.66000 52.94000 26.51200
C  33.17300 52.53200 23.23700
O  33.26100 52.15600 22.09400
C  32.99000 54.09000 23.44400
N  35.05400 47.27500 23.93800
C  34.64400 48.06300 22.95200
C  34.76400 47.44500 21.60500
C  35.41700 46.06400 21.87500
C  35.33200 46.02500 23.41300
C  33.42500 47.48200 20.73100
C  36.82700 45.86400 21.22200
C  36.96100 44.82200 20.05600
N  35.36600 45.72700 26.36000
C  35.65300 44.67300 25.52300
C  36.03300 43.48800 26.24400
C  35.78000 43.91800 27.59000
C  35.29900 45.24600 27.56700
C  36.43900 42.25800 25.67700
C  35.85900 43.47800 28.97800
O  36.28900 42.48300 29.51600
C  35.46600 44.70600 29.87200
C  34.34300 44.23900 30.76700
O  33.23200 43.85100 30.44400
O  34.73500 44.37500 32.03100
C  33.68300 44.40400 32.99800
H  33.47400 51.11600 28.58700
H  33.98800 49.80600 22.14200
H  35.70700 44.00800 23.47900
H  33.92800 47.11400 31.17500
H  34.26800 49.92800 30.53900
H  31.45600 48.90000 29.91400
H  32.02800 49.93900 31.20800
H  32.06800 48.14400 31.33200
H  36.29900 48.80200 31.28600
H  36.61300 47.31000 30.49100
H  36.80200 46.48500 32.52900
H  35.08000 46.75900 32.84400
H  32.28500 53.72200 25.85100
H  33.60300 53.29800 26.92500
H  31.92700 52.71100 27.28600
H  31.92000 54.24900 23.57500
H  33.28300 54.64600 22.55300
H  33.47700 54.37100 24.37700
H  35.44800 48.07300 21.03400
H  34.76600 45.26600 21.52000
H  32.66300 48.00500 21.30800
H  33.18800 46.51500 20.28900
H  33.52400 48.23800 19.95100
H  37.57200 45.62300 21.98000
H  37.14700 46.78100 20.72800
H  35.97800 44.49500 19.71800
H  37.62800 44.02900 20.39500
H  37.43200 45.37200 19.24100
H  35.66300 41.50100 25.78200
H  37.25800 41.99400 26.34700
H  36.75400 42.31100 24.63500
H  36.31800 44.98600 30.49100
H  33.05300 45.28900 32.91900
H  34.21200 44.47900 33.94900
H  33.05300 43.51500 32.98900

