158

Mg 36.25300 49.24200 24.25700
C  36.77600 47.65400 27.33700
C  35.02300 51.95400 25.74700
C  35.60700 50.61100 21.31100
C  37.48900 46.23600 22.62300
N  36.01700 49.70300 26.30700
C  36.28100 48.94900 27.42500
C  36.00500 49.69200 28.74500
C  35.42400 51.11800 28.20600
C  35.45900 50.89800 26.65500
C  33.97700 51.48300 28.73000
C  37.27000 49.83500 29.72100
C  37.04500 49.67700 31.20800
H  35.55300 49.64200 31.70000
N  35.40800 51.04600 23.61700
C  35.02000 52.07000 24.41300
C  34.64900 53.23100 23.60200
C  34.77200 52.81700 22.27100
C  35.28500 51.49400 22.34300
C  34.10100 54.61700 24.18700
C  34.45400 53.52100 20.96300
O  34.85900 53.11500 19.93900
C  33.73100 54.84300 21.02100
N  36.35300 48.44500 22.24000
C  36.05600 49.25100 21.21300
C  36.47400 48.65300 19.87300
C  37.16600 47.27100 20.28500
C  36.95400 47.28100 21.81600
C  35.31800 48.45200 18.89500
C  38.63500 47.05300 19.83300
C  39.69400 47.91800 20.52200
N  36.96400 47.34600 24.79000
C  37.43800 46.25200 24.01900
C  37.97800 45.25600 24.92000
C  37.72200 45.83100 26.20600
C  37.15600 47.06400 26.07200
C  38.60900 43.98200 24.71500
C  37.95800 45.56700 27.67600
O  38.63400 44.71800 28.24900
C  37.30100 46.71700 28.44000
C  36.28000 46.08000 29.29700
O  35.11500 45.76200 29.00000
O  36.80300 45.86900 30.57700
C  35.80100 45.27000 31.51800
H  34.55300 52.78100 26.28300
H  35.53300 51.12900 20.35200
H  38.04000 45.44200 22.11400
H  35.16600 49.20900 29.24600
H  36.00900 52.02200 28.37600
H  34.16000 52.43900 29.22200
H  33.60800 50.76500 29.46200
H  33.23000 51.66700 27.95700
H  37.71100 50.79800 29.46400
H  38.06200 49.12300 29.49100
H  37.65700 50.46400 31.64800
H  37.52900 48.75700 31.53600
H  34.41500 54.59800 25.23100
H  33.02100 54.76000 24.16000
H  34.52800 55.48600 23.68600
H  34.44200 55.61900 21.30500
H  32.97400 54.66200 21.78400
H  33.20100 55.04100 20.08900
H  37.16500 49.34500 19.39100
H  36.59800 46.46200 19.82500
H  34.35900 48.60700 19.38900
H  35.38500 47.46400 18.43900
H  35.36800 49.23200 18.13500
H  38.70500 47.18400 18.75300
H  38.83700 45.98200 19.86000
H  39.43200 48.37100 21.47900
H  40.14700 48.56400 19.77000
H  40.54700 47.27000 20.72600
H  38.20900 43.64600 23.75800
H  38.34200 43.16500 25.38600
H  39.68900 43.98700 24.86200
H  38.00900 47.18800 29.12200
H  35.86400 44.18700 31.41000
H  34.81000 45.70800 31.63900
H  36.31300 45.60100 32.42200
Mg 9.44200 48.02200 25.40300
C  7.30000 48.06500 28.09200
C  11.95200 49.17200 27.59300
C  11.58400 47.95400 22.92600
C  6.75300 47.47500 23.21800
N  9.50500 49.03000 27.65600
C  8.54400 48.58100 28.51000
C  9.04600 48.77400 30.00500
C  10.37000 49.53100 29.67200
C  10.68400 49.27900 28.19200
C  10.35500 51.07100 29.97100
C  9.29600 47.46600 30.87700
C  8.88000 47.53400 32.30000
H  9.06100 46.34000 33.16200
N  11.47700 48.37200 25.33900
C  12.33000 48.79400 26.36200
C  13.72900 48.64200 25.82900
C  13.56100 48.25200 24.47600
C  12.14700 48.17200 24.16400
C  14.95100 49.11800 26.63300
C  14.78700 47.98200 23.55500
O  14.70700 47.93900 22.36300
C  16.21100 47.77800 24.19100
N  9.16400 48.12300 23.29700
C  10.27800 47.86500 22.50400
C  9.85000 47.50400 21.06400
C  8.30600 47.33600 21.20600
C  8.03900 47.70500 22.66500
C  10.41800 48.36500 19.87400
C  7.78300 46.04500 20.63800
C  8.27200 44.73400 21.33500
N  7.41900 47.83100 25.56400
C  6.42500 47.50900 24.61600
C  5.18800 47.34100 25.23100
C  5.49400 47.47500 26.62000
C  6.86100 47.81700 26.76900
C  3.86700 46.92600 24.73200
C  4.93200 47.35000 27.90100
O  3.76600 47.06900 28.17600
C  6.04800 47.79300 28.96100
C  6.27600 46.57400 29.80000
O  6.88100 45.56100 29.53200
O  5.51200 46.70600 30.90400
C  5.40300 45.52200 31.82200
H  12.78700 49.24600 28.29300
H  12.38800 47.71100 22.22800
H  6.06700 47.22300 22.40700
H  8.24700 49.35700 30.46200
H  11.16100 49.14200 30.31400
H  9.36600 51.49700 29.80300
H  11.10000 51.53900 29.32900
H  10.58900 51.23600 31.02300
H  10.37800 47.48100 31.00300
H  8.89100 46.59400 30.36400
H  7.81000 47.73000 32.37200
H  9.38700 48.43700 32.64000
H  15.48000 48.30000 27.12100
H  14.59400 49.78900 27.41500
H  15.65900 49.67000 26.01500
H  16.17200 47.27900 25.16000
H  16.73600 48.73000 24.26500
H  16.87300 47.24400 23.50900
H  10.42100 46.59400 20.88000
H  7.70900 48.04400 20.63200
H  11.16800 49.02700 20.30600
H  9.64700 48.97900 19.41000
H  10.99400 47.76500 19.17000
H  8.15500 46.00600 19.61400
H  6.69600 45.96700 20.62100
H  7.47200 44.09600 21.71100
H  8.79100 44.93800 22.27100
H  8.82600 44.14300 20.60700
H  4.20900 46.28600 23.91800
H  3.49300 47.84300 24.27800
H  3.16300 46.53000 25.46300
H  5.79800 48.64500 29.59300
H  5.91200 45.70300 32.76900
H  5.73500 44.57300 31.39900
H  4.36200 45.44300 32.13500

