158

Mg 30.07300 59.48400 39.34400
C  27.09400 58.00000 38.15800
C  31.82000 56.82800 37.99400
C  32.97000 61.13200 39.65300
C  28.18500 62.45900 39.76900
N  29.53000 57.67200 38.16300
C  28.25400 57.26400 37.85100
C  28.21800 55.91900 37.07900
C  29.74400 55.47900 37.34900
C  30.42000 56.74000 37.88600
C  29.96900 54.23600 38.09700
C  27.88500 56.08700 35.48800
C  26.82900 55.14100 34.96800
H  25.89100 55.76900 33.95700
N  32.19500 58.91600 39.03000
C  32.69200 57.84400 38.47700
C  34.16300 57.82200 38.56400
C  34.55500 59.11600 39.18100
C  33.21100 59.79800 39.35000
C  35.00200 56.73900 38.02200
C  35.85900 59.58100 39.46400
O  36.79400 58.79000 39.49200
C  36.19600 61.05300 39.81800
N  30.43000 61.47000 39.71300
C  31.73500 61.92800 39.73700
C  31.84800 63.47400 39.71200
C  30.34800 63.88800 39.98200
C  29.56300 62.56900 39.73800
C  32.85800 63.96500 40.76500
C  29.80800 65.07800 39.17900
C  29.34900 66.32600 39.96100
N  28.01000 60.10900 39.29800
C  27.40000 61.34100 39.45000
C  25.99400 61.21300 39.26200
C  25.81400 59.88500 38.78500
C  27.12600 59.26100 38.71800
C  24.92200 62.31700 39.34000
C  24.78600 58.91900 38.31200
O  23.59300 59.01100 38.08600
C  25.64100 57.56600 37.95100
C  25.34500 56.33200 38.78700
O  25.69200 56.24800 39.97200
O  24.59600 55.38400 38.13600
C  24.21800 54.11400 38.88100
H  32.34900 55.93500 37.65600
H  33.84100 61.79000 39.63200
H  27.55900 63.34400 39.63900
H  27.50400 55.26400 37.57800
H  30.29800 55.46100 36.41000
H  29.04600 53.67000 37.97100
H  30.05500 54.40000 39.17200
H  30.86300 53.72800 37.73500
H  28.85700 55.85100 35.05700
H  27.59400 57.10800 35.23800
H  26.24900 54.70800 35.78200
H  27.25800 54.24400 34.52000
H  34.53800 56.44900 37.07900
H  34.88600 55.87900 38.68200
H  36.03800 57.00100 37.80700
H  37.22100 61.06500 40.18700
H  35.52300 61.16400 40.66800
H  36.00400 61.74100 38.99400
H  32.19200 63.81000 38.73400
H  30.35200 64.12800 41.04500
H  33.26300 63.11300 41.31100
H  32.42500 64.64500 41.50000
H  33.58000 64.62900 40.29100
H  29.00300 64.70200 38.54700
H  30.61000 65.33900 38.48900
H  29.97500 67.19700 39.77000
H  29.40900 66.15000 41.03500
H  28.36100 66.64700 39.62900
H  24.66900 62.49900 38.29600
H  25.32300 63.23400 39.77200
H  24.03500 62.11200 39.94000
H  25.50100 57.31800 36.89900
H  25.05900 53.74100 39.46600
H  23.74900 53.40600 38.19800
H  23.45000 54.36400 39.61200
Mg 26.10900 50.56800 26.56100
C  23.88500 51.67800 28.82500
C  28.34000 49.93000 29.16000
C  28.32300 49.33200 24.29100
C  23.90800 51.17300 23.88900
N  26.10800 50.90500 28.70400
C  24.97600 51.10800 29.45300
C  25.20200 50.83100 31.00100
C  26.69200 50.62800 31.01300
C  27.10800 50.45900 29.56700
C  27.46700 51.79900 31.76000
C  24.34200 49.64000 31.57000
C  23.87800 49.67000 33.02200
H  24.37300 50.79000 33.96300
N  28.09200 49.84700 26.73400
C  28.79000 49.61600 27.88300
C  30.05300 49.02000 27.49300
C  30.10400 48.92500 26.12100
C  28.75700 49.36500 25.66300
C  31.18400 48.82900 28.48100
C  31.17500 48.44700 25.22000
O  31.25200 48.49800 23.97900
C  32.38400 47.80600 25.85900
N  26.14900 50.37500 24.37300
C  27.12900 49.77900 23.70400
C  26.84200 49.69900 22.20000
C  25.34000 50.11500 22.13500
C  25.09000 50.60600 23.56000
C  27.82100 50.54600 21.35200
C  24.22200 49.11700 21.58000
C  23.57400 49.65900 20.24400
N  24.34000 51.40900 26.37800
C  23.57300 51.69700 25.21600
C  22.42800 52.52000 25.67500
C  22.43600 52.49300 27.07100
C  23.65100 51.85000 27.38600
C  21.31000 53.08900 24.80100
C  21.74900 52.81100 28.29900
O  20.62100 53.30100 28.47700
C  22.67600 52.36900 29.45700
C  23.03500 53.54700 30.29100
O  24.01000 54.31600 30.06600
O  22.22000 53.70600 31.43300
C  22.35300 54.98300 32.07700
H  28.89200 49.48700 29.99100
H  29.00100 48.95600 23.52200
H  23.15400 51.29600 23.10900
H  24.99100 51.80400 31.44600
H  27.08100 49.72900 31.49000
H  27.79800 52.61900 31.12200
H  28.26300 51.24800 32.26000
H  26.82600 52.11800 32.58200
H  24.92700 48.73700 31.39500
H  23.41200 49.58000 31.00500
H  23.98300 48.69100 33.48800
H  22.79000 49.62700 32.97300
H  31.48000 47.82300 28.77500
H  30.99300 49.33300 29.42800
H  32.00500 49.46700 28.15400
H  32.93600 47.43500 24.99600
H  32.09200 46.92100 26.42500
H  33.02100 48.49600 26.41300
H  26.98300 48.69000 21.81100
H  25.22900 50.93000 21.41900
H  28.26200 50.02700 20.50100
H  28.69200 50.81600 21.94800
H  27.39000 51.49300 21.02700
H  23.39500 48.99000 22.28000
H  24.68100 48.15600 21.34900
H  24.29400 49.43600 19.45700
H  23.50200 50.74600 20.26800
H  22.52700 49.36100 20.17500
H  20.76100 53.83400 25.37600
H  20.58400 52.40800 24.35700
H  21.86200 53.64900 24.04600
H  22.11900 51.69500 30.10800
H  22.65000 55.84100 31.47400
H  23.10200 54.83100 32.85400
H  21.46500 55.13300 32.69100

