158

Mg -9.34100 18.25000 43.67600
C  -5.84200 17.96300 44.02700
C  -8.93800 21.68500 43.14400
C  -12.63200 18.54500 43.14600
C  -9.49300 14.76100 43.40300
N  -7.57500 19.62900 43.49200
C  -6.32900 19.28900 43.83100
C  -5.39500 20.54300 43.73100
C  -6.40100 21.73500 43.81800
C  -7.72000 20.99000 43.41100
C  -6.49700 22.32400 45.22000
C  -4.50100 20.55000 42.43100
C  -5.02700 19.80600 41.11700
H  -5.92400 20.57000 40.15000
N  -10.60100 19.89400 43.16500
C  -10.28800 21.23400 43.09400
C  -11.48800 21.97400 42.74500
C  -12.62100 21.17000 42.87200
C  -11.98600 19.82400 43.01200
C  -11.33600 23.44300 42.49700
C  -14.18900 21.56300 42.79900
O  -14.44700 22.77200 42.80200
C  -15.34300 20.59200 42.88100
N  -10.76000 16.81600 43.15200
C  -12.08300 17.23900 43.19300
C  -13.01400 16.01000 43.35300
C  -12.02400 14.83700 43.09600
C  -10.70800 15.46500 43.25800
C  -13.80300 15.96600 44.67500
C  -12.24700 14.18600 41.66000
C  -13.59800 13.48500 41.47600
N  -7.96300 16.64800 43.70300
C  -8.16200 15.30200 43.57600
C  -6.89200 14.62500 43.77900
C  -5.95200 15.64900 43.94100
C  -6.63900 16.84900 43.89700
C  -6.58800 13.15800 43.70500
C  -4.56700 15.96800 44.13100
O  -3.56700 15.26200 44.31800
C  -4.41800 17.50500 44.18400
C  -3.78300 17.98200 45.38200
O  -2.63100 18.24600 45.43000
O  -4.67700 18.00900 46.41400
C  -4.13700 18.60000 47.65800
H  -8.73800 22.73700 42.92900
H  -13.71200 18.70400 43.16000
H  -9.56300 13.67100 43.42000
H  -4.84100 20.63000 44.66600
H  -6.22600 22.54400 43.10900
H  -7.25100 23.10400 45.11900
H  -5.48500 22.70800 45.34500
H  -6.74400 21.60900 46.00500
H  -3.42800 20.43800 42.58900
H  -4.60100 21.62500 42.28100
H  -5.50500 18.84500 41.31000
H  -4.14900 19.48100 40.56000
H  -11.66200 23.66600 41.48200
H  -10.37100 23.91700 42.68000
H  -12.00400 23.99000 43.16300
H  -15.12000 19.99300 43.76300
H  -15.35600 19.89200 42.04500
H  -16.33100 21.03200 42.74400
H  -13.65100 16.12900 42.47700
H  -12.12500 14.01200 43.80200
H  -13.69300 15.01500 45.19500
H  -14.85200 16.15700 44.44900
H  -13.32700 16.67100 45.35700
H  -11.49100 13.43200 41.43800
H  -12.13500 15.06200 41.02200
H  -14.15800 13.93200 40.65500
H  -14.26600 13.51900 42.33600
H  -13.48400 12.44000 41.18700
H  -5.54900 13.02200 43.40500
H  -7.10100 12.62000 42.90800
H  -6.79900 12.78000 44.70500
H  -3.83100 17.73100 43.29300
H  -4.98200 18.65700 48.34500
H  -3.67600 19.57800 47.52100
H  -3.42100 17.89900 48.08700
Mg -6.69500 24.81800 26.67200
C  -4.40200 26.12500 28.92200
C  -7.57300 22.51600 29.11800
C  -8.41900 23.18500 24.31300
C  -5.11800 26.77800 24.14800
N  -6.01300 24.34000 28.61700
C  -5.23700 25.17300 29.43000
C  -5.56400 25.00200 30.89100
C  -6.21800 23.57400 30.87100
C  -6.57200 23.44000 29.41600
C  -5.21300 22.42600 31.23000
C  -6.34100 26.18200 31.56700
C  -5.87900 26.73400 32.92800
H  -5.90000 25.77900 34.10500
N  -7.91000 23.22000 26.72600
C  -8.23200 22.47800 27.85400
C  -9.29400 21.57400 27.58100
C  -9.60200 21.79600 26.18500
C  -8.60300 22.74500 25.66900
C  -9.92900 20.54400 28.46600
C  -10.75800 21.25100 25.29500
O  -10.99000 21.55200 24.13900
C  -11.70900 20.18800 25.91600
N  -6.82500 24.98500 24.59500
C  -7.59800 24.22700 23.79300
C  -7.53900 24.63500 22.25100
C  -6.65600 25.93800 22.33700
C  -6.21000 25.92900 23.78800
C  -7.05300 23.49600 21.25900
C  -7.37900 27.19300 22.01800
C  -7.69600 27.40800 20.44100
N  -5.06100 26.15600 26.52600
C  -4.55100 26.87000 25.43100
C  -3.49000 27.75700 25.93700
C  -3.43600 27.49900 27.28600
C  -4.42300 26.54100 27.56600
C  -2.64500 28.78400 25.24700
C  -2.81200 27.95700 28.44500
O  -1.90900 28.71000 28.63300
C  -3.33800 27.05200 29.56400
C  -2.18400 26.34200 30.15200
O  -1.68600 25.38000 29.60500
O  -2.02300 26.73300 31.48600
C  -1.09300 25.87400 32.23800
H  -7.98000 21.88000 29.90800
H  -9.00400 22.81000 23.47000
H  -4.67100 27.48900 23.45000
H  -4.61400 24.96600 31.42400
H  -7.06500 23.50200 31.55300
H  -4.25200 22.74400 31.63600
H  -5.03500 21.77600 30.37300
H  -5.80000 21.82600 31.92400
H  -7.37900 25.86200 31.64900
H  -6.20600 27.11100 31.01300
H  -6.41700 27.62900 33.23800
H  -4.88300 27.16200 32.81300
H  -10.97300 20.78500 28.66600
H  -9.59700 20.58300 29.50400
H  -9.72000 19.55000 28.07100
H  -11.16300 19.32000 26.28700
H  -12.46400 19.73300 25.27500
H  -12.22300 20.65100 26.75800
H  -8.51000 25.03900 21.96600
H  -5.79100 25.80000 21.68900
H  -7.10800 22.53700 21.77400
H  -5.98300 23.66300 21.13900
H  -7.73000 23.41000 20.40900
H  -6.89500 28.03900 22.50600
H  -8.32100 27.20800 22.56600
H  -7.46200 26.55700 19.80200
H  -7.10700 28.22200 20.01800
H  -8.73100 27.70600 20.27300
H  -3.23200 29.28500 24.47700
H  -1.74100 28.34300 24.82600
H  -2.31400 29.56900 25.92700
H  -3.76500 27.62900 30.38400
H  -0.20600 25.66100 31.64100
H  -1.61800 25.00300 32.63000
H  -0.71100 26.34300 33.14400

