158

Mg 46.46000 24.20800 28.50400
C  46.89900 26.47500 31.03600
C  45.16400 21.94800 30.79400
C  46.61900 21.69700 26.11600
C  48.02400 26.37500 26.28900
N  46.06600 24.26800 30.64200
C  46.27300 25.33300 31.43200
C  45.71900 25.08600 32.80900
C  45.40400 23.53100 32.80200
C  45.54700 23.24800 31.31900
C  46.30700 22.63800 33.73200
C  44.49300 25.99000 33.29100
C  44.71500 26.76100 34.66600
H  43.88600 26.39600 35.91600
N  45.84400 22.20100 28.41600
C  45.36100 21.46100 29.50600
C  44.96800 20.10600 29.06100
C  45.45000 20.04800 27.73300
C  46.02100 21.39600 27.32600
C  44.21400 19.14100 29.88600
C  45.27400 18.83800 26.73700
O  45.55100 18.96700 25.53500
C  44.71500 17.47300 27.20800
N  47.24200 23.97200 26.50700
C  47.15000 22.87600 25.70300
C  47.90100 23.04000 24.35700
C  48.13400 24.63200 24.37000
C  47.69500 25.07600 25.77000
C  49.26700 22.11900 24.30700
C  47.48100 25.39500 23.28500
C  45.94100 25.63900 23.33400
N  47.30000 26.09900 28.56200
C  47.77800 26.91900 27.56500
C  48.15400 28.25300 28.12900
C  47.84800 28.07000 29.51100
C  47.33800 26.77200 29.70700
C  48.67000 29.44900 27.43000
C  47.84300 28.67600 30.75400
O  48.27000 29.79900 31.05300
C  47.20300 27.67200 31.79800
C  48.37600 27.45400 32.76700
O  49.54000 27.19300 32.40600
O  47.95600 27.38300 34.01700
C  48.99000 27.12900 35.05600
H  44.75500 21.23600 31.51300
H  46.89500 20.90800 25.41300
H  48.57300 27.04900 25.62800
H  46.48300 25.31300 33.55400
H  44.40000 23.28200 33.14600
H  46.88700 23.30200 34.37200
H  46.88600 21.92800 33.14100
H  45.68700 21.98900 34.35000
H  43.63900 25.33400 33.45600
H  44.30300 26.77600 32.56000
H  44.62500 27.84300 34.57600
H  45.76800 26.66400 34.93000
H  44.84200 18.25400 29.97400
H  43.28900 18.88900 29.36700
H  43.85600 19.52000 30.84300
H  44.95300 16.77800 26.40200
H  43.63400 17.57200 27.10700
H  44.87500 17.12200 28.22700
H  47.28600 22.68100 23.53200
H  49.20500 24.76000 24.20900
H  49.21600 21.36100 25.08800
H  50.14200 22.75100 24.46300
H  49.21400 21.61000 23.34500
H  47.68500 24.81900 22.38200
H  48.03400 26.33200 23.22000
H  45.82300 26.69900 23.56100
H  45.39500 25.18800 24.16300
H  45.38600 25.37700 22.43400
H  47.90900 30.22000 27.31000
H  49.20400 29.20700 26.51100
H  49.29500 29.94800 28.17100
H  46.34400 28.14800 32.27100
H  49.47600 26.17700 34.84000
H  48.36300 27.12100 35.94700
H  49.73900 27.91800 35.13000
Mg 7.06600 57.13100 41.37700
C  6.32600 53.80000 41.12600
C  10.23200 56.48200 40.31600
C  7.74900 60.51800 41.09800
C  3.77300 57.83000 42.09800
N  8.06900 55.36900 40.65000
C  7.56900 54.08200 40.60800
C  8.54300 53.11400 39.91300
C  9.89000 53.85100 40.07300
C  9.37700 55.35800 40.39400
C  10.84100 53.24000 41.06400
C  8.11800 52.86100 38.44000
C  8.39600 51.45300 37.78200
H  9.41000 51.14500 36.71800
N  8.78300 58.32100 40.84900
C  10.02000 57.84000 40.55200
C  10.96700 58.96500 40.36200
C  10.23900 60.18900 40.61300
C  8.90100 59.72100 40.85900
C  12.41700 58.83900 40.11000
C  10.80400 61.60600 40.56400
O  12.01200 61.86700 40.36400
C  9.90600 62.89700 40.71700
N  5.90000 58.93700 41.39100
C  6.40900 60.17600 41.38400
C  5.34700 61.24600 41.72000
C  4.07100 60.39300 42.07600
C  4.58600 58.96200 41.81000
C  5.73600 62.28200 42.83000
C  2.85400 60.82600 41.21900
C  1.40100 60.77100 41.85600
N  5.29500 56.04500 41.57700
C  4.02600 56.46200 41.93100
C  3.31100 55.22500 42.33400
C  4.19100 54.16500 42.02100
C  5.28900 54.73800 41.54500
C  1.99900 55.10500 43.11700
C  4.35200 52.72200 41.97100
O  3.73400 51.74200 42.40400
C  5.72800 52.44500 41.24400
C  5.40900 51.76400 39.98800
O  4.69700 52.22000 39.11400
O  6.02400 50.51900 39.87400
C  5.54800 49.73100 38.74500
H  11.26600 56.28800 40.02300
H  7.83400 61.60100 40.98400
H  2.77300 57.99800 42.50100
H  8.50600 52.17200 40.45900
H  10.54300 53.77700 39.20300
H  10.23100 52.78400 41.84400
H  11.43100 53.98700 41.59300
H  11.53700 52.49800 40.67300
H  8.57900 53.65300 37.85100
H  7.03500 52.85100 38.31900
H  7.42900 51.17700 37.36100
H  8.51900 50.63300 38.49100
H  12.58100 59.06400 39.05600
H  12.96100 57.95000 40.43200
H  12.79600 59.63400 40.75300
H  9.44800 62.82900 41.70400
H  9.16100 63.09500 39.94700
H  10.51800 63.79500 40.62900
H  5.29900 61.70400 40.73200
H  3.78800 60.46400 43.12600
H  5.80800 63.31800 42.49900
H  6.70600 61.97400 43.22000
H  4.98500 62.14900 43.60800
H  2.79700 60.21800 40.31600
H  2.89500 61.86100 40.87800
H  0.94100 61.66700 41.44000
H  1.40200 60.77600 42.94600
H  0.83500 59.89600 41.53600
H  1.96000 55.70400 44.02700
H  1.72100 54.08300 43.37800
H  1.20900 55.51300 42.48700
H  6.33100 51.77200 41.85300
H  4.64200 49.19900 39.03600
H  6.22700 48.95600 38.38800
H  5.22400 50.14400 37.79100

