158

Mg 0.04900 7.77700 26.01100
C  1.15400 9.71600 28.56200
C  0.07000 4.98300 28.06300
C  -0.35000 5.85200 23.20500
C  0.60800 10.46500 23.84900
N  0.48200 7.41300 28.07300
C  0.84800 8.39500 28.95200
C  0.86500 7.78500 30.39400
C  0.74800 6.27800 30.10500
C  0.37500 6.20800 28.69900
C  2.07600 5.55000 30.42200
C  -0.42100 8.33800 31.11200
C  -0.40000 8.00800 32.62900
H  0.85700 7.95100 33.38200
N  -0.21200 5.67300 25.70300
C  -0.27300 4.73400 26.68900
C  -0.58700 3.46500 26.07400
C  -0.65500 3.63300 24.64300
C  -0.43100 5.11600 24.46900
C  -0.78500 2.18100 26.90100
C  -0.86200 2.60300 23.51000
O  -1.14600 2.80900 22.32600
C  -0.78200 1.13700 23.81700
N  0.25400 8.07900 23.77300
C  -0.00500 7.14800 22.86900
C  -0.23100 7.71600 21.44900
C  0.12200 9.22400 21.66500
C  0.31300 9.29500 23.15600
C  0.63200 7.12100 20.32500
C  -1.01400 10.23800 21.11900
C  -2.27500 10.43700 22.00400
N  0.68000 9.69300 26.09600
C  0.74800 10.70600 25.19000
C  1.12000 11.99600 25.79600
C  1.34200 11.64300 27.17700
C  1.07000 10.22800 27.29600
C  1.22900 13.30800 25.13900
C  1.64200 12.15800 28.37000
O  2.12000 13.25100 28.65200
C  1.50100 10.94700 29.40000
C  2.66600 10.76500 30.22600
O  3.75100 10.34300 29.86900
O  2.40700 11.21000 31.46000
C  3.52600 11.19900 32.42700
H  -0.07000 4.15800 28.76500
H  -0.51000 5.24900 22.30900
H  0.67500 11.29000 23.13700
H  1.76600 8.06100 30.94200
H  -0.03700 5.87200 30.74200
H  1.94300 5.02600 31.36900
H  2.84200 6.32500 30.44400
H  2.29100 4.84700 29.61800
H  -1.27200 7.86000 30.62700
H  -0.55700 9.41400 31.00100
H  -0.93000 7.06600 32.76900
H  -0.96500 8.74300 33.20200
H  -1.40100 2.36400 27.78200
H  0.18700 1.71400 27.06400
H  -1.30000 1.42800 26.30500
H  -1.61000 0.67400 24.35300
H  0.10700 0.97300 24.42600
H  -0.59500 0.60100 22.88600
H  -1.28000 7.54400 21.20700
H  1.06200 9.36900 21.13100
H  0.03200 6.45500 19.70500
H  1.46500 6.54000 20.72100
H  0.96800 7.80300 19.54300
H  -1.57900 9.91100 20.24600
H  -0.44100 11.16300 21.06200
H  -3.23700 10.38200 21.49500
H  -2.22000 11.40700 22.49900
H  -2.35300 9.67500 22.77900
H  0.60700 14.00300 25.70500
H  0.75700 13.17300 24.16600
H  2.29000 13.55200 25.17400
H  0.60100 11.23100 29.94500
H  3.41600 12.21900 32.79500
H  4.56900 11.12200 32.11800
H  3.35400 10.51500 33.25800
Mg -12.06000 15.58200 41.58400
C  -8.97000 14.00900 41.01900
C  -10.71400 18.51500 40.25000
C  -15.15300 16.65400 41.13400
C  -13.26700 12.40400 42.56100
N  -10.21300 16.05500 40.42800
C  -9.02700 15.25500 40.40200
C  -7.84800 16.01200 39.81600
C  -8.36500 17.48500 39.70800
C  -9.89500 17.35300 40.19600
C  -7.68300 18.58700 40.48100
C  -7.25200 15.36700 38.48100
C  -5.66300 15.28000 38.47100
H  -4.91000 15.55400 37.20600
N  -12.88900 17.35700 40.85300
C  -12.15000 18.40900 40.32200
C  -13.06500 19.48100 40.06100
C  -14.36600 19.08500 40.39300
C  -14.20800 17.69100 40.80000
C  -12.53400 20.81800 39.47700
C  -15.63400 19.95100 40.41400
O  -15.62400 21.13000 40.03400
C  -16.98300 19.43500 40.90300
N  -13.95700 14.70600 41.98000
C  -15.08800 15.36100 41.58800
C  -16.30200 14.50500 41.71300
C  -15.70000 13.16100 42.14100
C  -14.22600 13.43900 42.23300
C  -17.32000 15.14300 42.68800
C  -16.00400 11.95000 41.22200
C  -16.15400 10.60300 41.92300
N  -11.29600 13.56800 41.92300
C  -11.85600 12.46500 42.40100
C  -10.91000 11.47300 42.54200
C  -9.61700 11.97800 42.16800
C  -9.97800 13.29800 41.68200
C  -11.25900 10.06900 42.95500
C  -8.19700 11.79400 41.93200
O  -7.46800 10.86800 42.15100
C  -7.78600 13.10600 41.11600
C  -6.67500 13.72800 41.90200
O  -6.86900 14.30500 42.96200
O  -5.40300 13.51100 41.32700
C  -4.24400 13.98800 42.04400
H  -10.25300 19.47000 39.98800
H  -16.16700 16.87300 40.79300
H  -13.70100 11.42300 42.76100
H  -7.12400 16.11800 40.62400
H  -8.41900 17.80300 38.66700
H  -7.26100 19.31200 39.78500
H  -6.92400 18.15200 41.13200
H  -8.40400 19.18900 41.03300
H  -7.52800 15.99900 37.63700
H  -7.68800 14.37900 38.33200
H  -5.40300 14.24500 38.69300
H  -5.22100 15.92200 39.23300
H  -13.39600 21.40800 39.16700
H  -11.75900 20.73500 38.71600
H  -12.17400 21.41400 40.31600
H  -17.83000 20.12100 40.91000
H  -16.91600 18.77500 41.76900
H  -17.08900 18.76300 40.05100
H  -16.69600 14.33200 40.71200
H  -15.74900 12.99000 43.21600
H  -16.84100 15.49200 43.60300
H  -18.03500 14.37400 42.98000
H  -17.79900 16.02000 42.25400
H  -15.22700 11.92800 40.45800
H  -16.95700 12.07800 40.70900
H  -16.44100 10.84600 42.94600
H  -15.16000 10.16400 42.00500
H  -16.90800 9.98400 41.43600
H  -10.35100 9.49000 42.79200
H  -12.12700 9.63900 42.45300
H  -11.43600 10.13400 44.02800
H  -7.28600 12.76400 40.20900
H  -4.28400 15.06200 42.22800
H  -3.42400 13.66900 41.40100
H  -4.21500 13.47700 43.00600

