158

Mg 16.90800 52.34400 26.52600
C  19.14200 51.13400 28.90700
C  14.57600 52.93700 28.86100
C  14.87800 53.50500 24.04000
C  19.21900 51.27500 24.05200
N  16.97200 52.10100 28.66200
C  17.96800 51.66100 29.44800
C  17.57300 51.80400 30.89700
C  16.04400 52.02100 30.84200
C  15.80100 52.33800 29.37100
C  15.19400 50.83900 31.46900
C  18.35900 52.95800 31.63100
C  18.52400 52.72500 33.18000
H  17.44900 51.76700 33.82500
N  14.99100 53.10300 26.44100
C  14.23400 53.36200 27.56700
C  13.07300 54.13300 27.20300
C  13.08700 54.24500 25.82100
C  14.37900 53.63400 25.34700
C  12.07200 54.66000 28.31000
C  12.05300 54.89400 24.90300
O  12.18900 54.95700 23.71500
C  10.88400 55.51000 25.60700
N  16.99600 52.34000 24.35000
C  16.06300 52.89900 23.52800
C  16.45200 52.68800 22.01300
C  17.93400 52.32000 22.10000
C  18.13200 52.03200 23.60700
C  15.49300 51.66300 21.40700
C  19.11300 53.30600 21.60500
C  19.80300 54.23100 22.60200
N  18.74100 51.35700 26.45800
C  19.51600 50.97700 25.40800
C  20.71000 50.22700 25.86500
C  20.57900 50.34100 27.23500
C  19.37800 51.05100 27.54900
C  21.91700 49.68600 25.07200
C  21.19800 49.98300 28.42700
O  22.26500 49.45200 28.63400
C  20.34900 50.50600 29.55600
C  19.96100 49.37100 30.40500
O  19.28800 48.34700 30.03600
O  20.50600 49.48200 31.66800
C  20.35600 48.33000 32.54800
H  13.92900 53.20300 29.70000
H  14.25200 53.86300 23.21900
H  20.08500 51.01000 23.44000
H  17.80200 50.86000 31.39000
H  15.73700 52.93900 31.34300
H  14.40600 51.16400 32.14800
H  15.79800 50.06200 31.93600
H  14.73200 50.27600 30.65800
H  17.85300 53.92400 31.63400
H  19.36500 52.93900 31.21300
H  18.41100 53.69500 33.66600
H  19.48600 52.28400 33.44100
H  11.74500 55.68700 28.14600
H  12.59100 54.64600 29.26800
H  11.26600 53.95100 28.50000
H  11.02600 56.43900 26.15900
H  10.40200 54.72300 26.18700
H  10.13700 55.76700 24.85600
H  16.33000 53.67400 21.56500
H  18.12600 51.35500 21.63100
H  16.03800 50.93700 20.80300
H  14.89900 52.24600 20.70400
H  14.80300 51.19900 22.11100
H  18.62000 53.89900 20.83500
H  19.84800 52.64700 21.14200
H  20.88900 54.22700 22.51000
H  19.51400 54.03500 23.63500
H  19.46200 55.24100 22.37600
H  21.55400 49.24400 24.14400
H  22.29700 48.88600 25.70800
H  22.60200 50.51600 24.89900
H  20.89000 51.24900 30.14300
H  20.58100 47.38600 32.05200
H  19.30100 48.22500 32.79900
H  20.90400 48.47700 33.47900
Mg 1.97400 41.45500 24.87200
C  2.99500 41.72500 28.26200
C  -0.98100 40.06900 26.03100
C  1.04400 40.84200 21.77300
C  5.11700 42.50800 23.92000
N  1.19400 40.85500 26.92400
C  1.70600 41.28500 28.15100
C  0.62800 41.03500 29.26600
C  -0.52100 40.21900 28.55000
C  -0.04200 40.48700 27.07900
C  -0.68600 38.77400 28.93300
C  0.11500 42.42100 29.89900
C  0.00900 42.35200 31.45700
H  -0.81400 41.17100 32.04000
N  0.25200 40.62200 24.04600
C  -0.89100 40.09500 24.64300
C  -1.83300 39.78600 23.63100
C  -1.27100 40.09800 22.37100
C  0.04500 40.62100 22.65900
C  -3.22800 39.31400 23.92700
C  -1.89600 39.95700 20.91800
O  -1.26900 40.33300 19.90800
C  -3.25200 39.33100 20.72700
N  2.95600 41.43500 23.10500
C  2.34600 41.30100 21.94700
C  3.37700 41.38300 20.79800
C  4.41300 42.32200 21.49900
C  4.19500 42.05300 22.93700
C  3.90500 40.03500 20.29500
C  4.44000 43.81200 21.04300
C  3.81600 44.90700 22.03600
N  3.73600 42.04400 25.84500
C  4.93900 42.54900 25.33900
C  5.82300 42.90500 26.43400
C  5.05600 42.56600 27.57200
C  3.81500 42.03900 27.16500
C  7.21000 43.44600 26.37100
C  5.11500 42.80600 28.97400
O  5.92500 43.35000 29.71200
C  3.77500 42.14700 29.51700
C  4.25200 41.08200 30.33700
O  4.21900 39.90200 30.13600
O  4.74100 41.63900 31.52300
C  4.96600 40.60900 32.52600
H  -1.92500 39.60200 26.31900
H  0.91800 40.73800 20.69300
H  6.02500 42.94000 23.49400
H  1.03900 40.29000 29.94700
H  -1.49400 40.70600 28.60900
H  0.12900 38.52100 29.61000
H  -0.73700 38.05500 28.11500
H  -1.67100 38.69600 29.39400
H  -0.84800 42.68500 29.46000
H  0.92000 43.15300 29.83300
H  -0.40700 43.32300 31.72600
H  0.99200 42.25600 31.91900
H  -3.95400 40.10900 23.75900
H  -3.27800 38.87000 24.92100
H  -3.45300 38.44000 23.31500
H  -3.38400 39.29300 19.64500
H  -4.09000 39.86400 21.17500
H  -3.23100 38.34500 21.19000
H  2.99000 42.00000 19.98700
H  5.42400 41.95200 21.32800
H  3.45700 39.28000 20.94000
H  4.98600 39.92100 20.21600
H  3.53900 39.86100 19.28300
H  3.96500 43.94500 20.07100
H  5.49100 44.07700 20.92600
H  3.43400 44.57900 23.00300
H  2.91400 45.35600 21.62000
H  4.59400 45.64800 22.21900
H  7.32800 44.14900 25.54600
H  7.97300 42.67000 26.32600
H  7.40900 43.94200 27.32100
H  3.32900 42.98600 30.05100
H  4.26400 39.78900 32.37800
H  4.83100 41.07300 33.50300
H  5.98600 40.23600 32.62000

