158

Mg 46.49300 45.14600 43.58000
C  42.97400 44.88300 43.36700
C  46.66600 41.72900 42.74400
C  49.88300 45.45600 43.45900
C  46.13500 48.65800 43.69700
N  45.00400 43.56500 42.76100
C  43.59700 43.67900 42.99300
C  42.98900 42.29900 42.88800
C  44.15100 41.30600 42.68700
C  45.36800 42.24200 42.68200
C  44.25500 40.18900 43.77500
C  41.81100 42.17200 41.89100
C  42.12800 42.70200 40.44700
H  41.88900 41.70300 39.22000
N  48.04600 43.75300 43.26400
C  47.94600 42.42500 42.97700
C  49.31900 41.86300 42.97600
C  50.19000 42.94900 43.04400
C  49.36400 44.11200 43.30900
C  49.68100 40.29600 42.85400
C  51.71100 42.75700 42.85300
O  52.18500 41.70400 42.49500
C  52.64300 43.96000 42.70100
N  47.81300 46.72900 43.55400
C  49.15800 46.68100 43.62800
C  49.83700 48.03400 43.90800
C  48.65700 49.03900 43.62800
C  47.41500 48.07600 43.58000
C  50.46400 48.08000 45.30100
C  48.79300 49.98000 42.44300
C  48.59200 51.47000 42.72200
N  44.92500 46.53100 43.51700
C  44.93800 47.89800 43.67100
C  43.60800 48.35800 43.93100
C  42.77500 47.21900 43.80000
C  43.64500 46.11900 43.60300
C  43.16700 49.80600 44.18100
C  41.33500 46.67400 43.67800
O  40.27700 47.24700 43.61500
C  41.49900 45.19000 43.43500
C  40.73600 44.48700 44.53800
O  39.49800 44.41300 44.46300
O  41.52300 44.17000 45.58500
C  40.93000 43.22500 46.56000
H  46.83800 40.65400 42.65200
H  50.96800 45.58400 43.48600
H  45.98400 49.69700 44.00000
H  42.61100 42.19300 43.90500
H  44.00300 40.89200 41.68900
H  43.31100 40.03000 44.29700
H  45.04500 40.43300 44.48500
H  44.37400 39.20700 43.31700
H  40.85100 42.56900 42.22000
H  41.71800 41.08900 41.81600
H  43.08900 43.20900 40.36100
H  41.33700 43.43000 40.26900
H  49.83200 39.97200 41.82400
H  48.83500 39.69600 43.18900
H  50.52200 40.09100 43.51700
H  52.21400 44.48600 41.84800
H  53.62200 43.68900 42.30600
H  52.81100 44.66200 43.51800
H  50.53300 48.27700 43.10600
H  48.61400 49.64900 44.53000
H  51.48600 48.41300 45.12000
H  50.53400 47.07200 45.71000
H  49.95800 48.79500 45.94800
H  48.01500 49.70300 41.73200
H  49.78000 49.78500 42.02300
H  49.44900 52.08900 42.45600
H  48.36800 51.61200 43.77900
H  47.69700 51.76400 42.17300
H  43.03600 50.35500 43.24800
H  43.85900 50.35600 44.81700
H  42.19100 49.74000 44.66300
H  41.02000 44.84500 42.51900
H  41.41100 43.38400 47.52500
H  40.95900 42.18800 46.22500
H  39.89900 43.43000 46.84800
Mg 35.72000 49.59700 25.75800
C  35.30700 47.81100 28.73100
C  34.91800 52.41800 27.54500
C  35.90000 51.19300 22.85900
C  36.27500 46.52600 24.13900
N  35.01600 50.01000 27.88400
C  35.06900 49.15700 28.91800
C  34.90500 49.88800 30.28200
C  34.58900 51.31000 29.80700
C  34.88100 51.29000 28.32300
C  33.14000 51.98800 30.06100
C  36.26800 49.72300 31.00500
C  36.30800 49.58000 32.49400
H  35.07200 49.85100 33.36900
N  35.46300 51.51000 25.29300
C  35.16800 52.53400 26.12500
C  34.91700 53.75500 25.45600
C  35.21700 53.48500 24.09000
C  35.50500 51.96600 23.98800
C  34.75600 55.09700 26.21100
C  35.23000 54.55400 22.99500
O  35.64300 54.28300 21.84000
C  34.94100 56.07900 23.31200
N  35.88200 48.86400 23.69700
C  36.17000 49.80200 22.78300
C  36.55000 49.17100 21.45200
C  36.90500 47.71100 21.94700
C  36.36000 47.67600 23.35900
C  35.42300 49.27200 20.37200
C  38.41900 47.28700 21.80800
C  38.55100 45.87600 21.20200
N  35.72600 47.55000 26.26000
C  35.93000 46.46100 25.51900
C  35.99400 45.26200 26.35500
C  35.74800 45.75700 27.67100
C  35.59900 47.16900 27.56000
C  36.19600 43.81300 25.90000
C  35.59400 45.37000 29.00500
O  35.46500 44.23000 29.48800
C  35.42200 46.71600 29.79200
C  34.21100 46.47700 30.61100
O  33.07200 46.69600 30.25700
O  34.42000 45.83500 31.82600
C  33.40300 45.83700 32.86200
H  34.60500 53.30600 28.09800
H  35.99500 51.76700 21.93400
H  36.69000 45.60700 23.72200
H  34.11000 49.45000 30.88600
H  35.33600 51.97500 30.24200
H  33.24900 52.78200 30.80000
H  32.63200 51.17200 30.57400
H  32.68300 52.37200 29.14900
H  36.86300 50.59700 30.74000
H  36.76800 48.86700 30.55100
H  37.16300 50.18500 32.79500
H  36.48300 48.52000 32.67900
H  33.88200 55.74000 26.10800
H  35.65100 55.70900 26.10900
H  34.73400 54.97700 27.29400
H  35.17300 56.64000 22.40600
H  35.71200 56.31300 24.04600
H  33.94300 56.29700 23.69100
H  37.49100 49.58500 21.09000
H  36.16400 47.05300 21.49200
H  35.65500 48.84900 19.39400
H  35.25900 50.34000 20.23000
H  34.54800 48.66200 20.59500
H  39.00400 47.28900 22.72800
H  38.85600 48.00900 21.11900
H  38.63300 45.90700 20.11500
H  37.68000 45.25100 21.39900
H  39.26800 45.28000 21.76600
H  35.67800 43.51000 24.99000
H  35.78500 43.08300 26.59700
H  37.27800 43.69300 25.83900
H  36.34900 46.84000 30.35200
H  33.84000 46.28400 33.75500
H  33.06700 44.81400 33.03000
H  32.56800 46.50400 32.64600

