158

Mg 43.07700 4.49200 46.98000
C  40.83000 7.26200 46.56700
C  40.43000 2.28400 46.94600
C  45.29400 1.94500 46.51600
C  45.64100 6.74700 45.87400
N  40.95600 4.79700 46.74600
C  40.21300 6.02700 46.66400
C  38.76200 5.74200 46.53500
C  38.64900 4.20900 46.78700
C  40.06500 3.70200 46.91100
C  37.86200 3.72000 48.05100
C  38.01500 6.23300 45.20500
C  38.71700 5.67400 43.96900
H  39.30300 6.78600 42.99800
N  42.89600 2.38200 46.83300
C  41.73600 1.67700 46.87500
C  42.05800 0.23400 46.88900
C  43.50700 0.09800 46.88100
C  43.95800 1.50400 46.78700
C  40.94200 -0.88000 47.00900
C  44.36600 -1.13200 46.91200
O  43.88900 -2.22000 47.13900
C  45.88700 -1.17400 46.63900
N  45.18600 4.40800 46.32700
C  45.85900 3.25700 46.38400
C  47.36600 3.45000 46.00800
C  47.47900 4.98100 45.74200
C  46.01000 5.44500 46.01100
C  48.27400 2.94200 47.13400
C  48.01400 5.33100 44.38300
C  47.22000 5.04800 43.16200
N  43.27200 6.61600 46.54400
C  44.37500 7.34600 46.16900
C  44.03700 8.75600 46.12800
C  42.73700 8.75500 46.30000
C  42.23300 7.44100 46.53600
C  44.96000 9.94700 45.85200
C  41.59200 9.61400 46.48600
O  41.57600 10.82500 46.43500
C  40.29200 8.70000 46.55000
C  39.38600 8.88800 47.68700
O  39.25200 8.11700 48.64500
O  38.51500 9.85100 47.39300
C  37.25300 9.97800 48.01300
H  39.55700 1.62800 46.97300
H  46.07500 1.19700 46.36100
H  46.46700 7.44700 45.72900
H  38.20700 6.18800 47.36000
H  38.11300 3.65400 46.01600
H  38.56500 3.28100 48.76000
H  37.04600 3.06000 47.75800
H  37.61400 4.64100 48.57900
H  37.89500 7.31700 45.20000
H  36.97600 5.90700 45.23400
H  37.92600 5.20800 43.38200
H  39.47900 4.99900 44.35900
H  40.09600 -0.42800 47.52800
H  41.34200 -1.76000 47.51200
H  40.63500 -1.10000 45.98600
H  46.53700 -0.69800 47.37400
H  46.00100 -0.74500 45.64400
H  46.22800 -2.20000 46.50700
H  47.51300 2.89800 45.07900
H  48.08200 5.40900 46.54400
H  49.07800 2.31100 46.75700
H  47.59500 2.32900 47.72700
H  48.81400 3.67900 47.72800
H  48.95700 4.81100 44.20900
H  48.17500 6.40300 44.26800
H  47.68500 4.36800 42.44800
H  47.02200 5.92800 42.55100
H  46.25300 4.72900 43.55200
H  45.34500 10.07400 44.84000
H  45.87900 9.77600 46.41400
H  44.43300 10.85700 46.13800
H  39.72300 8.76500 45.62300
H  36.46800 9.96900 47.25700
H  37.27600 10.89500 48.60100
H  37.04500 9.14500 48.68500
Mg 48.60500 44.93600 42.96200
C  45.16300 45.04400 42.10600
C  48.61100 41.59800 42.12700
C  51.98900 45.01400 43.36800
C  48.45400 48.40900 43.51200
N  47.10700 43.52100 41.95100
C  45.74600 43.81000 41.89900
C  44.94600 42.54500 41.58700
C  46.02400 41.47000 41.50300
C  47.34200 42.15700 42.00700
C  45.68800 40.20200 42.33200
C  44.11900 42.71300 40.22800
C  44.92700 43.42900 39.16700
H  44.87500 42.72400 37.72800
N  50.10300 43.53700 42.55000
C  49.86700 42.27200 42.30700
C  51.10100 41.52500 42.39400
C  52.15100 42.42200 42.67600
C  51.43700 43.73400 42.87500
C  51.23300 40.03000 42.11900
C  53.66800 42.17500 42.73700
O  53.96800 40.99300 42.54300
C  54.65100 43.20600 42.99800
N  50.12500 46.62100 42.96800
C  51.38400 46.31200 43.37200
C  52.08400 47.62100 43.82400
C  51.03200 48.65900 43.86800
C  49.77200 47.87100 43.45800
C  52.87400 47.44500 45.19200
C  51.18100 49.89500 42.84000
C  52.00600 51.09800 43.24200
N  47.18300 46.47600 42.89700
C  47.24500 47.78600 43.25900
C  45.95400 48.45400 43.15300
C  45.12700 47.42000 42.71400
C  45.85900 46.20800 42.63800
C  45.79200 49.94100 43.30100
C  43.77100 47.13400 42.22800
O  42.77500 47.85300 42.14700
C  43.70700 45.55500 41.85800
C  42.60600 44.87400 42.65600
O  41.71100 44.17700 42.27200
O  42.78500 45.24900 43.98500
C  41.80000 44.74100 44.91200
H  48.56900 40.51300 42.00900
H  53.02000 44.97900 43.72600
H  48.28400 49.48600 43.57000
H  44.21400 42.37100 42.37600
H  46.16800 41.09600 40.48900
H  44.61600 40.26500 42.51700
H  46.32000 40.19400 43.22000
H  45.92600 39.30600 41.75800
H  43.20000 43.24500 40.47200
H  43.83500 41.72200 39.87300
H  45.92800 43.67300 39.52400
H  44.47500 44.41600 39.06900
H  51.96300 39.79100 41.34600
H  50.32100 39.53600 41.78300
H  51.53200 39.56100 43.05600
H  54.59200 44.13100 42.42500
H  55.59900 42.71400 42.78300
H  54.82200 43.31300 44.06900
H  52.80300 47.79700 43.02400
H  50.96000 48.95700 44.91400
H  53.89600 47.66000 44.87800
H  52.65900 46.40100 45.41600
H  52.67200 48.21000 45.94200
H  50.17600 50.16300 42.51500
H  51.72000 49.45500 42.00000
H  52.89700 51.19500 42.62100
H  52.19300 51.01100 44.31200
H  51.31800 51.92500 43.06700
H  46.30400 50.43400 42.47400
H  46.16900 50.27300 44.26800
H  44.71300 50.06600 43.21100
H  43.40500 45.56000 40.81100
H  41.66100 43.66900 44.77600
H  40.83400 45.24700 44.89900
H  42.13300 44.93700 45.93100

