158

Mg 24.55800 -7.20600 47.07900
C  26.61600 -4.69700 45.61700
C  22.17400 -6.36400 44.63500
C  23.14600 -10.14400 47.62500
C  27.54000 -8.29600 48.71800
N  24.49100 -5.63400 45.34300
C  25.41700 -4.83600 44.91900
C  24.94800 -4.04300 43.63600
C  23.40200 -4.34100 43.70100
C  23.32400 -5.53600 44.60300
C  22.56500 -3.11700 44.09500
C  25.64700 -4.17400 42.23400
C  26.19400 -2.85100 41.60200
H  25.65400 -2.58700 40.20600
N  22.80500 -7.98700 46.48300
C  22.00000 -7.53000 45.47100
C  20.83000 -8.49700 45.30900
C  21.06900 -9.52200 46.28800
C  22.39800 -9.24200 46.86400
C  19.70200 -8.42500 44.36200
C  20.20900 -10.70800 46.44900
O  19.21000 -10.78900 45.80900
C  20.43000 -11.73100 47.53400
N  25.24300 -8.93200 47.96500
C  24.44700 -10.03700 48.14100
C  25.22200 -11.13300 48.95000
C  26.61600 -10.59300 49.19600
C  26.43800 -9.16900 48.69700
C  24.51500 -11.71000 50.24200
C  27.76000 -11.45600 48.54800
C  28.87500 -12.01200 49.44200
N  26.60600 -6.56100 47.39000
C  27.58800 -7.10400 48.10600
C  28.76700 -6.21000 48.04500
C  28.41800 -5.28800 47.09700
C  27.11100 -5.55600 46.63900
C  30.10200 -6.36000 48.74800
C  28.90000 -4.17200 46.39500
O  30.04100 -3.67300 46.47100
C  27.76400 -3.68500 45.41800
C  27.23600 -2.30200 45.92400
O  26.86200 -2.06700 47.03000
O  27.47800 -1.39100 44.97400
C  27.34200 0.04400 45.35900
H  21.36300 -6.09700 43.95500
H  22.78800 -11.09200 48.03100
H  28.30900 -8.92000 49.17800
H  25.10200 -2.98400 43.84400
H  23.08700 -4.63400 42.70000
H  21.86900 -3.49500 44.84400
H  22.03900 -2.83400 43.18300
H  23.16200 -2.28800 44.47600
H  24.96500 -4.58600 41.49100
H  26.53700 -4.78100 42.40200
H  27.28000 -2.84800 41.69800
H  25.92400 -2.00300 42.23100
H  19.66700 -7.44100 43.89400
H  18.75900 -8.50100 44.90300
H  19.68200 -9.10300 43.50900
H  21.28300 -12.37800 47.32900
H  19.58600 -12.42000 47.51800
H  20.49600 -11.23400 48.50200
H  25.28500 -11.99900 48.29200
H  26.78100 -10.50500 50.27000
H  23.67600 -11.02900 50.38700
H  25.17700 -11.53300 51.08900
H  24.13800 -12.72700 50.13000
H  28.11700 -10.95200 47.65000
H  27.29500 -12.34000 48.11100
H  28.42800 -12.90600 49.87500
H  29.01200 -11.21700 50.17500
H  29.85200 -12.20300 48.99800
H  29.92700 -6.43000 49.82200
H  30.78400 -5.51800 48.63300
H  30.56900 -7.26900 48.36800
H  28.06400 -3.55900 44.37800
H  27.31100 0.65500 44.45700
H  28.19800 0.29500 45.98700
H  26.50600 0.20400 46.04000
Mg 47.66700 15.45200 28.37200
C  45.51300 15.45300 31.10500
C  49.69200 17.58500 30.04300
C  49.53500 15.54000 25.64500
C  45.16900 13.62400 26.55700
N  47.51400 16.43200 30.24100
C  46.63800 16.16000 31.29900
C  47.21000 16.60100 32.67200
C  48.27100 17.65400 32.16200
C  48.51800 17.19900 30.71200
C  47.83800 19.21300 32.15100
C  47.73900 15.46000 33.55900
C  47.53800 15.71200 35.01300
H  48.72800 15.45600 35.97300
N  49.34300 16.46100 27.92200
C  50.03100 17.25900 28.76200
C  51.29600 17.68300 28.05600
C  51.19500 17.05800 26.73900
C  49.96900 16.30600 26.70500
C  52.40100 18.48700 28.77600
C  52.24500 17.16100 25.61400
O  52.27700 16.51700 24.60400
C  53.37500 18.22300 25.57500
N  47.36100 14.69600 26.39300
C  48.39100 14.75700 25.51300
C  48.03100 13.98800 24.20900
C  46.72200 13.25200 24.56900
C  46.35700 13.90500 25.92200
C  47.96100 14.90000 22.90200
C  46.82700 11.70000 24.54300
C  47.09400 11.09300 23.14100
N  45.74700 14.71000 28.72800
C  44.88400 14.03100 27.87800
C  43.68000 13.73200 28.62800
C  43.93400 14.20000 29.91600
C  45.18600 14.77500 29.93900
C  42.51800 12.86100 28.25500
C  43.37000 14.19300 31.24900
O  42.30600 13.74600 31.65100
C  44.51900 15.00800 32.12200
C  43.73200 16.15200 32.63600
O  43.07200 16.93600 31.94700
O  43.89000 16.14700 34.04500
C  42.91400 16.89100 34.76400
H  50.47300 18.11200 30.59600
H  50.28400 15.46700 24.85300
H  44.40500 13.05100 26.02800
H  46.39900 17.08100 33.22000
H  49.22900 17.60400 32.68100
H  48.73700 19.71100 32.51400
H  46.93000 19.28800 32.74900
H  47.46800 19.54300 31.18000
H  48.82900 15.48800 33.54900
H  47.38300 14.44100 33.40600
H  46.82400 15.06000 35.51600
H  47.32400 16.76700 35.18400
H  53.33400 18.42900 28.21500
H  52.54900 18.25200 29.83000
H  52.00100 19.50000 28.81800
H  54.12100 17.95300 26.32200
H  52.80200 19.13600 25.73600
H  53.96300 18.15000 24.65900
H  48.73000 13.18300 23.97800
H  45.96900 13.54700 23.83800
H  48.22200 14.31100 22.02300
H  48.71000 15.68900 22.97700
H  46.93300 15.25000 22.81400
H  45.81500 11.41100 24.82500
H  47.59500 11.27400 25.18800
H  47.61600 11.82600 22.52600
H  46.24100 10.72100 22.57400
H  47.75300 10.27900 23.44200
H  42.68600 11.78800 28.34300
H  42.14500 13.15200 27.27300
H  41.75200 13.14100 28.97900
H  44.95600 14.40800 32.92100
H  43.29800 17.07900 35.76600
H  42.09100 16.18900 34.89400
H  42.65600 17.87700 34.37900

