158

Mg 17.07200 -1.45300 28.19600
C  16.45500 0.83800 30.85900
C  19.37000 -3.08500 29.93000
C  18.52300 -2.51600 25.15800
C  15.27200 1.04000 26.12200
N  18.01900 -0.93900 30.06800
C  17.41700 -0.22700 31.12400
C  17.91500 -0.74800 32.44300
C  19.05800 -1.73900 32.05300
C  18.72400 -1.96600 30.59400
C  20.54400 -1.22400 32.36400
C  16.75700 -1.37700 33.32900
C  16.64800 -1.02700 34.84100
H  17.97400 -0.84500 35.62800
N  18.56600 -2.77600 27.64500
C  19.40400 -3.42300 28.54500
C  20.23400 -4.38900 27.88900
C  19.93300 -4.27100 26.49700
C  19.00800 -3.14700 26.33300
C  21.23100 -5.27700 28.62400
C  20.55800 -5.01400 25.37000
O  20.40800 -4.67300 24.21500
C  21.61200 -6.16800 25.51000
N  16.88500 -0.89600 26.00800
C  17.67100 -1.40200 24.99200
C  17.41100 -0.94500 23.63300
C  16.26900 0.10700 23.98600
C  16.15800 0.11400 25.49600
C  18.73500 -0.45900 22.92400
C  14.97200 -0.04900 23.14400
C  13.62400 -0.33700 23.80400
N  15.86000 0.42700 28.40500
C  15.20300 1.21600 27.47400
C  14.53600 2.26800 28.22000
C  14.94500 2.14300 29.54300
C  15.81800 1.05700 29.60500
C  13.83900 3.31900 27.56900
C  14.89100 2.68000 30.86800
O  14.21600 3.69400 31.17500
C  15.77100 1.76300 31.82000
C  16.68900 2.68400 32.57700
O  17.84200 2.90900 32.32100
O  15.97000 3.32200 33.57700
C  16.61200 4.12000 34.57400
H  20.07200 -3.60900 30.58200
H  18.91300 -2.76400 24.16900
H  14.63900 1.66000 25.48200
H  18.39300 0.07400 32.97500
H  18.97600 -2.67300 32.61000
H  20.64600 -0.22400 32.78500
H  21.14300 -1.32700 31.45900
H  21.13100 -1.84800 33.03800
H  16.78600 -2.46600 33.30500
H  15.82100 -1.13800 32.82300
H  16.13000 -1.79500 35.41600
H  15.97000 -0.18500 34.97500
H  21.03000 -6.34100 28.49200
H  21.26400 -5.05100 29.69000
H  22.23300 -5.00000 28.29700
H  21.33100 -6.81700 26.34000
H  22.52700 -5.59400 25.65400
H  21.85500 -6.74600 24.61800
H  16.81400 -1.69700 23.11800
H  16.73300 1.06700 23.76000
H  19.10400 0.51000 23.25900
H  18.39000 -0.31800 21.89900
H  19.55700 -1.17400 22.89500
H  15.15000 -0.70700 22.29400
H  14.86100 0.99700 22.85600
H  13.81500 -0.92300 24.70300
H  13.02400 -0.88200 23.07500
H  13.00000 0.50900 24.09200
H  14.39800 3.89100 26.82800
H  13.52200 4.12500 28.23200
H  12.92100 2.88300 27.17500
H  15.13600 1.26200 32.55100
H  16.58500 3.52400 35.48600
H  16.03900 4.98400 34.91300
H  17.57800 4.57900 34.36600
Mg 48.20800 34.92400 26.43400
C  46.16700 34.21100 29.14500
C  48.93800 38.00300 27.95900
C  49.65000 35.95900 23.67500
C  46.98800 32.04000 24.82500
N  47.51900 36.01500 28.32400
C  46.80300 35.42800 29.33800
C  46.84600 36.35700 30.58400
C  47.33000 37.80200 30.00200
C  47.96500 37.27700 28.66000
C  46.27000 38.90500 29.92300
C  47.51800 35.64600 31.79900
C  48.23700 36.56000 32.79600
H  47.51600 37.54100 33.70700
N  49.37300 36.58600 25.94800
C  49.56500 37.74400 26.69600
C  50.60700 38.57400 25.98900
C  50.71500 38.04500 24.73600
C  49.84200 36.79100 24.75600
C  51.10100 39.83300 26.56600
C  51.54500 38.46400 23.55200
O  51.62100 37.85000 22.50900
C  52.35200 39.74400 23.59200
N  48.24600 34.08500 24.55700
C  48.89700 34.79800 23.54400
C  48.83000 33.98200 22.23100
C  48.29600 32.58300 22.65100
C  47.79200 32.84400 24.08800
C  48.07500 34.69800 21.14200
C  49.35900 31.43400 22.59800
C  49.03700 30.30400 21.58500
N  46.80900 33.46100 26.81600
C  46.53300 32.30300 26.11500
C  45.63200 31.48700 26.91600
C  45.40700 32.21700 28.11800
C  46.22600 33.33900 28.02600
C  45.02500 30.14500 26.57800
C  44.69200 32.39000 29.36900
O  43.80800 31.71200 29.84900
C  45.26100 33.49200 30.14300
C  46.01600 32.92700 31.28200
O  47.23000 32.61500 31.10600
O  45.29500 32.81200 32.41800
C  46.01400 32.13800 33.52000
H  49.28500 38.95300 28.37100
H  50.11000 36.27000 22.73500
H  46.66900 31.11500 24.33900
H  45.81200 36.51000 30.89200
H  48.07800 38.18400 30.69700
H  45.82900 38.83800 28.92900
H  46.58000 39.92600 30.14500
H  45.44300 38.63200 30.57800
H  48.28200 34.96600 31.42100
H  46.78900 35.08500 32.38300
H  49.13100 37.11800 32.52000
H  48.73600 35.80800 33.40700
H  52.18900 39.86800 26.51200
H  50.78800 39.90700 27.60800
H  50.64400 40.59000 25.92800
H  51.82300 40.65800 23.86200
H  52.69800 39.90200 22.57100
H  53.18900 39.64000 24.28300
H  49.83000 33.83500 21.82500
H  47.45500 32.25600 22.03900
H  48.76700 34.54600 20.31400
H  48.10500 35.77500 21.30200
H  47.05500 34.32300 21.06600
H  49.43700 30.99400 23.59200
H  50.34300 31.79700 22.30000
H  49.74300 30.19900 20.76000
H  48.07600 30.46100 21.09600
H  49.14700 29.39000 22.16800
H  44.58600 30.14600 25.58100
H  44.15300 29.97100 27.20800
H  45.77700 29.37400 26.74900
H  44.46600 34.12600 30.53500
H  46.65100 31.36100 33.09900
H  45.37500 31.84400 34.35200
H  46.67800 32.94900 33.81900

