158

Mg 49.32000 46.35000 43.19100
C  45.98900 46.53200 42.16200
C  49.34600 43.15200 41.96800
C  52.67300 46.56700 43.17800
C  49.21200 49.95300 43.58200
N  47.75800 45.01900 42.17000
C  46.49700 45.30400 41.76400
C  45.88300 44.14400 41.02000
C  46.90200 42.99300 41.33100
C  48.07600 43.71400 41.92800
C  46.34900 41.87300 42.31100
C  45.64600 44.42000 39.48600
C  44.27100 44.00400 38.89700
H  44.25900 43.42000 37.50300
N  50.84100 44.96800 42.74900
C  50.62600 43.65700 42.39000
C  51.89800 43.10900 42.17100
C  52.97000 44.02800 42.55200
C  52.22100 45.21300 42.82700
C  52.05300 41.64400 41.69400
C  54.45500 43.74800 42.57700
O  54.88800 42.61900 42.41200
C  55.36000 44.85900 42.82300
N  50.70400 47.98400 43.43400
C  52.06500 47.74900 43.50300
C  52.81000 48.93000 44.16500
C  51.67700 49.99200 44.27000
C  50.46600 49.30200 43.70700
C  53.64200 48.87100 45.50100
C  51.85900 51.24800 43.44900
C  51.58600 52.61700 44.03600
N  47.82600 47.90400 43.12600
C  47.97800 49.31900 43.30500
C  46.60300 49.89200 43.15600
C  45.79900 48.76700 42.71200
C  46.63500 47.63000 42.66400
C  46.20800 51.27900 43.31500
C  44.47500 48.40500 42.27300
O  43.57000 49.14200 42.04800
C  44.54500 46.89700 41.90500
C  43.55800 46.14600 42.81400
O  43.74400 45.91300 43.99500
O  42.36700 45.87400 42.14400
C  41.31300 45.17800 42.89500
H  49.24100 42.12400 41.61700
H  53.73700 46.73800 43.35700
H  49.09600 51.02400 43.75500
H  44.94500 43.96900 41.54800
H  47.20300 42.37800 40.48300
H  46.80600 41.83200 43.30000
H  46.58300 40.87200 41.94700
H  45.26800 41.94300 42.43200
H  46.41300 43.88100 38.92900
H  45.74100 45.50400 39.42700
H  43.56700 44.83600 38.90700
H  43.84200 43.27000 39.57900
H  51.06700 41.18900 41.60100
H  52.75000 41.06500 42.29900
H  52.43300 41.65900 40.67200
H  55.08300 45.17700 43.82900
H  55.17000 45.71900 42.18100
H  56.36800 44.44500 42.78100
H  53.44000 49.18600 43.31300
H  51.41900 50.30000 45.28300
H  53.60700 47.86400 45.91700
H  53.32500 49.50200 46.33100
H  54.66800 49.13500 45.24500
H  51.41800 51.11600 42.46100
H  52.93000 51.30400 43.25100
H  51.57100 53.32700 43.21000
H  52.34000 52.87500 44.78000
H  50.60500 52.66600 44.50800
H  46.29700 51.85000 42.39000
H  46.76500 51.84700 44.06000
H  45.21500 51.55400 43.66800
H  44.28400 46.74700 40.85700
H  40.77500 44.38700 42.37200
H  40.68900 46.05100 43.08800
H  41.74200 44.65500 43.75000
Mg 42.88900 42.26800 26.48900
C  41.80600 44.37500 29.04000
C  44.61400 40.45500 28.87100
C  44.27200 40.61900 24.03300
C  41.51700 44.67500 24.14200
N  43.05200 42.33000 28.75000
C  42.45600 43.21800 29.57800
C  42.68600 42.97500 31.07700
C  43.65000 41.75400 31.02200
C  43.87700 41.51500 29.45700
C  45.01600 41.78500 31.79900
C  41.35200 42.59200 31.67500
C  41.27800 41.95900 33.08100
H  40.32100 42.52700 34.07800
N  44.24400 40.68300 26.47100
C  44.79300 40.04500 27.54500
C  45.50100 38.90700 27.10900
C  45.33300 38.90100 25.63700
C  44.65000 40.11200 25.29200
C  46.28400 38.01500 27.93500
C  45.82700 37.89500 24.60000
O  45.61600 37.97800 23.35400
C  46.66100 36.68000 25.10300
N  43.12100 42.70200 24.42700
C  43.52300 41.69900 23.62500
C  43.34900 42.02200 22.05900
C  42.29300 43.17400 22.19000
C  42.28300 43.53800 23.69600
C  44.60500 42.52900 21.34600
C  40.95000 42.84300 21.57800
C  40.08600 41.86400 22.44300
N  41.95700 44.23300 26.49100
C  41.40300 45.02800 25.51700
C  40.63400 46.11700 26.11100
C  40.80100 45.90800 27.48000
C  41.59700 44.71300 27.65400
C  39.99200 47.23900 25.31700
C  40.45100 46.40300 28.78600
O  39.82300 47.38200 29.16700
C  40.97000 45.41100 29.80700
C  41.79700 46.19200 30.81700
O  42.90600 46.70200 30.62700
O  41.10700 46.17100 31.98700
C  41.65500 46.82000 33.11500
H  44.92500 39.74800 29.64300
H  44.55100 39.99000 23.18500
H  40.97400 45.19100 23.34700
H  43.22500 43.79500 31.55100
H  43.20900 40.85400 31.45000
H  45.17300 42.82000 32.10400
H  45.97100 41.38100 31.46100
H  44.80300 41.25900 32.73000
H  40.66100 42.02800 31.04800
H  40.78900 43.51100 31.83900
H  42.28200 42.05500 33.49500
H  40.99300 40.91000 33.00300
H  46.31700 38.50700 28.90800
H  47.26900 37.72700 27.56900
H  45.77600 37.05900 28.06000
H  47.10500 36.18300 24.24000
H  46.05200 35.95300 25.63900
H  47.56300 37.11200 25.53800
H  42.79900 41.22200 21.56400
H  42.60000 44.06300 21.63900
H  44.86100 43.56300 21.57600
H  44.48400 42.35400 20.27700
H  45.44300 41.94000 21.71800
H  41.12900 42.39700 20.60000
H  40.37700 43.76900 21.62700
H  40.35000 41.91400 23.50000
H  40.10400 40.81000 22.16600
H  39.04900 42.19600 22.50100
H  40.74400 47.94300 24.96000
H  39.26500 47.71400 25.97600
H  39.56900 46.83900 24.39600
H  40.08500 44.98200 30.27800
H  41.89200 46.16900 33.95700
H  40.85200 47.50200 33.39300
H  42.61700 47.32500 33.03200

