158

Mg 0.40500 7.09400 26.31300
C  1.13600 8.99000 29.05100
C  0.57000 4.28400 28.26000
C  -0.28200 5.25800 23.53100
C  0.72900 9.89800 24.30300
N  0.91200 6.71000 28.42100
C  0.91100 7.60400 29.36200
C  0.67400 7.09700 30.72200
C  0.82000 5.62000 30.49100
C  0.77300 5.46900 28.99500
C  2.16900 5.07500 31.05200
C  -0.62500 7.60200 31.38000
C  -0.63200 8.15800 32.80700
H  0.50800 7.65900 33.71100
N  0.08300 5.06300 25.93500
C  0.13900 4.12100 26.89100
C  -0.29200 2.85800 26.35000
C  -0.53000 3.10700 24.99500
C  -0.23100 4.52100 24.77500
C  -0.40200 1.61000 27.08500
C  -1.06500 2.13500 24.00600
O  -1.13600 2.40600 22.81700
C  -1.42100 0.66100 24.33600
N  0.38000 7.41600 24.19400
C  0.01900 6.53600 23.25700
C  -0.15000 7.18900 21.80500
C  -0.04500 8.68900 22.15600
C  0.40600 8.69000 23.62100
C  0.88500 6.61400 20.79500
C  -1.44700 9.46300 22.06100
C  -1.49000 10.86200 21.50300
N  0.94800 9.09700 26.61800
C  0.96200 10.09000 25.69100
C  1.34200 11.25500 26.33900
C  1.43900 10.92900 27.71400
C  1.14700 9.54000 27.78800
C  1.57500 12.61400 25.67100
C  1.77700 11.47700 29.00300
O  2.24500 12.58700 29.27900
C  1.30600 10.24500 29.97300
C  2.29300 10.13000 31.04000
O  3.25100 9.36100 31.09100
O  1.87200 11.02100 32.00400
C  2.72500 11.09100 33.21900
H  0.63800 3.37400 28.85900
H  -0.81200 4.71500 22.74500
H  0.77700 10.73000 23.59700
H  1.55900 7.44900 31.25100
H  -0.02000 5.06600 30.91100
H  1.93700 4.36900 31.84900
H  2.88700 5.79000 31.45400
H  2.72600 4.62900 30.22800
H  -1.42400 6.87700 31.22800
H  -0.86400 8.42200 30.70200
H  -1.62700 7.97900 33.21500
H  -0.60800 9.24600 32.74300
H  -0.20500 1.76200 28.14700
H  0.24700 0.86200 26.63100
H  -1.42900 1.24600 27.12300
H  -2.19100 0.43200 25.07300
H  -0.49700 0.08500 24.36800
H  -1.88600 0.26700 23.43200
H  -1.14500 6.85700 21.50900
H  0.76400 9.13900 21.58000
H  1.59900 7.41400 20.60300
H  0.28000 6.42600 19.90700
H  1.36200 5.72100 21.20000
H  -1.91400 9.44400 23.04500
H  -2.19300 8.86400 21.53800
H  -2.53600 11.15400 21.41000
H  -0.96800 10.91400 20.54800
H  -1.02900 11.45100 22.29700
H  2.05600 13.36600 26.29600
H  0.63600 12.91000 25.20200
H  2.20600 12.40400 24.80800
H  0.35100 10.62200 30.33800
H  3.57600 10.41100 33.22300
H  2.02200 10.59000 33.88500
H  3.12900 12.05500 33.53100
Mg 8.69900 3.40400 27.90600
C  10.17600 1.81200 30.63700
C  6.74800 5.17600 29.98100
C  7.11600 4.73100 25.15900
C  10.39400 1.06100 25.84200
N  8.61600 3.53400 30.09800
C  9.33500 2.87900 31.00000
C  9.17900 3.47900 32.37100
C  7.91300 4.38700 32.19300
C  7.72800 4.36800 30.64400
C  6.64900 4.02000 33.06700
C  10.41700 4.27100 32.84500
C  11.03500 3.90200 34.21500
H  10.46900 4.74100 35.48500
N  7.19400 4.75100 27.63500
C  6.47100 5.37400 28.59800
C  5.63400 6.35200 28.01300
C  5.71700 6.24400 26.55800
C  6.71400 5.22100 26.42100
C  4.59600 7.17900 28.77000
C  4.94200 7.00400 25.43800
O  5.15700 6.87800 24.24600
C  3.97500 8.04700 25.81200
N  8.81300 2.98700 25.87900
C  8.08400 3.74000 24.90700
C  8.46900 3.26100 23.50500
C  9.42600 2.03000 23.80600
C  9.56700 2.02400 25.26200
C  7.24000 2.98000 22.53500
C  10.95100 2.28000 23.09900
C  11.70400 0.93400 22.63800
N  9.90900 1.72100 28.18300
C  10.41800 0.82400 27.23700
C  11.21200 -0.21700 27.84800
C  11.13200 0.12400 29.23300
C  10.29200 1.26600 29.33500
C  11.94300 -1.34500 27.17200
C  11.72000 -0.16100 30.52000
O  12.53600 -1.02800 30.85000
C  10.96400 0.84500 31.51100
C  10.10100 0.14600 32.43000
O  9.15000 -0.60600 32.21800
O  10.49500 0.41600 33.73400
C  9.63300 -0.15300 34.81200
H  6.19100 5.82500 30.66000
H  6.67100 5.17900 24.26800
H  10.85600 0.41200 25.09500
H  8.90500 2.67600 33.05600
H  8.14900 5.42900 32.41000
H  5.78500 3.94800 32.40700
H  6.38600 4.76000 33.82300
H  6.83400 3.07700 33.58200
H  10.01800 5.27300 33.00500
H  11.16900 4.38100 32.06300
H  12.11400 4.05300 34.18100
H  10.85000 2.83800 34.36400
H  4.57800 6.81000 29.79500
H  3.59900 6.94500 28.39800
H  4.67900 8.25600 28.62000
H  4.44200 8.80600 26.43900
H  3.19100 7.52900 26.36500
H  3.62400 8.64500 24.97100
H  9.01900 4.05300 22.99600
H  9.05900 1.13900 23.29600
H  6.26200 3.27300 22.91600
H  7.25500 1.93200 22.23600
H  7.32100 3.61300 21.65100
H  11.66700 2.81900 23.72100
H  10.96300 2.80000 22.14100
H  12.07700 0.82800 21.62000
H  11.09700 0.04100 22.79100
H  12.49800 0.73500 23.35800
H  12.82700 -0.89100 26.72400
H  11.28000 -1.72700 26.39600
H  12.32400 -2.14000 27.81200
H  11.62400 1.51500 32.06200
H  9.96800 0.32900 35.73100
H  9.54100 -1.23900 34.85100
H  8.61500 0.16500 34.58900

