158

Mg 26.13300 1.15300 28.93000
C  27.99400 1.06100 31.86100
C  23.29800 1.21300 30.87100
C  24.52800 1.56700 26.16400
C  29.00600 0.63800 27.11700
N  25.72300 1.08700 31.12900
C  26.68400 1.23100 32.11200
C  26.00400 1.39000 33.50400
C  24.48700 1.17700 33.19100
C  24.46400 1.14100 31.62600
C  23.88100 -0.08000 33.89400
C  26.32800 2.73500 34.20900
C  27.01500 2.56600 35.63300
H  26.60300 3.51700 36.71000
N  24.16400 1.25100 28.57300
C  23.12200 1.22900 29.48900
C  21.89700 1.43400 28.75200
C  22.25700 1.73700 27.42700
C  23.73200 1.47100 27.32200
C  20.55400 1.48300 29.40700
C  21.42700 2.41500 26.29500
O  21.87100 2.71400 25.23400
C  20.05700 2.75700 26.72200
N  26.67400 0.94800 26.90000
C  25.82500 1.42000 25.98500
C  26.47100 1.52600 24.58100
C  27.98300 1.32900 24.90400
C  27.93600 0.87100 26.36700
C  25.86700 0.48800 23.56400
C  28.76600 2.68400 24.92500
C  30.17900 2.61400 24.29500
N  28.11000 0.75600 29.35700
C  29.12000 0.50800 28.52800
C  30.36100 0.18400 29.28900
C  29.97700 0.54100 30.56700
C  28.57500 0.77700 30.58600
C  31.68300 -0.18000 28.76800
C  30.49500 0.58100 31.90500
O  31.61700 0.34300 32.34300
C  29.26500 0.99700 32.78400
C  29.16900 0.06500 33.91100
O  28.62800 -1.00200 33.97100
O  29.76200 0.67700 34.98300
C  29.88100 -0.11600 36.22400
H  22.41200 1.17800 31.50800
H  24.06800 1.84200 25.21300
H  29.99200 0.59300 26.65000
H  26.44900 0.61900 34.13200
H  23.98900 2.08400 33.53500
H  24.71500 -0.72500 34.17200
H  23.37100 -0.55800 33.05800
H  23.17900 0.13000 34.70100
H  25.46100 3.37000 34.39100
H  26.96700 3.30800 33.53700
H  28.05600 2.82600 35.44600
H  26.87200 1.54900 36.00100
H  19.87500 2.32500 29.27600
H  20.49900 1.27800 30.47700
H  20.03200 0.62900 28.97400
H  19.46900 3.18500 25.91000
H  20.14200 3.58500 27.42600
H  19.51000 1.88000 27.06900
H  26.16000 2.53000 24.29000
H  28.51600 0.61100 24.28100
H  25.21400 -0.24100 24.04200
H  26.71400 0.01600 23.06500
H  25.37800 1.01000 22.74100
H  28.82000 3.08700 25.93700
H  28.17600 3.42000 24.38100
H  30.71200 3.30000 24.95400
H  30.25500 3.01500 23.28500
H  30.51200 1.58300 24.41500
H  32.48900 0.47900 29.09200
H  31.78100 -0.18900 27.68300
H  31.90700 -1.17500 29.15300
H  29.41700 1.94200 33.30500
H  30.41300 -1.05600 36.07900
H  28.85600 -0.36200 36.49900
H  30.45100 0.30300 37.05300
Mg 47.67400 24.97600 28.66900
C  48.35900 27.47100 31.04100
C  47.16900 22.79500 31.25800
C  46.79500 22.72000 26.39900
C  48.53800 27.21000 26.08800
N  47.90500 25.13700 30.85000
C  48.03800 26.29000 31.65000
C  47.82900 26.02700 33.20700
C  47.63800 24.46300 33.23500
C  47.61100 24.08000 31.70000
C  48.63300 23.79400 34.18100
C  46.70600 26.92900 33.84500
C  45.84800 26.42100 35.11700
H  45.85500 27.24900 36.44800
N  47.05600 23.02500 28.77700
C  46.92400 22.32100 29.97300
C  46.46900 20.94400 29.59500
C  46.26900 20.89400 28.16800
C  46.73800 22.23700 27.72200
C  46.27000 19.97100 30.65400
C  45.90900 19.76500 27.23800
O  45.89900 19.80500 25.99700
C  45.62500 18.51900 27.92500
N  47.95200 24.84900 26.42500
C  47.24500 23.95100 25.76700
C  47.08500 24.22800 24.30600
C  47.54800 25.68000 24.26900
C  48.10300 25.92000 25.71300
C  47.93000 23.30100 23.39100
C  46.58900 26.74800 23.78700
C  47.15200 27.99800 23.26000
N  48.23000 26.91300 28.53900
C  48.54600 27.70500 27.42400
C  49.00800 28.97300 27.83500
C  48.83900 29.01600 29.24400
C  48.40400 27.67200 29.64200
C  49.52300 29.92500 26.82200
C  48.94800 29.82800 30.41800
O  49.38600 30.97300 30.54900
C  48.65200 28.89500 31.60700
C  49.67700 28.89600 32.64300
O  50.81500 28.49100 32.42000
O  49.21900 29.32000 33.87300
C  50.32600 29.44700 34.92700
H  46.89300 22.09000 32.04400
H  46.35300 22.03200 25.67500
H  48.82800 27.98100 25.37100
H  48.78100 26.28900 33.66800
H  46.66600 24.17100 33.63300
H  48.13100 23.70500 35.14400
H  49.60100 24.27700 34.31000
H  48.95500 22.84200 33.75800
H  46.04800 27.35100 33.08600
H  47.19400 27.82400 34.23200
H  46.10400 25.38100 35.31900
H  44.78400 26.43300 34.88000
H  45.33500 19.47000 30.40400
H  46.20700 20.27800 31.69800
H  47.04900 19.21000 30.62900
H  44.56400 18.62300 28.15500
H  46.24600 18.38600 28.81100
H  45.82600 17.70100 27.23400
H  46.00700 24.21200 24.14400
H  48.43300 25.64100 23.63400
H  47.69600 23.50900 22.34700
H  47.70200 22.30400 23.76800
H  48.95500 23.58500 23.63000
H  45.93000 27.04800 24.60200
H  45.93300 26.27800 23.05400
H  48.23600 27.97800 23.15100
H  46.79600 28.82500 23.87500
H  46.70700 28.31900 22.31800
H  48.63800 30.38300 26.38100
H  50.20800 29.38900 26.16600
H  50.02900 30.72200 27.36600
H  47.85800 29.26700 32.25400
H  51.35100 29.32900 34.57700
H  50.06700 28.76700 35.74000
H  50.08800 30.39600 35.40700

