158

Mg 40.57700 8.95500 28.80600
C  42.13200 10.07700 31.83000
C  38.23700 7.36600 30.91000
C  39.26000 7.43700 26.11900
C  43.27900 9.91900 26.93500
N  40.21900 8.91500 31.05900
C  40.94400 9.41500 32.13600
C  40.37500 9.06500 33.47700
C  39.21600 8.04500 33.05300
C  39.25100 8.07200 31.58800
C  39.35600 6.64100 33.62900
C  39.90800 10.35600 34.22200
C  40.19700 10.24100 35.72500
H  41.11600 11.28800 36.45300
N  38.90300 7.71400 28.54000
C  38.15500 7.08400 29.51900
C  37.18400 6.25300 28.93300
C  37.40700 6.32300 27.56700
C  38.55500 7.24500 27.32300
C  36.14900 5.33700 29.73600
C  36.59500 5.64600 26.50900
O  36.91000 5.67000 25.32600
C  35.36500 4.94400 26.81300
N  41.27900 8.68600 26.86700
C  40.44900 8.10600 25.94600
C  41.02600 8.21200 24.48600
C  42.30600 9.08700 24.76900
C  42.27400 9.31300 26.26000
C  41.19000 6.90700 23.76400
C  42.58500 10.34900 23.87900
C  41.86700 11.64900 24.42200
N  42.29700 9.80200 29.23900
C  43.34000 10.20400 28.38100
C  44.40800 10.91800 29.13500
C  43.93500 10.86100 30.47800
C  42.69900 10.19700 30.46600
C  45.69400 11.39000 28.55100
C  44.34000 11.14400 31.79100
O  45.39400 11.60900 32.20400
C  43.09900 10.68500 32.74500
C  43.66900 9.61700 33.64200
O  44.09100 8.47600 33.24800
O  43.83900 10.19600 34.87000
C  44.52100 9.40200 35.93200
H  37.51800 6.95200 31.61900
H  38.90100 7.00200 25.18300
H  44.16700 10.29700 26.42500
H  41.11800 8.56700 34.10100
H  38.22000 8.48000 33.13400
H  40.15100 6.56600 34.37200
H  39.61900 5.96700 32.81400
H  38.38600 6.25000 33.93400
H  38.82800 10.50000 34.16800
H  40.43300 11.22600 33.82700
H  40.55600 9.26500 36.05100
H  39.23600 10.28100 36.23800
H  36.55700 5.13000 30.72500
H  36.09100 4.35300 29.27100
H  35.18400 5.84100 29.78900
H  35.54700 3.88800 27.01200
H  34.74600 4.92500 25.91600
H  34.73900 5.28900 27.63500
H  40.34500 8.79900 23.87000
H  43.12500 8.40000 24.55600
H  40.99100 5.98800 24.31600
H  42.23500 6.93800 23.45500
H  40.53300 7.00900 22.90100
H  42.29400 10.19000 22.84100
H  43.66000 10.42300 23.71800
H  42.55900 12.37400 24.85200
H  41.17500 11.38800 25.22300
H  41.41600 12.22800 23.61700
H  45.51400 12.01300 27.67500
H  46.36300 10.57300 28.27900
H  46.04000 12.06000 29.33900
H  42.82900 11.51600 33.39600
H  44.45500 9.95500 36.86900
H  45.56700 9.19100 35.71100
H  43.99200 8.46900 36.12400
Mg 29.61100 57.81700 40.80300
C  26.90600 55.79100 40.03000
C  31.64200 55.14900 39.91400
C  32.15200 59.97300 40.97100
C  27.41100 60.47600 41.54200
N  29.27000 55.68800 39.97200
C  28.10500 55.03100 39.82400
C  28.30800 53.54200 39.43300
C  29.81500 53.39200 39.69000
C  30.29000 54.78900 39.86800
C  30.14600 52.38800 40.84400
C  27.81400 53.11300 37.97100
C  28.19400 53.90800 36.75900
H  27.24900 54.83500 36.09600
N  31.64800 57.58800 40.44600
C  32.32600 56.42500 40.11100
C  33.73400 56.71500 39.93200
C  33.87400 58.12300 40.14200
C  32.54700 58.60300 40.55500
C  34.70400 55.71400 39.44400
C  35.13200 58.82000 39.85900
O  36.19700 58.15600 39.55200
C  35.22600 60.33900 39.90200
N  29.72000 59.99300 41.14000
C  30.91500 60.55500 41.34500
C  30.71700 61.98700 41.75400
C  29.25100 62.05900 42.19600
C  28.74700 60.77300 41.63100
C  31.76600 62.51300 42.77000
C  28.53900 63.42100 41.95300
C  27.96600 64.17100 43.14900
N  27.62300 58.11400 40.80200
C  26.86100 59.27400 41.08400
C  25.41600 58.95100 40.99300
C  25.44600 57.57000 40.64700
C  26.75500 57.11600 40.45300
C  24.15700 59.87400 41.34000
C  24.53200 56.40400 40.28200
O  23.30300 56.24300 40.26200
C  25.49900 55.25000 40.03800
C  25.28000 54.08900 40.96700
O  25.44500 54.03800 42.19700
O  24.72400 53.00500 40.26400
C  24.24200 51.91600 41.13000
H  32.37900 54.36900 39.71500
H  32.84400 60.81700 41.00000
H  26.65000 61.12900 41.97400
H  27.82900 52.99500 40.24500
H  30.17300 52.92500 38.77300
H  29.34100 51.71800 41.14600
H  30.40800 53.02600 41.68800
H  31.02400 51.88100 40.44300
H  26.73600 53.03900 38.11400
H  28.26200 52.12900 37.83300
H  28.78400 53.31100 36.06300
H  28.80200 54.74200 37.10900
H  35.73100 55.74700 39.80900
H  34.82000 55.89500 38.37500
H  34.35800 54.68500 39.53800
H  34.33200 60.77600 39.45800
H  36.00600 60.68100 39.22200
H  35.40300 60.65000 40.93200
H  30.78800 62.58900 40.84800
H  29.24800 61.87700 43.27100
H  32.44200 61.67800 42.95800
H  31.37200 62.92700 43.69900
H  32.26300 63.23600 42.12400
H  27.77900 63.17300 41.21100
H  29.29300 64.05800 41.49000
H  28.33500 65.19600 43.15000
H  28.28700 63.75100 44.10200
H  26.88200 64.18600 43.27000
H  23.20500 59.54500 40.92400
H  24.34200 60.90600 41.04300
H  24.07200 59.81100 42.42500
H  25.15800 54.83700 39.08900
H  24.34900 51.00400 40.54200
H  23.19000 52.14700 41.29800
H  24.77300 51.88300 42.08100

