158

Mg 53.27500 24.95900 45.46100
C  50.91100 27.34300 44.25800
C  51.64100 22.57700 43.64200
C  56.13300 23.09000 45.17000
C  55.35000 27.77400 46.02500
N  51.40600 24.97600 44.24400
C  50.59300 26.04000 43.81800
C  49.49800 25.50200 42.88600
C  49.59200 23.96800 43.12100
C  50.97500 23.80300 43.61900
C  48.58900 23.20100 44.03000
C  49.65300 25.94400 41.33300
C  51.01900 26.34900 40.76600
H  51.68000 25.29000 39.88700
N  53.72200 23.02400 44.89700
C  52.87400 22.17100 44.16300
C  53.52600 20.88400 43.96000
C  54.81500 20.97000 44.50600
C  54.99600 22.42500 44.84900
C  52.67500 19.62000 43.52100
C  55.75300 19.88400 44.64700
O  55.43300 18.71800 44.26700
C  57.11700 20.09400 45.20900
N  55.39900 25.35600 45.47300
C  56.40600 24.41700 45.39100
C  57.89000 25.07200 45.74000
C  57.50700 26.50500 46.15900
C  56.00300 26.52600 45.83300
C  58.81900 24.27300 46.71300
C  58.35200 27.53200 45.40300
C  59.06500 28.65700 46.17600
N  53.11100 27.06800 45.49200
C  54.02600 28.04800 45.77600
C  53.29500 29.28500 46.03000
C  52.10600 29.03200 45.43600
C  52.03600 27.67000 45.02200
C  53.77600 30.57600 46.54300
C  50.93000 29.70300 44.91900
O  50.55900 30.88400 44.98200
C  50.14100 28.59900 44.17100
C  49.87000 29.07800 42.79900
O  50.72900 29.53800 41.96700
O  48.55700 28.94400 42.57500
C  47.97500 29.44400 41.32100
H  51.13100 21.84900 43.00700
H  57.05500 22.50500 45.16500
H  56.01700 28.58200 46.33400
H  48.62500 25.98800 43.32100
H  49.59100 23.50200 42.13600
H  47.80900 23.94200 44.20300
H  48.93200 22.91200 45.02400
H  48.13000 22.35300 43.52100
H  48.99600 26.77900 41.09300
H  49.30000 25.10000 40.73900
H  51.67000 26.77900 41.52700
H  50.79800 27.23800 40.17500
H  52.43900 19.08000 44.43800
H  53.11700 18.92000 42.81100
H  51.68800 19.87000 43.13300
H  57.48700 19.12400 45.54000
H  56.95900 20.68900 46.10800
H  57.82100 20.53500 44.50300
H  58.34300 25.16100 44.75200
H  57.40000 26.67800 47.23000
H  58.56500 23.22400 46.86500
H  58.80800 24.72400 47.70600
H  59.82900 24.24800 46.30200
H  57.76700 28.05500 44.64700
H  59.18900 27.05300 44.89400
H  58.87400 28.45000 47.22900
H  58.58000 29.61200 45.96900
H  60.14000 28.69400 46.00100
H  54.86200 30.66700 46.56700
H  53.20700 30.76600 47.45300
H  53.44400 31.27800 45.77800
H  49.26300 28.53000 44.81400
H  46.90300 29.26600 41.23800
H  48.28300 28.92300 40.41500
H  48.08500 30.52100 41.19100
Mg 46.33400 17.10800 29.05500
C  44.58800 16.64400 32.20400
C  48.66800 18.77900 30.69600
C  47.43800 17.80900 26.17200
C  43.46200 15.51000 27.60300
N  46.57300 17.73100 31.25200
C  45.78400 17.36200 32.33300
C  46.44700 17.91000 33.60000
C  47.67100 18.77100 33.10300
C  47.62400 18.53500 31.59700
C  47.67500 20.27900 33.51700
C  46.88400 16.84500 34.66600
C  46.05800 16.84800 35.99800
H  45.83100 18.21900 36.63500
N  47.99100 17.95600 28.51700
C  48.89400 18.56600 29.30900
C  50.09900 18.94900 28.51800
C  49.75100 18.66600 27.19500
C  48.31800 18.19300 27.23000
C  51.28700 19.59800 29.06900
C  50.52100 18.67600 25.95900
O  50.00300 18.45300 24.88500
C  51.96100 18.91200 25.97800
N  45.52800 16.72400 27.15700
C  46.15900 17.16200 26.10000
C  45.43900 16.85500 24.74400
C  44.31800 15.83400 25.26500
C  44.44900 15.92000 26.75900
C  45.00900 18.18100 24.03000
C  44.44600 14.46400 24.69500
C  43.56400 14.12700 23.51600
N  44.39500 16.30200 29.72800
C  43.37900 15.68200 28.95200
C  42.36400 15.17400 29.80200
C  42.79200 15.52700 31.08400
C  44.03500 16.23300 30.97300
C  41.01100 14.55600 29.33600
C  42.42800 15.51600 32.48700
O  41.42100 15.01700 33.04800
C  43.57000 16.19900 33.23900
C  42.93100 17.32300 33.96900
O  42.78200 18.46300 33.46400
O  42.47000 16.84500 35.15400
C  41.44800 17.79600 35.80800
H  49.46000 19.32900 31.20900
H  47.79300 18.15800 25.20000
H  42.71100 14.82300 27.20900
H  45.68400 18.51200 34.09400
H  48.59400 18.32800 33.47600
H  48.42200 20.47000 34.28800
H  46.73700 20.62600 33.95100
H  47.83500 20.93300 32.66000
H  47.93700 16.97300 34.91400
H  46.73300 15.86000 34.22500
H  46.63100 16.38100 36.79900
H  45.18000 16.22900 35.81500
H  51.32300 20.65600 28.81300
H  52.13000 19.01500 28.69900
H  51.25200 19.48000 30.15200
H  52.49200 18.09200 26.46300
H  52.25700 19.86000 26.42600
H  52.29700 18.87900 24.94200
H  46.15300 16.32800 24.11100
H  43.29200 16.12800 25.04400
H  45.59600 19.00500 24.43600
H  43.94900 18.35700 24.20900
H  45.28600 18.17800 22.97600
H  44.14700 13.68800 25.39900
H  45.46000 14.12900 24.47300
H  44.11400 14.53500 22.66800
H  42.55600 14.50700 23.68100
H  43.60400 13.04200 23.41900
H  40.58100 15.05400 28.46800
H  40.31400 14.52500 30.17400
H  41.20700 13.52100 29.05600
H  43.93400 15.50500 33.99700
H  42.11200 18.21600 36.56400
H  40.64000 17.30700 36.35200
H  40.99700 18.54200 35.15300

