158

Mg 8.99300 3.83200 27.20300
C  10.25700 2.22200 30.03000
C  7.03800 5.75000 29.24000
C  7.87400 5.47800 24.50600
C  10.69300 1.57300 25.24800
N  8.68900 3.87500 29.39200
C  9.42100 3.26600 30.38000
C  9.08000 3.90100 31.72700
C  7.85600 4.83200 31.53300
C  7.86400 4.82300 29.95800
C  6.50200 4.41100 32.08600
C  10.32200 4.54500 32.37900
C  10.16900 5.18100 33.77900
H  10.99600 4.62100 34.97700
N  7.62200 5.33900 26.89000
C  6.87300 5.98500 27.84800
C  6.09900 7.10500 27.25300
C  6.49700 7.13900 25.91800
C  7.35400 5.93100 25.72400
C  5.16700 8.02900 27.99700
C  6.18200 8.15000 24.87100
O  6.52400 7.99700 23.67700
C  5.45700 9.48700 25.24900
N  9.02200 3.37300 25.10800
C  8.68600 4.33100 24.24300
C  9.19700 4.02600 22.88300
C  10.06300 2.69200 23.02100
C  9.90600 2.46500 24.53800
C  8.08900 3.95600 21.83400
C  11.55200 2.75200 22.42900
C  11.98400 1.52600 21.67600
N  10.19100 2.15600 27.48600
C  10.82500 1.37500 26.59300
C  11.64400 0.36900 27.22100
C  11.40600 0.67000 28.59900
C  10.49200 1.76100 28.68300
C  12.55000 -0.71100 26.71900
C  11.73800 0.29700 29.87400
O  12.60000 -0.51200 30.14700
C  11.09200 1.27800 30.89900
C  10.38400 0.65700 32.05800
O  9.22200 0.24100 31.96400
O  11.19600 0.68600 33.15900
C  10.39800 0.58100 34.37400
H  6.50600 6.36400 29.96800
H  7.80600 6.24000 23.72700
H  11.26200 0.88300 24.62100
H  8.83200 3.07900 32.39700
H  8.06300 5.87600 31.76500
H  6.62100 3.41400 32.51000
H  5.69700 4.33700 31.35500
H  6.11600 4.98300 32.93000
H  10.74300 5.33600 31.75700
H  11.15600 3.84300 32.39500
H  9.14100 5.13400 34.13800
H  10.36100 6.25000 33.69500
H  5.65500 8.96400 28.26900
H  4.92800 7.59100 28.96600
H  4.23800 8.16600 27.44300
H  5.63600 10.16400 24.41300
H  5.89100 9.96700 26.12600
H  4.43100 9.12500 25.31800
H  9.82600 4.85900 22.57100
H  9.57700 1.82300 22.57700
H  7.17000 4.18300 22.37500
H  7.92600 3.07000 21.22000
H  8.14100 4.74100 21.07900
H  12.25600 2.85800 23.25500
H  11.64900 3.63700 21.80000
H  12.81900 1.00200 22.14100
H  12.20400 1.84000 20.65600
H  11.12300 0.86000 21.61400
H  12.36200 -0.85800 25.65600
H  12.41400 -1.69500 27.16600
H  13.56400 -0.39100 26.96200
H  11.97300 1.82200 31.23900
H  11.06100 0.20300 35.15200
H  9.52600 -0.07300 34.36600
H  10.07500 1.59400 34.61300
Mg 47.00100 25.47300 27.99200
C  47.76200 27.66800 30.46900
C  46.42700 23.01600 30.31400
C  46.10600 23.41800 25.51600
C  47.74600 27.87400 25.66500
N  47.03400 25.39200 30.17900
C  47.27900 26.40800 31.02800
C  47.24000 25.95600 32.47800
C  46.73800 24.50600 32.46300
C  46.73400 24.26000 30.86600
C  47.58300 23.53700 33.32500
C  46.53300 27.04500 33.40500
C  45.72700 26.57700 34.60000
H  45.51600 27.53800 35.83800
N  46.45100 23.48200 27.92800
C  46.27900 22.60800 29.00200
C  45.80400 21.32900 28.54000
C  45.54800 21.48400 27.17200
C  46.12500 22.82200 26.78300
C  45.49400 20.19300 29.57300
C  44.85500 20.61600 26.21200
O  44.46700 20.99100 25.10900
C  44.43300 19.33200 26.64700
N  47.03300 25.61900 25.85000
C  46.51500 24.65500 25.06600
C  46.53400 25.01500 23.58700
C  47.02300 26.49200 23.64500
C  47.24400 26.74100 25.14800
C  47.47200 24.18500 22.67800
C  45.95300 27.52800 23.05300
C  46.38800 28.43300 21.91200
N  47.75200 27.30900 28.00700
C  48.07600 28.18700 26.97900
C  48.45500 29.43800 27.50200
C  48.45100 29.21000 28.88300
C  48.00600 27.96100 29.13600
C  48.76700 30.66800 26.76200
C  48.75800 29.88500 30.15200
O  49.20900 31.00700 30.27500
C  48.19500 28.91900 31.24100
C  49.26300 28.64100 32.15100
O  50.24700 27.90500 31.93000
O  49.12400 29.35100 33.29200
C  50.34500 29.39800 34.16400
H  46.23800 22.30900 31.12500
H  45.88200 22.77300 24.66400
H  47.95800 28.59500 24.87300
H  48.28300 26.04000 32.78400
H  45.69600 24.45400 32.77800
H  48.13900 24.04100 34.11500
H  48.28400 23.07400 32.63100
H  47.01600 22.74700 33.81900
H  45.78100 27.49500 32.75800
H  47.33400 27.71300 33.72300
H  46.16000 25.63100 34.92400
H  44.75900 26.20700 34.26200
H  44.89200 19.35000 29.23500
H  45.13600 20.68500 30.47700
H  46.39800 19.66300 29.87500
H  44.03400 18.75800 25.81100
H  43.69500 19.38400 27.44600
H  45.38200 18.82600 26.82000
H  45.53700 25.02000 23.14700
H  47.94700 26.62000 23.08100
H  48.18300 23.60700 23.26900
H  47.95700 24.79600 21.91700
H  46.92900 23.48400 22.04300
H  45.42700 28.19600 23.73500
H  45.14700 26.95000 22.60000
H  45.70000 28.23800 21.08900
H  47.43100 28.26600 21.64400
H  46.25700 29.48300 22.17400
H  49.16200 31.42200 27.44300
H  47.86900 31.13800 26.36200
H  49.52300 30.40200 26.02300
H  47.27800 29.37700 31.61200
H  49.99700 29.05800 35.13900
H  50.66000 30.43500 34.27900
H  51.21800 28.79200 33.92100

