158

Mg 36.86500 50.17200 25.27400
C  37.00100 47.89700 27.89000
C  35.67600 52.60800 27.55000
C  35.96800 52.04000 22.77200
C  37.59700 47.57600 23.07700
N  36.31300 50.16500 27.42200
C  36.55600 49.20900 28.26300
C  36.37200 49.72200 29.67300
C  35.65600 51.09800 29.50500
C  35.80300 51.29700 28.08400
C  34.18100 51.24600 30.10600
C  37.75700 49.70400 30.54100
C  37.61500 48.91800 31.84100
H  36.29900 49.03000 32.58800
N  36.03500 52.12500 25.17700
C  35.57900 52.95100 26.18100
C  35.18100 54.18300 25.56900
C  35.24500 54.02500 24.13800
C  35.78800 52.75200 23.99000
C  34.77900 55.37300 26.37600
C  34.79700 55.03600 23.05600
O  34.69600 54.71400 21.88900
C  34.47200 56.49800 23.46500
N  36.71700 49.77500 23.15500
C  36.40500 50.76800 22.41000
C  36.76400 50.48000 20.91700
C  37.47900 49.03100 21.04100
C  37.22500 48.75300 22.52900
C  35.49000 50.55800 20.02900
C  38.94800 48.90900 20.53700
C  39.12900 47.65300 19.61000
N  37.24100 48.10600 25.38100
C  37.54000 47.22100 24.47000
C  37.65100 45.94600 25.06300
C  37.47500 46.18100 26.41600
C  37.18200 47.49600 26.57600
C  38.14900 44.73100 24.36300
C  37.46300 45.55500 27.66400
O  37.65600 44.42100 28.06000
C  37.23100 46.69200 28.76800
C  35.99900 46.45600 29.59000
O  34.85300 46.89200 29.34300
O  36.38700 45.61400 30.62200
C  35.35600 45.04300 31.39500
H  35.39400 53.33000 28.32000
H  36.01900 52.64000 21.86100
H  37.92800 46.83900 22.34300
H  35.67600 49.03700 30.15700
H  36.15100 51.86000 30.10700
H  34.05800 52.29200 30.38500
H  33.97100 50.80800 31.08100
H  33.38700 50.96900 29.41300
H  38.18100 50.67100 30.81000
H  38.53600 49.11800 30.05500
H  38.33000 49.36900 32.52900
H  37.79000 47.85700 31.66100
H  35.21300 56.30000 26.00300
H  34.98800 55.20900 27.43300
H  33.69000 55.38800 26.32400
H  33.68600 56.56800 24.21700
H  34.16600 56.90800 22.50200
H  35.31100 57.09800 23.81600
H  37.54800 51.14600 20.55800
H  36.71900 48.37200 20.62100
H  35.28200 51.62100 19.90800
H  34.72300 50.06500 20.62700
H  35.83100 50.12600 19.08900
H  39.71300 49.00200 21.30700
H  39.15600 49.73000 19.85200
H  40.05300 47.10900 19.80100
H  39.06800 48.01600 18.58400
H  38.36100 46.90100 19.79200
H  37.45000 44.32100 23.63400
H  38.44300 44.00400 25.12000
H  39.03100 44.97400 23.77000
H  38.10300 46.71600 29.42100
H  34.51700 45.71000 31.59400
H  35.67900 44.74800 32.39300
H  34.83700 44.18400 30.97000
Mg 26.98300 50.27100 26.89200
C  24.62400 51.13000 29.45100
C  29.12000 49.34900 29.53300
C  29.19200 49.95400 24.55500
C  24.71300 51.65400 24.57500
N  26.87300 50.28100 29.26600
C  25.80200 50.59300 30.03900
C  26.09500 50.47600 31.55500
C  27.55700 49.90900 31.54600
C  27.88400 49.83100 30.02000
C  28.66800 50.73100 32.27300
C  25.01900 49.45500 32.22700
C  24.62800 49.80000 33.70500
H  24.97500 48.83000 34.85600
N  28.84200 49.67400 27.00300
C  29.56800 49.30900 28.15900
C  30.91000 48.88300 27.76600
C  31.04100 49.22700 26.35200
C  29.64100 49.60100 25.88300
C  31.97900 48.28100 28.67000
C  32.18000 49.33100 25.42200
O  32.12400 49.88600 24.35000
C  33.55400 48.86400 25.89800
N  27.02600 51.02700 24.93800
C  27.96900 50.44100 24.12000
C  27.56000 50.42000 22.61800
C  26.13600 50.79000 22.62700
C  25.90400 51.18600 24.15200
C  28.46200 51.28100 21.78100
C  25.15700 49.74200 22.15600
C  24.19300 50.22900 21.07200
N  25.13900 51.29600 26.97400
C  24.33800 51.75600 25.91400
C  23.12600 52.23800 26.39100
C  23.22700 52.01600 27.79600
C  24.45900 51.36600 28.07400
C  21.98600 52.66600 25.49600
C  22.32700 52.09400 28.97300
O  21.15800 52.40000 29.12800
C  23.28000 51.61600 30.11800
C  23.58400 52.79500 30.96900
O  24.56000 53.50100 30.86100
O  22.61500 52.85700 31.87100
C  22.79100 53.74100 33.03100
H  29.78600 49.02900 30.33700
H  29.89100 49.68900 23.75900
H  24.00100 51.96900 23.81000
H  25.92200 51.43800 32.03600
H  27.45200 48.86900 31.85400
H  28.44200 51.54200 32.96500
H  29.25900 51.18100 31.47500
H  29.12300 49.92000 32.84200
H  25.42600 48.44400 32.20500
H  24.11000 49.37700 31.63100
H  23.53800 49.76200 33.72200
H  24.95800 50.79800 33.99300
H  31.61200 48.06100 29.67200
H  32.83800 48.94400 28.76800
H  32.32500 47.34500 28.22900
H  33.50000 47.97400 26.52500
H  33.87900 49.74000 26.45900
H  34.31600 48.73600 25.12900
H  27.67000 49.40700 22.23100
H  26.05900 51.67500 21.99600
H  28.93500 50.63700 21.04000
H  29.12200 51.78000 22.49000
H  27.95000 52.16100 21.39100
H  24.51800 49.55400 23.01900
H  25.71700 48.82500 21.97000
H  24.57300 51.15100 20.63300
H  23.20000 50.39400 21.49100
H  24.11500 49.42300 20.34200
H  22.04200 53.73300 25.27700
H  21.05900 52.30800 25.94400
H  22.04700 52.08700 24.57500
H  22.81700 50.84800 30.73700
H  23.66700 54.38600 32.95900
H  23.08100 53.13300 33.88800
H  21.85100 54.16800 33.37900

