158

Mg 35.99200 48.82700 24.95800
C  36.16200 47.26900 28.16200
C  35.03800 51.66600 26.68200
C  35.79200 50.19900 22.03600
C  36.90200 45.78200 23.51300
N  35.64800 49.36800 27.24600
C  35.81000 48.60100 28.34300
C  35.68800 49.44400 29.63200
C  35.14100 50.83800 29.09900
C  35.28800 50.64900 27.60200
C  33.69300 51.28700 29.50600
C  36.94100 49.44400 30.46600
C  36.88700 49.22600 31.91400
H  35.52300 49.33200 32.67000
N  35.41600 50.61500 24.43500
C  35.09000 51.69700 25.26300
C  35.02300 52.86900 24.41900
C  35.17900 52.43200 23.10000
C  35.48300 50.99700 23.17500
C  34.80700 54.30200 24.97800
C  34.99100 53.31300 21.88400
O  35.07900 52.90700 20.71800
C  34.79000 54.82000 22.03800
N  36.20600 48.08200 23.00800
C  36.14700 48.86000 21.94400
C  36.44700 48.09200 20.60300
C  36.95500 46.69100 21.17300
C  36.58900 46.87100 22.65800
C  35.17500 47.84500 19.80700
C  38.51900 46.48300 20.95900
C  38.83000 46.00400 19.51100
N  36.41900 46.90700 25.66700
C  36.83500 45.77700 24.92100
C  37.13400 44.68500 25.81900
C  36.89800 45.22600 27.11300
C  36.39500 46.57400 26.90500
C  37.62400 43.36100 25.43200
C  37.00300 44.97500 28.51900
O  37.52600 43.99200 29.05800
C  36.51100 46.22600 29.31300
C  35.33400 45.86200 30.12500
O  34.25100 45.59400 29.66500
O  35.69500 45.83500 31.44400
C  34.67000 45.15200 32.24700
H  34.77200 52.65100 27.07200
H  35.67700 50.69300 21.06900
H  37.25400 44.87400 23.02000
H  34.84000 49.03300 30.17900
H  35.91200 51.57200 29.33600
H  33.79100 52.19500 30.10200
H  33.20500 50.59500 30.19100
H  33.06100 51.42100 28.62800
H  37.32200 50.45200 30.29800
H  37.72700 48.79100 30.08700
H  37.56400 49.97600 32.32200
H  37.28500 48.25300 32.20100
H  35.27000 55.10500 24.40500
H  35.39300 54.34100 25.89700
H  33.76400 54.49800 25.22700
H  34.52900 55.20800 21.05300
H  35.79100 55.16600 22.29400
H  33.98100 55.14800 22.69000
H  37.29000 48.48100 20.03200
H  36.49700 45.73900 20.90300
H  34.27300 47.77600 20.41400
H  35.36000 46.97200 19.18000
H  35.10400 48.71600 19.15700
H  38.96700 45.91200 21.77300
H  38.97600 47.46500 21.08200
H  39.43800 45.10100 19.56600
H  39.45800 46.79000 19.09300
H  37.91400 45.75600 18.97400
H  36.90200 42.69800 24.95400
H  37.86300 42.91100 26.39600
H  38.50600 43.48300 24.80300
H  37.41100 46.47600 29.87500
H  33.76200 45.74200 32.36700
H  35.12800 45.01000 33.22600
H  34.36800 44.19900 31.81000
Mg 16.46600 52.65600 26.19800
C  18.70700 51.23100 28.39300
C  14.28500 53.15500 28.72000
C  14.53500 54.04800 23.87900
C  18.74100 51.60200 23.61500
N  16.60000 52.32100 28.28500
C  17.56200 51.81700 29.04500
C  17.23100 51.89200 30.54100
C  15.72100 52.04600 30.56200
C  15.51700 52.53900 29.11600
C  15.01600 50.71900 30.84400
C  17.99700 53.12200 31.12900
C  18.23400 53.25200 32.61700
H  17.30500 52.51000 33.53700
N  14.60600 53.45100 26.26500
C  13.88100 53.64600 27.46800
C  12.60300 54.35400 27.14900
C  12.69700 54.68800 25.74800
C  13.97500 54.06600 25.22600
C  11.68200 54.85000 28.20200
C  11.73700 55.56800 24.91700
O  11.83900 55.78800 23.72200
C  10.60800 56.33500 25.53100
N  16.69000 52.76300 24.03900
C  15.70500 53.41900 23.35000
C  16.10900 53.54900 21.87000
C  17.54100 52.94600 21.84700
C  17.71300 52.45500 23.23900
C  15.09400 52.91400 20.78400
C  18.67500 53.83500 21.32100
C  19.83600 54.28700 22.38700
N  18.29100 51.55700 25.97200
C  19.05700 51.16000 24.91200
C  20.24300 50.51500 25.31500
C  20.13400 50.48600 26.69700
C  18.91400 51.11100 27.03700
C  21.36500 49.99900 24.35800
C  20.80300 50.08000 27.88700
O  21.84400 49.40900 28.02800
C  19.92500 50.60300 29.03000
C  19.60000 49.59200 29.99500
O  18.89300 48.61100 29.77500
O  19.97500 50.00600 31.24700
C  19.56900 49.18400 32.37800
H  13.52600 53.21800 29.50400
H  13.94400 54.62700 23.16600
H  19.40000 51.34200 22.78400
H  17.45100 51.02600 31.16400
H  15.57800 52.74700 31.38400
H  14.00300 50.81100 30.45100
H  14.91300 50.62000 31.92500
H  15.60900 49.84000 30.59400
H  17.51300 54.05000 30.82200
H  18.92100 53.19900 30.55500
H  18.17500 54.32600 32.79700
H  19.28100 52.96100 32.70800
H  11.83400 54.28000 29.11900
H  10.68300 54.75000 27.77700
H  11.92300 55.87200 28.49300
H  10.28700 57.05800 24.78100
H  11.05200 56.81500 26.40400
H  9.93600 55.50600 25.75300
H  16.13300 54.61300 21.63400
H  17.42700 52.08900 21.18300
H  14.09300 53.08400 21.18100
H  15.32800 51.88800 20.50000
H  15.28100 53.52900 19.90300
H  18.33300 54.64800 20.68000
H  19.33300 53.28500 20.64900
H  20.79300 53.78500 22.24400
H  19.59100 54.38700 23.44400
H  20.12600 55.28500 22.05700
H  21.95900 49.17700 24.75700
H  22.04800 50.84000 24.24100
H  21.02100 49.69300 23.37000
H  20.47500 51.33200 29.62700
H  20.29000 48.39800 32.60100
H  18.62300 48.64400 32.41300
H  19.54700 49.93000 33.17300

