158

Mg 2.40600 -1.98800 44.83800
C  5.62200 -1.30100 44.46100
C  1.55100 0.74600 42.89700
C  -0.90800 -3.08100 44.73600
C  3.23700 -4.92100 46.55400
N  3.46400 -0.61200 43.69100
C  4.82300 -0.53400 43.63200
C  5.29400 0.62500 42.76100
C  4.00500 1.51100 42.70300
C  2.89600 0.51200 43.15000
C  4.02200 2.86300 43.51700
C  5.99500 0.14300 41.47500
C  7.37300 0.88100 41.18700
H  7.49000 1.94300 40.08400
N  0.61000 -1.34200 43.75900
C  0.47400 -0.11400 43.10800
C  -0.88700 0.05400 42.72300
C  -1.63300 -1.02100 43.24800
C  -0.65800 -1.91100 43.96700
C  -1.28500 1.26200 41.86900
C  -3.14000 -1.15700 43.17400
O  -3.82500 -0.36100 42.55900
C  -3.95300 -2.23400 43.89700
N  1.32500 -3.77000 45.53800
C  0.00300 -3.97800 45.37900
C  -0.47700 -5.28400 46.09000
C  0.80800 -5.77300 46.79700
C  1.84800 -4.78700 46.22400
C  -1.65900 -5.15000 47.01500
C  1.15200 -7.30500 46.59300
C  1.74400 -8.16800 47.77200
N  4.14800 -2.96700 45.45800
C  4.35100 -4.11300 46.17000
C  5.77900 -4.20600 46.50000
C  6.35300 -3.06400 45.91100
C  5.27900 -2.40400 45.19600
C  6.51500 -5.35900 47.13700
C  7.54900 -2.26400 45.77000
O  8.64200 -2.43700 46.26000
C  7.13400 -1.07300 44.76800
C  7.38800 0.24600 45.42800
O  6.77700 0.74600 46.42700
O  8.40400 0.95700 44.76600
C  8.49100 2.44400 45.07200
H  1.39600 1.71600 42.42000
H  -1.92400 -3.47800 44.70000
H  3.56700 -5.81400 47.08900
H  5.99100 1.15800 43.40800
H  3.89000 1.77300 41.65100
H  4.33100 3.56200 42.74100
H  4.69800 2.66000 44.34800
H  3.04900 3.13900 43.92400
H  5.24500 0.35300 40.71300
H  6.26200 -0.91400 41.50300
H  7.98200 0.13600 40.67400
H  7.87600 1.24200 42.08500
H  -0.51500 2.03000 41.80900
H  -2.27000 1.59200 42.19800
H  -1.43700 0.77700 40.90500
H  -4.96300 -1.94000 43.61100
H  -3.86100 -2.20000 44.98200
H  -3.76100 -3.23500 43.50900
H  -0.69000 -6.09900 45.39900
H  0.62200 -5.54100 47.84600
H  -2.13700 -4.18900 46.82300
H  -1.51600 -5.30800 48.08400
H  -2.40900 -5.88500 46.72300
H  1.96500 -7.19300 45.87600
H  0.22800 -7.81300 46.31300
H  0.92500 -8.69700 48.25900
H  2.34800 -7.59700 48.47700
H  2.35900 -8.93800 47.30500
H  6.32300 -6.26500 46.56300
H  6.11300 -5.52900 48.13600
H  7.58900 -5.17500 47.11500
H  7.55100 -1.02200 43.76200
H  7.68900 2.85200 45.68700
H  8.52700 2.88600 44.07600
H  9.44300 2.71000 45.53100
Mg 54.94400 23.68300 44.96700
C  52.61100 26.13600 43.85400
C  52.88400 21.28800 43.67400
C  57.45900 21.54200 45.41300
C  57.06300 26.31500 46.01500
N  53.10800 23.70600 43.68000
C  52.32400 24.83900 43.31200
C  51.14600 24.34600 42.36400
C  51.07800 22.83400 42.83100
C  52.45100 22.56800 43.44200
C  49.96700 22.47200 43.84200
C  51.37300 24.61000 40.79700
C  50.38100 25.61300 40.09800
H  49.57800 25.08400 38.94500
N  55.16200 21.60900 44.56700
C  54.12600 20.73600 44.14300
C  54.58400 19.40700 44.19000
C  55.94600 19.47900 44.58300
C  56.23300 20.93900 44.85300
C  53.72200 18.14100 43.82100
C  56.88100 18.34700 44.75400
O  56.51500 17.20300 44.41700
C  58.26900 18.43500 45.21200
N  57.14900 23.97500 45.49700
C  57.90900 22.90400 45.70000
C  59.24800 23.32500 46.23400
C  59.11600 24.86500 46.58700
C  57.70600 25.08700 45.99700
C  59.72600 22.45600 47.52500
C  60.17500 25.84200 46.01000
C  61.55100 25.88400 46.80500
N  54.82400 25.74000 45.11000
C  55.75300 26.70400 45.51100
C  55.20500 27.96000 45.47600
C  53.91200 27.80700 44.89500
C  53.79700 26.42500 44.55800
C  55.89200 29.18900 46.12800
C  52.71100 28.53000 44.46500
O  52.50500 29.72700 44.60400
C  51.83900 27.46700 43.84000
C  51.39400 27.80700 42.50900
O  52.04000 27.78700 41.47300
O  50.04700 28.18400 42.43300
C  49.62000 28.91600 41.16600
H  52.15600 20.51900 43.40500
H  58.31600 20.90400 45.64100
H  57.71200 27.15400 46.27700
H  50.23700 24.77800 42.78300
H  50.86800 22.17200 41.99100
H  49.81100 21.39900 43.73300
H  49.02100 22.93800 43.56700
H  50.19000 22.87100 44.83100
H  51.29200 23.61400 40.36200
H  52.37800 24.99300 40.62200
H  50.89900 26.54000 39.85100
H  49.62500 25.89000 40.83200
H  54.30300 17.23000 43.67600
H  53.06900 18.25300 42.95600
H  53.16400 17.97000 44.74200
H  58.97100 18.99500 44.59400
H  58.61600 17.40200 45.17000
H  58.44600 18.73000 46.24700
H  59.92200 23.16600 45.39300
H  59.05700 24.93400 47.67400
H  59.74500 23.09900 48.40400
H  60.66200 21.95300 47.27900
H  59.01500 21.63700 47.63600
H  59.88100 26.89200 46.00100
H  60.41800 25.54000 44.99100
H  61.76800 24.99500 47.39800
H  61.47800 26.72400 47.49700
H  62.40700 25.97600 46.13700
H  56.98000 29.23400 46.17900
H  55.43800 29.25000 47.11700
H  55.49100 30.06300 45.61300
H  51.02600 27.23700 44.53000
H  48.91500 29.69800 41.44800
H  49.17900 28.21700 40.45700
H  50.54600 29.25300 40.69900

