158

Mg -2.47200 17.50800 26.79800
C  -2.71100 15.26300 29.45700
C  -3.04900 20.12000 28.99500
C  -2.32400 19.63000 24.12800
C  -2.38900 14.82400 24.56000
N  -3.15500 17.59900 29.01000
C  -2.96800 16.56900 29.95200
C  -3.24900 17.06800 31.31700
C  -3.36800 18.67200 31.14900
C  -3.06700 18.87000 29.63300
C  -4.63100 19.54400 31.62400
C  -2.20300 16.57300 32.41300
C  -1.72200 17.53600 33.60700
H  -1.08300 16.80500 34.80000
N  -2.50000 19.60400 26.63800
C  -2.82300 20.46000 27.63800
C  -2.80400 21.86600 27.12700
C  -2.48600 21.70100 25.72900
C  -2.43700 20.24900 25.40200
C  -3.15500 23.15000 27.97300
C  -2.28900 22.75400 24.71600
O  -1.97600 22.46800 23.59100
C  -2.44300 24.19000 25.09000
N  -2.71300 17.26100 24.56600
C  -2.56400 18.29600 23.66100
C  -2.55500 17.77200 22.18100
C  -2.26300 16.27500 22.44600
C  -2.53800 16.07300 23.91600
C  -3.71200 18.06100 21.22300
C  -0.86200 15.71200 21.99500
C  0.30900 16.33700 22.82700
N  -2.58600 15.43100 26.90800
C  -2.53900 14.47500 25.91400
C  -2.66400 13.17500 26.49900
C  -2.72700 13.42800 27.87100
C  -2.65400 14.76900 28.05100
C  -2.64400 11.84300 25.81500
C  -2.85700 12.83300 29.21600
O  -2.92500 11.63700 29.51900
C  -2.95100 13.95600 30.31100
C  -1.91400 13.69800 31.32900
O  -0.76700 13.94100 31.13000
O  -2.48100 13.07700 32.41100
C  -1.52700 12.27300 33.24500
H  -3.24700 20.92100 29.71100
H  -2.28100 20.25000 23.23000
H  -2.28800 13.95900 23.90100
H  -4.18400 16.67000 31.71200
H  -2.56200 19.06200 31.77100
H  -5.10400 18.99600 32.43900
H  -5.31200 19.72900 30.79300
H  -4.30200 20.50600 32.01800
H  -1.31600 16.39700 31.80400
H  -2.52800 15.64600 32.88600
H  -2.40200 18.34500 33.87400
H  -0.84600 17.99000 33.14400
H  -2.27700 23.79500 27.94800
H  -3.25000 22.87900 29.02500
H  -4.07700 23.64600 27.66900
H  -3.45300 24.45000 25.40800
H  -2.21900 24.70800 24.15700
H  -1.62100 24.38800 25.77900
H  -1.65100 18.07500 21.65300
H  -2.97200 15.68400 21.86600
H  -4.53000 18.56600 21.73600
H  -4.24100 17.22800 20.76100
H  -3.42600 18.55300 20.29400
H  -0.60000 15.99100 20.97400
H  -0.85900 14.62800 22.10700
H  0.54500 17.28600 22.34500
H  1.22600 15.76400 22.95800
H  0.07800 16.76300 23.80400
H  -2.20900 11.82700 24.81500
H  -3.67300 11.49500 25.73000
H  -2.13100 11.05100 26.35900
H  -3.95700 14.04400 30.72100
H  -2.04800 11.47400 33.77200
H  -1.09700 12.91100 34.01800
H  -0.71500 11.80200 32.69100
Mg 34.92300 3.32600 29.89800
C  32.76600 4.34500 32.45200
C  37.66700 3.51800 32.36100
C  37.24800 2.64400 27.53000
C  32.55400 3.72500 27.57600
N  35.20300 3.82700 32.18200
C  34.08800 4.06700 32.99900
C  34.51800 3.99600 34.44700
C  36.10700 4.08600 34.42400
C  36.43200 3.81800 32.89700
C  36.63000 5.50500 34.83800
C  34.01500 2.72600 35.21500
C  33.87900 2.87800 36.71100
H  34.76900 3.98300 37.55000
N  37.09900 2.90900 29.99300
C  38.00100 2.99200 31.06300
C  39.29100 2.56900 30.61700
C  39.23200 2.22400 29.25900
C  37.83400 2.53500 28.86000
C  40.49900 2.47400 31.60600
C  40.29300 1.56100 28.36000
O  40.03600 1.24400 27.24200
C  41.70700 1.46900 28.81700
N  35.01300 3.39700 27.87500
C  36.03600 3.05900 27.06500
C  35.60200 2.98900 25.57100
C  34.05600 3.07800 25.60600
C  33.87100 3.39700 27.14100
C  36.33300 4.08300 24.69200
C  33.33800 1.74000 25.30000
C  32.21700 1.68500 24.33700
N  33.05500 3.91900 29.92200
C  32.19600 4.05500 28.89100
C  30.91700 4.42100 29.35300
C  31.06800 4.55100 30.76000
C  32.44000 4.21800 31.06500
C  29.71000 4.68200 28.48900
C  30.42500 4.91900 31.99700
O  29.25900 5.42800 32.09400
C  31.46600 4.66100 33.19300
C  31.56200 5.81500 34.11700
O  32.39400 6.68900 33.96300
O  30.70800 5.61800 35.20600
C  30.71900 6.71400 36.24000
H  38.51600 3.60100 33.04200
H  37.86000 2.45400 26.64600
H  31.83600 3.85200 26.76300
H  34.15600 4.80200 35.08400
H  36.55400 3.42400 35.16600
H  36.06800 6.10900 35.55000
H  36.84200 6.04900 33.91800
H  37.59600 5.39900 35.33100
H  34.68000 1.90100 34.96200
H  32.97000 2.54800 34.96200
H  34.03400 1.92000 37.20800
H  32.86200 3.16400 36.97900
H  41.31800 3.05400 31.17900
H  40.70600 1.40400 31.64800
H  40.25000 2.73800 32.63300
H  41.74700 0.75200 29.63700
H  41.96900 2.43200 29.25500
H  42.44600 1.30700 28.03200
H  35.91600 2.00300 25.22800
H  33.62300 3.85700 24.97900
H  36.97300 4.75500 25.26400
H  35.70800 4.73900 24.08700
H  36.92300 3.49600 23.98900
H  32.84700 1.33600 26.18500
H  34.04400 0.92600 25.13200
H  32.08000 2.65600 23.86000
H  31.29000 1.44700 24.85800
H  32.50300 0.84900 23.69900
H  29.41600 3.78800 27.94000
H  29.89600 5.45400 27.74100
H  28.88100 5.05300 29.09200
H  31.10300 3.77300 33.71100
H  31.63500 6.79200 36.82600
H  29.83400 6.65400 36.87400
H  30.50700 7.59300 35.63100

