158

Mg 16.76700 51.59600 26.76200
C  18.65100 50.32300 29.33900
C  14.29500 52.45500 28.91700
C  14.98100 52.67400 24.11200
C  19.33300 50.57100 24.43400
N  16.43400 51.24500 28.80400
C  17.36500 50.72400 29.72400
C  16.86500 50.91600 31.16700
C  15.37200 51.33100 30.99200
C  15.34300 51.74600 29.49600
C  14.32100 50.17800 31.29200
C  17.66500 52.07700 31.79000
C  18.12600 51.80700 33.28000
H  17.24500 52.31300 34.37000
N  14.85100 52.52500 26.55200
C  14.01500 52.83200 27.55800
C  12.86600 53.54500 27.05100
C  13.12600 53.69300 25.64000
C  14.33600 52.90600 25.39400
C  11.70700 53.99100 27.91000
C  12.28300 54.36400 24.55500
O  12.56800 54.23900 23.35200
C  11.00800 55.14800 24.86600
N  17.21400 51.79000 24.53700
C  16.18500 52.10600 23.75900
C  16.62900 51.95400 22.27100
C  18.04900 51.44400 22.34600
C  18.22600 51.18400 23.80300
C  15.60700 51.01400 21.48900
C  19.11200 52.35800 21.68300
C  19.60800 51.94200 20.28100
N  18.60200 50.65500 26.79600
C  19.53900 50.30400 25.80800
C  20.65200 49.75300 26.39900
C  20.42600 49.75300 27.86200
C  19.13000 50.30700 27.98900
C  21.88000 49.27500 25.71000
C  20.81800 49.32000 29.16400
O  21.84900 48.83500 29.55600
C  19.68800 49.72800 30.21500
C  19.24400 48.55600 31.05500
O  18.51300 47.66700 30.66900
O  19.78500 48.63400 32.28100
C  19.43000 47.60300 33.27600
H  13.53300 52.59300 29.68800
H  14.46300 52.84900 23.16600
H  19.94300 50.06700 23.68200
H  16.93400 50.00200 31.75700
H  14.99900 52.19300 31.54400
H  13.32100 50.42500 30.93600
H  14.25100 50.07900 32.37600
H  14.66200 49.24100 30.85200
H  17.04200 52.97000 31.83800
H  18.59000 52.24500 31.23800
H  19.11600 52.25400 33.37200
H  18.33300 50.73900 33.34300
H  10.74300 53.59900 27.58700
H  11.69100 55.07700 28.00400
H  11.81400 53.68600 28.95100
H  11.30000 56.00700 25.47100
H  10.42600 54.46400 25.48400
H  10.55000 55.31100 23.89100
H  16.53500 52.93700 21.80900
H  18.14400 50.59500 21.66900
H  15.20300 51.62200 20.68000
H  14.81500 50.56400 22.08800
H  16.18300 50.34500 20.85100
H  19.96700 52.54800 22.33100
H  18.69700 53.36600 21.67200
H  19.47900 52.66600 19.47600
H  19.26200 50.96000 19.95600
H  20.65500 51.97000 20.58200
H  21.59000 48.36800 25.18000
H  22.53900 48.94700 26.51400
H  22.50300 49.91700 25.08800
H  20.02200 50.48200 30.92700
H  18.41300 47.21300 33.31600
H  19.60100 48.02700 34.26500
H  20.10800 46.76500 33.11200
Mg 1.07400 42.80800 25.93700
C  3.13600 43.14100 28.72900
C  -1.62200 42.33600 27.96500
C  -0.73400 42.11700 23.12400
C  3.83900 43.23100 23.90100
N  0.81800 42.73200 28.13300
C  1.81600 42.91900 29.09800
C  1.17700 43.04200 30.48700
C  -0.31700 42.56300 30.19400
C  -0.45500 42.60700 28.70500
C  -0.73300 41.21100 30.80700
C  1.32600 44.42600 31.20100
C  1.36400 44.52500 32.74000
H  0.89500 43.23700 33.53000
N  -0.87000 42.27400 25.58500
C  -1.84500 42.29100 26.51800
C  -3.13300 42.24700 25.81900
C  -2.89600 42.12600 24.41600
C  -1.42900 42.16800 24.33100
C  -4.47700 42.36000 26.48700
C  -3.87200 41.97200 23.20800
O  -3.51200 41.78200 22.10500
C  -5.29700 42.14200 23.44900
N  1.51700 42.59100 23.81300
C  0.59800 42.33800 22.87000
C  1.21500 42.40900 21.47800
C  2.70700 42.85600 21.73400
C  2.69800 42.88000 23.27900
C  1.10800 41.15500 20.61400
C  2.92000 44.33300 21.18300
C  2.19100 45.53300 21.87200
N  3.08400 43.10400 26.17900
C  4.09900 43.29100 25.23700
C  5.34100 43.52500 25.94800
C  5.00600 43.38100 27.30800
C  3.60100 43.27100 27.39400
C  6.66000 43.92700 25.29000
C  5.52000 43.41800 28.67200
O  6.67000 43.57200 29.03300
C  4.32900 43.34100 29.60300
C  4.53800 42.18100 30.49900
O  4.81000 41.04500 30.17100
O  4.52200 42.65400 31.78200
C  5.00200 41.75700 32.85800
H  -2.52500 42.19500 28.56300
H  -1.32900 41.92800 22.22800
H  4.69400 43.52500 23.28800
H  1.61400 42.26600 31.11600
H  -0.97300 43.27100 30.70000
H  -1.43300 41.47300 31.60000
H  0.14500 40.65700 31.13900
H  -1.24300 40.54400 30.11200
H  0.40200 44.94500 30.94400
H  2.18000 45.02000 30.87500
H  0.85000 45.43700 33.04400
H  2.41400 44.71100 32.96500
H  -4.87100 43.23800 25.97400
H  -4.43600 42.62400 27.54400
H  -5.15400 41.55600 26.19800
H  -5.63500 41.41300 24.18500
H  -5.87800 41.99200 22.53900
H  -5.39700 43.13100 23.89500
H  0.69900 43.25600 21.02700
H  3.44900 42.14600 21.37000
H  2.08500 40.78200 20.30800
H  0.56400 41.44000 19.71300
H  0.59600 40.31700 21.08800
H  2.57800 44.47500 20.15800
H  4.00100 44.45200 21.24900
H  1.74600 45.29500 22.83800
H  1.47000 45.93800 21.16300
H  2.82700 46.40800 22.00500
H  7.03400 43.08400 24.70900
H  7.45400 44.36600 25.89500
H  6.49700 44.68600 24.52500
H  4.28900 44.32700 30.06600
H  4.60900 42.15200 33.79500
H  6.09100 41.77200 32.81500
H  4.67800 40.71800 32.80300

