158

Mg -1.73700 17.37200 26.21000
C  -1.80200 15.40000 29.28100
C  -1.91200 20.19300 28.37300
C  -1.87400 19.29700 23.59600
C  -1.95400 14.50400 24.41900
N  -1.83600 17.71000 28.58700
C  -1.83100 16.72200 29.61600
C  -2.04200 17.36500 31.02400
C  -2.43900 18.85700 30.55000
C  -1.93400 18.93500 29.09100
C  -3.97300 19.18500 30.58600
C  -0.87000 17.36600 32.12500
C  -1.36200 17.16800 33.54600
H  -0.51400 16.39400 34.56900
N  -1.70000 19.46600 25.97400
C  -1.75400 20.44600 26.98600
C  -1.78700 21.75700 26.35200
C  -1.87200 21.51300 24.93500
C  -1.82300 20.08500 24.81700
C  -1.55700 23.10300 27.11900
C  -1.82300 22.54900 23.78800
O  -1.82900 22.21200 22.63800
C  -1.68300 23.99100 24.10800
N  -2.15800 16.96300 24.27100
C  -2.04200 17.95900 23.36600
C  -2.27400 17.30200 21.97400
C  -2.04300 15.74800 22.19000
C  -2.07800 15.71500 23.68700
C  -3.74300 17.73700 21.48500
C  -0.72300 15.26800 21.53400
C  -0.78500 14.72000 20.07300
N  -1.88600 15.34900 26.70800
C  -1.87000 14.23000 25.83300
C  -1.94700 12.98600 26.47200
C  -1.81300 13.41900 27.86500
C  -1.88800 14.80000 27.97800
C  -1.82800 11.56600 25.88400
C  -1.66400 12.95500 29.17900
O  -1.63200 11.79300 29.65000
C  -1.68200 14.19200 30.16100
C  -0.38800 14.09300 30.83800
O  0.69600 14.48200 30.39800
O  -0.53000 13.65900 32.14900
C  0.68600 13.66300 32.97700
H  -1.98200 21.07000 29.02000
H  -1.99400 19.92900 22.71400
H  -2.04300 13.55500 23.88600
H  -2.92700 16.88300 31.43800
H  -1.92000 19.57000 31.19000
H  -4.44300 18.24800 30.88500
H  -4.25600 19.43000 29.56200
H  -4.33300 19.97800 31.24100
H  -0.36700 18.33200 32.09200
H  -0.01000 16.81700 31.74400
H  -2.22400 16.50000 33.55300
H  -1.59000 18.13900 33.98500
H  -0.69900 23.60100 26.66700
H  -1.36000 22.92100 28.17500
H  -2.44100 23.73000 27.00600
H  -2.62000 24.33200 24.54700
H  -1.66900 24.40200 23.09800
H  -0.81200 24.26600 24.70300
H  -1.60100 17.66800 21.19900
H  -2.91300 15.16100 21.89600
H  -4.10200 17.14300 20.64500
H  -3.73800 18.80000 21.24600
H  -4.56500 17.56800 22.18100
H  -0.06800 14.74400 22.23000
H  -0.10600 16.16700 21.51700
H  -1.79900 14.83600 19.68900
H  -0.44300 13.69300 19.94500
H  -0.20800 15.36800 19.41300
H  -2.60000 11.40200 25.13300
H  -1.86600 10.90000 26.74700
H  -0.88900 11.48900 25.33600
H  -2.56200 14.18100 30.80400
H  1.18800 14.62800 32.91400
H  1.34600 12.90400 32.55700
H  0.39100 13.52300 34.01700
Mg 7.07400 54.22500 40.81200
C  6.66300 50.63600 40.62400
C  10.26100 53.76300 39.79800
C  7.19800 57.43000 40.18500
C  3.63900 54.31400 41.59600
N  8.21500 52.46500 40.31700
C  7.86600 51.12700 40.21300
C  9.08000 50.30000 39.84700
C  10.31000 51.26600 40.05200
C  9.55700 52.58700 40.14400
C  11.11500 50.96300 41.35300
C  8.89200 49.74500 38.41000
C  8.45800 50.84200 37.29300
H  7.18200 50.55000 36.54700
N  8.57200 55.49400 40.02100
C  9.83100 55.09600 39.65700
C  10.52500 56.33200 39.28700
C  9.66700 57.41300 39.33300
C  8.42300 56.82000 39.86400
C  11.95100 56.32300 38.76000
C  9.88600 58.85900 38.90200
O  11.03300 59.21700 38.65000
C  8.85700 59.94600 38.93400
N  5.55800 55.58600 40.60600
C  5.93600 56.91600 40.49000
C  4.65800 57.74100 40.53200
C  3.60300 56.81700 41.03500
C  4.28900 55.46000 41.11200
C  4.73700 59.09200 41.41600
C  2.37700 56.82600 40.13000
C  1.07900 57.31700 40.86800
N  5.51700 52.81000 41.35200
C  4.21600 53.04100 41.75000
C  3.67500 51.77000 42.17100
C  4.57400 50.80200 41.72100
C  5.64700 51.47100 41.18800
C  2.28900 51.38600 42.68100
C  4.76700 49.37200 41.61600
O  4.15000 48.38500 41.89400
C  6.18300 49.26000 40.76300
C  5.87600 48.48300 39.50000
O  5.21000 48.86600 38.53200
O  6.52700 47.25200 39.56900
C  6.36500 46.47400 38.30400
H  11.33000 53.59500 39.65200
H  7.22000 58.51000 40.03000
H  2.59700 54.48400 41.87400
H  9.18100 49.42200 40.48400
H  10.97600 51.18500 39.19200
H  10.49700 50.46900 42.10200
H  11.50700 51.87800 41.79800
H  11.91800 50.24200 41.19900
H  8.34800 48.80400 38.33000
H  9.94200 49.45600 38.35800
H  9.27900 50.72900 36.58500
H  8.47200 51.87100 37.65400
H  12.47100 57.03200 39.40400
H  11.93800 56.65500 37.72200
H  12.44500 55.35800 38.87800
H  7.97300 59.76500 38.32300
H  9.29300 60.77300 38.37300
H  8.70500 60.36300 39.93000
H  4.34300 57.99400 39.51900
H  3.35400 56.87000 42.09500
H  5.51600 59.01800 42.17400
H  3.79500 59.20400 41.95400
H  4.94900 59.95600 40.78600
H  2.11300 55.86300 39.69300
H  2.52200 57.48600 39.27400
H  0.67000 58.21400 40.40400
H  1.14400 57.54600 41.93200
H  0.29700 56.58000 40.68600
H  1.66500 52.19500 43.06100
H  2.52900 50.74700 43.53100
H  1.86000 50.70400 41.94800
H  6.87000 48.63500 41.33400
H  7.01700 45.60200 38.35600
H  6.64900 46.97500 37.37800
H  5.31100 46.20800 38.22800

