158

Mg -0.25000 6.74400 26.06000
C  0.58800 8.52100 28.80900
C  -0.22300 3.85700 27.94000
C  -0.88500 4.92900 23.20100
C  0.33100 9.58300 24.02200
N  0.03900 6.20800 28.09700
C  0.31500 7.18300 29.05000
C  0.26800 6.58800 30.51200
C  0.03400 5.05600 30.22900
C  -0.12200 4.99500 28.65100
C  1.16000 4.19200 30.66000
C  -0.82500 7.23100 31.37800
C  -0.55400 7.22000 32.95700
H  0.77300 6.86200 33.55400
N  -0.52500 4.66800 25.64300
C  -0.33800 3.65300 26.53500
C  -0.45100 2.34100 25.86900
C  -0.79500 2.66100 24.51000
C  -0.70400 4.13000 24.36900
C  -0.37500 1.07500 26.67400
C  -1.17300 1.68600 23.40300
O  -1.51600 2.10900 22.31100
C  -0.95900 0.26800 23.78900
N  -0.24000 7.14800 23.95100
C  -0.74200 6.29800 23.04700
C  -0.91900 6.96200 21.70100
C  -0.36900 8.34800 21.90200
C  -0.02600 8.37100 23.38300
C  -0.22100 6.22100 20.49700
C  -1.31800 9.52200 21.47100
C  -2.54200 9.87600 22.44400
N  0.33000 8.71600 26.27800
C  0.53700 9.75300 25.39900
C  0.89800 10.91100 26.19000
C  0.91000 10.48400 27.47600
C  0.57400 9.13800 27.51400
C  1.29200 12.26400 25.64800
C  1.15900 10.88100 28.84400
O  1.70800 11.89000 29.29500
C  0.91000 9.69800 29.74400
C  2.01700 9.54300 30.77000
O  3.02200 8.85700 30.70100
O  1.74300 10.19900 31.92400
C  2.89500 10.58800 32.77000
H  -0.31000 2.99300 28.60200
H  -1.05400 4.32800 22.30500
H  0.45400 10.52000 23.47400
H  1.23300 6.87000 30.93100
H  -0.89300 4.70100 30.67900
H  1.90100 4.76700 31.21500
H  1.55300 3.72200 29.75800
H  0.88700 3.40400 31.36100
H  -1.61600 6.49900 31.21300
H  -1.22800 8.22000 31.15800
H  -1.34400 6.56900 33.33100
H  -0.74300 8.22000 33.34600
H  0.31000 0.39700 26.16600
H  -1.37400 0.63800 26.67500
H  -0.00500 1.20700 27.69000
H  -1.70000 0.02100 24.54900
H  0.08600 0.11500 24.06100
H  -1.14100 -0.43700 22.97700
H  -1.98600 7.15000 21.58700
H  0.59000 8.58900 21.44400
H  0.59700 5.57000 20.80500
H  0.25100 6.97200 19.86400
H  -0.90300 5.75300 19.78700
H  -1.70000 9.20300 20.50100
H  -0.71000 10.41500 21.32700
H  -2.47300 9.30700 23.37100
H  -3.42000 9.66100 21.83600
H  -2.43500 10.94900 22.60200
H  0.42600 12.81900 25.28700
H  2.03100 12.24200 24.84700
H  1.78900 12.94400 26.34000
H  0.03500 9.92300 30.35300
H  3.39400 9.79100 33.32300
H  2.60000 11.31100 33.53000
H  3.67000 11.01200 32.13100
Mg 9.24700 48.53400 25.22900
C  7.09800 48.85400 28.07600
C  11.76300 49.74800 27.14600
C  11.16900 48.53600 22.46400
C  6.40000 47.82700 23.26700
N  9.31900 49.33700 27.34400
C  8.40700 49.24600 28.32200
C  8.97900 49.82300 29.69900
C  10.36000 50.37600 29.24400
C  10.51400 49.74700 27.79500
C  10.64600 51.97500 29.18900
C  9.06500 48.73100 30.83200
C  9.88900 49.01700 32.03200
H  9.38500 48.43500 33.34400
N  11.27200 49.05700 24.86000
C  12.13100 49.46800 25.83100
C  13.39700 49.52300 25.26200
C  13.30800 49.18000 23.84800
C  11.90800 48.91700 23.64800
C  14.54800 49.88300 26.18500
C  14.36600 49.04800 22.69700
O  14.01900 48.92900 21.49500
C  15.80500 49.07600 23.08900
N  8.83900 48.24600 23.20700
C  9.79200 48.29100 22.30500
C  9.30000 47.86400 20.90100
C  7.76200 47.45500 21.13900
C  7.63800 47.78200 22.63800
C  9.51300 48.87100 19.77400
C  7.38800 46.01300 20.67500
C  7.78600 44.77800 21.51000
N  7.18000 48.38100 25.56300
C  6.15200 48.13800 24.61900
C  4.83500 48.12200 25.28900
C  5.14900 48.37100 26.67400
C  6.60000 48.57200 26.77500
C  3.52100 47.77200 24.59400
C  4.63200 48.51400 28.03100
O  3.48700 48.39000 28.44800
C  5.80100 48.72700 28.96300
C  5.76700 47.57900 29.90300
O  6.37600 46.55200 29.83200
O  4.76700 47.80700 30.81900
C  4.42700 46.86800 31.82300
H  12.46900 50.27800 27.79000
H  11.66000 48.29900 21.51800
H  5.54900 47.68400 22.59900
H  8.38800 50.63500 30.12300
H  11.17600 49.97600 29.84500
H  11.07200 52.15000 28.20000
H  11.48600 52.15400 29.86100
H  9.72100 52.53100 29.33800
H  9.42400 47.84200 30.31400
H  8.02700 48.46300 31.03100
H  10.22800 50.04000 32.19500
H  10.85100 48.51300 31.94200
H  14.57700 50.95700 26.36900
H  15.54700 49.58300 25.86600
H  14.51600 49.33800 27.12800
H  16.36900 49.10500 22.15700
H  16.08600 48.26600 23.76200
H  15.94900 49.99500 23.65700
H  9.87000 46.96600 20.66200
H  7.10100 48.13600 20.60200
H  9.68900 49.89100 20.11400
H  8.58500 48.98900 19.21400
H  10.26600 48.48400 19.08800
H  7.76700 45.90300 19.65900
H  6.30000 45.96800 20.63100
H  6.99000 44.29500 22.07600
H  8.50100 45.04700 22.28700
H  8.27500 44.00500 20.91600
H  3.44800 46.69300 24.45700
H  3.61100 48.19100 23.59100
H  2.61900 48.19000 25.03800
H  5.70600 49.66900 29.50300
H  3.50400 47.29200 32.22000
H  5.23900 46.81000 32.54900
H  4.02200 45.95800 31.38200

