158

Mg 48.87100 34.82400 26.52500
C  46.79700 33.23000 28.89200
C  48.97800 37.56100 28.52800
C  50.58000 36.42300 24.08700
C  48.16100 32.18000 24.23900
N  48.00600 35.21900 28.64100
C  47.24600 34.44100 29.39800
C  47.05700 35.11900 30.77600
C  47.41000 36.65300 30.39900
C  48.23100 36.47400 29.13600
C  46.24000 37.69500 30.35600
C  47.90100 34.41300 31.95800
C  48.58400 35.30000 33.04300
H  47.62900 36.09100 34.03300
N  49.65900 36.67900 26.35600
C  49.66100 37.68400 27.30400
C  50.44200 38.85100 26.78600
C  51.03700 38.44200 25.55900
C  50.47500 37.09700 25.31000
C  50.47700 40.25200 27.39500
C  52.06800 39.12800 24.61800
O  52.44400 38.70000 23.51400
C  52.63700 40.42500 25.10800
N  49.02100 34.52900 24.39300
C  49.92400 35.27200 23.63700
C  50.14100 34.78100 22.18000
C  49.55900 33.30400 22.37900
C  48.91600 33.27900 23.76000
C  49.46800 35.63700 21.00300
C  50.50200 32.14600 22.06400
C  50.46100 31.67200 20.61600
N  47.71700 33.02600 26.61400
C  47.53400 32.11800 25.55000
C  46.56500 31.14300 26.05200
C  46.21700 31.55400 27.36400
C  46.99500 32.66200 27.64200
C  46.12100 29.96100 25.32500
C  45.38700 31.20400 28.53200
O  44.53600 30.32700 28.72200
C  45.69900 32.31900 29.54700
C  46.15200 31.63000 30.82300
O  47.28200 31.19500 31.04200
O  45.14200 31.72100 31.72600
C  45.41400 31.58200 33.19200
H  48.94100 38.44100 29.17300
H  51.03900 36.92300 23.23100
H  48.05200 31.23900 23.69500
H  46.00100 35.00800 31.02100
H  48.06700 37.03300 31.18100
H  46.60200 38.66200 30.70500
H  45.30000 37.50500 30.87500
H  46.06100 37.96200 29.31400
H  48.77900 33.95700 31.49900
H  47.31100 33.65400 32.47200
H  49.28200 35.94000 32.50300
H  49.28500 34.75100 33.67100
H  49.70700 40.32300 28.16400
H  50.25500 41.03100 26.66600
H  51.50100 40.48000 27.68900
H  53.30100 40.68200 24.28300
H  53.22800 40.18600 25.99200
H  51.86100 41.18900 25.15900
H  51.21100 34.74400 21.97200
H  48.77700 33.34600 21.62100
H  49.97800 36.59700 21.08500
H  48.40900 35.84600 21.15500
H  49.65700 35.05200 20.10200
H  50.23800 31.37300 22.78600
H  51.50600 32.53100 22.24200
H  50.08900 30.64800 20.62500
H  51.43000 31.67300 20.11700
H  49.74300 32.20100 19.98900
H  46.05600 30.20100 24.26400
H  45.10400 29.71200 25.62800
H  46.82000 29.15500 25.55200
H  44.77900 32.90200 29.59600
H  46.38900 31.14200 33.39900
H  44.69600 30.91000 33.66300
H  45.42300 32.48400 33.80400
Mg 29.54500 58.62800 39.60700
C  26.77300 56.96700 38.59100
C  31.51200 55.88700 38.93600
C  32.34500 60.59000 39.64500
C  27.54200 61.57800 39.93400
N  29.20400 56.74900 38.60600
C  27.98400 56.15600 38.33400
C  28.11600 54.76700 37.88100
C  29.60800 54.39000 38.15500
C  30.16600 55.74400 38.71000
C  30.01400 53.27600 39.20600
C  27.82500 54.86800 36.43500
C  26.79900 53.89900 35.80000
H  25.97900 54.48800 34.62500
N  31.66800 58.24900 39.28300
C  32.23400 57.07200 38.98100
C  33.65600 57.30400 39.01000
C  33.90100 58.66600 39.19400
C  32.62300 59.27600 39.32900
C  34.60300 56.14800 38.86700
C  35.27300 59.28000 39.08300
O  36.24400 58.56900 38.93900
C  35.58200 60.74800 39.20500
N  29.87100 60.82600 39.36200
C  31.13200 61.33800 39.71700
C  31.13200 62.78900 40.21800
C  29.61000 63.16100 40.08900
C  28.94900 61.77700 39.75200
C  31.71600 63.08800 41.64600
C  29.37200 64.18700 38.95900
C  28.47100 65.37300 39.23200
N  27.60600 59.17400 39.42000
C  26.90600 60.34000 39.69800
C  25.48200 60.11600 39.57200
C  25.37700 58.76700 39.16000
C  26.69500 58.27000 39.11800
C  24.32100 61.02500 39.97300
C  24.42400 57.64900 38.86700
O  23.20500 57.53400 39.04300
C  25.34700 56.43800 38.43600
C  25.00900 55.30900 39.31800
O  25.15400 55.36300 40.52300
O  24.43100 54.29000 38.62700
C  24.06500 53.12400 39.38200
H  32.04100 54.93500 39.02000
H  33.22700 61.17300 39.92100
H  26.98200 62.49700 40.11800
H  27.43300 54.24300 38.55000
H  30.09600 54.02400 37.25200
H  29.06200 52.88900 39.56900
H  30.71300 53.69800 39.92800
H  30.58900 52.49100 38.71600
H  28.72700 54.61800 35.87500
H  27.68200 55.87000 36.03000
H  26.15300 53.48900 36.57600
H  27.47400 53.12900 35.42500
H  34.14100 55.38400 39.49200
H  35.61800 56.28400 39.24200
H  34.68800 55.73500 37.86300
H  35.71800 61.10500 40.22600
H  34.91000 61.32000 38.56500
H  36.54500 60.87900 38.71000
H  31.68800 63.33000 39.45200
H  29.10400 63.44400 41.01200
H  32.13200 62.16200 42.04300
H  30.96200 63.52500 42.30000
H  32.52700 63.81700 41.65800
H  28.91200 63.73300 38.08100
H  30.24500 64.69200 38.54500
H  29.10500 66.25700 39.30800
H  28.04600 65.34800 40.23500
H  27.58300 65.41700 38.60200
H  23.65100 60.65200 40.74700
H  23.79100 61.23700 39.04400
H  24.78600 61.94100 40.33800
H  25.09100 56.15300 37.41500
H  23.07500 52.79700 39.06500
H  24.09000 53.18700 40.47000
H  24.73900 52.34100 39.03400

