158

Mg 24.48000 -4.85900 46.10100
C  26.77400 -2.82400 44.31100
C  22.03100 -3.75000 43.84500
C  22.51300 -7.55400 46.93100
C  27.21500 -6.32800 47.68800
N  24.36000 -3.33000 44.50700
C  25.44300 -2.64600 43.94000
C  24.93600 -1.74400 42.80800
C  23.38400 -1.69900 43.16700
C  23.23900 -3.01900 43.85400
C  23.02700 -0.50600 44.04600
C  25.37300 -2.24900 41.43800
C  26.31900 -1.30100 40.69500
H  26.03500 -0.82000 39.19900
N  22.53700 -5.51300 45.51400
C  21.66800 -4.87300 44.59100
C  20.43900 -5.65400 44.47400
C  20.55700 -6.73800 45.48000
C  21.93300 -6.65000 46.07800
C  19.27600 -5.18400 43.63600
C  19.47200 -7.83100 45.72900
O  18.33900 -7.81500 45.12900
C  19.71400 -9.17000 46.58900
N  24.87500 -6.81500 46.93300
C  23.86300 -7.68800 47.30700
C  24.38600 -8.87800 48.18200
C  25.87400 -8.36500 48.43800
C  26.04600 -7.10300 47.56800
C  23.53800 -9.24400 49.41200
C  26.98800 -9.39200 47.82000
C  27.38100 -10.61300 48.70600
N  26.61500 -4.51000 46.21700
C  27.57900 -5.16200 46.94100
C  28.88400 -4.57300 46.64700
C  28.64500 -3.64100 45.62800
C  27.24000 -3.67200 45.35800
C  30.14800 -5.19500 47.24800
C  29.21500 -2.67000 44.72800
O  30.31900 -2.22100 44.56000
C  27.99900 -2.06500 43.87500
C  27.87300 -0.65800 44.17300
O  27.71600 -0.18200 45.30400
O  27.99900 0.08100 43.07800
C  27.67500 1.55400 43.23800
H  21.26200 -3.34400 43.18400
H  21.80100 -8.25800 47.36600
H  27.98900 -6.77600 48.31600
H  25.31100 -0.76600 43.10700
H  22.65700 -1.64700 42.35700
H  22.30600 -0.69800 44.84100
H  22.72600 0.34200 43.43000
H  23.96300 -0.27500 44.55400
H  24.40200 -2.25000 40.94200
H  25.78600 -3.24300 41.60800
H  27.34500 -1.67000 40.67700
H  26.43900 -0.35600 41.22500
H  18.37700 -5.65800 44.02800
H  19.39300 -5.36700 42.56800
H  19.11500 -4.10600 43.67400
H  20.66500 -9.64000 46.33900
H  18.83500 -9.74400 46.29300
H  19.59600 -8.93400 47.64600
H  24.28200 -9.66200 47.43200
H  26.15000 -8.13200 49.46700
H  23.18900 -10.27200 49.31300
H  22.65400 -8.60600 49.43000
H  24.00000 -9.16600 50.39600
H  27.87200 -8.88900 47.42900
H  26.54500 -9.79000 46.90700
H  26.62600 -11.35000 48.43300
H  27.53600 -10.37700 49.75900
H  28.31900 -11.04700 48.36000
H  31.00100 -4.65500 46.83700
H  30.12300 -6.26000 47.01400
H  30.21400 -5.10800 48.33200
H  28.29600 -2.19600 42.83500
H  27.57300 2.04300 42.26900
H  28.44000 2.08500 43.80300
H  26.76500 1.68300 43.82400
Mg 48.28900 16.42800 28.28400
C  46.13700 16.22200 31.10200
C  50.46300 18.11800 30.45500
C  50.14900 17.29700 25.69400
C  45.78200 15.11200 26.44900
N  48.28500 17.10900 30.53300
C  47.37400 16.77800 31.46900
C  47.82200 17.12200 32.93900
C  49.14000 17.94000 32.67400
C  49.34400 17.67400 31.13200
C  48.84900 19.44100 33.06100
C  48.03900 15.86500 33.79600
C  47.29100 15.71300 35.07500
H  47.13600 16.98400 35.91400
N  50.06000 17.56400 28.09500
C  50.79100 18.05600 29.13100
C  52.06800 18.66400 28.59500
C  51.99900 18.36600 27.21400
C  50.69400 17.80000 26.93100
C  53.12500 19.24100 29.51400
C  53.07600 18.70000 26.13200
O  52.90100 18.43400 24.96000
C  54.45300 19.16300 26.49500
N  47.91700 16.37100 26.33000
C  48.87100 16.64200 25.45600
C  48.48900 16.16100 24.01900
C  47.06900 15.46500 24.23300
C  46.88300 15.63300 25.76800
C  48.51500 17.34200 22.99500
C  46.95100 13.95700 23.75700
C  45.60300 13.40200 23.23100
N  46.47300 15.55400 28.65300
C  45.50700 15.06900 27.79200
C  44.30200 14.73100 28.45700
C  44.51300 15.26500 29.70300
C  45.86100 15.68800 29.82100
C  43.02000 14.19500 27.77900
C  43.82200 15.46600 30.96500
O  42.64700 15.35400 31.35500
C  44.97400 15.97500 31.96300
C  44.45000 17.06800 32.73400
O  44.09800 18.15800 32.33600
O  44.25400 16.58900 34.01900
C  43.48300 17.42800 34.84300
H  51.14200 18.50100 31.22000
H  50.77900 17.32700 24.80200
H  44.93900 14.81100 25.82400
H  47.04800 17.69900 33.44400
H  49.93700 17.64800 33.35700
H  49.32900 19.74200 33.99200
H  47.77600 19.58500 33.19300
H  49.15500 20.04500 32.20600
H  49.10100 15.66600 33.94200
H  47.61900 15.02800 33.23900
H  47.84300 14.92400 35.58500
H  46.28400 15.30200 35.00800
H  52.83000 19.46100 30.54000
H  53.48500 20.19500 29.12900
H  53.99500 18.58500 29.54500
H  54.88600 18.87500 27.45300
H  54.37200 20.25000 26.48500
H  55.08100 18.83500 25.66700
H  49.22900 15.49800 23.56900
H  46.29100 16.13500 23.86700
H  49.38200 17.27100 22.33800
H  48.83100 18.23200 23.53900
H  47.62900 17.45400 22.37000
H  47.14500 13.29000 24.59700
H  47.77900 13.76000 23.07600
H  44.98600 14.21800 22.85700
H  45.08800 12.89800 24.04800
H  45.63600 12.54800 22.55400
H  42.87800 13.13100 27.96700
H  42.99100 14.36100 26.70200
H  42.17500 14.60600 28.33200
H  45.09500 15.05100 32.52800
H  42.44700 17.24000 34.56000
H  43.63000 18.50700 34.87800
H  43.58200 17.04200 35.85700

