158

Mg 16.65200 -1.24300 28.10100
C  15.58200 1.02400 30.60800
C  18.40000 -2.75500 30.28500
C  18.03300 -2.88300 25.44800
C  14.81200 0.74500 25.75200
N  17.03700 -0.77800 30.24200
C  16.42900 0.01000 31.06500
C  16.88100 -0.21600 32.55400
C  17.92600 -1.37400 32.43100
C  17.76700 -1.68300 30.91300
C  19.33200 -1.16500 32.93900
C  15.68300 -0.58800 33.44900
C  15.60200 0.03900 34.89700
H  16.98600 0.59300 35.39900
N  17.96800 -2.72600 27.90000
C  18.57400 -3.23300 28.98700
C  19.46500 -4.37300 28.64100
C  19.50700 -4.26500 27.17900
C  18.46400 -3.26600 26.76100
C  20.09600 -5.41300 29.56700
C  20.33500 -5.09600 26.25200
O  20.30400 -4.89500 25.03100
C  21.26300 -6.14800 26.87200
N  16.41600 -1.12900 25.94700
C  17.18700 -1.84700 25.07800
C  16.84300 -1.44900 23.62500
C  15.70400 -0.38300 23.78300
C  15.59200 -0.29400 25.24700
C  18.06500 -1.01900 22.82400
C  14.32700 -0.85700 23.19200
C  14.07400 -0.41000 21.79300
N  15.39900 0.52700 28.11300
C  14.75200 1.18600 27.05200
C  14.04300 2.27800 27.62300
C  14.39300 2.32400 29.00100
C  15.16100 1.22700 29.25100
C  13.08100 3.15000 26.77600
C  14.02600 2.98800 30.17300
O  13.29500 3.98900 30.38200
C  14.75700 2.09400 31.32300
C  15.53000 3.08300 32.18000
O  16.71400 3.25800 32.26500
O  14.65800 3.64200 33.04900
C  15.18000 4.31900 34.22500
H  19.01800 -3.28600 31.01200
H  18.39100 -3.35600 24.53200
H  14.22600 1.28300 25.00400
H  17.41700 0.71200 32.75600
H  17.66100 -2.27500 32.98500
H  19.40600 -0.18500 33.41000
H  19.95500 -1.01300 32.05700
H  19.65800 -1.89500 33.68000
H  15.52000 -1.65800 33.57700
H  14.84200 -0.33000 32.80400
H  15.35500 -0.76600 35.59000
H  14.81800 0.79500 34.84700
H  21.18400 -5.37500 29.60700
H  19.73500 -6.34500 29.13100
H  19.75800 -5.34000 30.60000
H  22.07100 -5.66900 27.42500
H  21.62500 -6.65900 25.97900
H  20.73800 -6.89100 27.47300
H  16.49500 -2.38000 23.17900
H  16.14700 0.51100 23.34500
H  17.76300 -0.18100 22.19500
H  18.45800 -1.81600 22.19300
H  18.85700 -0.79900 23.53900
H  13.50700 -0.50400 23.81800
H  14.39100 -1.94200 23.10900
H  14.93900 0.11900 21.39300
H  13.18400 0.18300 21.58100
H  14.15800 -1.26700 21.12500
H  13.06000 2.72200 25.77400
H  13.46500 4.17000 26.79200
H  12.05600 3.12600 27.14600
H  14.06500 1.60800 32.01200
H  15.95400 3.70600 34.68700
H  14.38200 4.41000 34.96200
H  15.53300 5.32000 33.97400
Mg -4.85700 25.32300 26.17400
C  -3.68500 26.62500 29.03200
C  -6.93000 23.26000 28.17500
C  -5.70100 23.73500 23.43600
C  -2.38700 27.08300 24.27800
N  -5.06500 24.78000 28.37200
C  -4.56700 25.63300 29.35000
C  -5.19500 25.36100 30.69400
C  -5.94200 23.94900 30.44500
C  -5.98100 23.91400 28.93300
C  -5.27200 22.67200 30.98800
C  -6.17800 26.48800 31.24300
C  -6.20400 26.69600 32.78400
H  -5.72800 25.61700 33.75400
N  -6.15000 23.79900 25.84300
C  -7.02500 23.09900 26.74600
C  -7.91900 22.19000 25.99300
C  -7.56300 22.30900 24.61200
C  -6.42300 23.35400 24.60200
C  -8.86300 21.38100 26.68000
C  -8.16000 21.54900 23.42100
O  -7.81700 21.82400 22.21900
C  -9.25700 20.49000 23.69200
N  -4.20700 25.46900 24.15400
C  -4.76400 24.69000 23.20900
C  -4.15900 25.01800 21.77300
C  -3.16700 26.13600 22.07800
C  -3.26000 26.24400 23.58800
C  -3.56900 23.74800 21.04900
C  -3.47200 27.44500 21.28000
C  -2.50000 27.79600 20.16800
N  -3.38100 26.62300 26.49300
C  -2.53000 27.37100 25.66500
C  -1.71500 28.29600 26.47600
C  -2.17000 28.10500 27.72100
C  -3.06800 26.97500 27.77000
C  -0.63400 29.21100 25.98600
C  -2.06300 28.50000 29.06700
O  -1.36200 29.34100 29.53800
C  -2.89600 27.49000 29.95300
C  -1.95900 26.67400 30.77400
O  -1.21500 25.75400 30.30300
O  -1.83700 27.27200 32.04200
C  -0.91900 26.77000 33.04200
H  -7.50900 22.58900 28.81100
H  -6.00800 23.22600 22.52000
H  -1.70200 27.64200 23.63700
H  -4.36400 25.22700 31.38600
H  -6.98400 23.94400 30.76500
H  -4.70600 22.18300 30.19500
H  -6.11100 22.05800 31.31300
H  -4.58800 22.92300 31.79800
H  -7.22300 26.33000 30.97500
H  -5.81700 27.45700 30.89800
H  -7.23800 26.98100 32.97800
H  -5.69800 27.64400 32.96800
H  -8.43900 20.37900 26.73100
H  -9.81700 21.50300 26.16700
H  -8.98200 21.66600 27.72500
H  -9.03600 19.74800 24.46000
H  -9.51500 19.95900 22.77600
H  -10.15600 21.01200 24.02200
H  -4.96100 25.30300 21.09200
H  -2.16700 25.84600 21.75500
H  -2.53700 23.89900 20.73200
H  -4.11300 23.41100 20.16600
H  -3.67200 22.94900 21.78300
H  -3.55700 28.23900 22.02200
H  -4.39600 27.42400 20.70200
H  -1.81700 28.54800 20.56300
H  -3.09000 28.17300 19.33300
H  -1.92600 26.96600 19.75400
H  -0.92100 29.34300 24.94300
H  0.36400 28.77300 26.01500
H  -0.70300 30.11500 26.59000
H  -3.56500 27.94600 30.68200
H  0.09800 27.13300 32.88800
H  -0.96200 25.68700 32.92600
H  -1.24700 27.05000 34.04300

