158

Mg 30.30600 57.79500 40.62100
C  27.60400 55.69600 39.60200
C  32.51400 55.49400 39.72200
C  32.66900 60.17500 40.92400
C  27.88500 60.19000 41.21300
N  30.04100 55.94800 39.61900
C  28.89100 55.21900 39.30700
C  29.28900 53.91800 38.66800
C  30.83800 53.70300 38.99700
C  31.14000 55.11000 39.55100
C  31.15500 52.51800 39.99700
C  29.05800 53.95000 37.16700
C  28.14300 52.85200 36.54200
H  27.22000 53.32800 35.38100
N  32.37900 57.83500 40.34800
C  33.07400 56.75200 40.05100
C  34.51000 57.04300 40.09000
C  34.64300 58.38400 40.37100
C  33.19700 58.85800 40.55000
C  35.58300 55.95800 39.83700
C  35.91100 59.12500 40.70500
O  37.00000 58.53800 40.71100
C  36.00800 60.57300 41.02700
N  30.31300 59.94500 40.90900
C  31.40400 60.63300 41.16300
C  31.06300 62.06800 41.52300
C  29.52700 61.98400 41.85500
C  29.19500 60.58600 41.35200
C  32.02300 62.68600 42.63200
C  28.71200 63.22700 41.29900
C  27.72600 63.91500 42.24300
N  28.16400 57.93900 40.52600
C  27.37600 59.01200 40.77100
C  25.97500 58.67100 40.63300
C  26.02100 57.37100 40.09000
C  27.40700 56.97000 40.11600
C  24.77000 59.50200 40.69400
C  25.20300 56.26400 39.59000
O  23.99500 56.15100 39.39900
C  26.24000 55.05600 39.26400
C  25.67600 53.95400 39.95600
O  26.05900 53.55200 41.07100
O  24.85200 53.24600 39.09900
C  24.65300 51.87900 39.59700
H  33.20500 54.64900 39.67500
H  33.48500 60.86900 41.13500
H  27.24300 61.03700 41.46400
H  28.64200 53.15100 39.09300
H  31.48500 53.63600 38.12300
H  32.23500 52.46700 39.85400
H  30.76000 51.55300 39.67900
H  30.87500 52.60600 41.04600
H  30.01300 53.96800 36.64200
H  28.55800 54.88600 36.92000
H  27.50600 52.35300 37.27400
H  28.80900 52.22000 35.95500
H  35.42900 55.24000 40.64300
H  36.64500 56.20500 39.80600
H  35.42800 55.37300 38.93100
H  35.34000 60.66600 41.88300
H  35.74200 61.15000 40.14100
H  36.95300 60.97600 41.39300
H  31.17000 62.67600 40.62400
H  29.49500 61.95900 42.94400
H  32.55300 61.88300 43.14500
H  31.50900 63.28600 43.38200
H  32.76100 63.29600 42.11100
H  28.35700 62.86800 40.33300
H  29.48100 63.95100 41.02900
H  27.95800 63.71500 43.28900
H  26.73400 63.52800 42.00700
H  27.71900 65.00400 42.19500
H  23.89300 58.89800 40.92900
H  24.61900 59.95200 39.71300
H  24.85300 60.30200 41.43000
H  26.11100 54.88000 38.19600
H  23.66700 51.73300 40.03800
H  25.43300 51.44700 40.22500
H  24.66200 51.29900 38.67400
Mg 17.34500 51.14700 26.56600
C  19.42800 49.83600 29.13000
C  15.12100 52.13100 29.00800
C  15.47100 52.37600 24.18600
C  19.61300 49.92100 24.20600
N  17.27600 51.00900 28.85400
C  18.24800 50.44000 29.62100
C  17.74900 50.53000 31.10400
C  16.23100 50.90300 30.97300
C  16.19100 51.41500 29.53600
C  15.17800 49.80400 31.28200
C  18.63000 51.39900 32.02900
C  18.68900 50.95300 33.51500
H  17.82100 51.50700 34.61500
N  15.58000 52.14400 26.59000
C  14.79300 52.51900 27.67000
C  13.73700 53.48500 27.20600
C  13.73800 53.31600 25.78000
C  14.92300 52.57300 25.44200
C  12.79500 54.07700 28.16500
C  12.78300 53.91600 24.76900
O  12.85100 53.68500 23.58400
C  11.66800 54.68200 25.30100
N  17.47100 51.03800 24.48400
C  16.63800 51.73100 23.74600
C  16.94900 51.74400 22.26300
C  18.46300 51.25500 22.34100
C  18.53300 50.71800 23.71100
C  15.93900 50.90100 21.39000
C  19.46900 52.32400 21.95000
C  20.29300 51.93600 20.70200
N  19.04100 49.94700 26.58100
C  19.88100 49.57200 25.51900
C  21.02400 48.90800 26.06200
C  20.89900 49.00800 27.47500
C  19.66900 49.68000 27.76000
C  22.19200 48.37500 25.17900
C  21.51600 48.63300 28.73800
O  22.59300 48.14700 29.02000
C  20.50900 49.11300 29.82500
C  20.07500 47.86100 30.58200
O  19.16600 47.10300 30.21900
O  20.74500 47.77800 31.74100
C  20.07800 46.91000 32.76700
H  14.48200 52.53000 29.79800
H  14.86200 52.71600 23.34600
H  20.31700 49.63000 23.42300
H  17.74800 49.50100 31.46300
H  16.08000 51.77200 31.61400
H  14.68900 50.08900 32.21300
H  15.64900 48.83200 31.13600
H  14.44600 49.66900 30.48500
H  18.15700 52.38000 32.07200
H  19.65600 51.57000 31.70300
H  19.72200 51.16700 33.78700
H  18.60900 49.86600 33.53600
H  13.23800 54.06500 29.16100
H  11.87000 53.50100 28.19900
H  12.59600 55.14600 28.09600
H  12.00700 55.55900 25.85300
H  11.09300 54.00400 25.93300
H  11.09700 55.04600 24.44700
H  16.94100 52.78400 21.93600
H  18.55400 50.36800 21.71500
H  15.64900 51.48400 20.51600
H  15.09900 50.47700 21.94100
H  16.46700 50.08800 20.89200
H  20.20100 52.44500 22.74800
H  18.99600 53.30500 21.89100
H  20.29200 52.75300 19.98100
H  19.89300 51.13300 20.08300
H  21.35500 51.80000 20.90700
H  21.74700 47.67400 24.47300
H  22.96500 47.92200 25.80000
H  22.58100 49.25000 24.65900
H  21.01300 49.64300 30.63300
H  20.78700 46.23000 33.24000
H  19.22600 46.29500 32.47600
H  19.75200 47.47000 33.64400

