158

Mg 54.49900 24.46500 44.20000
C  52.39200 27.15100 43.39000
C  52.43600 22.36400 42.57400
C  56.86000 22.05800 44.43300
C  56.86300 26.94200 44.99300
N  52.55500 24.76100 43.19800
C  51.86800 25.90700 42.90500
C  50.67100 25.59500 42.02200
C  50.62100 24.02600 42.03800
C  51.97100 23.67000 42.68100
C  49.45200 23.48200 42.92300
C  50.72500 26.02200 40.51600
C  49.47300 26.19700 39.67200
H  49.43400 25.54900 38.21600
N  54.55200 22.41900 43.73500
C  53.58300 21.76200 43.03000
C  53.96300 20.40400 42.90300
C  55.21100 20.21900 43.58700
C  55.58700 21.59100 43.96200
C  53.15200 19.31700 42.14400
C  55.87800 18.87300 43.85500
O  55.36300 17.83100 43.50200
C  57.12500 18.69800 44.81600
N  56.61200 24.54400 44.42800
C  57.35400 23.39800 44.57600
C  58.84500 23.69200 45.01600
C  58.78400 25.22300 45.18900
C  57.33300 25.64500 44.76000
C  59.31600 23.01600 46.34600
C  59.82400 26.01300 44.31700
C  60.41100 27.29900 44.80100
N  54.66600 26.66500 44.30100
C  55.61100 27.48400 44.81700
C  55.06900 28.80800 45.05300
C  53.78200 28.75300 44.52800
C  53.60500 27.44900 44.01400
C  55.74100 29.99500 45.76900
C  52.50200 29.48600 44.30100
O  52.14600 30.62800 44.52700
C  51.60000 28.47400 43.51200
C  51.34800 29.15300 42.19400
O  52.19200 29.66400 41.45800
O  49.99400 29.10600 42.01800
C  49.51600 29.47000 40.67300
H  51.75200 21.78000 41.95500
H  57.60000 21.25600 44.47500
H  57.59000 27.71500 45.25200
H  49.79700 26.11900 42.40900
H  50.58500 23.59100 41.04000
H  48.64800 23.01400 42.35500
H  49.00500 24.33400 43.43500
H  49.84300 22.82700 43.70100
H  51.36200 25.26000 40.06700
H  51.25900 26.96600 40.40900
H  49.33000 27.27700 39.63500
H  48.59300 25.74300 40.12700
H  52.44100 19.78500 41.46300
H  52.61100 18.75200 42.90200
H  53.80100 18.58800 41.65800
H  57.04000 17.67100 45.17200
H  56.95300 19.32100 45.69400
H  58.14900 18.84700 44.47500
H  59.39500 23.29700 44.16200
H  58.91600 25.58400 46.20900
H  59.11800 21.94500 46.34400
H  59.00800 23.53300 47.25500
H  60.39900 23.13500 46.31000
H  59.37200 26.15400 43.33500
H  60.72800 25.40900 44.23000
H  60.46800 28.06100 44.02400
H  61.45200 27.15300 45.08900
H  59.85100 27.75600 45.61700
H  55.08800 30.60400 46.39500
H  56.23300 30.75600 45.16300
H  56.50900 29.60800 46.43900
H  50.69700 28.39900 44.11800
H  50.21600 29.24100 39.87000
H  49.33000 30.53900 40.57000
H  48.53200 29.03900 40.48400
Mg 36.12100 49.34200 24.99800
C  36.51900 47.47600 28.04100
C  35.29200 52.09600 26.93100
C  35.57900 51.19600 22.16500
C  37.03200 46.51700 23.15900
N  35.73700 49.62300 27.28300
C  36.07900 48.81100 28.29400
C  36.01500 49.60500 29.62500
C  35.59000 51.03000 29.20000
C  35.53000 50.92800 27.68400
C  34.20000 51.46500 29.83000
C  37.37000 49.52400 30.43400
C  37.28000 48.82000 31.81100
H  35.94200 48.87000 32.51900
N  35.54300 51.39600 24.63200
C  35.27200 52.31500 25.54300
C  34.97600 53.56200 24.90100
C  35.08700 53.33600 23.51200
C  35.39200 51.89600 23.35200
C  34.68900 54.81200 25.65300
C  34.95900 54.33100 22.35400
O  35.15600 54.03200 21.15400
C  34.62700 55.86300 22.70300
N  36.12100 48.78000 23.03800
C  36.02800 49.79700 22.01400
C  36.18800 49.16300 20.57600
C  36.72700 47.73900 20.98800
C  36.66500 47.62400 22.46200
C  34.97200 49.11200 19.62000
C  37.97900 47.25700 20.30100
C  39.21300 47.84300 20.95900
N  36.70100 47.43800 25.42100
C  37.06600 46.36000 24.58100
C  37.49700 45.20400 25.35400
C  37.15400 45.56000 26.68800
C  36.79600 46.97300 26.73100
C  38.09200 43.89500 24.66000
C  37.11400 45.06000 28.11800
O  37.43600 44.01500 28.67500
C  36.77700 46.32400 29.00500
C  35.52900 46.01100 29.85400
O  34.44300 46.57600 29.69400
O  35.82900 45.13700 30.85500
C  34.70200 44.58000 31.61100
H  35.08800 52.91500 27.62300
H  35.53300 51.81800 21.26900
H  37.47100 45.78000 22.48200
H  35.25800 49.10600 30.23100
H  36.39200 51.76600 29.25500
H  34.17300 52.51300 30.12600
H  34.01100 50.96500 30.78000
H  33.29000 51.17300 29.30500
H  37.80400 50.52200 30.50100
H  38.14400 49.03000 29.84600
H  38.10900 49.15400 32.43500
H  37.38500 47.75100 31.62500
H  35.54500 55.46900 25.80100
H  34.15700 54.63300 26.58700
H  33.92500 55.43000 25.18100
H  35.40000 56.21800 23.38400
H  33.65500 55.93800 23.19100
H  34.71900 56.36600 21.74000
H  36.95000 49.71100 20.02100
H  36.00200 47.01500 20.61700
H  33.99900 49.11800 20.11200
H  35.01200 48.16500 19.08100
H  35.02300 49.90400 18.87300
H  38.07000 47.67400 19.29700
H  37.96700 46.17000 20.22900
H  39.91400 48.33100 20.28200
H  39.67400 46.91400 21.29500
H  39.04000 48.43300 21.85900
H  37.44500 43.48500 23.88400
H  38.35400 43.18700 25.44600
H  39.09700 44.11000 24.29600
H  37.68600 46.58300 29.54700
H  34.26700 43.78200 31.01000
H  33.95200 45.32800 31.86900
H  35.04100 44.27100 32.60000

