158

Mg 35.80300 48.62700 25.22400
C  35.89400 47.06600 28.26300
C  34.32800 51.27800 26.64700
C  35.20800 49.73400 22.14300
C  37.11200 45.61800 23.76000
N  35.35300 49.17800 27.20700
C  35.56700 48.41200 28.33300
C  35.22600 49.14500 29.72300
C  34.61700 50.40900 29.06100
C  34.84400 50.36300 27.57700
C  33.24900 50.96000 29.59500
C  36.54700 49.18300 30.63600
C  36.27200 48.92300 32.12500
H  35.89500 50.15600 32.96600
N  34.92400 50.37700 24.51000
C  34.38600 51.33600 25.23500
C  34.06000 52.49500 24.34100
C  34.27500 52.01100 23.00500
C  34.84200 50.64100 23.15700
C  33.52300 53.75100 24.88900
C  33.86400 52.55100 21.60100
O  34.02000 52.01800 20.51200
C  33.16100 53.85900 21.52400
N  36.18200 47.76300 23.21300
C  35.69000 48.43200 22.15900
C  35.75000 47.54700 20.89300
C  36.76800 46.46500 21.28100
C  36.76800 46.56900 22.83900
C  34.34500 46.95300 20.53800
C  38.26200 46.61300 20.76600
C  38.46600 46.05800 19.36800
N  36.43300 46.73500 25.83600
C  36.94900 45.61300 25.14400
C  37.09300 44.47600 25.99200
C  36.61300 44.94000 27.27800
C  36.25100 46.33100 27.13100
C  37.53400 43.06100 25.58100
C  36.34500 44.60400 28.71100
O  36.50500 43.56000 29.38100
C  35.96000 46.00400 29.36500
C  34.65400 45.78300 30.09000
O  33.58000 45.93500 29.60300
O  34.97100 45.47700 31.43000
C  33.69700 45.13300 32.16900
H  33.90000 52.18100 27.08600
H  34.96800 50.19500 21.18300
H  37.45600 44.67100 23.33800
H  34.44400 48.54000 30.18200
H  35.37100 51.10300 29.43000
H  32.43100 50.93000 28.87500
H  33.31200 52.02100 29.83600
H  32.93900 50.42000 30.49000
H  36.96200 50.18800 30.56800
H  37.33100 48.56200 30.20400
H  37.25700 48.63800 32.49600
H  35.65700 48.05400 32.36000
H  33.44700 54.49300 24.09400
H  34.30500 54.18900 25.50800
H  32.61800 53.54300 25.46100
H  32.23500 53.78100 22.09300
H  33.07900 54.25100 20.51000
H  33.71200 54.66800 22.00300
H  36.11100 48.11600 20.03600
H  36.42900 45.46100 21.02400
H  33.89400 47.38000 19.64200
H  33.68700 47.20000 21.37100
H  34.38500 45.86500 20.49400
H  38.95300 46.10300 21.43700
H  38.59200 47.64800 20.85100
H  38.47300 46.80600 18.57500
H  37.63600 45.37800 19.18000
H  39.37200 45.45400 19.40100
H  37.71600 43.12300 24.50800
H  36.90300 42.19000 25.76000
H  38.47400 42.88700 26.10400
H  36.68100 46.21200 30.15600
H  33.87500 44.95000 33.22900
H  33.10100 44.28600 31.82800
H  33.08300 46.03200 32.13200
Mg -10.53700 18.01900 43.50300
C  -7.07700 18.44100 43.42500
C  -10.93100 21.46000 43.31900
C  -13.62400 17.44700 42.66600
C  -9.82100 14.51800 43.21200
N  -9.14100 19.74200 43.30900
C  -7.77200 19.66900 43.26800
C  -7.18100 21.12300 43.14400
C  -8.38300 21.93800 43.59700
C  -9.59300 21.02000 43.37600
C  -8.23600 22.52000 45.02900
C  -6.56000 21.42500 41.72600
C  -5.02600 21.61200 41.61000
H  -4.40700 22.13100 40.33800
N  -12.12600 19.31500 43.13100
C  -12.13300 20.69400 43.10200
C  -13.47600 21.09300 42.91200
C  -14.32000 19.93600 42.75900
C  -13.39900 18.85500 42.85100
C  -13.91100 22.57800 42.93000
C  -15.76900 19.94200 42.37300
O  -16.35500 21.02000 42.26800
C  -16.49100 18.75500 42.02000
N  -11.58100 16.18400 42.97600
C  -12.83900 16.24600 42.69900
C  -13.47100 14.83500 42.63500
C  -12.24800 13.90000 42.63400
C  -11.14000 14.89900 42.99400
C  -14.72100 14.55300 43.62200
C  -11.96000 13.09300 41.34600
C  -11.65400 11.55300 41.44500
N  -8.84600 16.66300 43.40300
C  -8.74900 15.30900 43.36700
C  -7.40000 14.86100 43.64300
C  -6.66700 16.11400 43.61200
C  -7.61600 17.15500 43.53200
C  -6.90500 13.45500 43.79100
C  -5.34000 16.74100 43.77400
O  -4.24000 16.23300 44.00000
C  -5.59100 18.31700 43.68700
C  -5.15500 19.01100 44.97100
O  -5.70900 18.93500 46.05800
O  -4.15200 19.89400 44.63800
C  -3.62700 20.66900 45.71600
H  -11.00400 22.54900 43.28700
H  -14.64500 17.11200 42.47000
H  -9.60400 13.44900 43.16100
H  -6.45700 21.13500 43.95900
H  -8.58900 22.78900 42.94800
H  -7.28600 22.99900 45.26800
H  -8.32200 21.65400 45.68500
H  -9.00400 23.28200 45.16000
H  -6.99400 22.34400 41.33000
H  -6.83800 20.68400 40.97800
H  -4.74300 20.56200 41.67700
H  -4.77100 22.26900 42.44200
H  -14.69500 22.60700 43.68700
H  -14.34000 22.88700 41.97700
H  -13.11200 23.27500 43.18300
H  -15.93000 18.20800 41.26300
H  -17.46000 19.12100 41.68200
H  -16.41500 18.22600 42.97000
H  -13.95700 14.76000 41.66300
H  -12.31400 13.17600 43.44700
H  -14.46900 13.59500 44.07700
H  -15.58600 14.49300 42.96200
H  -14.90800 15.37300 44.31500
H  -11.02000 13.50900 40.98200
H  -12.67800 13.44200 40.60400
H  -10.90700 11.41000 40.66400
H  -12.51100 10.89000 41.32500
H  -11.17000 11.34500 42.39900
H  -7.21500 13.01900 44.74100
H  -5.82000 13.49000 43.69800
H  -7.41900 12.98500 42.95300
H  -4.89000 18.60600 42.90400
H  -3.34400 21.58900 45.20400
H  -2.68900 20.21900 46.04100
H  -4.27000 20.83700 46.58000

