158

Mg 40.96500 9.27100 30.05100
C  42.62300 10.42000 32.95600
C  38.67300 7.92500 32.29200
C  39.46900 7.86800 27.48000
C  43.61800 10.40100 28.12400
N  40.73300 9.16500 32.41200
C  41.45900 9.83600 33.32100
C  40.73600 9.82700 34.66600
C  39.62600 8.83200 34.53000
C  39.60000 8.66100 33.00300
C  39.78800 7.43300 35.28300
C  40.34100 11.26000 35.33400
C  39.92300 11.13300 36.82100
H  40.54800 12.00400 37.85700
N  39.39700 7.98000 29.89700
C  38.61100 7.52500 30.92000
C  37.45500 6.75200 30.40900
C  37.52800 6.89400 29.03900
C  38.86500 7.53100 28.73100
C  36.37000 6.21300 31.16300
C  36.53800 6.60600 27.97500
O  36.75200 6.69100 26.81100
C  35.14000 6.00800 28.37100
N  41.56000 9.01900 28.13700
C  40.71900 8.45200 27.22500
C  41.14200 8.70200 25.75100
C  42.41500 9.56300 26.02000
C  42.51000 9.73400 27.54600
C  41.49600 7.39700 24.97000
C  42.29500 11.00600 25.32200
C  43.51600 11.26900 24.42400
N  42.84300 10.14700 30.43600
C  43.72200 10.59500 29.48800
C  44.91000 11.03400 30.22500
C  44.43800 11.10500 31.58600
C  43.16300 10.51300 31.66100
C  46.18000 11.57700 29.60200
C  44.72500 11.57300 32.88400
O  45.68400 12.21200 33.30100
C  43.63400 11.07100 33.87400
C  44.14100 10.04000 34.91800
O  44.69000 8.96500 34.66500
O  43.83100 10.44400 36.23500
C  44.24600 9.52900 37.28300
H  37.80700 7.68900 32.91500
H  39.01700 7.41400 26.59500
H  44.41900 10.79400 27.49500
H  41.49400 9.46200 35.36000
H  38.71100 9.17200 35.01600
H  40.74500 7.33500 35.79600
H  39.56500 6.64900 34.56000
H  39.01700 7.53400 36.04700
H  39.53900 11.82200 34.85500
H  41.27700 11.79700 35.18400
H  40.01700 10.08300 37.09800
H  38.84700 11.25800 36.94000
H  36.50400 6.24900 32.24400
H  36.24300 5.18000 30.83900
H  35.45300 6.76400 30.95500
H  34.70000 6.69900 29.09000
H  35.19400 5.04900 28.88800
H  34.45000 5.97500 27.52800
H  40.38700 9.26100 25.19900
H  43.27000 9.00100 25.64400
H  40.68400 7.11400 24.30000
H  41.48900 6.71000 25.81600
H  42.45100 7.37700 24.44600
H  42.33000 11.72800 26.13800
H  41.29800 11.00500 24.88200
H  43.86500 10.27800 24.13300
H  44.22000 11.89100 24.97700
H  43.31900 11.82900 23.50900
H  45.93000 12.39400 28.92600
H  46.74900 10.79500 29.09800
H  46.69800 12.06200 30.42900
H  43.27400 12.00900 34.29800
H  44.33300 8.46900 37.04600
H  43.59000 9.65900 38.14400
H  45.19300 9.88900 37.68500
Mg 0.54900 43.88000 25.93200
C  2.10100 43.68600 29.03900
C  -2.49300 42.86400 27.51100
C  -0.85600 43.20500 22.91300
C  3.65700 44.39400 24.49400
N  -0.08900 43.35100 27.96000
C  0.70100 43.43000 29.04600
C  -0.05000 43.23000 30.37000
C  -1.48800 42.75900 29.84900
C  -1.37000 43.02700 28.37100
C  -1.70900 41.22200 30.06800
C  -0.12700 44.53800 31.24600
C  0.54200 44.51100 32.59600
H  0.29800 43.30100 33.48900
N  -1.44500 43.40700 25.32600
C  -2.52900 43.06600 26.11700
C  -3.68500 42.82800 25.22400
C  -3.18200 42.87300 23.91400
C  -1.70600 43.09000 24.00300
C  -5.13800 42.57500 25.72000
C  -3.92600 42.77400 22.50700
O  -3.36700 42.72900 21.44400
C  -5.50800 42.62000 22.52100
N  1.27500 43.82900 23.99500
C  0.50500 43.64500 22.81300
C  1.24000 43.93100 21.49600
C  2.51600 44.65600 22.12000
C  2.50600 44.25800 23.62200
C  1.46100 42.66800 20.63300
C  2.71900 46.17500 21.79500
C  4.16700 46.57200 21.83200
N  2.58400 43.95200 26.58100
C  3.73000 44.14700 25.88700
C  4.80800 44.28100 26.79500
C  4.25100 44.08100 28.03900
C  2.87300 43.87200 27.86400
C  6.33500 44.44700 26.57800
C  4.50300 43.87700 29.47500
O  5.56000 43.81300 30.11000
C  3.14400 43.76600 30.17600
C  3.23600 42.47900 30.80700
O  3.13300 41.43400 30.16900
O  3.58900 42.57800 32.12000
C  4.14900 41.35000 32.71000
H  -3.43100 42.54900 27.97200
H  -1.24100 43.02700 21.90700
H  4.59200 44.85900 24.17600
H  0.49000 42.48900 30.95800
H  -2.36300 43.29800 30.21400
H  -0.70600 40.81000 29.95800
H  -2.33800 40.77200 29.30000
H  -2.03300 41.00000 31.08500
H  -1.17900 44.61400 31.52300
H  0.14200 45.43100 30.68200
H  0.28800 45.41400 33.15100
H  1.62200 44.56100 32.46100
H  -5.74000 43.44600 25.46000
H  -5.22900 42.41500 26.79500
H  -5.42700 41.60500 25.31600
H  -5.89200 42.45500 21.51400
H  -5.96100 43.52800 22.92000
H  -5.70200 41.79600 23.20800
H  0.73900 44.57900 20.77700
H  3.34500 44.23900 21.54800
H  1.59600 41.80000 21.27800
H  2.43500 42.64200 20.14500
H  0.66400 42.52800 19.90200
H  2.25300 46.74800 22.59700
H  2.33200 46.29700 20.78400
H  4.49700 47.47500 22.34500
H  4.48200 46.85200 20.82700
H  4.90400 45.84700 22.17900
H  6.82100 43.89400 27.38100
H  6.65800 45.48800 26.58500
H  6.67600 44.16600 25.58200
H  3.03700 44.52900 30.94700
H  3.38200 40.94400 33.37000
H  5.01300 41.48200 33.36100
H  4.37800 40.55800 31.99700

