158

Mg 45.54300 4.92500 46.67900
C  43.45000 7.71100 46.50300
C  42.85500 2.86900 46.45700
C  47.62900 2.37300 45.84400
C  48.34300 7.26700 46.15900
N  43.47100 5.25000 46.44100
C  42.81300 6.47400 46.40900
C  41.26000 6.27000 46.28700
C  41.07400 4.70900 46.13200
C  42.52800 4.25000 46.39500
C  39.95500 4.17100 47.12700
C  40.50600 7.07600 45.12400
C  41.21900 7.27700 43.74000
H  40.68700 6.77200 42.39500
N  45.34000 2.84400 46.53000
C  44.09900 2.21700 46.47200
C  44.37100 0.80400 46.20000
C  45.80000 0.65300 46.19600
C  46.34500 1.95300 46.23100
C  43.24200 -0.23500 45.91100
C  46.51900 -0.64700 46.15500
O  45.91900 -1.73900 46.08900
C  48.06900 -0.72900 46.17900
N  47.64200 4.86600 46.04300
C  48.25200 3.66400 45.76700
C  49.63400 3.82300 45.27600
C  49.90600 5.33700 45.39800
C  48.60400 5.93700 45.95000
C  50.50900 2.97400 46.21500
C  50.19900 5.99100 44.00600
C  51.53800 5.60800 43.44400
N  45.94400 7.05600 46.52000
C  47.03700 7.83700 46.41900
C  46.70300 9.23900 46.52700
C  45.29800 9.24600 46.64100
C  44.82600 7.89600 46.52300
C  47.65500 10.43600 46.51400
C  44.11100 10.06200 46.71800
O  44.00700 11.31300 46.64600
C  42.84100 9.11200 46.65000
C  42.18600 9.23100 48.02200
O  42.44300 8.60400 49.04100
O  41.19200 10.16700 47.87700
C  40.27800 10.28400 49.04100
H  42.04600 2.14200 46.35000
H  48.26200 1.67000 45.29700
H  49.18100 7.94600 45.99000
H  40.75100 6.76900 47.11100
H  40.81400 4.49500 45.09500
H  39.83900 4.81500 47.99900
H  40.33800 3.25400 47.57500
H  39.03700 4.13600 46.53900
H  40.26900 8.07600 45.48800
H  39.62000 6.48000 44.90600
H  42.23100 6.87400 43.79200
H  41.54700 8.31200 43.64400
H  43.45100 -0.57600 44.89700
H  42.25000 0.21000 45.98400
H  43.24700 -1.02000 46.66700
H  48.20900 -1.73800 46.56700
H  48.50000 0.03700 46.82400
H  48.37100 -0.67900 45.13300
H  49.75400 3.36300 44.29500
H  50.77500 5.46500 46.04400
H  50.42400 1.95400 45.83900
H  50.08800 2.95800 47.22000
H  51.54900 3.30200 46.18900
H  50.12200 7.07600 44.07300
H  49.42500 5.65000 43.31900
H  51.56600 4.72900 42.79900
H  52.29700 5.51800 44.22100
H  51.84100 6.40400 42.76400
H  47.79800 10.67500 47.56800
H  47.20500 11.36100 46.15200
H  48.56900 10.30500 45.93500
H  42.25800 9.37500 45.76700
H  39.50900 9.51200 49.03200
H  39.69300 11.20300 48.99200
H  40.69600 10.37400 50.04300
Mg 35.40200 49.47200 26.26900
C  35.80600 47.49100 29.00000
C  34.20600 52.06100 28.15000
C  34.99100 51.28000 23.33900
C  36.36700 46.76800 24.20400
N  34.83300 49.67600 28.36200
C  35.22700 48.79200 29.28600
C  35.12900 49.38000 30.71800
C  34.34500 50.68900 30.46200
C  34.39400 50.82000 28.93000
C  32.86000 50.78500 31.08800
C  36.50700 49.55200 31.43900
C  36.57800 48.82100 32.83400
H  35.56200 49.06100 33.99000
N  34.83000 51.37000 25.85500
C  34.44800 52.33100 26.76400
C  34.29900 53.59400 26.02000
C  34.42500 53.39700 24.64000
C  34.78700 51.93300 24.61300
C  34.05200 54.86700 26.77500
C  34.33700 54.28700 23.45000
O  34.28000 53.88300 22.28900
C  34.06900 55.73100 23.72200
N  35.76700 49.11000 24.08700
C  35.45600 50.00400 23.10400
C  35.56500 49.33600 21.71300
C  36.19200 47.97600 22.05800
C  36.17800 47.91700 23.54800
C  34.26700 49.26000 20.88400
C  37.69100 47.88900 21.46200
C  38.82900 48.30900 22.48500
N  35.96600 47.48700 26.53000
C  36.38800 46.56700 25.56400
C  36.66200 45.33500 26.34600
C  36.49500 45.67300 27.69000
C  36.07900 46.99200 27.71500
C  37.19900 44.06100 25.73700
C  36.55600 45.11500 28.97800
O  36.92100 44.04300 29.41000
C  36.10000 46.29700 29.92900
C  34.88300 45.77800 30.65700
O  33.81300 45.55500 30.24200
O  35.25100 45.50200 31.94200
C  34.14400 45.24400 32.84300
H  33.82300 52.85400 28.79700
H  35.05200 51.80800 22.38600
H  36.31300 45.88100 23.56900
H  34.49200 48.69500 31.27700
H  34.81800 51.52600 30.97500
H  32.19400 51.18300 30.32300
H  32.94000 51.49300 31.91300
H  32.47600 49.86500 31.52600
H  36.88700 50.57100 31.50700
H  37.22700 48.94800 30.88800
H  37.58400 49.00700 33.20900
H  36.58900 47.73200 32.79100
H  33.10200 55.29900 26.46200
H  34.94400 55.48700 26.68900
H  33.82600 54.68900 27.82700
H  33.06700 55.94400 24.09500
H  34.19800 56.22400 22.75900
H  34.83400 56.00800 24.44800
H  36.34700 49.90900 21.21600
H  35.62300 47.13100 21.67000
H  34.10600 48.18800 20.76900
H  34.53400 49.88400 20.03100
H  33.46700 49.71100 21.47200
H  37.68300 48.51900 20.57300
H  37.89300 46.83800 21.25800
H  39.68200 47.69500 22.19600
H  38.66600 48.26000 23.56200
H  39.09100 49.35600 22.33100
H  38.28800 44.03000 25.78300
H  36.90800 43.85900 24.70600
H  36.74200 43.29800 26.36700
H  36.89500 46.38200 30.67100
H  34.38600 45.71600 33.79500
H  33.96700 44.17100 32.91500
H  33.16900 45.63000 32.54400

