158

Mg 17.00400 -3.07200 27.45500
C  16.35200 -1.16200 30.47100
C  18.68900 -5.25000 29.37700
C  18.25000 -4.40100 24.63200
C  15.50500 -0.53500 25.65700
N  17.52100 -3.11000 29.71200
C  17.03000 -2.35400 30.72900
C  17.36700 -2.94700 32.09700
C  18.27100 -4.21300 31.72300
C  18.12200 -4.20600 30.16600
C  19.69800 -4.03500 32.19300
C  16.07300 -3.17700 32.98900
C  16.16900 -2.91300 34.46500
H  17.57300 -2.64700 35.05500
N  18.05100 -4.74400 27.02700
C  18.69800 -5.55200 27.96000
C  19.35300 -6.65900 27.21400
C  19.17000 -6.44000 25.78300
C  18.50100 -5.12700 25.80600
C  20.15200 -7.72600 27.96600
C  19.63800 -7.27800 24.64600
O  19.45400 -7.01700 23.47300
C  20.27400 -8.62500 25.04800
N  16.89300 -2.51500 25.48600
C  17.62500 -3.19200 24.49400
C  17.40900 -2.61100 23.07100
C  16.27100 -1.51900 23.38600
C  16.10500 -1.55700 24.95500
C  18.65300 -2.02900 22.37000
C  15.02700 -1.78000 22.52900
C  13.74700 -2.29900 23.18000
N  16.07000 -1.18000 27.95800
C  15.48500 -0.32100 27.05800
C  14.95100 0.82600 27.80100
C  15.29400 0.60600 29.14000
C  15.96000 -0.69200 29.19800
C  14.19100 1.98600 27.13000
C  15.13100 1.07100 30.50700
O  14.52300 2.03700 30.98800
C  15.91000 -0.09000 31.40900
C  16.92800 0.56700 32.31800
O  18.13400 0.44600 32.23600
O  16.11400 1.16300 33.34900
C  17.08500 1.67300 34.30300
H  19.05200 -6.08200 29.98300
H  18.63700 -4.75200 23.67300
H  15.05300 0.23100 25.02300
H  17.97200 -2.16800 32.56200
H  17.86800 -5.16400 32.07000
H  20.32500 -4.02700 31.30200
H  20.13700 -4.72900 32.91000
H  19.79600 -3.08700 32.72400
H  15.93900 -4.25700 32.92600
H  15.18600 -2.63500 32.65800
H  15.65100 -3.69500 35.01900
H  15.63800 -1.99300 34.70900
H  19.60200 -8.61900 28.26300
H  20.47800 -7.29900 28.91400
H  21.08100 -7.94700 27.44000
H  21.28700 -8.53500 25.43900
H  20.49000 -9.03200 24.06100
H  19.56100 -9.29700 25.52700
H  16.90800 -3.39100 22.49800
H  16.59100 -0.52900 23.05900
H  18.87100 -0.96500 22.45000
H  18.54500 -2.08500 21.28600
H  19.56900 -2.52900 22.68600
H  15.27900 -2.52800 21.77800
H  14.70900 -0.87900 22.00400
H  13.73800 -1.89400 24.19200
H  13.73700 -3.38200 23.30700
H  12.76500 -2.07400 22.76400
H  13.11300 1.83200 27.17300
H  14.48200 2.28700 26.12300
H  14.47600 2.83400 27.75300
H  15.12400 -0.40200 32.09600
H  17.64800 2.41200 33.73200
H  17.74800 0.90300 34.69800
H  16.51500 2.22800 35.04800
Mg -10.31700 16.81000 43.16000
C  -6.83400 17.67300 43.14200
C  -10.93700 20.06000 42.48800
C  -13.57000 16.00900 42.90400
C  -9.43300 13.45800 43.07100
N  -8.99400 18.62400 42.92800
C  -7.64300 18.81100 42.95100
C  -7.17500 20.27800 42.63800
C  -8.53000 21.03200 42.61600
C  -9.57900 19.85900 42.68900
C  -8.76000 22.04500 43.78400
C  -6.31400 20.37800 41.39300
C  -4.97900 21.08900 41.48300
H  -3.79500 20.24100 41.03600
N  -12.02200 17.92600 42.77400
C  -12.11300 19.24600 42.53500
C  -13.50900 19.68400 42.50000
C  -14.32100 18.51000 42.49000
C  -13.32500 17.42700 42.73600
C  -14.01900 21.06200 42.29400
C  -15.81900 18.43900 42.18500
O  -16.50900 19.45600 42.04800
C  -16.49200 17.05500 42.11000
N  -11.32800 14.98500 42.75200
C  -12.63500 14.92000 42.96400
C  -13.13000 13.51700 43.29800
C  -11.86400 12.66500 42.96500
C  -10.79500 13.74100 42.92400
C  -13.76500 13.39400 44.72300
C  -11.95200 11.81000 41.71300
C  -12.20500 10.33700 41.95300
N  -8.54100 15.73200 43.17600
C  -8.39500 14.36900 43.22600
C  -7.01100 14.08300 43.38500
C  -6.36300 15.36600 43.33000
C  -7.34700 16.30000 43.24900
C  -6.40400 12.70800 43.47200
C  -5.09400 16.04500 43.45400
O  -3.93500 15.65900 43.69700
C  -5.38300 17.56200 43.20000
C  -4.87600 18.42400 44.35800
O  -5.48800 18.70600 45.44700
O  -3.66100 18.85800 44.01000
C  -2.96900 19.81200 44.84700
H  -11.18100 21.12400 42.46600
H  -14.56600 15.57600 43.01800
H  -9.27000 12.38400 43.18700
H  -6.59300 20.57900 43.50800
H  -8.76600 21.43500 41.63100
H  -7.75000 22.40500 43.97700
H  -9.26200 21.63100 44.65800
H  -9.36100 22.82800 43.32200
H  -6.93600 20.96100 40.71400
H  -6.33800 19.38000 40.95500
H  -4.90600 21.33700 42.54200
H  -4.88700 22.01500 40.91600
H  -14.71500 21.01800 41.45700
H  -13.29600 21.79200 41.93000
H  -14.39700 21.40500 43.25700
H  -17.49400 17.25400 41.73100
H  -16.56900 16.61500 43.10500
H  -15.87500 16.38300 41.51400
H  -13.93500 13.23300 42.62000
H  -11.69800 12.02800 43.83400
H  -14.85300 13.46300 44.72000
H  -13.37400 14.21100 45.32900
H  -13.63400 12.42600 45.20800
H  -11.01600 11.97600 41.18000
H  -12.88100 12.11600 41.23300
H  -11.97200 9.83100 42.89000
H  -11.81400 9.76700 41.11000
H  -13.29400 10.30800 41.91900
H  -5.53200 12.89700 44.09800
H  -6.09200 12.31300 42.50500
H  -7.06900 12.01000 43.98000
H  -5.00300 17.97400 42.26600
H  -3.52300 20.16800 45.71600
H  -2.74600 20.57700 44.10300
H  -2.03500 19.41400 45.24300

