158

Mg 24.66100 -3.95800 45.58200
C  26.84800 -1.89700 44.07300
C  22.17500 -2.96000 43.68800
C  22.96600 -6.96800 46.19700
C  27.40100 -5.51000 47.26000
N  24.47000 -2.45500 44.22100
C  25.47800 -1.74500 43.59100
C  24.97000 -0.89900 42.42100
C  23.41900 -0.95700 42.61100
C  23.36600 -2.21200 43.54200
C  22.62100 0.15500 43.26700
C  25.51000 -1.13500 40.97000
C  24.83400 -0.33400 39.84600
H  25.19200 -0.71600 38.40000
N  22.78700 -4.78400 45.15300
C  21.87400 -4.17400 44.36000
C  20.65500 -4.86300 44.44900
C  20.80900 -6.02300 45.22500
C  22.23800 -5.92500 45.59800
C  19.41100 -4.43900 43.66100
C  19.79600 -7.08100 45.69600
O  18.62900 -7.06000 45.19400
C  20.14600 -8.03300 46.80100
N  25.27000 -6.20800 46.32400
C  24.34900 -7.17100 46.55400
C  24.87100 -8.30700 47.38700
C  26.40200 -7.79500 47.70400
C  26.42200 -6.47600 47.02900
C  23.95200 -8.67500 48.62700
C  27.45600 -8.79900 47.14200
C  27.85200 -9.99600 48.04900
N  26.67200 -3.63400 45.86900
C  27.66100 -4.36700 46.51300
C  28.95000 -3.71300 46.37800
C  28.71400 -2.74700 45.37900
C  27.27500 -2.73900 45.15200
C  30.27500 -4.07800 47.03300
C  29.29500 -1.81400 44.47100
O  30.50100 -1.60400 44.35900
C  28.06200 -1.09900 43.61200
C  28.05300 0.32700 43.94500
O  27.68100 0.79500 45.03600
O  28.65600 1.03800 42.93300
C  29.13700 2.33700 43.39100
H  21.33300 -2.58900 43.10100
H  22.37300 -7.82000 46.53500
H  28.28900 -5.89400 47.76600
H  25.41100 0.07400 42.63900
H  22.84400 -1.23100 41.72700
H  23.07300 1.03300 43.72800
H  22.07500 -0.28400 44.10200
H  21.96100 0.59600 42.52100
H  25.38600 -2.21600 40.90800
H  26.57700 -0.91800 40.91800
H  25.10400 0.70600 40.02700
H  23.74400 -0.35200 39.87700
H  19.42100 -5.03300 42.74800
H  19.64700 -3.43300 43.31400
H  18.47600 -4.55100 44.21200
H  19.15300 -8.38500 47.07900
H  20.54300 -7.52600 47.68100
H  20.64800 -8.93300 46.44500
H  24.92100 -9.14600 46.69200
H  26.49900 -7.76600 48.78900
H  23.50100 -9.64100 48.40000
H  23.07800 -8.03800 48.76500
H  24.63000 -8.71700 49.47900
H  28.31600 -8.14000 47.02500
H  27.19000 -9.16500 46.15000
H  27.77600 -10.93000 47.49200
H  27.17200 -10.01900 48.90100
H  28.84000 -9.87300 48.49100
H  30.07500 -4.14300 48.10300
H  30.91100 -3.20900 46.86600
H  30.68900 -5.04800 46.75800
H  28.18700 -1.11900 42.52900
H  28.66800 3.02500 42.68800
H  30.19700 2.21900 43.16500
H  28.95000 2.65400 44.41700
Mg 16.42000 52.09000 26.08400
C  18.26400 50.41100 28.57800
C  14.10900 53.00100 28.60200
C  14.82100 53.96700 23.83300
C  18.70000 51.07200 23.71300
N  16.23800 51.79300 28.36200
C  17.14500 51.14700 29.14200
C  16.74000 51.14100 30.62800
C  15.23200 51.66200 30.50200
C  15.22300 52.27600 29.08200
C  14.21200 50.53900 30.75100
C  17.67600 52.12000 31.42900
C  18.05900 51.64600 32.82400
H  17.15300 52.10500 33.98600
N  14.72200 53.31300 26.18500
C  13.92700 53.51800 27.32300
C  12.74200 54.20800 26.82900
C  12.95300 54.67000 25.50800
C  14.22200 53.91800 25.10600
C  11.55200 54.61300 27.78200
C  12.11800 55.59500 24.56100
O  12.42300 55.75600 23.42000
C  10.86000 56.16700 25.07500
N  16.77200 52.48700 24.11000
C  16.02800 53.43900 23.41500
C  16.41200 53.54600 21.96700
C  17.88200 52.87600 21.98000
C  17.72700 52.07100 23.33600
C  15.38500 53.09800 20.90400
C  19.13900 53.85600 21.97700
C  19.64400 54.27700 20.50000
N  18.01000 50.71400 26.01200
C  18.88200 50.39900 24.96800
C  19.97700 49.63700 25.45400
C  19.77100 49.57700 26.81600
C  18.53800 50.26900 27.15600
C  21.12900 49.06000 24.62200
C  20.38200 49.20800 28.10000
O  21.44900 48.64700 28.35400
C  19.43100 49.70300 29.28500
C  18.89800 48.47900 30.03100
O  18.23300 47.58100 29.60600
O  19.49600 48.51500 31.22300
C  19.07300 47.50400 32.15200
H  13.34600 53.20100 29.35600
H  14.37900 54.64400 23.09800
H  19.55100 51.07400 23.02800
H  16.73700 50.16700 31.11600
H  15.05300 52.43500 31.24900
H  13.59100 50.75700 31.62000
H  14.72000 49.57500 30.77700
H  13.46400 50.56100 29.95900
H  17.19200 53.09400 31.48700
H  18.58200 52.34100 30.86600
H  19.04200 52.04300 33.07600
H  18.10800 50.55800 32.85600
H  11.30300 55.67100 27.70000
H  11.80900 54.39500 28.81900
H  10.63700 54.07200 27.54000
H  10.21700 55.44100 25.57300
H  10.25100 56.61600 24.29100
H  11.20100 56.88900 25.81700
H  16.58900 54.61000 21.81000
H  17.96100 52.15500 21.16500
H  15.85700 52.38700 20.22600
H  15.13500 53.99200 20.33200
H  14.55700 52.60000 21.40900
H  19.89300 53.23200 22.45600
H  19.09600 54.70100 22.66500
H  19.42700 55.33800 20.62000
H  18.99000 53.95000 19.69100
H  20.67700 54.03800 20.25000
H  22.09800 49.48600 24.88200
H  20.92800 49.12200 23.55300
H  21.36100 48.02800 24.88700
H  19.93500 50.46500 29.88000
H  19.39500 47.97900 33.07900
H  19.53900 46.54000 31.95000
H  18.00100 47.38600 32.30800

