158

Mg 47.01800 16.25500 28.14500
C  44.86500 16.03800 30.93600
C  49.47100 17.59100 30.21800
C  48.62000 17.39500 25.33800
C  44.48400 14.90400 26.19800
N  46.97400 16.90900 30.26700
C  46.08300 16.68500 31.31300
C  46.69100 17.09100 32.73300
C  48.10200 17.68700 32.36700
C  48.20900 17.34300 30.80100
C  48.27600 19.21600 32.76500
C  46.76100 15.91200 33.85900
C  46.29300 16.16500 35.27400
H  46.24600 17.54100 35.87200
N  48.80500 17.26400 27.83300
C  49.72300 17.73100 28.79700
C  50.90800 18.19900 28.16700
C  50.71600 18.20700 26.77100
C  49.39200 17.53700 26.55800
C  52.08200 18.57600 28.97400
C  51.74300 18.65000 25.68200
O  51.51400 18.40500 24.52400
C  53.01100 19.39800 26.02800
N  46.66300 16.12000 26.12700
C  47.41200 16.71300 25.07000
C  46.77600 16.54400 23.71700
C  45.67300 15.44000 24.00500
C  45.62300 15.43200 25.55700
C  46.18500 17.84900 23.28900
C  46.02800 13.93100 23.56600
C  44.76100 13.13300 23.00700
N  45.11600 15.61800 28.41700
C  44.24100 14.98500 27.55400
C  43.08500 14.59500 28.23200
C  43.25700 14.92800 29.56100
C  44.51500 15.61300 29.63200
C  41.93800 13.80500 27.62000
C  42.72600 14.87200 30.95400
O  41.68000 14.46700 31.46300
C  43.77600 15.62900 31.87600
C  43.03400 16.78500 32.51600
O  42.57200 17.76200 31.91300
O  42.91200 16.61400 33.83700
C  42.03800 17.67200 34.51800
H  50.37500 17.82300 30.78400
H  49.11700 17.80400 24.45500
H  43.78900 14.52700 25.44500
H  46.08700 17.91600 33.11200
H  48.72700 17.11300 33.05100
H  47.33500 19.53900 33.21000
H  48.49500 19.77200 31.85300
H  49.08800 19.30400 33.48800
H  47.79200 15.56700 33.93300
H  46.28100 15.07500 33.35300
H  46.92700 15.52100 35.88300
H  45.29700 15.72200 35.28200
H  51.98600 18.40100 30.04500
H  52.25900 19.65000 28.91700
H  52.93100 18.00700 28.59400
H  53.63600 18.69400 26.57800
H  52.77000 20.32800 26.54300
H  53.53100 19.56000 25.08400
H  47.56100 16.23400 23.02600
H  44.67300 15.68700 23.65000
H  45.10000 17.75700 23.22800
H  46.74000 18.09000 22.38300
H  46.48300 18.57000 24.05000
H  46.50000 13.41300 24.40200
H  46.84000 13.97900 22.84000
H  44.53100 12.16100 23.44400
H  44.94400 12.88900 21.96000
H  43.83300 13.70500 23.04600
H  41.20600 13.71700 28.42300
H  42.36900 12.86300 27.28200
H  41.43300 14.36000 26.83000
H  44.20300 14.98600 32.64600
H  41.65800 18.53700 33.97400
H  42.45100 17.99400 35.47500
H  41.09500 17.19800 34.79000
Mg 0.48900 43.26400 25.98600
C  2.86600 43.02300 28.44200
C  -1.91000 42.09800 28.05500
C  -1.56400 43.04700 23.24700
C  3.21100 43.99100 23.62400
N  0.57200 42.57500 27.99100
C  1.53900 42.76700 28.86100
C  1.01000 42.69900 30.30200
C  -0.42100 42.11900 30.10300
C  -0.63400 42.19600 28.61100
C  -0.50400 40.58300 30.50700
C  1.14200 44.01400 31.14100
C  1.23800 43.96600 32.66200
H  0.86300 42.60000 33.29100
N  -1.53300 42.73400 25.73500
C  -2.33600 42.37900 26.71900
C  -3.71900 42.17900 26.15100
C  -3.61900 42.43800 24.70600
C  -2.16800 42.72700 24.48500
C  -4.98000 41.86600 27.01500
C  -4.62300 42.35500 23.72600
O  -4.44300 42.76700 22.61400
C  -5.96800 41.87700 24.12300
N  0.81300 43.37700 23.81300
C  -0.25500 43.38600 22.93600
C  0.16200 43.84800 21.51100
C  1.70800 44.08300 21.62300
C  1.93300 43.83200 23.11600
C  -0.15400 42.95400 20.26400
C  2.25900 45.46800 21.12000
C  2.33100 46.67100 22.00600
N  2.60300 43.51800 25.97300
C  3.53300 43.81600 24.98700
C  4.85200 43.81300 25.61000
C  4.64500 43.52100 26.93000
C  3.26400 43.31300 27.11900
C  6.12300 43.92500 24.85900
C  5.30500 43.23500 28.16500
O  6.49600 43.07800 28.46800
C  4.15500 43.05000 29.24900
C  4.43100 41.87200 30.07400
O  4.17900 40.70900 29.79500
O  4.86900 42.30600 31.30000
C  5.10800 41.35300 32.36500
H  -2.61900 41.66300 28.76200
H  -2.21000 43.13900 22.37100
H  3.98800 44.21500 22.89100
H  1.55900 41.94300 30.86400
H  -1.22100 42.63100 30.63600
H  0.40400 40.33100 31.05400
H  -0.48600 39.87100 29.68200
H  -1.43300 40.38500 31.04200
H  0.29400 44.62900 30.83900
H  2.01300 44.53600 30.74600
H  0.78400 44.78700 33.21600
H  2.29400 44.03200 32.92600
H  -4.86700 41.80600 28.09700
H  -5.25000 40.86100 26.68800
H  -5.78900 42.58400 26.88000
H  -5.83000 40.90200 24.58900
H  -6.59800 41.77500 23.23900
H  -6.46000 42.55500 24.82000
H  -0.29000 44.82900 21.36300
H  2.31700 43.34300 21.10400
H  -0.59900 41.98500 20.49300
H  0.70200 42.89300 19.59300
H  -0.88800 43.55100 19.72300
H  1.72700 45.78800 20.22300
H  3.29500 45.32400 20.81200
H  3.29000 46.73900 22.52000
H  1.61000 46.66400 22.82300
H  2.25500 47.50400 21.30800
H  6.31500 44.87300 24.35600
H  6.22500 43.24400 24.01500
H  6.86100 43.66900 25.62000
H  4.05400 43.98100 29.80600
H  5.34100 41.81300 33.32500
H  5.82500 40.57900 32.09200
H  4.20600 40.77900 32.57900

