158

Mg -1.44500 17.64800 27.59600
C  -2.14700 15.30300 30.12300
C  -2.32600 20.11700 29.65300
C  -0.99700 19.80300 25.03400
C  -0.98000 15.01800 25.22800
N  -2.10800 17.60600 29.66900
C  -2.13000 16.60600 30.57800
C  -2.22100 17.16200 32.05800
C  -2.42700 18.71800 31.83600
C  -2.34300 18.84700 30.28300
C  -3.73800 19.35600 32.47300
C  -1.10700 16.57700 33.02900
C  -0.55300 17.44400 34.17900
H  0.16800 16.75700 35.30600
N  -1.56200 19.68400 27.42700
C  -1.95000 20.58200 28.37200
C  -1.76100 22.00300 27.91300
C  -1.35300 21.89500 26.55200
C  -1.25800 20.44000 26.28100
C  -1.88800 23.22300 28.84600
C  -1.01200 23.05300 25.66000
O  -0.54700 22.92700 24.55300
C  -1.33800 24.41200 26.07700
N  -0.87400 17.42800 25.41600
C  -0.82700 18.47700 24.61600
C  -0.70700 18.05700 23.11800
C  -0.57100 16.50100 23.24400
C  -0.79700 16.25100 24.76700
C  -1.98100 18.56000 22.40600
C  0.86800 15.93000 22.80800
C  2.08400 16.39200 23.68400
N  -1.62500 15.62600 27.61000
C  -1.38700 14.72100 26.58700
C  -1.55500 13.40000 27.15900
C  -1.85500 13.54600 28.54100
C  -1.88100 14.95000 28.78400
C  -1.32600 12.17600 26.37800
C  -2.14100 12.82500 29.73800
O  -2.22100 11.61300 29.96100
C  -2.26500 13.97800 30.87500
C  -1.11600 13.68000 31.78800
O  0.04600 14.01200 31.71500
O  -1.60400 12.83900 32.81200
C  -0.67700 12.46200 33.84400
H  -2.50900 20.91000 30.38200
H  -0.83800 20.44600 24.16600
H  -0.87900 14.14800 24.57500
H  -3.16700 16.85200 32.50100
H  -1.49300 19.11700 32.23100
H  -3.43700 20.21500 33.07300
H  -4.22600 18.62400 33.11600
H  -4.40500 19.72500 31.69400
H  -0.19900 16.41200 32.44900
H  -1.54000 15.66700 33.44500
H  -1.23900 18.18700 34.58600
H  0.33000 17.87700 33.71000
H  -0.95700 23.77300 28.71200
H  -1.97000 22.88900 29.88100
H  -2.69100 23.89300 28.53800
H  -2.33100 24.52600 26.51200
H  -1.19700 25.21200 25.35000
H  -0.61400 24.72300 26.82900
H  0.18000 18.54200 22.71100
H  -1.33100 15.98700 22.65700
H  -1.79900 19.20700 21.54800
H  -2.69700 19.06300 23.05700
H  -2.48600 17.77800 21.83800
H  1.04500 16.37900 21.83100
H  0.80700 14.86600 22.57800
H  1.75600 17.07800 24.46400
H  2.75000 17.02700 23.10000
H  2.62500 15.60500 24.20800
H  -2.05700 11.94300 25.60400
H  -1.18900 11.26900 26.96700
H  -0.37700 12.24200 25.84600
H  -3.24000 13.91800 31.35800
H  -0.37500 13.32900 34.43200
H  0.29200 12.12400 33.47700
H  -1.03500 11.60300 34.41100
Mg -10.28100 38.98600 40.93300
C  -8.39600 36.19400 39.88400
C  -7.84800 41.02600 39.34200
C  -12.41700 41.48700 41.24600
C  -12.63900 36.71800 42.23100
N  -8.43400 38.60700 39.61400
C  -7.79700 37.39400 39.39700
C  -6.46300 37.55500 38.54100
C  -6.24600 39.12800 38.76800
C  -7.60700 39.62300 39.29200
C  -5.00500 39.50000 39.63400
C  -6.63800 37.22000 37.05400
C  -5.73800 36.29100 36.33900
H  -5.33500 36.56800 34.95400
N  -10.10900 41.02000 40.48700
C  -9.07600 41.67200 39.87200
C  -9.33200 43.08700 40.00200
C  -10.69300 43.28200 40.46700
C  -11.12700 41.87100 40.78400
C  -8.27500 44.22300 39.69200
C  -11.36800 44.62000 40.67200
O  -10.73300 45.65800 40.45600
C  -12.78000 44.83000 41.30800
N  -12.37900 39.03300 41.38400
C  -12.99500 40.24200 41.51500
C  -14.52400 39.97500 41.87800
C  -14.54800 38.42800 42.22900
C  -13.10000 38.02500 41.93500
C  -15.11200 40.81000 43.07600
C  -15.61800 37.64500 41.42100
C  -16.14800 36.35000 42.09100
N  -10.48700 36.88700 41.10300
C  -11.44700 36.17500 41.83100
C  -11.01700 34.79100 41.87400
C  -9.82500 34.73600 41.13300
C  -9.62000 36.01700 40.62600
C  -11.65600 33.64500 42.55100
C  -8.79900 33.86400 40.55900
O  -8.62000 32.65000 40.67700
C  -7.83500 34.78700 39.74500
C  -6.56500 34.61100 40.35600
O  -5.78100 33.67900 40.08000
O  -6.20500 35.59200 41.34600
C  -5.03900 35.34300 42.17200
H  -7.02800 41.65900 38.99700
H  -13.05600 42.37200 41.21800
H  -13.25700 35.99100 42.76300
H  -5.70700 36.88300 38.94500
H  -5.96500 39.62200 37.83800
H  -4.20800 39.81900 38.96200
H  -4.59800 38.56800 40.02600
H  -5.22800 40.15000 40.48000
H  -6.50500 38.13800 36.48200
H  -7.66000 36.85100 36.97600
H  -6.23600 35.32400 36.26800
H  -4.88900 36.11700 37.00000
H  -8.33400 44.89600 38.83600
H  -7.42000 43.59900 39.43200
H  -7.99100 44.77600 40.58700
H  -12.94900 45.87300 41.57400
H  -12.93600 44.36700 42.28300
H  -13.45900 44.59600 40.48700
H  -15.13100 40.21200 41.00500
H  -14.71000 38.17700 43.27700
H  -14.32000 41.47300 43.42400
H  -15.40500 40.24800 43.96400
H  -15.91300 41.46200 42.72700
H  -15.13200 37.23000 40.53700
H  -16.40900 38.35300 41.17500
H  -17.23500 36.41300 42.04400
H  -15.85600 36.10700 43.11300
H  -15.66200 35.60100 41.46600
H  -12.72300 33.84600 42.64300
H  -11.27800 33.75700 43.56700
H  -11.40400 32.65200 42.17600
H  -7.68400 34.46500 38.71500
H  -5.08000 36.05000 43.00100
H  -4.13200 35.54500 41.60200
H  -5.11300 34.32200 42.54500

