158

Mg -0.64400 7.46500 26.88100
C  0.22200 9.71100 29.55000
C  -0.06100 4.90300 29.10300
C  -1.02200 5.29200 24.36800
C  -0.83300 10.16000 24.64100
N  -0.17500 7.42600 29.11700
C  0.15300 8.38800 30.02100
C  0.30500 7.88300 31.39900
C  0.58300 6.38700 31.15700
C  0.03400 6.15000 29.73200
C  1.96800 5.79100 31.33700
C  -0.98800 8.32500 32.19800
C  -0.74600 8.64000 33.67600
H  0.04600 7.56300 34.49600
N  -0.59400 5.31000 26.81700
C  -0.29200 4.47200 27.79000
C  -0.28900 3.12000 27.32800
C  -0.67500 3.21100 25.97500
C  -0.81100 4.64000 25.64000
C  0.01300 1.88000 28.23600
C  -0.84800 2.05600 24.95800
O  -1.06600 2.22500 23.73300
C  -0.89500 0.60700 25.47700
N  -0.69000 7.67200 24.86200
C  -1.02900 6.64900 24.10700
C  -1.28500 7.07200 22.64900
C  -1.59300 8.56700 22.83500
C  -0.98200 8.84900 24.16600
C  0.02700 6.77000 21.81200
C  -3.12300 8.79100 22.71700
C  -3.66600 9.87300 21.77600
N  -0.26200 9.56200 27.01800
C  -0.32800 10.48300 25.97800
C  0.03900 11.75700 26.54200
C  0.32400 11.50300 27.89700
C  0.07600 10.16000 28.19300
C  -0.03600 12.96700 25.77900
C  0.71900 12.07900 29.11400
O  1.01100 13.27200 29.38100
C  0.65100 10.96900 30.20600
C  1.85800 10.96700 31.10000
O  2.68300 10.13700 31.22100
O  1.85600 12.06500 31.97900
C  2.73700 11.99500 33.17700
H  0.17200 4.11900 29.82600
H  -1.16300 4.64200 23.50200
H  -1.05300 10.87100 23.84200
H  1.14000 8.43000 31.83600
H  -0.05100 5.73900 31.76200
H  1.91600 4.93300 32.00800
H  2.63000 6.55800 31.73900
H  2.34800 5.46300 30.37000
H  -1.79500 7.59700 32.11300
H  -1.29100 9.30900 31.84300
H  -1.72500 8.73500 34.14700
H  -0.25500 9.60500 33.80200
H  -0.66700 1.02800 28.24400
H  0.00500 2.09800 29.30400
H  1.02200 1.57500 27.95800
H  0.04500 0.06400 25.57200
H  -1.49200 -0.00400 24.80000
H  -1.42200 0.53800 26.42900
H  -2.15900 6.56600 22.23900
H  -1.10600 9.18100 22.07800
H  0.42000 7.72600 21.46700
H  -0.15800 6.34100 20.82600
H  0.75300 6.17600 22.36600
H  -3.46700 9.01700 23.72600
H  -3.66300 7.89600 22.40800
H  -4.27500 9.34300 21.04400
H  -2.80100 10.47400 21.49500
H  -4.29700 10.54200 22.36100
H  0.19000 13.79500 26.45000
H  -1.03000 13.15400 25.37300
H  0.67200 12.87700 24.95600
H  -0.14100 11.27000 30.89100
H  3.79100 12.03000 32.89900
H  2.64100 11.04700 33.70600
H  2.47500 12.80700 33.85400
Mg 1.58000 41.77600 25.54000
C  3.69300 41.83300 28.31500
C  -1.09000 41.12300 27.48500
C  -0.04700 41.06000 22.68200
C  4.53700 42.40300 23.60900
N  1.37500 41.59000 27.64100
C  2.35100 41.59700 28.66400
C  1.75100 41.57000 30.10800
C  0.27400 41.14700 29.76400
C  0.13400 41.42300 28.23200
C  -0.23500 39.64800 30.17400
C  1.99600 42.92500 30.76800
C  2.10400 42.85900 32.31700
H  0.73100 43.00600 32.97300
N  -0.32000 41.28300 25.10800
C  -1.25800 41.07600 26.08100
C  -2.51300 40.67700 25.42500
C  -2.29500 40.65100 24.03800
C  -0.84200 40.94500 23.84800
C  -3.81400 40.37600 26.19000
C  -3.28200 40.27200 22.93300
O  -2.77500 40.14500 21.83300
C  -4.72100 40.06000 23.14700
N  2.09100 41.88100 23.42600
C  1.30000 41.38100 22.51800
C  2.02300 41.54200 21.15000
C  3.32300 42.31400 21.42500
C  3.36500 42.14300 22.86300
C  2.35700 40.11200 20.65100
C  3.20600 43.75800 21.03900
C  4.25400 44.44000 20.16400
N  3.64500 41.95300 25.81900
C  4.69800 42.27600 24.96500
C  5.97300 42.35200 25.65900
C  5.61800 42.12200 26.96700
C  4.21200 42.04900 27.01400
C  7.35000 42.63600 25.14500
C  6.11200 41.98900 28.33800
O  7.29000 41.86600 28.70800
C  4.86500 41.86000 29.31300
C  5.04900 40.67800 30.28900
O  4.86000 39.52500 30.04500
O  5.52800 41.17400 31.51300
C  5.33000 40.30000 32.69600
H  -1.95300 40.96400 28.13400
H  -0.56100 40.70400 21.78600
H  5.46900 42.59100 23.07200
H  2.28800 40.91500 30.79400
H  -0.37600 41.80800 30.33800
H  -0.92700 39.72300 31.01300
H  0.54800 38.95100 30.47200
H  -0.85100 39.25100 29.36600
H  1.10100 43.51900 30.58300
H  2.89300 43.44700 30.43400
H  2.78300 43.65000 32.63200
H  2.51200 41.88100 32.57200
H  -4.52900 41.13000 25.86300
H  -3.60100 40.43400 27.25800
H  -4.11900 39.36000 25.94000
H  -5.07100 41.06200 23.39600
H  -4.91500 39.27400 23.87700
H  -5.11400 39.73500 22.18400
H  1.39100 42.05200 20.42300
H  4.02500 41.77800 20.78600
H  2.99900 39.57500 21.34900
H  2.95200 40.21600 19.74400
H  1.56200 39.46500 20.27900
H  3.11500 44.40800 21.90900
H  2.19700 43.88000 20.64500
H  5.02700 43.73900 19.84900
H  4.62800 45.34400 20.64600
H  3.76700 44.82800 19.27000
H  7.38500 42.65100 24.05600
H  7.95300 41.93200 25.71900
H  7.63600 43.58500 25.59800
H  4.76900 42.81300 29.83500
H  4.66900 40.83300 33.37900
H  6.33500 40.20900 33.10900
H  4.90800 39.29600 32.65600

