158

Mg 40.68300 10.07500 29.73300
C  42.49600 10.69700 32.81400
C  38.21000 8.70600 31.79700
C  38.92200 9.28300 27.07100
C  43.44500 11.02100 27.99100
N  40.48000 9.60000 32.04300
C  41.23200 10.22300 33.01800
C  40.57800 10.07600 34.41300
C  39.30400 9.17400 34.02900
C  39.31600 9.18300 32.52100
C  39.43800 7.74500 34.59700
C  40.32700 11.36300 35.22900
C  39.72600 11.26800 36.63900
H  40.46300 11.87900 37.82600
N  38.73200 9.25600 29.49600
C  37.91100 8.72300 30.46800
C  36.71000 8.15000 29.81700
C  36.80700 8.58600 28.43400
C  38.20800 9.02900 28.26600
C  35.78100 7.33100 30.64600
C  35.71700 8.40400 27.34100
O  35.91800 8.66600 26.15900
C  34.35700 7.96700 27.67700
N  41.25300 10.02500 27.71400
C  40.23800 9.69800 26.79400
C  40.86300 9.88400 25.39000
C  42.28800 10.40200 25.67500
C  42.37200 10.52800 27.22700
C  40.86900 8.61800 24.37400
C  42.81900 11.60800 24.77900
C  42.10700 12.93800 25.09900
N  42.56000 10.72500 30.25400
C  43.63400 11.12400 29.42300
C  44.75500 11.49300 30.12500
C  44.37000 11.31700 31.50700
C  43.03900 10.83400 31.54400
C  46.01300 11.94400 29.45500
C  44.84000 11.47900 32.86100
O  45.93300 11.78800 33.29000
C  43.59000 11.20000 33.76900
C  44.00200 10.26800 34.83000
O  44.19700 9.06400 34.64900
O  43.85000 10.87100 36.05700
C  44.09800 10.02700 37.23300
H  37.50000 8.29800 32.52000
H  38.25000 9.15200 26.22000
H  44.28100 11.24500 27.32600
H  41.39000 9.52000 34.88200
H  38.39100 9.68000 34.34100
H  40.37400 7.54800 35.11900
H  39.40700 7.07000 33.74100
H  38.57100 7.60100 35.24200
H  39.62500 11.95300 34.64000
H  41.21900 11.98900 35.20700
H  39.26500 10.32300 36.92600
H  38.83300 11.88300 36.52800
H  36.40100 6.60500 31.17300
H  35.13200 6.73800 30.00200
H  35.27700 7.98500 31.35800
H  33.77100 7.98900 26.75800
H  33.89900 8.58100 28.45300
H  34.47500 6.95300 28.05800
H  40.30600 10.62400 24.81600
H  42.91700 9.52700 25.51000
H  40.33900 7.77100 24.81000
H  41.82800 8.37700 23.91700
H  40.30300 8.91600 23.49100
H  42.71100 11.43400 23.70900
H  43.86400 11.78000 25.03600
H  41.46500 13.25900 24.27800
H  42.78000 13.75400 25.36400
H  41.42300 12.79700 25.93600
H  46.74500 12.04800 30.25600
H  45.81100 12.84900 28.88200
H  46.28500 11.19000 28.71700
H  43.20700 12.10600 34.23800
H  43.50000 9.12000 37.13800
H  43.93800 10.45300 38.22300
H  45.12000 9.65200 37.18200
Mg 44.38500 42.51500 26.06500
C  43.03800 44.54400 28.63800
C  45.92400 40.71600 28.46900
C  45.59700 40.62100 23.53100
C  43.03300 44.83900 23.68000
N  44.35400 42.62900 28.31900
C  43.72500 43.47300 29.11600
C  43.85300 43.02600 30.59000
C  45.04900 42.05700 30.52800
C  45.13500 41.77400 28.98700
C  46.36400 42.43000 31.17500
C  42.60900 42.55200 31.47900
C  42.69600 41.86900 32.87000
H  41.83800 42.44600 33.96900
N  45.51700 40.87200 25.98300
C  46.09500 40.31100 27.09600
C  46.93200 39.16100 26.72500
C  46.73100 39.02900 25.31900
C  45.95300 40.21500 24.87400
C  47.85300 38.40300 27.71100
C  47.29100 37.99700 24.42500
O  47.05200 38.02800 23.20200
C  48.20600 36.90000 24.92800
N  44.22200 42.65800 23.89500
C  44.82200 41.77300 23.06100
C  44.74500 42.15700 21.57000
C  43.68700 43.26800 21.64000
C  43.59500 43.65900 23.19000
C  46.10700 42.30700 20.86500
C  42.22500 43.00600 20.98300
C  41.35800 42.07400 21.90500
N  43.28500 44.33200 26.07500
C  42.89700 45.17400 25.07200
C  42.17600 46.28500 25.64400
C  42.09900 45.94900 26.98100
C  42.87100 44.83500 27.23400
C  41.46200 47.50500 24.99700
C  41.54500 46.39800 28.28700
O  40.82100 47.41700 28.51000
C  42.11800 45.51300 29.42900
C  42.81200 46.32400 30.43300
O  43.87200 46.95500 30.28500
O  42.21400 46.22800 31.66800
C  42.83800 46.85000 32.88500
H  46.50000 40.14600 29.20100
H  45.92100 40.02400 22.67500
H  42.46900 45.44000 22.96500
H  44.23100 43.91800 31.08900
H  44.85200 41.06800 30.94300
H  46.56500 41.73400 31.98900
H  46.26500 43.42800 31.60200
H  47.18500 42.46200 30.45800
H  42.16300 41.79500 30.83400
H  41.97200 43.42100 31.64400
H  43.73800 41.92400 33.18600
H  42.45700 40.82200 32.68300
H  48.61200 39.04700 28.15500
H  48.43700 37.70400 27.11400
H  47.34800 37.81900 28.48000
H  48.38800 36.15900 24.15000
H  47.65200 36.41200 25.73000
H  49.18700 37.26600 25.23200
H  44.30200 41.23200 21.20100
H  44.02200 44.18500 21.15500
H  46.98500 42.56900 21.45600
H  46.06300 43.02700 20.04800
H  46.39300 41.32500 20.49000
H  42.40800 42.53100 20.01900
H  41.72600 43.97200 20.90000
H  40.99200 42.67600 22.73700
H  41.92900 41.22800 22.28800
H  40.49400 41.58500 21.45500
H  41.49300 48.23200 25.80800
H  40.45100 47.20100 24.72700
H  42.08500 47.80900 24.15500
H  41.23900 45.05200 29.87900
H  43.62500 47.55900 32.63100
H  43.12400 45.98700 33.48700
H  42.04400 47.37300 33.41800

