158

Mg 45.99300 17.05800 28.41700
C  44.52900 16.63000 31.70000
C  48.54500 18.58900 29.94000
C  47.11800 17.56600 25.33700
C  43.14600 15.34000 27.10300
N  46.40200 17.59500 30.56500
C  45.79000 17.30900 31.72700
C  46.52000 17.73800 32.94600
C  47.69200 18.49300 32.36700
C  47.54600 18.25300 30.84400
C  47.75200 20.04100 32.54200
C  47.05400 16.43100 33.73200
C  47.05100 16.46200 35.22600
H  46.90900 17.73900 36.03700
N  47.59100 17.98000 27.74400
C  48.56800 18.61800 28.55500
C  49.61300 19.10900 27.64900
C  49.19400 18.75200 26.28100
C  47.98100 18.05300 26.38100
C  50.75600 20.02600 27.95900
C  49.93700 19.00500 24.93400
O  49.45700 18.72900 23.86000
C  51.31700 19.63600 24.93600
N  45.18300 16.54500 26.60600
C  45.90400 16.90100 25.46700
C  45.12000 16.52600 24.17300
C  43.94600 15.66300 24.75400
C  44.06000 15.89800 26.21000
C  44.53000 17.78500 23.46200
C  44.00700 14.11600 24.44900
C  44.98600 13.29800 25.25300
N  44.19700 16.19300 29.20400
C  43.19100 15.52100 28.50700
C  42.12800 15.15700 29.45200
C  42.64700 15.50800 30.75000
C  43.89400 16.17100 30.55300
C  40.86800 14.39700 29.01300
C  42.34800 15.53300 32.12600
O  41.32400 15.16600 32.67600
C  43.55000 16.28700 32.86100
C  42.99600 17.45800 33.51800
O  42.58700 18.45500 32.90200
O  42.98300 17.27600 34.88600
C  42.38100 18.28600 35.68400
H  49.37900 19.17700 30.32900
H  47.47800 17.59500 24.30600
H  42.38700 14.65000 26.72800
H  45.89900 18.32900 33.61900
H  48.65100 18.16100 32.76300
H  47.52300 20.48500 31.57300
H  48.78900 20.22800 32.82200
H  47.04100 20.32100 33.31900
H  48.04000 16.08900 33.41700
H  46.32700 15.67100 33.44700
H  47.95900 15.96800 35.57300
H  46.19900 15.89300 35.59800
H  50.46300 21.02300 27.63000
H  51.68800 19.68600 27.50800
H  50.89100 20.08800 29.03900
H  52.08900 19.23400 25.59100
H  51.28900 20.67700 25.25800
H  51.54800 19.65600 23.87100
H  45.79900 16.01600 23.48900
H  42.98200 16.09100 24.48100
H  43.47500 17.87200 23.20300
H  45.10700 17.86300 22.54000
H  44.85000 18.62700 24.07600
H  44.28500 14.06000 23.39700
H  43.02400 13.66200 24.57400
H  44.55000 12.83800 26.13900
H  45.85200 13.89300 25.54300
H  45.36700 12.49600 24.61900
H  40.44500 14.87000 28.12600
H  40.17400 14.63200 29.81900
H  40.92800 13.34100 28.74900
H  44.04200 15.60800 33.55600
H  42.55500 19.25000 35.20700
H  42.93600 18.31600 36.62100
H  41.34500 17.96300 35.79200
Mg -1.24200 33.93600 26.76200
C  -3.13900 32.17600 29.28200
C  -0.24000 36.07700 29.17800
C  0.25600 35.63500 24.37300
C  -2.74000 31.81000 24.29500
N  -1.60500 34.04500 28.94900
C  -2.33500 33.22200 29.77600
C  -2.14700 33.68900 31.22500
C  -1.45300 35.04700 31.14900
C  -1.01700 35.07600 29.65300
C  -2.34200 36.23000 31.64500
C  -1.47600 32.65200 32.11000
C  -2.24400 31.90300 33.26000
H  -1.68300 32.17400 34.69200
N  -0.24900 35.66500 26.70700
C  0.19800 36.32100 27.85500
C  1.02600 37.40600 27.44600
C  1.11800 37.38200 26.00000
C  0.40700 36.20300 25.64000
C  1.80000 38.33600 28.44800
C  1.91300 38.32900 25.16000
O  1.89700 38.24000 23.97100
C  2.83000 39.42500 25.81600
N  -1.42200 33.90500 24.58700
C  -0.44700 34.55600 23.93400
C  -0.30200 34.11100 22.48200
C  -1.01000 32.66200 22.58800
C  -1.79900 32.74200 23.90700
C  -1.00200 35.09200 21.49100
C  -0.03200 31.50800 22.55300
C  -0.47700 30.29000 21.64400
N  -2.64200 32.34500 26.70400
C  -3.14300 31.59500 25.63400
C  -4.03900 30.51200 26.16600
C  -4.08200 30.75600 27.59400
C  -3.23400 31.88100 27.86200
C  -4.74800 29.42400 25.37200
C  -4.63900 30.27900 28.81900
O  -5.44600 29.36300 29.03400
C  -3.98600 31.14500 30.00600
C  -5.09700 31.80100 30.69400
O  -5.61600 32.82800 30.29600
O  -5.33900 31.18500 31.90500
C  -6.44600 31.71400 32.69200
H  0.21000 36.71500 29.94100
H  0.90900 36.05900 23.60800
H  -2.97300 30.98700 23.61600
H  -3.14700 33.86700 31.62000
H  -0.50600 35.02400 31.68800
H  -3.32000 35.96600 32.04700
H  -2.41900 37.01100 30.88800
H  -1.78800 36.76700 32.41500
H  -0.63300 33.10200 32.63500
H  -1.11800 31.93800 31.36800
H  -2.30600 30.84200 33.01700
H  -3.23100 32.34300 33.40100
H  2.87500 38.17100 28.51000
H  1.54400 38.19500 29.49800
H  1.63500 39.40600 28.31500
H  2.16700 40.08900 26.37100
H  3.28900 39.95400 24.98100
H  3.65800 39.00500 26.38600
H  0.77600 34.06800 22.32800
H  -1.69800 32.55800 21.74800
H  -1.67900 35.80600 21.96100
H  -1.60700 34.60000 20.72900
H  -0.19100 35.57800 20.94900
H  0.20600 31.19900 23.57100
H  0.86600 31.84300 22.03300
H  -0.57600 29.37600 22.23000
H  0.30900 30.15300 20.90200
H  -1.45900 30.43300 21.19300
H  -4.75100 28.42900 25.81800
H  -4.19300 29.36300 24.43600
H  -5.76100 29.72000 25.09700
H  -3.43900 30.34800 30.50900
H  -6.02900 32.40100 33.43000
H  -6.92700 30.82500 33.10100
H  -7.14800 32.29400 32.09400

