158

Mg 17.17600 -0.62600 28.09400
C  15.90500 1.11300 30.76300
C  19.35600 -2.16900 30.29100
C  18.34200 -2.37900 25.43300
C  15.39100 1.41100 26.00700
N  17.66200 -0.41600 30.33800
C  16.83900 0.19900 31.21600
C  17.11600 -0.20300 32.66200
C  18.45500 -1.02900 32.49600
C  18.49700 -1.21900 30.93000
C  19.74100 -0.34800 33.07600
C  15.91000 -0.81300 33.35500
C  15.54800 -0.35300 34.77000
H  16.68800 0.00500 35.69100
N  18.65800 -1.99800 27.88300
C  19.39500 -2.62100 28.90200
C  20.06900 -3.73000 28.38900
C  19.94300 -3.75300 26.97800
C  18.97400 -2.69200 26.66300
C  20.94400 -4.63000 29.19400
C  20.51800 -4.60300 25.90700
O  20.31100 -4.42500 24.69300
C  21.46700 -5.74000 26.28500
N  17.07700 -0.35700 26.07400
C  17.48900 -1.32500 25.21600
C  17.10000 -0.89700 23.77500
C  15.96000 0.09700 24.02100
C  16.10600 0.41400 25.46500
C  18.31900 -0.41900 22.91400
C  14.49600 -0.34800 23.58200
C  14.15500 -0.05200 22.15800
N  15.90500 0.85600 28.24000
C  15.27800 1.71100 27.35700
C  14.52500 2.70900 27.97300
C  14.63900 2.45500 29.35600
C  15.57900 1.36200 29.41400
C  13.85500 3.86200 27.28100
C  14.21800 2.97700 30.62500
O  13.38500 3.74800 30.94500
C  14.95100 2.01700 31.59100
C  15.69600 2.94000 32.50100
O  16.80300 3.42400 32.24500
O  14.99300 3.22400 33.66000
C  15.68100 4.01800 34.60900
H  19.95700 -2.74700 30.99600
H  18.60400 -2.86800 24.49300
H  14.77600 2.01600 25.33700
H  17.19900 0.71200 33.24800
H  18.38100 -1.90100 33.14600
H  19.75200 -0.38400 34.16600
H  19.82200 0.67300 32.70300
H  20.51800 -1.01300 32.69800
H  16.13500 -1.88000 33.36800
H  15.14100 -0.66000 32.59800
H  15.06100 -1.13700 35.34900
H  14.81300 0.45100 34.71200
H  21.98700 -4.67900 28.88200
H  20.42500 -5.58400 29.10700
H  21.05900 -4.44400 30.26200
H  21.01900 -6.47600 26.95300
H  22.33500 -5.25600 26.73300
H  21.72900 -6.30500 25.39100
H  16.64200 -1.71400 23.21700
H  16.09500 1.02600 23.46700
H  19.25900 -0.43000 23.46400
H  18.23200 0.62300 22.60500
H  18.40800 -1.14700 22.10800
H  13.72300 0.00300 24.26600
H  14.41800 -1.43200 23.66500
H  13.08800 -0.10500 21.94000
H  14.66700 -0.81900 21.57900
H  14.49000 0.91500 21.78300
H  13.23200 4.36700 28.02000
H  13.14400 3.41800 26.58500
H  14.58000 4.37800 26.65200
H  14.21600 1.42800 32.14100
H  15.57300 5.04800 34.27100
H  16.73000 3.84300 34.84600
H  15.21000 4.06400 35.59100
Mg 9.74000 47.87400 25.65400
C  7.30200 48.34600 28.29900
C  12.13400 48.88200 27.94500
C  11.86100 47.79800 23.09400
C  7.03600 47.17800 23.47400
N  9.68700 48.43600 27.95000
C  8.66300 48.37800 28.76900
C  9.19900 48.50100 30.26000
C  10.56400 49.18000 29.95600
C  10.85500 48.72700 28.55300
C  10.62700 50.74100 29.99000
C  9.30100 47.15700 30.96300
C  8.69300 47.07300 32.31200
H  9.44000 46.22700 33.42900
N  11.71300 48.41200 25.49800
C  12.53500 48.70600 26.57300
C  13.96700 48.82100 26.06200
C  13.85300 48.50900 24.69100
C  12.41700 48.20200 24.43000
C  15.18800 49.23300 26.96000
C  14.97500 48.21800 23.72000
O  14.89200 48.10400 22.51500
C  16.37900 48.00800 24.30700
N  9.49000 47.63500 23.52600
C  10.56000 47.58000 22.67100
C  10.14500 47.17900 21.27600
C  8.64100 46.79700 21.42600
C  8.32400 47.23200 22.88000
C  10.39500 48.24900 20.21700
C  8.22000 45.41000 21.15800
C  8.56800 44.24600 22.20200
N  7.59200 47.67600 25.79300
C  6.65300 47.39600 24.81500
C  5.37700 47.46500 25.44000
C  5.57400 47.86100 26.77600
C  6.97900 47.98000 26.97200
C  4.06500 47.07900 24.83400
C  4.87200 48.19700 28.04000
O  3.70100 48.07400 28.27400
C  6.00300 48.52200 29.07600
C  5.74400 47.70800 30.30900
O  5.57100 46.49300 30.28100
O  5.50500 48.51500 31.38600
C  4.72300 47.94200 32.39800
H  12.96600 49.15100 28.60000
H  12.53600 47.76800 22.23600
H  6.13600 46.84800 22.95000
H  8.49300 49.22500 30.66700
H  11.29800 48.82600 30.67900
H  11.37700 51.07100 30.70800
H  9.69200 51.18400 30.33200
H  10.80800 51.19200 29.01400
H  10.30500 46.73500 30.92400
H  8.67500 46.50100 30.36000
H  7.69900 46.65500 32.15700
H  8.39100 48.02700 32.74400
H  14.91800 49.62300 27.94100
H  15.47200 50.18100 26.50300
H  15.98900 48.49800 27.04000
H  16.51500 47.22300 25.05000
H  16.73800 48.94600 24.73200
H  17.13200 47.86300 23.53200
H  10.72700 46.29300 21.02000
H  8.00300 47.52200 20.92100
H  10.99700 49.07200 20.60100
H  9.49900 48.71000 19.80100
H  11.04000 47.82600 19.44600
H  8.67600 45.07100 20.22800
H  7.15200 45.42200 20.93800
H  9.38100 43.60100 21.86900
H  7.63200 43.70200 22.32900
H  8.71800 44.60200 23.22100
H  3.36100 47.83600 25.18000
H  3.91500 46.02800 25.08000
H  4.13400 47.27600 23.76400
H  6.11900 49.55600 29.40100
H  5.41000 47.45000 33.08600
H  3.94800 47.29000 31.99400
H  4.23800 48.76500 32.92200

