158

Mg 7.99300 2.95000 27.11800
C  9.15600 1.74400 30.19200
C  6.01900 5.15000 28.91300
C  6.80100 4.05800 24.17800
C  9.45100 0.28200 25.55900
N  7.50100 3.30000 29.30100
C  8.19400 2.73900 30.31200
C  7.87200 3.51100 31.63600
C  6.72800 4.47300 31.21100
C  6.73700 4.26600 29.73500
C  5.32000 4.15300 31.87700
C  9.03400 4.26900 32.36500
C  8.69700 5.09500 33.56800
H  9.28100 4.57300 34.91500
N  6.48600 4.37200 26.64700
C  5.87400 5.19700 27.53400
C  5.19000 6.17500 26.76800
C  5.36600 5.88000 25.37700
C  6.25900 4.67700 25.34500
C  4.35800 7.31200 27.38700
C  4.88300 6.70400 24.08700
O  5.39400 6.48900 22.97200
C  3.98100 7.87000 24.17200
N  8.07100 2.11700 25.10300
C  7.57400 2.79100 24.08100
C  7.68800 1.93100 22.78200
C  8.64400 0.81400 23.21900
C  8.62800 1.03500 24.71700
C  6.28200 1.44200 22.18700
C  10.04100 0.87900 22.58000
C  11.01900 1.78600 23.38200
N  9.19100 1.44700 27.64800
C  9.80900 0.44500 26.92600
C  10.62100 -0.41900 27.75400
C  10.41000 0.08500 29.01100
C  9.50600 1.20700 28.95200
C  11.43900 -1.58300 27.33100
C  10.81400 -0.11700 30.37900
O  11.63700 -0.93200 30.80400
C  10.14500 1.04900 31.19100
C  9.51000 0.48100 32.41500
O  8.54100 -0.27700 32.47600
O  10.21200 1.00000 33.47800
C  9.55500 0.58900 34.72000
H  5.55900 5.96500 29.47700
H  6.54900 4.36500 23.16000
H  9.94700 -0.53100 25.02400
H  7.51500 2.78900 32.37000
H  7.07700 5.49800 31.33600
H  4.53600 3.99900 31.13600
H  5.17500 5.07000 32.44700
H  5.36900 3.36100 32.62500
H  9.54000 4.86500 31.60500
H  9.72600 3.54100 32.78900
H  7.62700 5.26000 33.69200
H  9.15800 6.07700 33.45800
H  4.39500 7.48000 28.46400
H  3.31000 7.28300 27.08800
H  4.68400 8.22400 26.88800
H  3.54600 8.16100 23.21500
H  4.60200 8.72200 24.45000
H  3.17900 7.73300 24.89700
H  8.21600 2.51800 22.03000
H  8.19700 -0.12500 22.89200
H  6.15100 1.82100 21.17400
H  5.48900 1.71900 22.88300
H  6.12000 0.36700 22.11700
H  10.04000 1.17800 21.53200
H  10.51500 -0.10200 22.56600
H  11.72200 1.12700 23.89200
H  10.54800 2.51100 24.04500
H  11.58500 2.43900 22.71700
H  12.51200 -1.39500 27.37100
H  11.34500 -1.79400 26.26500
H  11.13600 -2.44300 27.92800
H  10.84600 1.85200 31.41500
H  8.50400 0.88000 34.71400
H  10.17700 0.96500 35.53200
H  9.49800 -0.49700 34.78400
Mg 15.97300 -2.04700 27.87500
C  15.10800 0.01600 30.56300
C  17.83600 -4.02000 30.13800
C  17.01400 -3.86600 25.22900
C  14.54700 0.30100 25.62500
N  16.27900 -2.14500 30.13100
C  15.89300 -1.09000 30.98900
C  16.40100 -1.34600 32.36800
C  17.43800 -2.44900 32.18300
C  17.16600 -2.90900 30.72000
C  18.90500 -1.96400 32.37400
C  15.32100 -1.74100 33.41200
C  15.42400 -1.25800 34.88100
H  16.68500 -0.57000 35.34100
N  17.13500 -3.76700 27.71800
C  17.79300 -4.42200 28.77000
C  18.35300 -5.60700 28.19400
C  18.13800 -5.59300 26.81700
C  17.41400 -4.41400 26.54600
C  19.12000 -6.67200 28.95700
C  18.46300 -6.70600 25.74800
O  17.95300 -6.78800 24.60800
C  19.51800 -7.72200 26.11800
N  15.81600 -1.85800 25.78100
C  16.30000 -2.72100 24.85100
C  15.75300 -2.44100 23.47900
C  15.03200 -1.04600 23.54700
C  15.13100 -0.85800 25.10600
C  16.75700 -2.57900 22.24800
C  13.58600 -1.21100 22.87700
C  12.59100 -2.10500 23.53900
N  14.99400 -0.20600 28.01700
C  14.45400 0.57500 27.00600
C  13.79700 1.66900 27.66000
C  14.02000 1.51100 29.02900
C  14.74600 0.33500 29.20200
C  12.93300 2.76800 27.11600
C  13.68400 2.04300 30.34400
O  13.03200 2.97600 30.75800
C  14.45100 1.16300 31.37400
C  15.34400 2.14800 32.16200
O  16.47400 2.42900 31.86700
O  14.61200 2.78800 33.14300
C  15.29700 3.92400 33.78000
H  18.49200 -4.48400 30.87700
H  17.37300 -4.50000 24.41600
H  14.01800 1.00800 24.98100
H  16.77500 -0.36500 32.66200
H  17.18500 -3.29700 32.81900
H  19.40400 -2.49400 33.18500
H  18.96200 -0.90100 32.60900
H  19.57700 -2.14200 31.53400
H  15.23600 -2.82600 33.47800
H  14.31900 -1.60600 33.00400
H  15.31500 -2.14300 35.50700
H  14.50100 -0.69500 35.01800
H  20.18400 -6.48700 28.81400
H  18.85000 -7.67800 28.63400
H  18.90900 -6.54800 30.01900
H  20.03000 -8.12700 25.24500
H  19.08800 -8.50000 26.74800
H  20.31800 -7.21300 26.65600
H  15.05600 -3.27500 23.38400
H  15.57200 -0.28500 22.98400
H  17.76500 -2.76100 22.62100
H  16.68400 -1.73000 21.56800
H  16.54700 -3.44300 21.61800
H  13.61800 -1.43400 21.81000
H  13.16600 -0.20600 22.86500
H  11.64000 -1.60500 23.72100
H  12.89600 -2.51300 24.50300
H  12.34500 -3.01100 22.98500
H  11.91700 2.61300 27.47800
H  12.90800 2.88500 26.03300
H  13.29900 3.71600 27.51100
H  13.69900 0.81000 32.07900
H  16.13900 3.65600 34.42000
H  14.56500 4.48200 34.36400
H  15.74600 4.52100 32.98700

