158

Mg 26.04900 51.04800 26.64600
C  23.76000 51.92200 29.25300
C  28.33300 50.23500 29.02900
C  28.35700 51.00000 24.15300
C  23.66800 52.32900 24.25800
N  26.05200 51.28500 28.88000
C  25.04800 51.58200 29.74300
C  25.45100 51.42600 31.16900
C  26.96100 51.10100 31.12300
C  27.16300 50.82900 29.56300
C  28.02100 52.14000 31.66600
C  24.62400 50.22700 31.92600
C  23.88400 50.64100 33.14900
H  24.71200 51.11800 34.31300
N  28.09200 50.51000 26.58600
C  28.83700 50.13300 27.70800
C  30.10600 49.76200 27.30500
C  30.24300 50.18100 25.88700
C  28.90700 50.64900 25.48600
C  31.18200 49.25700 28.30500
C  31.44400 50.22900 25.04900
O  31.35000 50.67700 23.96400
C  32.66800 49.88700 25.60200
N  25.96900 51.60400 24.55300
C  27.05700 51.40200 23.73300
C  26.78600 51.78500 22.23800
C  25.26900 52.11200 22.26300
C  24.93800 51.94600 23.79100
C  27.79900 52.91400 21.78200
C  24.35400 51.36200 21.31800
C  23.96500 52.03300 19.94600
N  24.07300 51.85100 26.64900
C  23.20300 52.28200 25.61600
C  21.94600 52.76400 26.24200
C  22.12800 52.52600 27.60600
C  23.43500 52.03100 27.82400
C  20.74300 53.23800 25.46500
C  21.42100 52.66800 28.92500
O  20.27100 53.02200 29.21300
C  22.58100 52.53600 30.03100
C  22.78300 53.83300 30.75200
O  23.07900 54.88200 30.20400
O  22.60600 53.66800 32.09900
C  22.61900 54.86400 32.96400
H  28.90700 49.79500 29.84700
H  29.02600 51.07300 23.29200
H  22.94600 52.68500 23.52000
H  25.29100 52.39100 31.65000
H  27.26700 50.16600 31.59100
H  28.45800 51.62200 32.52000
H  27.54500 52.99400 32.14800
H  28.84100 52.40900 31.00000
H  25.25400 49.35000 32.07400
H  24.05900 49.83900 31.07900
H  23.18600 49.83900 33.39100
H  23.36500 51.55400 32.85900
H  30.67800 48.79000 29.15100
H  31.79900 50.08100 28.66300
H  31.70800 48.41000 27.86400
H  33.51000 50.23700 25.00600
H  32.63000 48.80400 25.72300
H  32.79800 50.46400 26.51700
H  26.92100 50.89200 21.62800
H  25.16000 53.10400 21.82400
H  28.45800 52.53600 21.00000
H  28.39400 53.13500 22.66800
H  27.27600 53.77200 21.35900
H  23.38100 51.17600 21.77200
H  24.65700 50.34300 21.07800
H  23.83600 51.26300 19.18500
H  24.77700 52.67100 19.59700
H  23.09100 52.67800 20.03300
H  20.90200 54.28000 25.18400
H  19.82000 53.19100 26.04200
H  20.66800 52.65900 24.54500
H  22.18200 51.92600 30.84200
H  21.60500 55.01300 33.33400
H  23.00500 55.77100 32.49800
H  23.19000 54.75200 33.88600
Mg -9.97000 18.28300 42.62200
C  -6.64200 17.29500 42.52700
C  -9.05400 21.42400 41.64700
C  -13.22500 19.04000 41.81400
C  -10.82600 14.95100 42.93600
N  -8.12900 19.20200 42.04500
C  -6.86500 18.67400 42.15400
C  -5.75400 19.62500 41.75900
C  -6.54200 20.95100 41.95300
C  -8.02300 20.50400 41.81900
C  -6.27300 21.82000 43.26900
C  -5.09400 19.32600 40.43700
C  -6.02900 18.65700 39.46400
H  -5.41600 18.51500 38.07100
N  -11.00000 20.09800 42.03000
C  -10.42200 21.27600 41.74500
C  -11.46400 22.30300 41.48800
C  -12.73300 21.56900 41.61600
C  -12.37600 20.19100 41.87000
C  -11.15300 23.79900 41.17300
C  -14.05300 22.20600 41.48300
O  -14.06800 23.44700 41.36200
C  -15.26600 21.43900 41.58400
N  -11.85500 17.15700 42.49500
C  -13.02300 17.68800 42.10600
C  -14.11200 16.55600 41.90900
C  -13.41200 15.35100 42.70500
C  -11.89700 15.80700 42.59500
C  -15.48000 16.87800 42.52400
C  -13.79300 13.96300 42.05800
C  -13.75600 12.87800 43.04400
N  -8.91100 16.43600 42.82500
C  -9.42500 15.14800 43.04700
C  -8.38600 14.17100 43.19600
C  -7.22500 14.99800 43.07300
C  -7.62000 16.33800 42.83500
C  -8.52200 12.65000 43.13800
C  -5.77200 14.98300 42.94200
O  -4.96200 14.10000 42.88600
C  -5.30000 16.49700 42.73000
C  -4.59800 17.07800 43.85700
O  -3.47100 17.59400 43.75900
O  -5.33700 17.07100 45.02400
C  -4.74300 17.69200 46.19600
H  -8.76400 22.45500 41.43500
H  -14.15600 19.33500 41.32500
H  -11.16900 13.91700 43.02300
H  -4.95800 19.62400 42.50300
H  -6.40700 21.57100 41.06600
H  -7.14200 21.90200 43.92200
H  -5.89400 22.79200 42.95400
H  -5.52000 21.30400 43.86400
H  -4.28600 18.60500 40.56100
H  -4.73800 20.21100 39.91100
H  -6.93000 19.24000 39.27300
H  -6.16000 17.62700 39.79800
H  -11.87800 24.27800 40.51500
H  -10.27900 23.79300 40.52300
H  -11.00600 24.35800 42.09700
H  -15.23500 20.82400 42.48400
H  -15.40000 20.85400 40.67400
H  -16.06900 22.14700 41.78900
H  -14.26900 16.36100 40.84800
H  -13.73900 15.29900 43.74300
H  -15.57500 17.77300 43.13900
H  -15.77800 16.08700 43.21200
H  -16.18800 17.03800 41.71100
H  -13.06400 13.75500 41.27500
H  -14.79000 14.04700 41.62600
H  -13.32800 13.19800 43.99400
H  -13.17600 12.02300 42.69600
H  -14.73900 12.42900 43.19100
H  -9.30300 12.42300 42.41300
H  -8.92800 12.17400 44.03100
H  -7.65300 12.12500 42.74200
H  -4.59400 16.71300 41.92800
H  -3.69500 17.47700 46.40600
H  -5.35500 17.37400 47.04100
H  -5.00800 18.74500 46.10300

