158

Mg 39.62500 9.88900 30.51500
C  41.67600 11.16000 33.18000
C  37.53100 8.73300 32.89500
C  38.01700 8.48500 28.03800
C  42.34000 10.75000 28.27800
N  39.63700 9.97400 32.78900
C  40.52300 10.54900 33.68000
C  40.03300 10.52000 35.19700
C  38.84900 9.47700 35.01600
C  38.59300 9.44100 33.42600
C  39.10100 8.07400 35.55000
C  39.63300 11.88600 35.85100
C  40.40400 12.22500 37.11500
H  39.57600 12.67400 38.28500
N  38.05300 8.67400 30.43700
C  37.29100 8.38700 31.52500
C  36.15100 7.63900 31.09900
C  36.28000 7.55600 29.68000
C  37.52400 8.20500 29.34300
C  34.98000 7.05500 31.96400
C  35.44100 6.75000 28.71500
O  35.74600 6.58100 27.53300
C  34.20900 6.16100 29.17700
N  40.12900 9.61800 28.39000
C  39.16800 9.15500 27.65700
C  39.65700 9.21600 26.10000
C  41.13000 9.75200 26.22000
C  41.22200 10.10100 27.72000
C  39.46000 7.92600 25.29400
C  41.51900 10.97700 25.16300
C  40.78500 12.25500 25.37900
N  41.45700 10.90400 30.59800
C  42.45100 11.11600 29.66400
C  43.55800 11.86300 30.25100
C  43.22100 11.92000 31.58900
C  41.99300 11.27500 31.81200
C  44.61400 12.49200 29.39900
C  43.66700 12.48100 32.91500
O  44.61700 13.15400 33.17900
C  42.60900 11.96200 33.99500
C  43.50700 11.19600 34.88100
O  43.82800 10.02300 34.77200
O  43.77200 11.92400 35.97200
C  44.76900 11.31400 36.93400
H  36.82000 8.43500 33.66900
H  37.41100 8.15000 27.19400
H  43.18100 11.03100 27.64000
H  40.92500 10.15300 35.70600
H  37.94400 9.87300 35.47700
H  38.98400 8.10900 36.63300
H  40.13400 7.74600 35.43500
H  38.36200 7.37600 35.15600
H  38.55200 11.89500 35.99500
H  39.76300 12.69200 35.12800
H  40.98300 13.12100 36.89000
H  41.12800 11.45400 37.37800
H  35.05400 7.49900 32.95700
H  35.10100 5.98300 32.11800
H  33.99900 7.36700 31.60600
H  33.83400 5.55400 28.35300
H  33.39200 6.85900 29.36100
H  34.44700 5.49300 30.00600
H  39.08600 9.99300 25.59300
H  41.86100 8.95600 26.08000
H  39.23200 7.07800 25.94000
H  40.30700 7.66400 24.66100
H  38.64200 7.87300 24.57600
H  41.22900 10.62600 24.17200
H  42.59300 11.16100 25.17100
H  40.02400 12.28400 26.15900
H  40.35300 12.67500 24.47100
H  41.54100 12.99900 25.62800
H  45.02000 13.37600 29.89000
H  44.34900 12.72000 28.36600
H  45.44200 11.79200 29.50300
H  42.26700 12.82400 34.56800
H  45.68200 11.15500 36.35900
H  44.44800 10.37500 37.38500
H  45.04200 12.07000 37.67000
Mg 54.31800 24.95700 46.07300
C  51.73800 26.92500 44.90900
C  52.86400 22.25500 44.24400
C  57.31000 23.14700 46.29700
C  55.84700 27.59800 47.49700
N  52.57100 24.68900 44.66200
C  51.62100 25.61900 44.32000
C  50.51600 24.98900 43.49900
C  50.68600 23.52800 43.72000
C  52.11700 23.41900 44.37400
C  49.66900 22.86200 44.66100
C  50.76900 25.28500 41.96300
C  52.18000 25.78900 41.49500
H  53.30400 24.75900 41.39900
N  55.01100 23.04000 45.42200
C  54.23200 22.13900 44.64400
C  54.98900 20.90300 44.41500
C  56.24300 21.10400 45.12200
C  56.27600 22.44800 45.59000
C  54.45800 19.67500 43.74600
C  57.35400 20.03900 45.09500
O  57.15600 18.98900 44.55600
C  58.78900 20.28200 45.55400
N  56.37200 25.24600 46.82900
C  57.39600 24.39300 46.85300
C  58.69000 25.05000 47.38700
C  58.24100 26.54400 47.70800
C  56.68500 26.42500 47.40600
C  59.32500 24.29300 48.60200
C  58.89700 27.65300 46.83700
C  58.73600 27.52000 45.35200
N  53.94100 26.82800 46.29400
C  54.59000 27.74700 46.99300
C  53.75300 28.93000 46.96000
C  52.56700 28.66800 46.15300
C  52.78900 27.31400 45.71300
C  54.05800 30.24100 47.61400
C  51.35200 29.19000 45.64400
O  50.85100 30.29800 45.74300
C  50.69900 28.04600 44.75800
C  50.68100 28.64400 43.42700
O  51.61900 29.12500 42.76900
O  49.39600 28.31700 42.84200
C  49.24000 28.49800 41.38000
H  52.22900 21.45600 43.85700
H  58.24400 22.61700 46.49700
H  56.32600 28.53200 47.79600
H  49.54900 25.41900 43.75900
H  50.63200 22.92900 42.81000
H  48.75700 23.42400 44.46000
H  49.83700 22.82300 45.73700
H  49.55900 21.85100 44.27100
H  50.09400 26.08500 41.65700
H  50.45700 24.48500 41.29200
H  52.42900 26.67100 42.08500
H  52.17300 26.10400 40.45200
H  55.16100 19.31100 42.99700
H  53.48100 19.82000 43.28500
H  54.32500 18.87300 44.47300
H  59.42000 19.46100 45.21400
H  58.87600 20.39800 46.63400
H  59.23000 21.12800 45.02600
H  59.40700 24.98100 46.56800
H  58.50400 26.76700 48.74200
H  59.22500 24.92300 49.48600
H  60.34200 24.09700 48.26100
H  58.76600 23.38300 48.81900
H  59.93500 27.34500 46.96300
H  58.82200 28.68000 47.19300
H  57.79800 26.99700 45.16600
H  59.52000 27.03300 44.77200
H  58.51700 28.47800 44.88000
H  54.87200 30.21200 48.33900
H  53.17100 30.72600 48.02200
H  54.41200 31.01200 46.92900
H  49.69000 27.68300 44.95500
H  50.19100 28.35900 40.86500
H  48.75000 29.45600 41.20800
H  48.50300 27.76200 41.06000

