158

Mg 24.42300 -5.08900 46.33600
C  26.26400 -2.41500 44.82400
C  21.81900 -4.24600 44.43800
C  23.10100 -8.11600 47.18100
C  27.46200 -6.06200 47.80900
N  24.15200 -3.54900 44.80900
C  25.02700 -2.62400 44.27500
C  24.33500 -1.70900 43.17100
C  22.83800 -2.21900 43.19800
C  22.88800 -3.44500 44.29700
C  21.91400 -1.09400 43.66200
C  24.91800 -1.77700 41.67900
C  25.44300 -0.44000 41.03900
H  25.26500 -0.37200 39.51200
N  22.66400 -5.98800 45.98400
C  21.67600 -5.42300 45.20100
C  20.43100 -6.30400 45.36800
C  20.77300 -7.40400 46.15900
C  22.18100 -7.22400 46.50500
C  19.03900 -5.99300 44.76500
C  19.83300 -8.49900 46.68200
O  18.62000 -8.50800 46.41100
C  20.31300 -9.61400 47.42500
N  25.16600 -6.81000 47.30800
C  24.44600 -7.93000 47.53400
C  25.31500 -8.99600 48.29000
C  26.63400 -8.32700 48.53000
C  26.38900 -6.97900 47.78500
C  24.54200 -9.39800 49.63400
C  27.85700 -9.07700 48.05700
C  29.03500 -9.07300 49.00400
N  26.48200 -4.38100 46.44100
C  27.57000 -4.84300 47.09500
C  28.64800 -3.95600 47.01800
C  28.17100 -3.03600 46.12700
C  26.85400 -3.28900 45.78400
C  29.96700 -3.96000 47.77100
C  28.50900 -1.84500 45.40700
O  29.52100 -1.16800 45.42200
C  27.32700 -1.37500 44.53000
C  26.96100 0.02600 44.70200
O  26.41700 0.55300 45.66500
O  27.27900 0.81000 43.60700
C  26.84300 2.27900 43.56700
H  20.94000 -4.03600 43.82500
H  22.64100 -9.07700 47.41900
H  28.37600 -6.37800 48.31700
H  24.48400 -0.67600 43.48400
H  22.49200 -2.66100 42.26400
H  21.19900 -0.93800 42.85500
H  22.37100 -0.10800 43.74700
H  21.39400 -1.29900 44.59800
H  24.16200 -2.17600 41.00300
H  25.76400 -2.45600 41.79200
H  26.42600 -0.06600 41.32700
H  24.75600 0.31600 41.41900
H  18.49400 -6.81100 44.29400
H  19.22400 -5.29800 43.94600
H  18.28300 -5.52500 45.39500
H  19.45700 -10.28700 47.44700
H  20.54600 -9.36200 48.46000
H  21.14000 -10.07400 46.88300
H  25.46800 -9.82700 47.60200
H  26.75400 -7.96300 49.55100
H  25.15100 -9.15600 50.50500
H  24.34600 -10.46900 49.58400
H  23.57600 -8.90700 49.75700
H  28.15500 -8.49700 47.18300
H  27.74100 -10.07300 47.63100
H  29.67800 -8.27400 48.63500
H  29.59100 -10.00700 48.92200
H  28.86400 -8.95400 50.07400
H  30.50300 -3.05200 47.49300
H  30.58200 -4.81100 47.48200
H  29.88800 -4.07900 48.85200
H  27.62200 -1.49900 43.48800
H  27.67000 2.89700 43.21700
H  26.47800 2.69500 44.50500
H  26.02100 2.35800 42.85600
Mg 47.33500 25.57500 27.42300
C  48.39900 27.58200 29.79600
C  45.99300 23.40700 29.75400
C  46.46600 23.34600 24.91800
C  49.05400 27.42100 25.03100
N  47.10200 25.58200 29.51200
C  47.52300 26.61900 30.28300
C  47.33900 26.31200 31.79400
C  46.66900 24.88400 31.80500
C  46.55200 24.57900 30.25300
C  47.49800 23.86700 32.61000
C  46.48000 27.42400 32.50400
C  46.99400 27.90700 33.94000
H  46.00100 28.15700 35.00300
N  46.39500 23.57000 27.38400
C  45.88700 22.93400 28.42000
C  45.28100 21.66500 28.01200
C  45.37300 21.66300 26.57200
C  46.09400 22.91000 26.22300
C  44.57400 20.74400 29.02900
C  44.97200 20.62700 25.62300
O  45.13500 20.64800 24.38800
C  44.31300 19.36100 26.16500
N  47.53000 25.48700 25.30800
C  47.22700 24.49000 24.48200
C  47.52600 24.75500 23.02400
C  48.13700 26.12300 23.06500
C  48.35700 26.34700 24.59300
C  48.33300 23.66700 22.26700
C  47.27300 27.18900 22.48800
C  47.86300 27.60100 21.10000
N  48.42200 27.27600 27.42300
C  49.10600 27.92900 26.37500
C  49.78700 29.13000 26.89900
C  49.55900 28.99200 28.30600
C  48.73400 27.82900 28.49700
C  50.45900 30.20900 26.14900
C  49.82800 29.58000 29.60900
O  50.55600 30.51500 29.94900
C  48.99500 28.77100 30.62200
C  49.88800 28.28900 31.70600
O  50.58300 27.26200 31.66100
O  49.84000 29.09000 32.80900
C  50.66900 28.63500 33.94800
H  45.66400 22.78200 30.58700
H  46.29100 22.81800 23.97800
H  49.50000 28.04600 24.25500
H  48.31800 26.16500 32.25200
H  45.72800 24.92300 32.35400
H  46.90200 23.46100 33.42700
H  48.26400 24.36700 33.20300
H  47.80700 23.12800 31.87100
H  45.45400 27.09800 32.67900
H  46.43400 28.29200 31.84700
H  47.70900 28.72400 33.84300
H  47.57700 27.04100 34.25600
H  45.02900 19.75400 29.00600
H  43.53800 20.61800 28.71500
H  44.54800 21.17300 30.03100
H  43.85900 18.72700 25.40300
H  43.42300 19.49800 26.78000
H  45.03400 18.74400 26.70000
H  46.50200 24.82700 22.66000
H  49.17700 26.09800 22.74000
H  47.64600 23.19100 21.56700
H  48.82200 23.08100 23.04500
H  49.18500 24.06300 21.71300
H  47.32600 28.07000 23.12700
H  46.21900 26.95800 22.33300
H  47.37900 27.02200 20.31300
H  48.95200 27.63800 21.07600
H  47.51300 28.62800 20.99500
H  50.60900 31.14000 26.69600
H  49.88200 30.35800 25.23600
H  51.44500 29.88600 25.81500
H  48.24000 29.53700 30.79800
H  50.89000 29.47500 34.60700
H  51.64400 28.30700 33.58600
H  50.23100 27.84400 34.55700

