158

Mg 48.10100 15.51600 29.07100
C  45.90600 15.37100 31.72700
C  50.19700 17.34600 31.20600
C  50.26100 15.92100 26.62000
C  45.69400 14.19700 27.01800
N  48.06500 16.27700 31.20000
C  47.12100 15.93700 32.09900
C  47.52600 16.36900 33.52300
C  48.71800 17.32700 33.30600
C  49.01700 16.93300 31.80600
C  48.46800 18.89100 33.43000
C  47.80000 15.12400 34.38000
C  47.53500 15.16600 35.89100
H  47.19900 16.52800 36.57700
N  50.09300 16.29700 28.96500
C  50.78700 16.99200 29.94800
C  52.10000 17.09800 29.51600
C  52.18400 16.52700 28.26000
C  50.80300 16.30800 27.82800
C  53.19400 17.61200 30.38000
C  53.36700 16.33100 27.25100
O  53.20500 15.77600 26.15100
C  54.80700 16.72900 27.59400
N  47.98900 15.16300 27.11700
C  49.00900 15.51200 26.22900
C  48.47200 15.23400 24.82300
C  47.11200 14.50700 24.96200
C  46.90600 14.65400 26.48800
C  48.61800 16.51700 23.93800
C  47.15200 12.99600 24.55600
C  46.05900 12.46100 23.67300
N  46.10800 14.89200 29.22000
C  45.22300 14.25300 28.37700
C  43.92600 14.01400 28.96800
C  44.16100 14.42400 30.31700
C  45.48400 14.93600 30.41100
C  42.76400 13.25200 28.42200
C  43.56700 14.36200 31.69600
O  42.54100 13.90000 32.06600
C  44.66700 15.15100 32.56800
C  44.03100 16.37200 33.14500
O  43.97100 17.46300 32.57100
O  43.48500 16.16100 34.40300
C  42.82700 17.29600 34.97900
H  50.87100 18.00800 31.75400
H  50.88800 16.06500 25.73800
H  44.89800 13.83000 26.36600
H  46.67800 16.92100 33.92700
H  49.48300 16.90800 33.95900
H  47.39300 19.01300 33.56500
H  48.69600 19.33100 32.45900
H  49.11000 19.23600 34.24000
H  48.81900 14.78100 34.19800
H  47.16900 14.34900 33.94700
H  48.36400 14.70900 36.43200
H  46.71100 14.48300 36.09600
H  53.83100 16.77800 30.67500
H  52.76900 17.97400 31.31600
H  53.69900 18.46400 29.92500
H  54.65700 17.74900 27.94900
H  55.41800 16.63200 26.69700
H  55.32100 16.14800 28.36000
H  49.11200 14.53000 24.29100
H  46.37100 15.01000 24.34100
H  48.49700 17.44700 24.49400
H  47.83900 16.65400 23.18800
H  49.58800 16.61100 23.45100
H  47.06700 12.49100 25.51800
H  48.13700 12.78600 24.13900
H  46.41000 12.11500 22.70000
H  45.36100 13.27500 23.47400
H  45.37000 11.78800 24.18300
H  43.15700 12.66000 27.59600
H  42.01900 13.94400 28.03100
H  42.20300 12.75000 29.21000
H  44.97800 14.50400 33.38900
H  43.47900 18.11900 35.27100
H  42.44400 16.90200 35.92100
H  41.96800 17.56500 34.36400
Mg -5.85000 25.06800 26.68300
C  -4.50600 26.82000 29.38300
C  -7.45000 23.04000 28.89100
C  -6.82600 23.18500 24.06700
C  -3.49000 26.65500 24.61300
N  -5.91900 24.89600 28.90000
C  -5.30800 25.76100 29.78500
C  -5.93900 25.48300 31.16000
C  -6.59800 24.03100 31.03400
C  -6.61700 23.94200 29.48000
C  -5.81500 22.88900 31.60100
C  -6.95700 26.62900 31.47200
C  -7.31500 26.79600 32.94900
H  -6.67400 25.80000 33.88800
N  -7.15700 23.49300 26.50600
C  -7.78900 22.82800 27.51900
C  -8.76900 21.88700 26.96300
C  -8.55800 21.84800 25.59700
C  -7.51800 22.87900 25.31100
C  -9.76900 21.12300 27.75200
C  -9.33900 21.12400 24.44200
O  -8.90000 21.18000 23.27800
C  -10.51500 20.15400 24.75100
N  -5.20800 24.97900 24.68300
C  -5.84300 24.15500 23.78100
C  -5.21200 24.30000 22.36500
C  -4.12400 25.39600 22.53800
C  -4.28800 25.70400 24.02600
C  -4.65700 22.96600 21.74100
C  -4.34500 26.62100 21.48900
C  -5.53600 27.55100 21.70900
N  -4.28100 26.38300 26.93500
C  -3.47600 27.08600 25.97600
C  -2.68100 28.07800 26.56800
C  -3.16900 28.13000 27.92900
C  -4.06800 27.08900 28.08600
C  -1.68000 29.01500 25.87400
C  -2.98400 28.75400 29.19600
O  -2.21500 29.64900 29.50600
C  -3.97200 27.98000 30.17300
C  -3.18200 27.58000 31.37400
O  -2.05500 27.11000 31.39500
O  -3.85900 27.93400 32.53900
C  -3.15300 27.89800 33.78800
H  -7.88000 22.35900 29.62800
H  -7.07300 22.65200 23.14600
H  -2.75400 27.11200 23.94800
H  -5.21800 25.54600 31.97500
H  -7.53500 24.13600 31.58000
H  -6.32400 22.47900 32.47300
H  -4.84100 23.28300 31.89200
H  -5.55200 22.10100 30.89600
H  -7.79400 26.36600 30.82500
H  -6.57000 27.59600 31.15300
H  -8.38900 26.70000 33.10900
H  -7.02800 27.79300 33.28500
H  -9.73100 20.09300 27.39900
H  -10.78700 21.51200 27.74100
H  -9.53000 21.12800 28.81500
H  -9.91700 19.37800 25.22900
H  -11.05800 19.80800 23.87200
H  -11.18000 20.60900 25.48500
H  -6.04700 24.71300 21.79900
H  -3.12700 25.04600 22.27100
H  -4.36900 22.12000 22.36500
H  -3.75100 23.24000 21.19900
H  -5.29500 22.54700 20.96400
H  -4.35900 26.17900 20.49200
H  -3.53500 27.35000 21.52400
H  -6.40600 27.30900 21.10000
H  -5.19700 28.56300 21.48900
H  -5.87700 27.44600 22.73900
H  -1.83500 28.80500 24.81500
H  -0.69500 28.64900 26.16400
H  -1.71800 30.08400 26.08100
H  -4.76100 28.67000 30.47200
H  -3.78500 28.31500 34.57200
H  -2.26200 28.52400 33.75700
H  -2.92400 26.89500 34.14800

