158

Mg 26.06800 1.18900 29.18300
C  28.04000 0.70600 32.07500
C  23.27500 1.71800 31.12100
C  24.06900 1.51900 26.31300
C  28.71200 0.42900 27.27500
N  25.72800 1.17500 31.30700
C  26.67300 1.01300 32.34200
C  26.05400 1.30000 33.69600
C  24.52700 1.48200 33.33600
C  24.53000 1.50200 31.82400
C  23.52000 0.49200 33.97600
C  26.76500 2.58200 34.29900
C  27.31700 2.23700 35.74800
H  26.91600 3.11400 36.88500
N  23.92200 1.34900 28.80800
C  22.94700 1.58800 29.78400
C  21.69400 1.57000 29.06000
C  21.93900 1.53800 27.69900
C  23.32500 1.53600 27.55200
C  20.38100 1.75200 29.77600
C  20.94600 1.46700 26.44400
O  21.36000 1.38400 25.29100
C  19.52300 1.26800 26.74100
N  26.29700 0.89800 27.09200
C  25.38300 1.13800 26.06400
C  26.01900 0.79400 24.62000
C  27.53600 0.90500 25.02700
C  27.56300 0.81200 26.57300
C  25.80300 -0.57200 24.12400
C  28.26700 2.23600 24.63200
C  29.58800 2.07600 23.79900
N  28.00300 0.52600 29.51700
C  28.98900 0.23300 28.65300
C  30.12300 -0.31400 29.37600
C  29.82200 -0.02300 30.68100
C  28.52100 0.43900 30.79300
C  31.39000 -0.52500 28.60200
C  30.36000 0.09000 32.09100
O  31.50500 -0.08700 32.50100
C  29.17500 0.51100 33.05400
C  28.98900 -0.55800 34.02100
O  28.05100 -1.32900 33.97100
O  29.83600 -0.46800 35.05600
C  29.52500 -1.19000 36.29800
H  22.50500 2.07200 31.80900
H  23.58600 1.72300 25.35500
H  29.56700 0.15300 26.65400
H  26.23000 0.42500 34.32200
H  24.18100 2.48700 33.57800
H  23.26900 -0.34800 33.32800
H  22.61700 1.05800 34.20900
H  23.93700 0.06800 34.88900
H  26.10000 3.44300 34.36400
H  27.60400 2.84800 33.65700
H  28.39900 2.37000 35.71400
H  27.11000 1.20700 36.03700
H  19.85500 0.81900 29.97800
H  19.85400 2.58400 29.30900
H  20.51400 2.15000 30.78200
H  19.13100 2.20200 27.14500
H  19.40400 0.37700 27.35700
H  18.99200 1.19100 25.79300
H  25.66600 1.52100 23.88800
H  28.16100 0.10800 24.62400
H  25.03500 -0.44300 23.36100
H  25.41400 -1.27900 24.85600
H  26.66900 -0.98400 23.60500
H  28.51600 2.79800 25.53200
H  27.66600 2.90500 24.01600
H  29.32800 2.17300 22.74500
H  29.87900 1.03400 23.93000
H  30.35500 2.83600 23.95100
H  32.17800 0.07300 29.05900
H  31.20600 -0.24200 27.56500
H  31.69800 -1.56900 28.64400
H  29.39300 1.42700 33.60400
H  28.59600 -0.79100 36.70500
H  30.18600 -1.13800 37.16300
H  29.33600 -2.24100 36.07800
Mg 54.83000 24.48500 44.71100
C  52.15700 26.62300 43.56300
C  52.94900 21.80400 43.82400
C  57.56700 22.56200 45.36400
C  56.64100 27.39000 45.37000
N  52.76300 24.24400 43.78900
C  51.85700 25.26400 43.51100
C  50.60000 24.63700 42.92800
C  50.73700 23.15600 43.42600
C  52.21600 23.00000 43.80800
C  49.86400 22.69800 44.62500
C  50.57700 24.79100 41.39800
C  49.13900 24.99000 40.75200
H  48.79300 24.48000 39.34700
N  55.23000 22.48200 44.54200
C  54.34200 21.52900 44.16100
C  54.96700 20.20600 44.20300
C  56.30100 20.48500 44.49900
C  56.41000 21.88300 44.87100
C  54.29600 18.96100 43.73700
C  57.39200 19.41600 44.37900
O  57.04500 18.26500 44.01900
C  58.94400 19.74300 44.56700
N  56.79900 24.94800 45.15900
C  57.72200 23.91700 45.53900
C  59.10800 24.55900 45.97000
C  58.86100 26.06200 45.64200
C  57.35700 26.15900 45.44400
C  59.65700 24.13300 47.46500
C  59.57800 26.65100 44.48800
C  60.97500 27.08200 44.60300
N  54.46900 26.59400 44.51700
C  55.31100 27.67100 44.84300
C  54.61200 28.97500 44.66700
C  53.33600 28.59900 44.18100
C  53.35000 27.18500 44.10100
C  55.13300 30.32300 45.09700
C  52.04100 29.02100 43.64100
O  51.58700 30.16000 43.54900
C  51.33900 27.78500 43.07800
C  51.33900 27.95100 41.63800
O  52.31700 27.78600 40.92400
O  50.11800 28.32700 41.12600
C  50.09500 28.43300 39.71200
H  52.38000 20.89600 43.61200
H  58.40600 21.98200 45.75500
H  57.21000 28.25700 45.71200
H  49.74000 25.09200 43.42000
H  50.56300 22.50100 42.57200
H  50.47300 22.52300 45.51200
H  49.32500 21.77700 44.40300
H  49.27100 23.56200 44.92500
H  50.88200 23.81100 41.03300
H  51.26900 25.55000 41.03300
H  49.07600 26.06800 40.60700
H  48.32600 24.86300 41.46600
H  54.61000 18.68200 42.73200
H  53.22100 19.09400 43.61600
H  54.40000 18.15700 44.46600
H  59.19200 20.76800 44.29200
H  59.44200 18.94800 44.01200
H  59.19700 19.62600 45.62100
H  59.80300 23.96500 45.37600
H  59.20100 26.62200 46.51300
H  60.00600 24.99300 48.03600
H  60.38600 23.32500 47.40400
H  58.88600 23.69700 48.10000
H  58.90300 27.38800 44.05300
H  59.57900 25.82200 43.78100
H  61.13100 28.07700 44.18600
H  61.59800 26.42800 43.99300
H  61.27900 27.24100 45.63800
H  56.18200 30.22400 45.37600
H  54.53400 30.73000 45.91100
H  55.11100 30.92500 44.18900
H  50.33300 27.72900 43.49400
H  49.03800 28.49700 39.45400
H  50.52900 27.59300 39.16900
H  50.46900 29.37600 39.31500

