158

Mg 1.67100 -1.90800 44.50300
C  5.04300 -1.00400 44.39200
C  0.91000 0.76000 42.61900
C  -1.36200 -3.19300 44.25500
C  2.74300 -4.87100 46.16200
N  2.86500 -0.42500 43.48100
C  4.18600 -0.12300 43.64000
C  4.61900 1.09700 42.84000
C  3.26700 1.80900 42.50100
C  2.31400 0.57200 42.77700
C  2.85900 3.04500 43.29600
C  5.49200 0.82900 41.59200
C  6.68100 1.70000 41.16300
H  6.90100 2.09400 39.68400
N  -0.05900 -1.27200 43.68900
C  -0.20600 -0.11600 43.01300
C  -1.65500 0.16100 42.88100
C  -2.30700 -0.97100 43.28900
C  -1.26600 -1.87900 43.78800
C  -2.20900 1.40400 42.20200
C  -3.71300 -1.16700 43.18400
O  -4.38700 -0.37300 42.64300
C  -4.33400 -2.39800 43.73300
N  0.84500 -3.85900 44.99900
C  -0.47800 -4.03700 44.89900
C  -0.87600 -5.44700 45.28800
C  0.42000 -5.93000 45.94600
C  1.45100 -4.90200 45.69100
C  -2.06400 -5.59500 46.26000
C  0.89100 -7.33200 45.35300
C  0.05000 -8.52900 45.81600
N  3.48900 -2.80500 45.23400
C  3.81200 -3.94700 45.95100
C  5.19500 -3.90900 46.31100
C  5.71400 -2.79700 45.65800
C  4.66000 -2.14400 45.06200
C  5.87700 -4.92100 47.13700
C  6.93800 -2.01600 45.39300
O  8.10300 -2.23900 45.69000
C  6.58000 -0.80900 44.57000
C  7.04700 0.40000 45.30400
O  6.76500 0.75400 46.47400
O  7.87300 1.09100 44.45100
C  8.05800 2.50400 44.81400
H  0.70100 1.71000 42.12400
H  -2.32400 -3.70500 44.32500
H  3.02700 -5.78000 46.69600
H  5.13200 1.69800 43.59000
H  3.14000 2.07600 41.45200
H  3.60800 3.19500 44.07400
H  1.89300 2.92300 43.78600
H  2.88900 3.93500 42.66800
H  4.92700 0.95700 40.66800
H  5.84600 -0.20200 41.55900
H  7.59500 1.15300 41.39500
H  6.66200 2.53300 41.86600
H  -2.52400 1.17000 41.18500
H  -1.47500 2.20500 42.11800
H  -3.13100 1.60400 42.74800
H  -3.93200 -3.29900 43.26900
H  -5.41700 -2.42800 43.61400
H  -4.12900 -2.47700 44.80000
H  -1.12400 -5.95000 44.35300
H  0.40100 -6.06800 47.02700
H  -2.51800 -4.62000 46.43900
H  -1.65000 -5.90000 47.22100
H  -2.75000 -6.35400 45.88400
H  1.90400 -7.47500 45.72900
H  0.90100 -7.21800 44.26900
H  0.77100 -9.07500 46.42500
H  -0.29600 -9.14400 44.98600
H  -0.76000 -8.16700 46.44900
H  5.15700 -5.69000 47.41900
H  6.20600 -4.50300 48.08800
H  6.69600 -5.28700 46.51700
H  7.00500 -0.76700 43.56700
H  8.95100 2.85600 44.29600
H  8.13800 2.77000 45.86800
H  7.17100 3.04700 44.48900
Mg 26.51600 50.15300 26.17300
C  24.59800 51.34600 28.78500
C  28.75800 49.19500 28.59000
C  28.61500 49.30300 23.69400
C  24.18400 51.25000 23.86800
N  26.51400 50.12300 28.46800
C  25.63300 50.60700 29.34600
C  26.01400 50.43000 30.75500
C  27.59600 49.94800 30.65100
C  27.65400 49.79600 29.15000
C  28.83100 50.90700 31.21300
C  25.03300 49.40600 31.44000
C  24.43300 49.56600 32.81900
H  25.19600 50.25600 33.97900
N  28.40900 49.26900 26.12900
C  29.20600 48.88400 27.22600
C  30.42800 48.20600 26.71800
C  30.41000 48.42000 25.35200
C  29.10800 49.11300 24.93100
C  31.39600 47.41700 27.66200
C  31.60100 48.09900 24.42400
O  31.57200 48.47500 23.25800
C  32.86200 47.43700 24.87000
N  26.53100 50.38600 24.07100
C  27.42500 49.85900 23.20600
C  27.04600 49.96400 21.67900
C  25.57900 50.66200 21.87000
C  25.38500 50.68900 23.35900
C  28.03400 50.82000 20.90200
C  24.45500 49.87500 21.13400
C  24.13500 50.32900 19.76900
N  24.79700 51.18000 26.25800
C  23.86300 51.46100 25.28500
C  22.69000 52.20000 25.85300
C  22.91600 52.10300 27.24000
C  24.20700 51.53000 27.47200
C  21.52800 52.79300 25.14600
C  22.40300 52.50900 28.52300
O  21.39600 53.14900 28.80100
C  23.46100 51.92900 29.64600
C  23.90700 53.11000 30.47900
O  24.70900 53.92600 30.13500
O  23.33500 53.08700 31.68100
C  23.67400 54.18700 32.63900
H  29.48900 48.80600 29.30200
H  29.25400 48.87900 22.91600
H  23.48700 51.61400 23.11100
H  26.08500 51.39100 31.26600
H  27.61700 48.91800 31.00800
H  28.37800 51.60800 31.91300
H  29.41400 51.34800 30.40400
H  29.46200 50.13600 31.65500
H  25.45700 48.40800 31.32100
H  24.14600 49.30500 30.81400
H  24.29200 48.53300 33.13500
H  23.45300 50.04100 32.76800
H  31.47200 46.36400 27.39300
H  31.09100 47.42200 28.70800
H  32.35100 47.94300 27.66800
H  33.35100 48.11200 25.57300
H  33.47500 47.22000 23.99500
H  32.47000 46.50600 25.28000
H  26.92000 48.95200 21.29400
H  25.53700 51.69800 21.53100
H  28.86800 51.20200 21.49100
H  27.55400 51.65300 20.38800
H  28.37800 50.05300 20.20800
H  23.54200 50.02200 21.71000
H  24.70500 48.81400 21.11900
H  24.49700 49.62700 19.01800
H  24.76500 51.17900 19.50800
H  23.07800 50.56200 19.63700
H  20.59500 52.26200 25.33800
H  21.68000 52.66400 24.07400
H  21.45000 53.81700 25.51100
H  22.88700 51.20300 30.22200
H  24.01600 55.08000 32.11500
H  24.41700 53.74200 33.30100
H  22.83700 54.47900 33.27300

