158

Mg 42.88900 42.26800 26.48900
C  41.80600 44.37500 29.04000
C  44.61400 40.45500 28.87100
C  44.27200 40.61900 24.03300
C  41.51700 44.67500 24.14200
N  43.05200 42.33000 28.75000
C  42.45600 43.21800 29.57800
C  42.68600 42.97500 31.07700
C  43.65000 41.75400 31.02200
C  43.87700 41.51500 29.45700
C  45.01600 41.78500 31.79900
C  41.35200 42.59200 31.67500
C  41.27800 41.95900 33.08100
H  40.32100 42.52700 34.07800
N  44.24400 40.68300 26.47100
C  44.79300 40.04500 27.54500
C  45.50100 38.90700 27.10900
C  45.33300 38.90100 25.63700
C  44.65000 40.11200 25.29200
C  46.28400 38.01500 27.93500
C  45.82700 37.89500 24.60000
O  45.61600 37.97800 23.35400
C  46.66100 36.68000 25.10300
N  43.12100 42.70200 24.42700
C  43.52300 41.69900 23.62500
C  43.34900 42.02200 22.05900
C  42.29300 43.17400 22.19000
C  42.28300 43.53800 23.69600
C  44.60500 42.52900 21.34600
C  40.95000 42.84300 21.57800
C  40.08600 41.86400 22.44300
N  41.95700 44.23300 26.49100
C  41.40300 45.02800 25.51700
C  40.63400 46.11700 26.11100
C  40.80100 45.90800 27.48000
C  41.59700 44.71300 27.65400
C  39.99200 47.23900 25.31700
C  40.45100 46.40300 28.78600
O  39.82300 47.38200 29.16700
C  40.97000 45.41100 29.80700
C  41.79700 46.19200 30.81700
O  42.90600 46.70200 30.62700
O  41.10700 46.17100 31.98700
C  41.65500 46.82000 33.11500
H  44.92500 39.74800 29.64300
H  44.55100 39.99000 23.18500
H  40.97400 45.19100 23.34700
H  43.22500 43.79500 31.55100
H  43.20900 40.85400 31.45000
H  45.17300 42.82000 32.10400
H  45.97100 41.38100 31.46100
H  44.80300 41.25900 32.73000
H  40.66100 42.02800 31.04800
H  40.78900 43.51100 31.83900
H  42.28200 42.05500 33.49500
H  40.99300 40.91000 33.00300
H  46.31700 38.50700 28.90800
H  47.26900 37.72700 27.56900
H  45.77600 37.05900 28.06000
H  47.10500 36.18300 24.24000
H  46.05200 35.95300 25.63900
H  47.56300 37.11200 25.53800
H  42.79900 41.22200 21.56400
H  42.60000 44.06300 21.63900
H  44.86100 43.56300 21.57600
H  44.48400 42.35400 20.27700
H  45.44300 41.94000 21.71800
H  41.12900 42.39700 20.60000
H  40.37700 43.76900 21.62700
H  40.35000 41.91400 23.50000
H  40.10400 40.81000 22.16600
H  39.04900 42.19600 22.50100
H  40.74400 47.94300 24.96000
H  39.26500 47.71400 25.97600
H  39.56900 46.83900 24.39600
H  40.08500 44.98200 30.27800
H  41.89200 46.16900 33.95700
H  40.85200 47.50200 33.39300
H  42.61700 47.32500 33.03200
Mg 9.92400 46.89000 25.71100
C  7.18400 47.16200 28.13900
C  12.03100 48.12400 27.89400
C  12.14600 46.92700 23.17900
C  7.36700 46.42600 23.30700
N  9.64900 47.42500 27.86500
C  8.49000 47.41800 28.67200
C  8.89000 47.88800 30.10000
C  10.42600 48.29600 30.01000
C  10.71700 48.00500 28.51300
C  10.79900 49.77200 30.40500
C  8.60300 46.84900 31.33400
C  9.28400 46.88300 32.69500
H  8.38500 46.57600 33.88600
N  11.77300 47.32400 25.62700
C  12.52900 47.78600 26.64500
C  13.85300 47.83700 26.32600
C  13.97100 47.41800 24.95100
C  12.58300 47.26000 24.42700
C  15.00800 48.27200 27.20500
C  15.21000 47.13800 24.03800
O  15.07600 46.78600 22.87700
C  16.58500 47.15900 24.56400
N  9.75500 46.65500 23.52200
C  10.82200 46.69300 22.73900
C  10.48800 46.31800 21.24500
C  8.92100 46.22000 21.38800
C  8.65700 46.41200 22.84200
C  11.12400 47.26900 20.13900
C  8.38000 44.78200 20.83400
C  7.01800 44.91100 20.00000
N  7.71100 46.83100 25.72800
C  6.91800 46.58600 24.60900
C  5.54800 46.53900 25.08300
C  5.58800 46.78300 26.51400
C  6.92700 46.87000 26.79600
C  4.36700 46.44700 24.17700
C  4.77000 46.91700 27.72700
O  3.57300 46.75200 27.92100
C  5.78000 47.30300 28.75800
C  5.64600 46.34600 29.87300
O  5.88300 45.15300 29.80600
O  5.19500 47.00600 30.98900
C  4.72200 46.15800 32.07000
H  12.65200 48.47500 28.72100
H  12.90300 46.92500 22.39200
H  6.58400 46.46000 22.54700
H  8.30200 48.78900 30.27800
H  11.01200 47.56300 30.56500
H  9.90700 50.35900 30.62900
H  11.16900 50.33600 29.54800
H  11.41500 49.87300 31.29800
H  8.83000 45.85500 30.94800
H  7.52300 46.96100 31.43200
H  9.85900 47.78800 32.89400
H  9.95600 46.02600 32.73100
H  14.60500 48.77800 28.08100
H  15.53500 49.05500 26.65900
H  15.61400 47.49200 27.66800
H  16.55100 48.00200 25.25400
H  17.26300 47.41900 23.75100
H  16.87100 46.17700 24.94200
H  11.04700 45.38300 21.22100
H  8.53800 47.05500 20.80100
H  10.33000 47.94500 19.82300
H  11.38100 46.57400 19.33900
H  11.99100 47.81700 20.50900
H  8.23300 44.09200 21.66600
H  9.05400 44.31200 20.11800
H  6.94600 44.27100 19.12000
H  6.83900 45.92800 19.65200
H  6.25300 44.67900 20.74200
H  4.68600 45.89500 23.29300
H  3.88000 47.38100 23.89700
H  3.65700 45.86400 24.76400
H  5.67500 48.26600 29.25800
H  4.13800 46.78100 32.74800
H  5.43500 45.59100 32.66700
H  4.02700 45.48700 31.56500

