158

Mg 35.98000 49.18200 25.72400
C  36.10200 47.15400 28.53000
C  34.47000 51.58700 27.61400
C  35.78300 51.00600 22.96500
C  36.79800 46.39100 23.79600
N  35.18500 49.22800 27.86900
C  35.52300 48.46900 28.86800
C  35.18200 49.00900 30.22700
C  34.41600 50.32700 29.89500
C  34.66300 50.42800 28.35700
C  32.98900 50.46600 30.33300
C  36.39900 49.02600 31.10200
C  36.18500 48.72900 32.54000
H  34.79000 48.92700 33.13600
N  35.37900 51.08800 25.39200
C  34.76200 51.92000 26.30400
C  34.57200 53.20200 25.69000
C  35.02200 53.10400 24.31300
C  35.48000 51.70300 24.17100
C  34.03700 54.37000 26.36700
C  35.06700 54.15100 23.27800
O  35.51700 53.87300 22.16500
C  34.62300 55.49000 23.49900
N  36.03900 48.66500 23.66300
C  36.03700 49.64700 22.71800
C  36.11100 49.05100 21.30500
C  36.53500 47.61800 21.62100
C  36.52300 47.53200 23.14000
C  34.81100 49.05900 20.42800
C  37.91600 47.17000 20.90900
C  39.21300 47.87400 21.41400
N  36.33600 47.17200 26.03100
C  36.72200 46.20700 25.22600
C  37.10000 44.99200 25.95500
C  36.91000 45.33300 27.27100
C  36.42300 46.62500 27.25900
C  37.66800 43.68000 25.38100
C  37.03200 44.87600 28.69700
O  37.49900 43.84000 29.16900
C  36.62700 46.07300 29.57800
C  35.50800 45.66600 30.43300
O  34.31700 45.46400 30.09200
O  35.92900 45.32500 31.68300
C  35.00100 44.83000 32.71300
H  33.93600 52.33100 28.20800
H  35.74400 51.52100 22.00200
H  37.12600 45.54900 23.18400
H  34.44600 48.29200 30.59200
H  35.03900 51.12400 30.30000
H  32.81000 51.37100 30.91300
H  32.75000 49.54700 30.86800
H  32.30200 50.50900 29.48700
H  36.82700 50.02400 31.01400
H  37.21400 48.46300 30.64800
H  36.87400 49.47000 32.94400
H  36.53900 47.71700 32.74100
H  33.47400 53.99200 27.22000
H  33.35300 54.99800 25.79600
H  34.91500 54.94300 26.66700
H  35.29300 55.94400 24.22900
H  33.57500 55.44200 23.79400
H  34.74400 56.11400 22.61300
H  36.92500 49.49700 20.73200
H  35.74000 46.92100 21.35600
H  34.59800 48.11800 19.92100
H  34.98400 49.82900 19.67600
H  33.90700 49.30300 20.98500
H  37.93300 47.36600 19.83600
H  38.04600 46.09100 20.99500
H  39.74900 47.05700 21.89600
H  38.99700 48.52900 22.25800
H  39.77900 48.40000 20.64400
H  38.59100 43.27500 25.79700
H  37.84000 43.71400 24.30500
H  36.97900 42.88100 25.65400
H  37.50300 46.34300 30.16900
H  34.59600 43.87300 32.38500
H  34.24300 45.60400 32.83200
H  35.60000 44.74400 33.62000
Mg 8.57300 48.11000 26.26700
C  7.01600 48.06600 29.23100
C  11.42000 49.54800 27.82200
C  10.33600 48.06200 23.27700
C  5.68900 47.45600 24.56700
N  9.20700 48.69300 28.32800
C  8.37900 48.31400 29.37000
C  9.07400 48.75400 30.70800
C  10.29300 49.69000 30.15100
C  10.38500 49.32200 28.74200
C  10.03500 51.20800 30.27700
C  9.48900 47.64300 31.67900
C  9.04900 47.94600 33.15800
H  8.85200 46.74900 34.10300
N  10.58900 48.58100 25.61200
C  11.58200 49.11100 26.46700
C  12.80800 49.12800 25.64900
C  12.50800 48.71600 24.37600
C  11.05400 48.43900 24.35800
C  14.15500 49.50300 26.26100
C  13.50400 48.58200 23.21100
O  13.14400 48.21900 22.03100
C  14.96700 48.77700 23.50800
N  8.13300 47.99600 24.21900
C  9.01200 47.82600 23.19700
C  8.28100 47.54900 21.89000
C  6.79200 47.30600 22.29200
C  6.88000 47.60500 23.78300
C  8.42700 48.66000 20.73600
C  6.31000 45.85700 21.92200
C  6.80000 44.66300 22.72400
N  6.64400 47.97500 26.73700
C  5.57700 47.69600 25.96500
C  4.35400 47.75600 26.77800
C  4.93000 47.84800 28.09000
C  6.31600 47.99600 28.01600
C  2.95400 47.49600 26.32000
C  4.58400 47.86000 29.50800
O  3.49500 47.86400 30.08800
C  5.97300 48.01500 30.29300
C  6.06800 46.81200 31.18600
O  6.80800 45.88100 31.00300
O  5.35000 47.08100 32.34700
C  5.22600 45.92000 33.24100
H  12.24100 50.09400 28.29200
H  10.83800 48.06500 22.30700
H  4.82300 47.00200 24.08000
H  8.37000 49.42800 31.19600
H  11.29600 49.47600 30.52200
H  9.70100 51.58300 29.31000
H  10.91900 51.80700 30.49400
H  9.27600 51.57500 30.96800
H  10.57500 47.72200 31.63300
H  9.19700 46.66100 31.30600
H  8.17100 48.58900 33.21100
H  9.88500 48.50000 33.58400
H  14.92300 48.74800 26.42500
H  13.90400 49.73900 27.29600
H  14.56200 50.42700 25.85000
H  15.55300 48.32000 22.71000
H  15.30300 48.30100 24.42900
H  14.93700 49.86500 23.56200
H  8.71900 46.71700 21.34000
H  6.04700 47.98400 21.87400
H  9.15700 49.37000 21.12600
H  7.47200 49.11300 20.47100
H  8.76800 48.12800 19.84800
H  6.70200 45.68300 20.92000
H  5.22600 45.96300 21.97900
H  7.56000 44.16400 22.12200
H  6.05200 43.89500 22.92300
H  7.20700 44.98800 23.68100
H  2.57900 48.28600 25.66900
H  2.36700 47.29000 27.21500
H  2.89300 46.59700 25.70700
H  5.94400 48.92800 30.88700
H  4.18600 45.63300 33.08500
H  5.43000 46.29300 34.24400
H  5.86200 45.06800 32.99800

