158

Mg 16.17900 -2.07700 28.05300
C  15.30400 0.22400 30.72800
C  18.05600 -3.81200 30.30600
C  17.16000 -3.84000 25.42900
C  14.57300 0.30600 25.81800
N  16.72700 -1.70600 30.29600
C  16.17800 -0.83600 31.16900
C  16.77600 -0.97700 32.58700
C  17.75300 -2.26600 32.34400
C  17.46200 -2.65000 30.87600
C  19.26700 -2.02100 32.51100
C  15.67500 -1.09400 33.76800
C  15.95200 -0.35800 35.10700
H  17.40400 0.01500 35.40500
N  17.49200 -3.67800 27.86800
C  18.07800 -4.28900 28.91100
C  18.59100 -5.54000 28.40200
C  18.35300 -5.53900 26.95400
C  17.65500 -4.32800 26.67300
C  19.27900 -6.48700 29.29900
C  18.76500 -6.57500 25.99000
O  18.54300 -6.50800 24.75800
C  19.39600 -7.81500 26.44400
N  15.97400 -1.68800 25.89000
C  16.46800 -2.64200 25.04100
C  16.22100 -2.13400 23.55000
C  15.58900 -0.69200 23.64500
C  15.25400 -0.72000 25.15600
C  17.52200 -2.22400 22.66800
C  14.31200 -0.59800 22.79100
C  13.91900 0.85900 22.51200
N  14.98600 -0.30000 28.19700
C  14.49100 0.54500 27.19400
C  13.81400 1.60500 27.87700
C  14.15700 1.58800 29.22000
C  14.91600 0.38200 29.34000
C  12.90300 2.58600 27.27700
C  13.97000 2.25000 30.49100
O  13.22200 3.19300 30.71600
C  14.80400 1.44700 31.49100
C  15.81700 2.46700 31.96900
O  16.47900 3.18100 31.23500
O  15.73500 2.56800 33.35200
C  16.50500 3.74900 33.91900
H  18.53100 -4.48200 31.02500
H  17.51100 -4.39100 24.55400
H  14.08900 1.08900 25.23100
H  17.33700 -0.07000 32.81200
H  17.50700 -3.12700 32.96500
H  19.59400 -1.40200 33.34700
H  19.68400 -1.61900 31.58700
H  19.63400 -3.03900 32.64100
H  15.32600 -2.12300 33.86100
H  14.81100 -0.55800 33.37800
H  15.67500 -0.91300 36.00400
H  15.39700 0.57900 35.06400
H  20.00300 -7.21300 28.92800
H  18.65200 -7.05600 29.98600
H  19.86600 -5.91100 30.01400
H  18.76700 -8.26600 27.21200
H  20.43600 -7.71100 26.75200
H  19.31900 -8.54100 25.63500
H  15.49900 -2.82300 23.11100
H  16.19800 0.19900 23.49500
H  17.81700 -1.24200 22.29900
H  17.30700 -2.81200 21.77600
H  18.39600 -2.59400 23.20400
H  13.55200 -1.04100 23.43500
H  14.42200 -1.20900 21.89600
H  12.93100 1.09500 22.90600
H  13.95700 0.87700 21.42200
H  14.63000 1.64800 22.75500
H  13.46600 3.31400 26.69400
H  12.26800 2.95000 28.08500
H  12.19800 2.05800 26.63400
H  14.15400 1.12300 32.30400
H  15.93100 4.02100 34.80600
H  16.64200 4.67800 33.36500
H  17.51200 3.41700 34.17000
Mg -11.97900 38.41600 42.01600
C  -10.02200 35.61800 41.31800
C  -10.11800 40.33000 40.01700
C  -14.48700 40.63900 42.05100
C  -14.34200 36.07300 43.45800
N  -10.40100 37.90200 40.65400
C  -9.61800 36.72500 40.60200
C  -8.37700 36.93500 39.73200
C  -8.32000 38.51600 39.50300
C  -9.67800 38.98000 40.14200
C  -7.12600 39.16800 40.17900
C  -8.34800 36.00700 38.48500
C  -7.05100 35.27500 38.13500
H  -6.30100 35.87600 36.97900
N  -12.15400 40.32800 41.33000
C  -11.28800 40.95500 40.56400
C  -11.72500 42.33700 40.25600
C  -13.07800 42.49000 40.87100
C  -13.32400 41.11800 41.47700
C  -10.87400 43.31800 39.58500
C  -14.00500 43.72200 40.70000
O  -13.50300 44.74800 40.22200
C  -15.43400 43.61600 41.11100
N  -14.23600 38.29400 42.31800
C  -14.84200 39.37300 42.51800
C  -16.37400 39.08600 42.78800
C  -16.23600 37.64800 43.33500
C  -14.87500 37.26600 42.96100
C  -17.09500 40.02800 43.68500
C  -17.34000 36.61500 42.76200
C  -18.46300 36.11300 43.74900
N  -12.17200 36.31100 42.39700
C  -13.06500 35.62200 43.16500
C  -12.51600 34.36500 43.53100
C  -11.29700 34.28000 42.79300
C  -11.17300 35.53800 42.13500
C  -13.11400 33.26000 44.39400
C  -10.22900 33.48100 42.53600
O  -9.77900 32.35700 42.81600
C  -9.44500 34.24600 41.43100
C  -7.99700 34.26300 41.75900
O  -7.11800 33.82900 40.99500
O  -7.72200 34.99300 42.95100
C  -6.32900 35.13800 43.28600
H  -9.52300 40.93000 39.32400
H  -15.32200 41.34100 42.09800
H  -14.96400 35.52200 44.16600
H  -7.54100 36.60300 40.34800
H  -8.24800 38.74500 38.43900
H  -6.47900 38.35900 40.51700
H  -7.41600 39.72200 41.07200
H  -6.60200 39.89200 39.55500
H  -8.57600 36.55400 37.57000
H  -9.14200 35.27400 38.62300
H  -7.42800 34.29400 37.84300
H  -6.33500 35.30000 38.95600
H  -9.86400 42.96100 39.78300
H  -11.10500 44.31100 39.97100
H  -10.97200 43.22800 38.50300
H  -15.92600 42.75700 40.65400
H  -15.93100 44.48800 40.68700
H  -15.64400 43.63200 42.18000
H  -16.97400 39.07600 41.87800
H  -16.40600 37.64300 44.41100
H  -16.55500 40.89200 44.07500
H  -17.26100 39.48800 44.61700
H  -18.08600 40.29400 43.31900
H  -16.83900 35.71500 42.40500
H  -17.78500 36.92600 41.81700
H  -18.63300 35.03700 43.76700
H  -19.40200 36.63900 43.57500
H  -18.14900 36.39700 44.75300
H  -14.06000 32.96000 43.94200
H  -13.36600 33.48400 45.43100
H  -12.35000 32.48300 44.37900
H  -9.50400 33.54800 40.59500
H  -6.39900 35.68500 44.22700
H  -5.91700 35.86200 42.58300
H  -5.76800 34.20400 43.31800

