158

Mg 48.81000 34.43800 26.44000
C  46.74700 33.24500 29.04900
C  49.10700 37.43800 28.03400
C  50.00700 35.81700 23.48800
C  47.70000 31.74100 24.48400
N  47.96800 35.21800 28.25800
C  47.28700 34.53700 29.27600
C  47.21700 35.42000 30.59500
C  47.64100 36.83000 30.08100
C  48.30400 36.46900 28.70400
C  46.50600 37.91900 30.00000
C  48.20400 34.88800 31.67200
C  47.53900 34.57300 33.09200
H  46.69800 35.71300 33.70700
N  49.62200 36.28800 25.89300
C  49.76900 37.30900 26.74500
C  50.62900 38.27200 26.07000
C  50.83900 37.81700 24.70700
C  50.12000 36.59300 24.61200
C  50.94200 39.51100 26.75600
C  51.63500 38.52900 23.51200
O  51.57800 38.12200 22.36900
C  52.39400 39.89700 23.62600
N  48.87500 33.83800 24.23200
C  49.38200 34.60800 23.25600
C  49.57100 33.77900 21.86700
C  48.65700 32.58000 22.20900
C  48.42500 32.65500 23.75600
C  49.07700 34.74800 20.71000
C  49.13900 31.20800 21.73000
C  48.94900 31.17200 20.19500
N  47.64300 32.70900 26.74400
C  47.20000 31.72700 25.83100
C  46.39900 30.76600 26.59200
C  46.11100 31.33900 27.82500
C  46.90200 32.52700 27.89000
C  45.83500 29.57400 25.91100
C  45.34300 31.20500 29.12100
O  44.62700 30.31900 29.56000
C  45.68100 32.46200 29.86900
C  46.22000 31.97200 31.10400
O  47.40900 31.65100 31.23500
O  45.26900 31.85800 32.17500
C  45.65000 31.20000 33.43300
H  49.24500 38.36700 28.59100
H  50.45400 36.17300 22.55800
H  47.40100 31.01800 23.72200
H  46.18200 35.28300 30.91000
H  48.30200 37.41300 30.72300
H  46.39200 38.23600 31.03700
H  45.59600 37.49200 29.57800
H  46.90700 38.76100 29.43600
H  48.93200 35.68800 31.80500
H  48.77300 33.99600 31.41200
H  48.28200 34.03300 33.68000
H  46.88800 33.71300 32.93200
H  50.11500 40.20500 26.60600
H  51.84000 39.98900 26.36600
H  51.16200 39.23400 27.78700
H  52.58200 40.36000 22.65700
H  53.27200 39.76300 24.25800
H  51.72400 40.50700 24.23300
H  50.63900 33.57600 21.78100
H  47.69700 32.86500 21.77800
H  48.06200 34.61300 20.33700
H  49.69700 34.68100 19.81600
H  49.11900 35.78500 21.04400
H  48.53200 30.37800 22.09100
H  50.15500 31.11300 22.11100
H  48.66700 32.13700 19.77200
H  48.21200 30.39700 19.98800
H  49.87000 30.82500 19.72500
H  45.20000 29.03000 26.60900
H  46.60800 28.95400 25.45600
H  45.18600 29.91800 25.10600
H  44.76300 33.01900 30.05600
H  44.90000 31.31300 34.21600
H  46.63400 31.44000 33.83500
H  45.73000 30.14200 33.18300
Mg -12.28800 38.48800 42.19100
C  -10.00500 35.89000 41.22100
C  -10.70100 40.56500 39.95200
C  -14.65400 40.49800 42.80900
C  -14.32300 35.72400 43.67300
N  -10.55300 38.14700 40.74600
C  -9.73300 37.05300 40.56100
C  -8.58800 37.34100 39.52700
C  -8.75300 38.92200 39.25600
C  -10.08100 39.26400 40.01700
C  -7.54000 39.86800 39.78800
C  -8.72900 36.37900 38.25200
C  -7.75800 35.16900 38.23700
H  -7.03200 34.97000 36.93700
N  -12.66900 40.33700 41.52500
C  -11.84600 41.08500 40.65500
C  -12.40400 42.42400 40.68500
C  -13.55800 42.42800 41.45800
C  -13.66500 41.04900 41.97000
C  -11.71400 43.63100 39.95900
C  -14.36900 43.66300 41.78500
O  -14.20600 44.68600 41.19200
C  -15.37100 43.79400 43.02300
N  -14.32500 38.04100 43.01100
C  -14.98100 39.16000 43.21800
C  -16.40800 38.82300 43.62400
C  -16.41200 37.25600 43.86800
C  -14.93300 36.98900 43.50100
C  -16.90200 39.70600 44.79400
C  -17.42200 36.39800 43.09200
C  -18.12400 35.23000 43.97200
N  -12.14700 36.33200 42.54000
C  -13.01900 35.39300 43.19400
C  -12.32500 34.10900 43.32000
C  -11.13900 34.30000 42.59600
C  -11.09000 35.63100 42.07700
C  -12.84200 32.89200 43.98200
C  -9.90300 33.64400 42.26500
O  -9.42100 32.55900 42.62000
C  -9.20800 34.65200 41.25800
C  -7.78700 34.75300 41.71400
O  -6.92800 34.01500 41.23500
O  -7.71100 35.68200 42.75200
C  -6.45000 35.89200 43.42000
H  -10.14600 41.31700 39.38800
H  -15.43400 41.24600 42.95800
H  -14.88900 35.00800 44.27200
H  -7.69300 37.01600 40.05600
H  -8.88400 39.06500 38.18300
H  -6.74600 39.20500 40.13200
H  -7.82400 40.41100 40.69000
H  -7.14600 40.45300 38.95700
H  -8.79500 37.01600 37.37000
H  -9.73800 35.97800 38.34900
H  -8.36300 34.27700 38.40400
H  -7.03900 35.20400 39.05500
H  -11.93600 44.65100 40.27400
H  -11.89500 43.60500 38.88500
H  -10.64300 43.50800 40.12400
H  -15.03800 43.24200 43.90200
H  -16.38700 43.46800 42.80200
H  -15.35300 44.84700 43.30200
H  -16.92500 39.07600 42.69800
H  -16.53900 37.08900 44.93800
H  -17.74000 40.40200 44.75200
H  -16.08100 40.30700 45.18600
H  -17.09300 39.02000 45.62000
H  -17.00500 35.97400 42.17900
H  -18.23500 37.05600 42.78600
H  -17.40300 34.62400 44.52000
H  -18.56000 34.40600 43.40800
H  -18.94000 35.60100 44.59100
H  -13.86300 32.78000 43.61700
H  -13.01500 32.99600 45.05300
H  -12.20000 32.01400 43.91000
H  -9.17400 34.12200 40.30700
H  -5.65100 36.13000 42.71900
H  -6.21800 35.06400 44.09000
H  -6.69800 36.76300 44.02700

