158

Mg 48.15000 15.95100 28.49100
C  46.06300 15.72800 31.32100
C  50.40800 17.61700 30.38300
C  49.71800 16.65100 25.67800
C  45.30500 15.02500 26.58400
N  48.19500 16.70600 30.55100
C  47.29200 16.39900 31.58700
C  47.85700 16.93500 32.91700
C  49.05400 17.84500 32.49300
C  49.23100 17.44600 31.06400
C  48.94100 19.37300 32.84300
C  48.25000 15.79600 33.80300
C  47.83100 15.96400 35.31600
H  47.46300 17.41200 35.80300
N  49.93400 16.87600 28.06200
C  50.79600 17.43700 29.02600
C  52.00500 17.88700 28.28100
C  51.87300 17.44900 26.92100
C  50.44900 16.97700 26.86200
C  53.13000 18.72200 28.92100
C  52.76900 17.39600 25.76200
O  52.48100 16.95100 24.69500
C  54.26200 17.68600 26.01400
N  47.61500 15.70300 26.44700
C  48.48300 16.01600 25.49100
C  47.91000 15.80000 24.08700
C  46.57200 15.10000 24.34500
C  46.48400 15.32200 25.87000
C  47.77300 17.01700 23.03700
C  46.57900 13.56700 24.00600
C  47.43400 12.61000 24.89200
N  46.12300 15.30100 28.81100
C  45.12700 14.98100 28.01100
C  43.98100 14.42900 28.76400
C  44.31700 14.68800 30.07000
C  45.59400 15.29300 30.02300
C  42.86700 13.64700 28.19500
C  43.88700 14.60800 31.43400
O  42.86600 14.11300 31.93100
C  44.94200 15.40900 32.25400
C  44.21300 16.53400 32.94700
O  43.80100 17.55400 32.45700
O  44.08000 16.26400 34.30100
C  43.18700 17.16900 35.01200
H  51.14700 18.10300 31.02400
H  50.09800 16.91300 24.68800
H  44.54800 14.68200 25.87500
H  47.00500 17.49400 33.30400
H  49.99900 17.69900 33.01600
H  49.10700 20.00600 31.97100
H  49.57200 19.59400 33.70400
H  47.90900 19.53600 33.15300
H  49.33900 15.78300 33.77600
H  47.98000 14.86600 33.30300
H  48.69600 15.61800 35.88200
H  47.04700 15.23200 35.51200
H  53.33900 19.53200 28.22200
H  53.95400 18.07000 29.21200
H  52.65000 19.04500 29.84500
H  54.68800 17.44600 26.98800
H  54.33500 18.76200 25.85400
H  54.90900 17.30500 25.22400
H  48.57300 15.10600 23.57000
H  45.74200 15.54300 23.79500
H  48.20100 17.95900 23.38100
H  46.73600 17.19600 22.75200
H  48.26700 16.66400 22.13200
H  47.01500 13.57000 23.00700
H  45.55800 13.20300 23.89100
H  47.86400 11.97700 24.11600
H  46.89200 11.92100 25.54000
H  48.32400 12.94800 25.42300
H  43.35500 12.69700 27.97800
H  42.63600 14.07300 27.21800
H  41.97900 13.44000 28.79300
H  45.48600 14.83500 33.00400
H  42.43700 17.52600 34.30700
H  43.86500 17.90400 35.44600
H  42.66500 16.64200 35.81100
Mg 47.03400 24.99800 28.47200
C  48.02700 27.35700 30.82100
C  46.56900 22.71600 31.07600
C  46.15000 22.61100 26.16100
C  48.37500 27.02200 25.96500
N  47.28200 25.10600 30.69900
C  47.48700 26.22900 31.39300
C  47.40900 25.98800 32.90800
C  47.18100 24.41800 32.94300
C  46.94700 24.00400 31.47900
C  48.25200 23.63900 33.71000
C  46.22400 26.75200 33.56900
C  45.56800 26.25800 34.84800
H  45.34100 27.17800 36.03600
N  46.32500 23.00000 28.61500
C  46.15600 22.21400 29.80700
C  45.68500 20.89900 29.48300
C  45.55600 20.83800 28.04200
C  45.97200 22.17600 27.56400
C  45.62800 19.67600 30.48100
C  45.18800 19.60000 27.14600
O  45.26200 19.74600 25.97100
C  44.78200 18.29500 27.72900
N  47.29500 24.84500 26.41000
C  46.74600 23.77800 25.68700
C  46.90200 24.07400 24.19700
C  47.29600 25.55000 24.15900
C  47.73700 25.82100 25.62300
C  47.75900 23.02400 23.53300
C  46.29300 26.65400 23.58400
C  46.77400 27.50900 22.38700
N  47.96300 26.76500 28.33100
C  48.54900 27.44900 27.27200
C  49.13000 28.66600 27.72100
C  48.93000 28.65300 29.07700
C  48.21000 27.53400 29.42400
C  49.77900 29.68500 26.94000
C  49.17500 29.38600 30.21700
O  49.75800 30.39300 30.37700
C  48.48800 28.62400 31.43600
C  49.48900 28.40200 32.52200
O  50.52000 27.77200 32.42800
O  49.18900 29.24800 33.59300
C  50.11800 29.21900 34.75900
H  46.46600 21.98900 31.88500
H  45.84500 21.97500 25.32700
H  48.60800 27.73900 25.17500
H  48.36100 26.17600 33.40600
H  46.26000 24.22100 33.49300
H  49.15100 24.25500 33.73300
H  48.49000 22.75600 33.11800
H  47.97900 23.31300 34.71400
H  45.40900 26.87500 32.85600
H  46.43500 27.81000 33.72800
H  46.16500 25.44900 35.26800
H  44.61300 25.77700 34.63300
H  44.67400 19.15200 30.55200
H  46.00500 20.03000 31.44000
H  46.34600 19.01900 29.99000
H  43.93000 18.38600 28.40300
H  45.62500 17.89000 28.28900
H  44.62900 17.54500 26.95300
H  45.92100 24.01100 23.72700
H  48.19100 25.78100 23.58200
H  48.57000 23.55700 23.03600
H  47.21800 22.42900 22.79800
H  48.16700 22.34100 24.27800
H  45.93200 27.35200 24.34000
H  45.47000 26.10900 23.12100
H  46.08400 27.34500 21.55900
H  47.76000 27.21300 22.02700
H  46.68700 28.53100 22.75500
H  50.50600 29.30400 26.22300
H  50.22900 30.46900 27.54800
H  49.03800 30.22700 26.35100
H  47.64400 29.15500 31.87700
H  49.78400 28.58100 35.57700
H  50.01000 30.18300 35.25400
H  51.14400 29.06800 34.42100

