158

Mg 25.00700 -6.38500 47.73800
C  26.23600 -3.56500 46.08000
C  22.13700 -6.20000 45.55600
C  24.15800 -9.38600 48.59200
C  28.00600 -6.65800 49.34700
N  24.34600 -5.15300 45.99700
C  25.00100 -3.99500 45.58000
C  24.28300 -3.29900 44.36700
C  22.87300 -3.95300 44.51200
C  23.10800 -5.15200 45.39100
C  21.68500 -3.07800 44.95300
C  25.04000 -3.66200 43.05000
C  25.48500 -2.44800 42.18100
H  24.72100 -2.35800 40.83000
N  23.31300 -7.59600 47.19000
C  22.25600 -7.35800 46.39400
C  21.27400 -8.42500 46.51100
C  21.81700 -9.39900 47.43100
C  23.21100 -8.86800 47.74300
C  19.98100 -8.45800 45.68500
C  21.11200 -10.63100 47.93600
O  20.00200 -10.80600 47.51700
C  21.66000 -11.61500 49.01800
N  25.95600 -7.84600 48.86400
C  25.37800 -8.99900 49.12900
C  26.26600 -9.97200 50.01500
C  27.54700 -9.02900 50.22400
C  27.21200 -7.78900 49.39700
C  25.56300 -10.35600 51.29900
C  28.87400 -9.78100 49.85900
C  29.34400 -9.85800 48.39300
N  26.80300 -5.34700 47.83900
C  27.82800 -5.50600 48.63800
C  28.66500 -4.34000 48.53200
C  28.11100 -3.54600 47.48700
C  26.94900 -4.23200 47.08400
C  29.98000 -4.17400 49.22300
C  28.20300 -2.38200 46.59800
O  29.11700 -1.54000 46.52300
C  26.90900 -2.32200 45.81200
C  26.00500 -1.24700 46.44700
O  26.27000 -0.01600 46.27600
O  24.92700 -1.70600 47.21500
C  24.05500 -0.75500 47.81900
H  21.27200 -6.09900 44.89800
H  23.86700 -10.41900 48.79500
H  28.93300 -6.66400 49.92500
H  24.16100 -2.22300 44.49100
H  22.60000 -4.25200 43.50000
H  21.74900 -1.99300 44.87600
H  21.52500 -3.28400 46.01100
H  20.78800 -3.38700 44.41600
H  24.39700 -4.24900 42.39400
H  25.88800 -4.29900 43.30000
H  26.55600 -2.42800 41.97700
H  25.27000 -1.49600 42.66500
H  19.74500 -9.43500 45.26200
H  20.17000 -7.85100 44.79900
H  19.14800 -8.06900 46.27000
H  22.50400 -12.14300 48.57500
H  20.92500 -12.37900 49.27100
H  21.88100 -11.02300 49.90600
H  26.50500 -10.81900 49.37200
H  27.55000 -8.72700 51.27100
H  24.72000 -9.75700 51.64600
H  26.23700 -10.42200 52.15400
H  25.29700 -11.40100 51.14200
H  28.67700 -10.79500 50.20800
H  29.69600 -9.35600 50.43600
H  30.35900 -9.49400 48.24000
H  28.66600 -9.27300 47.77200
H  29.27300 -10.89900 48.07600
H  29.79000 -4.32900 50.28500
H  30.44900 -3.19500 49.12800
H  30.66200 -4.98300 48.95700
H  27.14600 -2.12400 44.76700
H  23.56300 -1.19400 48.68700
H  23.22800 -0.50700 47.15200
H  24.51700 0.16700 48.17100
Mg -10.28100 40.15200 41.91700
C  -9.21100 37.09900 40.63600
C  -7.35400 41.62000 40.54800
C  -11.63200 43.24200 42.29200
C  -13.30900 38.73200 42.82100
N  -8.49100 39.40000 40.69400
C  -8.31500 38.13200 40.34100
C  -7.05700 37.98100 39.47600
C  -6.37400 39.37000 39.64300
C  -7.44800 40.21300 40.39000
C  -4.94000 39.36700 40.03600
C  -7.45300 37.55400 38.01400
C  -6.75900 36.28900 37.46400
H  -5.46400 36.76500 36.66800
N  -9.57800 42.18500 41.47000
C  -8.32900 42.55100 41.03300
C  -8.21500 44.04800 41.18200
C  -9.38100 44.48800 41.73800
C  -10.34300 43.29400 41.75000
C  -7.01800 44.73300 40.70800
C  -9.71000 45.92700 42.09700
O  -8.88000 46.77200 41.76200
C  -11.04300 46.43600 42.72300
N  -12.27000 40.87100 42.25100
C  -12.55800 42.20000 42.53100
C  -14.01800 42.34200 42.93000
C  -14.39700 40.93800 43.50100
C  -13.28600 40.09900 42.80300
C  -14.31200 43.37500 43.97100
C  -15.88700 40.57800 43.10900
C  -16.72300 39.84300 44.25400
N  -11.03300 38.23500 41.98900
C  -12.27200 37.78600 42.30500
C  -12.45100 36.36100 42.05800
C  -11.25600 36.05100 41.35500
C  -10.47300 37.24100 41.35000
C  -13.66000 35.60200 42.22000
C  -10.48100 35.02000 40.65900
O  -10.70900 33.80200 40.57000
C  -9.12200 35.69800 40.21900
C  -8.01800 34.89600 40.91000
O  -7.47800 35.15000 41.99800
O  -7.69000 33.81200 40.14900
C  -7.03500 32.78600 40.88500
H  -6.39100 42.01500 40.21800
H  -12.13500 44.18900 42.49800
H  -14.24300 38.32900 43.21900
H  -6.23000 37.37000 39.83800
H  -6.31800 39.93600 38.71300
H  -4.63700 40.24000 40.61400
H  -4.28200 39.22300 39.17900
H  -4.86300 38.47200 40.65300
H  -7.12800 38.41800 37.43500
H  -8.52600 37.50200 37.82600
H  -7.37900 35.77700 36.72800
H  -6.51600 35.59900 38.27200
H  -6.69000 45.47100 41.44000
H  -7.42500 45.10400 39.76800
H  -6.21900 44.05100 40.41600
H  -11.80000 46.25900 41.95900
H  -10.96500 47.49700 42.96100
H  -11.24900 45.92500 43.66400
H  -14.59000 42.47600 42.01200
H  -14.19100 40.94000 44.57100
H  -14.51900 44.31100 43.45200
H  -13.41200 43.63000 44.53000
H  -15.21700 43.10300 44.51500
H  -15.94600 39.83500 42.31300
H  -16.45500 41.44300 42.76500
H  -16.77200 38.77300 44.05700
H  -17.72600 40.26500 44.31900
H  -16.25600 40.01100 45.22500
H  -14.49800 36.15300 41.79400
H  -13.69100 35.34700 43.27900
H  -13.63100 34.65200 41.68500
H  -9.11100 35.51600 39.14400
H  -7.20900 31.88700 40.29300
H  -7.41900 32.57000 41.88200
H  -5.98100 32.99100 41.07400

