158

Mg 16.25000 52.38100 26.67900
C  17.79600 50.88200 29.46000
C  14.10600 53.86000 28.92100
C  14.78500 53.56800 23.95200
C  18.54900 50.67300 24.64500
N  16.03400 52.46600 28.90000
C  16.80400 51.78600 29.82600
C  16.38200 52.07800 31.25800
C  14.95500 52.71300 30.99700
C  15.01200 53.04500 29.52000
C  13.69300 51.88400 31.49300
C  17.36000 53.07100 32.01000
C  17.61100 52.76000 33.52700
H  16.63100 51.89800 34.31100
N  14.68500 53.53300 26.45800
C  13.98900 54.15800 27.48600
C  13.00300 55.00500 26.88100
C  13.20900 54.96700 25.47200
C  14.22900 53.98900 25.23400
C  11.88700 55.74000 27.66000
C  12.50400 55.76100 24.35200
O  12.68400 55.66300 23.18200
C  11.30500 56.64800 24.79700
N  16.66900 52.16400 24.51800
C  15.78400 52.71200 23.60700
C  16.22900 52.42500 22.21700
C  17.57500 51.62100 22.39900
C  17.63200 51.42900 23.94700
C  15.12000 51.71600 21.42800
C  18.89600 52.37600 21.91600
C  19.76600 51.52000 20.91600
N  17.79700 51.03300 26.92300
C  18.72600 50.56200 26.04000
C  19.74200 49.72000 26.74600
C  19.51700 49.97700 28.08500
C  18.28900 50.62700 28.17200
C  20.81400 48.94200 26.07000
C  19.96500 49.63700 29.39400
O  20.95000 49.04500 29.75800
C  18.78300 50.16000 30.38500
C  18.25200 48.90800 31.04200
O  17.62400 48.01500 30.52500
O  18.59400 48.78100 32.41300
C  18.36700 47.51300 33.05200
H  13.41600 54.30400 29.64200
H  14.36300 53.95000 23.02100
H  19.28800 50.15900 24.02600
H  16.24500 51.09600 31.70900
H  14.79200 53.71100 31.40400
H  13.11300 51.60300 30.61400
H  13.00100 52.55300 32.00400
H  13.98800 51.10300 32.19400
H  17.04400 54.11300 31.96400
H  18.37300 53.03400 31.60900
H  17.76800 53.64200 34.14700
H  18.55800 52.22300 33.59100
H  11.86600 56.82700 27.57500
H  11.76600 55.40200 28.68900
H  10.94300 55.39100 27.24200
H  10.38900 56.14200 25.10400
H  11.05900 57.08300 23.82800
H  11.75600 57.36800 25.48000
H  16.42300 53.40900 21.79000
H  17.43600 50.62700 21.97400
H  14.20500 51.75000 22.01900
H  15.31900 50.65600 21.26700
H  15.07500 52.32000 20.52200
H  19.54600 52.61800 22.75600
H  18.72400 53.30900 21.37900
H  19.17600 50.68800 20.53300
H  20.59900 51.20200 21.54300
H  20.21300 52.12000 20.12300
H  20.55500 48.19000 25.32500
H  21.34500 48.43000 26.87300
H  21.47600 49.68600 25.62800
H  19.20700 50.75000 31.19800
H  18.99800 47.32600 33.92200
H  18.60400 46.69900 32.36700
H  17.34500 47.36200 33.40100
Mg -3.42700 34.65100 25.99500
C  -4.94400 32.71200 28.64400
C  -2.08900 36.64800 28.50100
C  -2.33400 36.73300 23.65500
C  -5.18700 32.70400 23.74200
N  -3.62400 34.63900 28.26200
C  -4.08400 33.66500 29.13200
C  -3.68300 33.98600 30.65700
C  -2.79100 35.30000 30.46300
C  -2.81400 35.53400 28.96600
C  -3.26600 36.52400 31.31300
C  -3.04300 32.81000 31.44600
C  -3.70200 32.40000 32.80200
H  -2.84200 32.47200 33.98700
N  -2.23300 36.32000 26.09200
C  -1.73500 36.97600 27.20800
C  -0.81700 38.07900 26.76100
C  -0.81900 37.99700 25.30600
C  -1.84700 37.01400 24.93300
C  -0.05000 38.94700 27.73200
C  0.06700 38.83900 24.32300
O  0.04800 38.74800 23.10400
C  0.97600 39.91700 24.89500
N  -3.88300 34.75400 24.07900
C  -3.32300 35.78200 23.27300
C  -3.87300 35.68400 21.81900
C  -4.40500 34.19900 21.77900
C  -4.50000 33.86000 23.24500
C  -4.93000 36.82800 21.48600
C  -3.45300 33.22300 21.04100
C  -2.13200 32.83400 21.68800
N  -4.83200 33.03900 26.15300
C  -5.45200 32.34700 25.10300
C  -6.24600 31.25700 25.62100
C  -6.13200 31.33500 27.06600
C  -5.24500 32.49000 27.29500
C  -7.08400 30.31800 24.85400
C  -6.40500 30.68500 28.29700
O  -7.01000 29.66200 28.59100
C  -5.73300 31.64200 29.37700
C  -6.78900 32.14400 30.27500
O  -7.80200 32.77500 30.01800
O  -6.50400 31.74000 31.60600
C  -7.57400 31.93600 32.60300
H  -1.57200 37.21400 29.27800
H  -2.08400 37.47300 22.89200
H  -5.51800 31.95900 23.01600
H  -4.60700 34.28300 31.15400
H  -1.79300 35.05400 30.82700
H  -2.44500 37.04100 31.80900
H  -3.92700 36.16800 32.10400
H  -3.82200 37.28000 30.75900
H  -2.07200 33.14400 31.81300
H  -2.92600 31.85800 30.92800
H  -4.09500 31.39800 32.62500
H  -4.62400 32.89700 33.10300
H  -0.44900 39.96000 27.68000
H  1.02300 38.94300 27.53800
H  -0.14900 38.58400 28.75500
H  1.56500 40.33400 24.07800
H  1.73200 39.43000 25.51000
H  0.47700 40.65300 25.52500
H  -3.00600 35.89200 21.19200
H  -5.39500 34.13400 21.32800
H  -4.37400 37.61600 20.97900
H  -5.46200 37.15800 22.37800
H  -5.73300 36.47300 20.84000
H  -3.16300 33.60200 20.06200
H  -4.13900 32.39600 20.85800
H  -1.94100 31.76400 21.77400
H  -1.97800 33.29100 22.66500
H  -1.33000 33.33500 21.14600
H  -7.46300 29.71600 25.68000
H  -6.47900 29.86900 24.06600
H  -7.98000 30.70100 24.36500
H  -5.08700 30.95700 29.92700
H  -7.26900 31.51000 33.55800
H  -8.42100 31.33700 32.27000
H  -7.92400 32.96400 32.70400

