158

Mg 39.84600 9.27000 29.09400
C  41.96700 10.36200 31.70600
C  37.62800 8.18700 31.43100
C  38.03700 7.90600 26.58500
C  42.26000 10.14000 26.82400
N  39.78800 9.33600 31.23400
C  40.74400 9.81300 32.13300
C  40.30200 9.76600 33.57200
C  39.04100 8.93100 33.50300
C  38.72000 8.88500 31.94800
C  39.13500 7.63700 34.31500
C  39.97300 11.21300 34.15000
C  39.07400 11.31200 35.45600
H  39.41100 12.40300 36.47900
N  37.94900 8.41000 28.96700
C  37.23900 7.95200 30.05100
C  36.03100 7.24700 29.62400
C  36.19400 7.12700 28.19000
C  37.39400 7.86800 27.84300
C  34.98900 6.65200 30.56700
C  35.30300 6.30600 27.21700
O  35.61300 6.06000 26.05500
C  34.07200 5.65000 27.71000
N  40.10900 9.03800 26.99900
C  39.25200 8.40500 26.19000
C  39.55200 8.70900 24.72100
C  40.82500 9.55000 24.81800
C  41.11100 9.54000 26.26600
C  39.53000 7.44700 23.84400
C  40.67300 11.04500 24.31500
C  40.02200 12.23600 25.17500
N  41.75900 9.99600 29.21100
C  42.66300 10.38100 28.20400
C  43.81700 10.96800 28.75400
C  43.62700 10.87300 30.11700
C  42.37300 10.33300 30.38200
C  44.94300 11.53200 28.00900
C  44.20900 11.23000 31.31200
O  45.36200 11.55400 31.54400
C  43.20300 10.80100 32.46300
C  43.91100 9.84600 33.29000
O  44.43000 8.79500 32.90100
O  43.87500 10.18200 34.63800
C  44.30100 9.27400 35.67600
H  37.00300 7.82100 32.24800
H  37.43300 7.66700 25.70700
H  42.92100 10.60100 26.08700
H  41.12600 9.32100 34.13000
H  38.25100 9.51500 33.97600
H  38.31300 7.70000 35.02800
H  40.00600 7.64200 34.97000
H  39.08300 6.72100 33.72700
H  39.51300 11.83700 33.38400
H  40.93600 11.70700 34.27900
H  39.14900 10.35700 35.97600
H  38.03600 11.38500 35.13300
H  34.00700 7.05000 30.31100
H  35.07300 6.93100 31.61800
H  34.78500 5.59400 30.40500
H  34.42500 4.89800 28.41500
H  33.50800 5.09800 26.95900
H  33.34300 6.30500 28.18800
H  38.75600 9.40200 24.44900
H  41.68400 9.11700 24.30500
H  40.43800 7.10900 23.34500
H  38.82700 7.60500 23.02600
H  39.18400 6.54100 24.34000
H  40.20500 11.10500 23.33200
H  41.68200 11.36300 24.05300
H  39.73200 12.05600 26.21000
H  39.12200 12.56200 24.65200
H  40.67400 13.10400 25.26600
H  44.69700 11.87800 27.00600
H  45.70900 10.75700 28.01900
H  45.27700 12.42900 28.53100
H  43.09600 11.67100 33.11100
H  43.79100 8.34000 35.44100
H  43.89800 9.56800 36.64600
H  45.36300 9.05200 35.77300
Mg 0.68300 43.44100 26.02500
C  2.98900 43.22400 28.66300
C  -1.79400 42.66800 28.24200
C  -1.42400 43.35400 23.36000
C  3.32600 43.88000 23.85400
N  0.63300 43.02600 28.20400
C  1.68000 43.07400 29.04600
C  1.13200 43.02100 30.46400
C  -0.28700 42.45500 30.35200
C  -0.55100 42.79200 28.86800
C  -0.52000 41.01000 30.62300
C  1.14600 44.45900 31.11100
C  1.45500 44.50500 32.66700
H  1.23100 43.20100 33.50800
N  -1.33900 42.98400 25.81600
C  -2.18900 42.68100 26.84300
C  -3.58400 42.54700 26.25600
C  -3.47800 42.87300 24.88300
C  -2.04900 43.10300 24.62700
C  -4.81200 42.14600 27.11200
C  -4.56900 42.90000 23.84700
O  -4.42500 43.25600 22.65900
C  -5.92600 42.48500 24.21500
N  0.86400 43.83600 23.93800
C  -0.07100 43.58600 23.05000
C  0.44900 43.59700 21.54800
C  1.88300 44.15900 21.83700
C  2.06700 43.87000 23.27100
C  0.37800 42.20200 20.87600
C  2.05000 45.63800 21.30400
C  1.82200 46.80100 22.28900
N  2.77500 43.52100 26.14600
C  3.71800 43.74000 25.20800
C  5.05400 43.71000 25.76500
C  4.81900 43.48600 27.15200
C  3.44800 43.35800 27.34900
C  6.28300 43.93300 25.01900
C  5.51200 43.32700 28.42600
O  6.68800 43.40500 28.69700
C  4.34500 43.17100 29.47500
C  4.64800 42.04200 30.29900
O  4.25900 40.87300 30.09200
O  5.39800 42.42900 31.44500
C  5.61200 41.36800 32.37000
H  -2.63200 42.52700 28.92800
H  -2.08000 43.32900 22.48700
H  4.07800 44.15600 23.11200
H  1.72100 42.35000 31.09000
H  -1.05800 43.00100 30.89600
H  0.34900 40.47500 31.00600
H  -0.91300 40.55600 29.71300
H  -1.31200 40.88500 31.36000
H  0.15600 44.90700 31.01800
H  1.79300 45.17100 30.59900
H  0.82000 45.29400 33.07200
H  2.51700 44.70000 32.81400
H  -5.62900 42.86500 27.04100
H  -4.49500 41.95000 28.13600
H  -5.19800 41.18900 26.76100
H  -6.07600 41.45600 24.54300
H  -6.52700 42.71400 23.33600
H  -6.10200 43.18100 25.03500
H  -0.21800 44.24100 20.97500
H  2.53100 43.53900 21.21800
H  1.38100 41.77600 20.82700
H  0.07900 42.17000 19.82800
H  -0.29300 41.49500 21.36300
H  1.44300 45.63500 20.39900
H  3.09400 45.72000 21.00200
H  2.59400 47.56700 22.21800
H  1.80900 46.37400 23.29200
H  0.85500 47.26900 22.10700
H  6.81900 44.77500 25.45800
H  6.15300 44.31800 24.00800
H  6.84800 43.00100 25.02800
H  4.41500 44.08400 30.06500
H  6.01200 40.39600 32.08000
H  4.64300 41.13000 32.80900
H  6.31300 41.79400 33.08700

