158

Mg 44.93800 4.51200 48.30700
C  43.04900 7.15500 47.27600
C  42.43900 2.43800 47.62700
C  47.05600 1.83800 48.85600
C  47.75600 6.56800 48.31100
N  43.04200 4.81200 47.43700
C  42.35600 5.94900 47.14800
C  40.90300 5.71000 46.59500
C  40.67300 4.24100 47.12200
C  42.14700 3.80200 47.49600
C  39.49700 4.08600 48.16000
C  40.82200 5.84000 45.03500
C  40.01400 7.01300 44.39100
H  39.05500 6.71900 43.27800
N  44.75200 2.44400 48.06000
C  43.64900 1.76100 47.82900
C  43.89500 0.39900 47.78500
C  45.24200 0.16900 48.18000
C  45.79000 1.48400 48.35900
C  42.73800 -0.60800 47.66900
C  45.87300 -1.15000 48.48600
O  45.31500 -2.18900 48.12400
C  47.23300 -1.38400 49.01500
N  47.16700 4.19000 48.42700
C  47.75400 3.06000 48.93200
C  49.15800 3.15000 49.24000
C  49.32900 4.69300 49.07200
C  48.02700 5.21600 48.44800
C  49.59600 2.59800 50.59500
C  50.56600 5.16300 48.24000
C  51.43900 6.20300 48.87600
N  45.34100 6.50100 47.99300
C  46.54500 7.19300 47.99900
C  46.23100 8.62300 47.77700
C  44.86100 8.63500 47.55900
C  44.42400 7.36800 47.59700
C  47.08200 9.79900 47.79300
C  43.74500 9.61700 47.27100
O  43.63900 10.81800 47.15000
C  42.49600 8.54300 47.08600
C  41.44700 8.84700 48.19300
O  41.15800 8.09300 49.11400
O  40.89100 10.05400 47.89700
C  39.82700 10.44800 48.83200
H  41.49600 1.88900 47.59800
H  47.77800 1.03100 49.00200
H  48.61100 7.23400 48.45000
H  40.26700 6.47600 47.03900
H  40.30000 3.67900 46.26600
H  39.20100 5.06900 48.52600
H  39.91000 3.57700 49.03100
H  38.57400 3.71100 47.71800
H  40.42800 4.87100 44.72900
H  41.84400 5.91900 44.66300
H  40.71000 7.76900 44.02800
H  39.55500 7.50100 45.25200
H  42.92500 -1.29400 46.84300
H  41.79600 -0.11800 47.42500
H  42.58500 -1.25500 48.53400
H  47.41100 -2.44600 49.18200
H  47.38700 -0.74500 49.88400
H  47.78800 -1.08300 48.12700
H  49.69300 2.59900 48.46700
H  49.38200 5.08700 50.08700
H  48.68800 2.47900 51.18700
H  50.33300 3.21300 51.11200
H  50.09100 1.64300 50.41800
H  50.36800 5.60900 47.26500
H  51.28900 4.35100 48.15400
H  51.56200 6.02200 49.94300
H  50.84000 7.10700 48.76700
H  52.41200 6.32800 48.40100
H  46.70100 10.49300 48.54200
H  47.03600 10.22700 46.79200
H  48.07300 9.38800 47.98200
H  41.93600 8.62200 46.15500
H  38.95500 10.96300 48.43000
H  40.15800 10.91800 49.75800
H  39.27700 9.61100 49.26100
Mg 56.36100 24.13300 44.84100
C  54.35400 26.88800 44.11900
C  53.73500 22.03800 44.33000
C  58.55900 21.54500 45.16000
C  58.93300 26.36600 45.50500
N  54.36800 24.40200 44.02300
C  53.76700 25.64200 43.86900
C  52.32600 25.37700 43.40100
C  52.07700 23.95600 43.90100
C  53.42400 23.38200 44.07000
C  51.21300 23.82500 45.19700
C  52.16300 25.56300 41.84800
C  50.86200 26.06800 41.35000
H  50.34900 25.38400 40.04200
N  56.20300 22.04500 44.61600
C  54.99900 21.37800 44.46100
C  55.24700 19.97400 44.47700
C  56.65200 19.80100 44.64300
C  57.23400 21.17400 44.80000
C  54.12900 18.85900 44.31000
C  57.35100 18.33200 44.57800
O  56.69600 17.35900 44.24100
C  58.85200 18.25000 44.70000
N  58.55400 24.03300 44.95800
C  59.15700 22.83900 45.29600
C  60.55100 23.04900 45.88100
C  60.75800 24.57500 45.94000
C  59.35600 25.08700 45.40700
C  60.72200 22.34000 47.21900
C  61.92100 25.14300 45.12500
C  63.14900 25.63600 45.95700
N  56.71300 26.19600 44.77800
C  57.72400 26.91400 45.23400
C  57.36800 28.34400 45.23900
C  56.02900 28.34100 44.82500
C  55.67900 27.02500 44.54000
C  58.12600 29.56500 45.61600
C  54.86400 29.20100 44.48400
O  54.77200 30.42400 44.57900
C  53.73500 28.25700 43.85900
C  53.76900 28.50300 42.38100
O  54.69800 28.20400 41.58400
O  52.62400 29.12200 41.98300
C  52.47500 29.27700 40.51200
H  52.90100 21.35100 44.16800
H  59.27000 20.72400 45.27300
H  59.74100 27.01200 45.85600
H  51.60300 26.04900 43.86300
H  51.62600 23.37400 43.09700
H  50.38000 23.12800 45.11400
H  50.69100 24.76500 45.37700
H  51.83100 23.64100 46.07600
H  52.12300 24.56900 41.40300
H  52.96300 26.10400 41.34200
H  50.97900 27.14500 41.23400
H  50.03600 25.91200 42.04400
H  54.44800 18.34100 43.40600
H  53.13700 19.30600 44.37600
H  54.20000 18.10800 45.09600
H  59.16100 19.03300 44.00800
H  59.20100 17.31800 44.25600
H  59.23400 18.41600 45.70800
H  61.24600 22.63900 45.14800
H  60.78200 24.95900 46.96000
H  59.77200 21.85900 47.45600
H  60.99100 22.97200 48.06600
H  61.43400 21.51600 47.16200
H  61.65200 26.03300 44.55600
H  62.27500 24.34100 44.47700
H  63.05700 25.32500 46.99700
H  63.10800 26.72500 45.94500
H  64.08000 25.23900 45.55200
H  58.11700 30.13500 44.68700
H  59.13000 29.41200 46.01300
H  57.59100 30.12600 46.38300
H  52.78700 28.44700 44.36200
H  52.85000 28.38400 40.01100
H  53.13600 30.08000 40.18800
H  51.40500 29.34700 40.31500

