158

Mg 24.49700 -4.40700 45.34700
C  26.79400 -2.04500 44.10100
C  22.11200 -3.14800 43.53600
C  22.75700 -7.25900 46.02000
C  27.29200 -5.85700 47.10300
N  24.43300 -2.73300 43.99300
C  25.44900 -1.90900 43.64300
C  25.01600 -1.00400 42.53500
C  23.43900 -1.10200 42.64100
C  23.23500 -2.34600 43.42600
C  22.62000 0.17300 43.16700
C  25.61900 -1.50600 41.13600
C  26.31500 -0.47100 40.17000
H  26.17700 -0.80400 38.64700
N  22.56900 -5.05900 44.89800
C  21.75100 -4.36300 44.09300
C  20.48600 -4.99600 44.08800
C  20.66900 -6.31800 44.62200
C  22.08600 -6.25400 45.24100
C  19.25300 -4.44000 43.67400
C  19.64400 -7.41700 44.80900
O  18.53700 -7.30600 44.40700
C  19.95400 -8.84300 45.26200
N  25.05700 -6.40000 46.34900
C  24.07400 -7.31700 46.57000
C  24.61700 -8.48600 47.32900
C  25.93700 -7.92700 47.88900
C  26.15000 -6.62500 47.14500
C  23.71300 -9.26100 48.40100
C  27.12200 -8.86800 47.72700
C  28.33800 -8.76900 48.66900
N  26.61000 -4.02200 45.59400
C  27.56600 -4.68100 46.37000
C  28.83700 -3.91900 46.22800
C  28.54600 -2.88500 45.37600
C  27.19300 -2.96200 45.11500
C  30.16700 -4.35200 46.76300
C  29.16300 -1.68600 44.80900
O  30.27700 -1.17700 44.99400
C  27.97800 -1.12400 43.88900
C  27.83100 0.29700 44.47400
O  27.25900 0.64500 45.48200
O  28.25500 1.13100 43.44500
C  27.64100 2.46400 43.47900
H  21.30300 -2.69200 42.96100
H  22.17100 -8.14800 46.26400
H  28.15900 -6.31300 47.58500
H  25.32900 -0.00500 42.83800
H  23.05300 -1.29600 41.64100
H  21.67200 0.37000 42.66600
H  23.33100 0.99800 43.11900
H  22.29600 -0.06100 44.18100
H  24.79700 -1.91800 40.55100
H  26.34300 -2.30400 41.30100
H  27.37600 -0.35000 40.38800
H  25.95300 0.54200 40.34900
H  19.35300 -3.46800 43.19100
H  18.58600 -4.30000 44.52500
H  18.83500 -5.08000 42.89600
H  20.89400 -9.25900 44.90100
H  19.18300 -9.57100 45.01100
H  19.96400 -9.00300 46.34000
H  24.89900 -9.21900 46.57200
H  25.81300 -7.64900 48.93600
H  23.41300 -10.24600 48.04500
H  22.84400 -8.60500 48.43900
H  24.07400 -9.26700 49.43000
H  27.44300 -8.71800 46.69600
H  26.60400 -9.82000 47.84800
H  28.58700 -9.74200 49.09100
H  28.11100 -8.02800 49.43600
H  29.19300 -8.27100 48.21200
H  30.72700 -5.00600 46.09500
H  29.99000 -5.09300 47.54200
H  30.82100 -3.50300 46.96600
H  28.17500 -1.02100 42.82200
H  27.66700 2.99700 42.52900
H  28.09200 3.05500 44.27600
H  26.59300 2.35400 43.76000
Mg 47.71500 16.24100 28.49200
C  45.76000 16.16800 31.39000
C  50.14000 17.85900 30.28000
C  49.72100 16.23100 25.70400
C  45.19400 14.80900 26.72600
N  47.81200 17.12000 30.62400
C  46.96500 16.80000 31.69000
C  47.54300 17.15800 33.05900
C  48.78500 17.98600 32.63800
C  48.93500 17.63600 31.06100
C  48.80800 19.43300 33.03200
C  47.84700 16.02900 33.95700
C  47.41000 16.28700 35.47400
H  47.34200 17.74600 36.02800
N  49.66800 16.81500 28.06600
C  50.43100 17.51600 28.95700
C  51.76300 17.77000 28.36900
C  51.66200 17.42000 27.03200
C  50.36000 16.72900 26.83900
C  52.94700 18.22000 29.21800
C  52.76400 17.55400 25.99700
O  52.74100 17.07200 24.88500
C  53.95400 18.43900 26.27000
N  47.44300 15.63900 26.54200
C  48.43200 15.64400 25.53300
C  47.97500 15.17000 24.20300
C  46.58200 14.56300 24.55600
C  46.39400 14.96900 26.01000
C  48.05800 16.31500 23.20900
C  46.46900 13.02400 24.43500
C  45.99100 12.51300 23.03400
N  45.84700 15.67900 28.88200
C  44.93300 15.07400 28.10100
C  43.77700 14.74800 28.86800
C  44.03900 15.02500 30.21700
C  45.31900 15.69800 30.12000
C  42.53900 14.08200 28.25500
C  43.56600 14.90300 31.50900
O  42.57800 14.34200 31.99900
C  44.73800 15.74300 32.33400
C  44.07300 16.90400 33.05800
O  44.09900 18.08300 32.79500
O  43.50400 16.41800 34.19100
C  42.87800 17.51200 34.95500
H  50.86100 18.40200 30.89400
H  50.26300 16.33300 24.76100
H  44.36400 14.39300 26.15200
H  46.84100 17.88300 33.47100
H  49.63200 17.53800 33.15800
H  48.94000 20.01700 32.12100
H  49.53400 19.55600 33.83600
H  47.83900 19.79500 33.37600
H  48.89500 15.75400 33.83100
H  47.19200 15.20300 33.68000
H  48.12000 15.84900 36.17600
H  46.39500 15.89700 35.54400
H  52.93100 17.81600 30.23000
H  52.99100 19.30700 29.27800
H  53.92100 17.97800 28.79200
H  53.56600 19.27100 26.85700
H  54.30900 18.72300 25.28000
H  54.69400 17.82000 26.77800
H  48.67600 14.42700 23.82300
H  45.80900 15.06000 23.97000
H  49.05900 16.39800 22.78500
H  47.72800 17.26100 23.63900
H  47.31800 16.01800 22.46600
H  45.82700 12.61500 25.21600
H  47.44500 12.56100 24.58100
H  46.77700 11.82300 22.72600
H  45.93000 13.28800 22.27100
H  45.05000 11.96600 22.97500
H  41.85200 13.87400 29.07500
H  42.84300 13.17500 27.73200
H  41.99000 14.72000 27.56300
H  45.04300 15.06200 33.12800
H  42.05500 17.84300 34.32100
H  43.61800 18.29000 35.14300
H  42.44800 17.14200 35.88600

