158

Mg -1.38000 16.93800 26.45300
C  -1.88100 14.67300 29.19600
C  -2.08500 19.47400 28.70000
C  -1.41000 19.06200 23.90600
C  -1.79800 14.19300 24.28000
N  -1.77600 17.04500 28.66700
C  -1.80100 16.05000 29.59100
C  -2.05800 16.57500 31.09400
C  -2.40000 18.08900 30.84300
C  -2.07400 18.18800 29.34700
C  -3.92300 18.34100 31.11000
C  -0.76800 16.34500 31.95000
C  -0.46200 17.38300 33.04200
H  0.10600 16.73800 34.27400
N  -1.54200 18.96500 26.32500
C  -1.78900 19.87200 27.37200
C  -1.69300 21.22000 26.88700
C  -1.25400 21.09900 25.50300
C  -1.30700 19.65700 25.18800
C  -1.98200 22.44500 27.79100
C  -0.96400 22.16300 24.47800
O  -0.42500 21.88200 23.40000
C  -1.20900 23.59600 24.95500
N  -1.46300 16.62000 24.39200
C  -1.45800 17.74600 23.56900
C  -1.67500 17.24800 22.09500
C  -1.43600 15.71900 22.28800
C  -1.56000 15.47100 23.71400
C  -3.15400 17.55300 21.61600
C  -0.02200 15.32500 21.69100
C  0.05300 13.89000 21.09900
N  -1.75600 14.87100 26.57100
C  -1.90500 13.88800 25.65900
C  -2.25200 12.61500 26.30100
C  -2.17800 12.89500 27.64300
C  -1.87500 14.26400 27.82100
C  -2.49900 11.33100 25.60000
C  -2.47300 12.34400 28.96200
O  -2.76600 11.19200 29.26800
C  -2.29500 13.52600 30.05600
C  -1.31000 13.21200 31.03800
O  -0.11300 13.10500 30.87200
O  -1.88700 12.93600 32.28100
C  -0.95200 12.36000 33.27700
H  -2.14400 20.23800 29.47800
H  -1.47300 19.72400 23.03900
H  -1.95400 13.38300 23.56600
H  -2.87000 16.06600 31.61300
H  -1.67200 18.71200 31.36300
H  -4.58500 18.08500 30.28300
H  -4.03000 19.42300 31.19200
H  -4.30800 17.78700 31.96600
H  0.07300 16.23200 31.26600
H  -1.02600 15.39600 32.42100
H  -1.42000 17.82300 33.31900
H  0.23900 18.14100 32.69400
H  -2.30900 22.12800 28.78100
H  -2.68300 23.13200 27.31800
H  -0.98800 22.87400 27.92300
H  -1.44000 24.22100 24.09300
H  -0.27800 23.92600 25.41700
H  -1.99900 23.80300 25.67700
H  -0.89600 17.71700 21.49300
H  -2.20600 15.20900 21.70900
H  -3.63700 16.75100 21.05900
H  -3.03800 18.46600 21.03200
H  -3.86100 17.74500 22.42300
H  0.69200 15.31400 22.51400
H  0.27600 16.03900 20.92200
H  0.28500 13.96000 20.03700
H  -0.79500 13.23000 21.27900
H  0.88300 13.41700 21.62400
H  -2.67000 11.40300 24.52600
H  -3.35400 10.96900 26.16900
H  -1.69800 10.61000 25.76200
H  -3.23300 13.81300 30.53000
H  -0.77800 13.15100 34.00700
H  0.02500 11.95900 33.00600
H  -1.57800 11.63800 33.80200
Mg 53.16700 23.98800 44.67100
C  50.52400 26.25600 43.89200
C  51.34000 21.56400 43.30400
C  56.05200 22.31000 44.45000
C  55.02200 26.95900 45.37700
N  51.16100 23.93000 43.81000
C  50.28200 24.96000 43.53900
C  48.99500 24.37100 42.90100
C  49.08000 22.85900 43.33000
C  50.62200 22.73300 43.45200
C  48.41800 22.59600 44.78400
C  48.83100 24.73100 41.38000
C  50.16200 24.70700 40.52300
H  50.92200 23.39700 40.26100
N  53.56700 22.09700 44.08000
C  52.66800 21.22800 43.61300
C  53.33300 19.99000 43.45800
C  54.72300 20.11400 43.71700
C  54.85400 21.55000 44.16000
C  52.61400 18.74000 42.88100
C  55.86600 19.04300 43.64900
O  55.62600 18.00000 43.13000
C  57.18200 19.18300 44.24100
N  55.25600 24.52100 44.88200
C  56.25600 23.64800 44.75000
C  57.65300 24.38700 44.74500
C  57.29200 25.86300 45.06400
C  55.75200 25.82100 45.13600
C  58.65900 23.75700 45.83600
C  57.80000 26.92300 44.09500
C  57.20800 27.11700 42.63800
N  52.85500 26.23300 44.83000
C  53.63600 27.20300 45.30800
C  52.81700 28.46900 45.47500
C  51.57900 28.14000 44.86200
C  51.65800 26.77000 44.48500
C  53.28900 29.71800 46.16400
C  50.23400 28.56000 44.49500
O  49.77800 29.70100 44.53000
C  49.59300 27.43700 43.75100
C  49.40900 27.91900 42.36800
O  50.22000 27.80800 41.44800
O  48.11900 28.39000 42.20400
C  47.79800 28.85900 40.82000
H  50.69100 20.74400 42.99100
H  57.03000 21.83100 44.54000
H  55.53200 27.91700 45.26000
H  48.11900 24.83200 43.35900
H  48.70900 22.15800 42.58300
H  48.96800 23.25200 45.45900
H  48.65000 21.57100 45.07400
H  47.33700 22.70100 44.70000
H  48.17400 25.56900 41.14500
H  48.33500 23.90900 40.86600
H  50.77500 25.37100 41.13200
H  49.91600 25.11800 39.54400
H  51.52900 18.76300 42.98200
H  52.83200 17.82700 43.43600
H  52.66500 18.58700 41.80300
H  57.77000 19.78800 43.55000
H  57.64500 18.19700 44.23700
H  57.08000 19.58200 45.25000
H  58.10700 24.35800 43.75400
H  57.58400 26.06200 46.09500
H  58.14400 22.87000 46.20400
H  58.84200 24.41100 46.68800
H  59.60200 23.45400 45.38100
H  58.85000 26.78200 43.84000
H  57.88100 27.86800 44.63100
H  56.88500 28.14900 42.50800
H  56.43500 26.37000 42.45300
H  57.94800 27.05700 41.84000
H  53.64100 30.34600 45.34600
H  54.07800 29.51400 46.88700
H  52.39600 30.23600 46.51500
H  48.59900 27.20900 44.13400
H  46.84400 29.37300 40.69600
H  47.87500 28.03600 40.11000
H  48.58400 29.55900 40.53700

