158

Mg 30.20300 58.91800 40.68200
C  27.42000 57.10700 39.67200
C  32.31700 56.73700 39.23000
C  32.69100 61.34100 41.01200
C  27.81800 61.56000 41.67800
N  29.88300 57.18600 39.54500
C  28.71000 56.53600 39.34500
C  28.95100 55.33500 38.42800
C  30.48200 54.98200 38.62100
C  30.95400 56.35700 39.16400
C  30.79500 53.76400 39.48500
C  28.48700 55.65900 36.99000
C  27.55700 54.61500 36.28900
H  27.71800 54.50800 34.75600
N  32.29500 58.98800 40.13500
C  32.94100 57.94900 39.59300
C  34.30100 58.34900 39.35400
C  34.49200 59.67100 39.91400
C  33.08700 60.09700 40.40200
C  35.29000 57.56800 38.57400
C  35.82800 60.44900 39.86100
O  36.84200 59.86200 39.48000
C  35.87100 61.94300 39.98900
N  30.24600 61.15600 41.13800
C  31.41700 61.84900 41.25000
C  31.22700 63.24000 41.83500
C  29.67800 63.36500 42.13900
C  29.19100 61.95000 41.64800
C  32.08500 63.42800 43.25500
C  28.92300 64.57400 41.52700
C  28.25600 65.53000 42.55700
N  28.08200 59.23100 40.85600
C  27.32300 60.33200 41.17900
C  25.91200 59.96300 41.09800
C  25.95800 58.65700 40.59100
C  27.26000 58.33700 40.38900
C  24.82200 60.64800 41.66900
C  25.07800 57.55700 40.19100
O  23.87600 57.31800 40.30300
C  26.04200 56.54600 39.47800
C  25.72300 55.22800 40.00800
O  26.39000 54.68400 40.91100
O  24.63400 54.67300 39.39400
C  24.13300 53.37100 39.75500
H  32.81700 55.94100 38.67400
H  33.51000 62.01300 41.28000
H  27.02300 62.25600 41.95300
H  28.33100 54.49100 38.73100
H  30.97800 54.88700 37.65500
H  31.61400 53.18300 39.06200
H  29.96100 53.07500 39.62500
H  31.20400 54.16000 40.41400
H  29.34100 55.76800 36.32200
H  28.03000 56.64300 37.08900
H  26.56200 54.99200 36.52500
H  27.54100 53.61100 36.71300
H  36.18100 57.38900 39.17600
H  35.52800 58.01100 37.60600
H  34.75000 56.63500 38.41200
H  35.10700 62.40900 39.36700
H  36.85200 62.29800 39.67200
H  35.77500 62.27500 41.02300
H  31.45200 63.98300 41.07000
H  29.51700 63.34100 43.21600
H  32.05900 62.51800 43.85500
H  31.73300 64.30100 43.80400
H  33.11300 63.60500 42.93900
H  28.11900 64.19400 40.89600
H  29.55300 65.23100 40.92800
H  28.30800 66.55500 42.18900
H  28.81100 65.54700 43.49600
H  27.22700 65.24900 42.77800
H  25.19300 61.27000 42.48300
H  23.99000 60.03200 42.01100
H  24.45200 61.25900 40.84600
H  25.73900 56.51700 38.43100
H  24.76000 52.96200 40.54700
H  23.92300 52.70400 38.91800
H  23.14400 53.54800 40.17900
Mg -11.21800 16.99500 41.97500
C  -7.76500 16.74900 42.32600
C  -10.80200 20.46200 41.46800
C  -14.52700 17.25400 41.45200
C  -11.38600 13.49000 42.06100
N  -9.45000 18.38900 41.84700
C  -8.11400 18.05100 42.05000
C  -7.22700 19.28500 42.02300
C  -8.28500 20.49000 42.21800
C  -9.61100 19.72700 41.82700
C  -8.28100 21.04300 43.71900
C  -6.45300 19.38000 40.62900
C  -4.92300 19.43300 40.74600
H  -4.21400 18.59400 39.69700
N  -12.48900 18.64200 41.57200
C  -12.09500 19.91900 41.27300
C  -13.23700 20.69400 40.88000
C  -14.36500 19.86800 41.10600
C  -13.86100 18.52100 41.43800
C  -13.13000 22.13000 40.37200
C  -15.80700 20.32500 41.10100
O  -16.16800 21.49600 40.87000
C  -16.90400 19.34800 41.56200
N  -12.70100 15.49600 41.50800
C  -14.03200 15.95700 41.62300
C  -14.87700 14.72100 41.71100
C  -13.90100 13.49500 41.92600
C  -12.57900 14.20500 41.79100
C  -16.04900 14.73200 42.72000
C  -14.11600 12.21600 41.06000
C  -14.63800 10.89900 41.68500
N  -9.88400 15.40800 42.17200
C  -10.11000 14.09500 42.14400
C  -8.85800 13.40200 42.45100
C  -7.89700 14.42300 42.56200
C  -8.60300 15.61500 42.36100
C  -8.64500 11.88600 42.57700
C  -6.47100 14.67800 42.75800
O  -5.51100 13.95400 42.96900
C  -6.40700 16.27000 42.70100
C  -5.88400 16.73200 44.01100
O  -6.57700 16.97100 44.95900
O  -4.46100 16.70500 44.05400
C  -3.84700 16.99600 45.33700
H  -10.65800 21.53000 41.29500
H  -15.60500 17.39100 41.34200
H  -11.59900 12.42800 42.19800
H  -6.50700 19.34000 42.84000
H  -8.05000 21.21700 41.44000
H  -7.49400 20.64300 44.35700
H  -9.26500 20.90900 44.16800
H  -8.17000 22.11400 43.54600
H  -6.62400 20.33600 40.13600
H  -6.81300 18.62900 39.92600
H  -4.66800 19.15000 41.76700
H  -4.48800 20.41800 40.58100
H  -13.42500 22.71600 41.24300
H  -13.75100 22.36600 39.50800
H  -12.10400 22.40000 40.12300
H  -17.68500 19.98100 41.98200
H  -16.47900 18.94500 42.48100
H  -17.12500 18.54600 40.85700
H  -15.35700 14.71300 40.73200
H  -14.11700 13.15400 42.93900
H  -16.17900 13.72400 43.11500
H  -16.94900 15.07900 42.21300
H  -15.83400 15.54700 43.41000
H  -13.23800 11.91800 40.48700
H  -14.82500 12.35200 40.24400
H  -14.67800 10.01300 41.05100
H  -15.55000 11.03400 42.26600
H  -13.89300 10.67300 42.44700
H  -9.64100 11.49800 42.78700
H  -7.92000 11.58400 43.33400
H  -8.23200 11.42400 41.68100
H  -5.67100 16.56100 41.95200
H  -4.50400 16.83800 46.19200
H  -3.30100 17.93100 45.21400
H  -3.06700 16.23600 45.37400

