158

Mg 46.04300 25.05700 28.52400
C  46.90700 27.06500 31.17700
C  45.12300 22.58200 30.72600
C  46.02600 22.82000 25.93400
C  47.33900 27.50800 26.43200
N  46.31200 24.76300 30.73200
C  46.49000 25.83300 31.64300
C  45.85800 25.40500 33.02500
C  45.40000 23.93800 32.81400
C  45.59700 23.73600 31.33200
C  46.27500 22.97500 33.69300
C  44.69300 26.27700 33.53800
C  44.94100 26.83000 34.98700
H  43.73100 26.86200 35.96800
N  45.62500 22.96300 28.37000
C  45.23600 22.15800 29.37100
C  44.73300 20.89100 28.81200
C  45.04300 20.89900 27.36800
C  45.56300 22.27300 27.15600
C  44.13700 19.75200 29.68000
C  45.01300 19.70300 26.39000
O  45.44900 19.78200 25.20300
C  44.52400 18.35400 26.79800
N  46.54000 25.09800 26.50500
C  46.44300 24.10500 25.60300
C  46.71700 24.60700 24.17600
C  46.76300 26.16800 24.28700
C  46.89800 26.25900 25.86200
C  48.04400 23.87300 23.46300
C  45.58600 26.99300 23.65400
C  44.21600 26.73900 24.33900
N  46.86900 26.98600 28.68900
C  47.33200 27.85400 27.70800
C  47.80600 29.09500 28.34200
C  47.65600 28.79100 29.69900
C  47.16700 27.52700 29.85600
C  48.45200 30.34100 27.70400
C  47.92900 29.28400 31.00400
O  48.32200 30.33200 31.48900
C  47.41700 28.15400 32.00500
C  48.48400 27.76900 33.05100
O  49.36200 26.95100 32.84800
O  48.23700 28.44100 34.18900
C  49.01700 28.01800 35.38700
H  44.66300 21.93500 31.47600
H  46.14500 22.12800 25.09700
H  47.58700 28.33800 25.76600
H  46.59800 25.47000 33.82300
H  44.35800 23.71400 33.04000
H  45.70600 22.04900 33.76600
H  46.47600 23.35900 34.69400
H  47.24000 22.81000 33.21600
H  43.74000 25.74800 33.55100
H  44.66300 27.12900 32.85900
H  45.17500 27.89200 34.91300
H  45.75600 26.29100 35.47100
H  43.20800 19.36300 29.26400
H  43.74200 20.22600 30.57800
H  44.87100 19.06000 30.09300
H  43.44000 18.27000 26.87200
H  45.09500 18.13700 27.70100
H  44.84200 17.60600 26.07200
H  45.90100 24.30500 23.51900
H  47.75000 26.48600 23.95000
H  47.89600 23.69000 22.39900
H  48.31100 22.93900 23.95700
H  48.90100 24.54700 23.44700
H  45.49700 26.83200 22.58000
H  45.76400 28.06600 23.71300
H  43.63100 26.18200 23.60700
H  43.90700 27.77000 24.51300
H  44.26400 26.16200 25.26300
H  47.68700 30.84000 27.10900
H  49.27800 29.99600 27.08300
H  48.90200 31.06600 28.38200
H  46.61800 28.54100 32.63700
H  48.23600 27.81000 36.11900
H  49.49900 28.88300 35.84300
H  49.72200 27.20100 35.23300
Mg 46.58000 45.65400 44.42900
C  43.25900 45.05800 43.30700
C  47.41700 42.61100 42.98300
C  49.73400 46.48600 44.88200
C  45.58900 49.00500 44.88700
N  45.46500 44.06200 43.25700
C  44.14700 44.08900 42.91900
C  43.78400 42.86600 42.10700
C  45.04700 41.97900 42.21700
C  46.05200 42.94600 42.80400
C  44.85100 40.65500 43.00200
C  43.35400 43.13100 40.64900
C  42.14500 42.30500 40.08900
H  42.51400 41.28200 38.98600
N  48.36800 44.56300 44.17700
C  48.53900 43.36600 43.59800
C  49.88800 42.96800 43.75900
C  50.59300 44.14600 44.28900
C  49.55600 45.14800 44.51600
C  50.47200 41.54900 43.28400
C  52.07700 44.17000 44.43100
O  52.74100 43.16900 44.22900
C  52.89600 45.35900 44.81300
N  47.52100 47.46900 44.62100
C  48.84700 47.53100 44.93700
C  49.23700 49.00200 45.13100
C  47.98200 49.79300 45.17900
C  46.91800 48.72400 44.88200
C  50.16000 49.34300 46.39600
C  47.94600 51.10300 44.31500
C  47.98700 50.86100 42.70400
N  44.75900 46.78000 44.31900
C  44.52400 48.13100 44.56500
C  43.07400 48.37300 44.53500
C  42.57000 47.11100 44.12800
C  43.64800 46.17800 43.98200
C  42.31000 49.56200 44.96900
C  41.35300 46.37400 43.84800
O  40.15800 46.71800 44.01700
C  41.75900 45.01100 43.26700
C  41.12400 43.97000 44.13500
O  40.21900 43.24600 43.81600
O  41.61800 43.95400 45.43500
C  41.04500 42.92700 46.36600
H  47.62200 41.63900 42.53000
H  50.71700 46.75700 45.27100
H  45.19300 50.02100 44.95200
H  42.93500 42.45000 42.64900
H  45.37500 41.62600 41.23900
H  45.64800 40.56200 43.73900
H  44.87600 39.74900 42.39700
H  43.89500 40.49500 43.50000
H  44.26400 42.98200 40.06900
H  43.06700 44.18200 40.60800
H  41.44500 42.94000 39.54600
H  41.47200 41.88800 40.83900
H  51.39200 41.69700 42.72000
H  49.75500 40.96000 42.71100
H  50.65800 40.81900 44.07100
H  52.72900 46.24100 44.19400
H  53.96400 45.14400 44.84300
H  52.66400 45.74300 45.80600
H  49.78800 49.39300 44.27600
H  47.82000 50.13000 46.20300
H  51.20100 49.42800 46.08400
H  50.03700 48.44800 47.00600
H  49.81100 50.28300 46.82300
H  48.89900 51.56800 44.56800
H  47.09800 51.70300 44.64400
H  48.87700 51.38800 42.36200
H  47.07200 51.26600 42.27200
H  48.04700 49.79600 42.47600
H  42.54500 49.86000 45.99100
H  41.24500 49.33100 44.94800
H  42.48900 50.32500 44.21200
H  41.31900 44.89800 42.27700
H  41.63800 43.04300 47.27400
H  41.22900 41.88400 46.10900
H  40.05200 43.30000 46.62000

