158

Mg 25.13600 1.36700 29.38200
C  27.24200 1.22300 32.12500
C  22.44300 1.64900 31.61100
C  23.08500 0.69100 26.78800
C  27.95000 0.63500 27.30400
N  24.86900 1.58400 31.63000
C  25.92500 1.52500 32.51700
C  25.39000 1.69000 33.93000
C  23.87000 1.69400 33.83000
C  23.69600 1.60400 32.26700
C  23.14500 0.47200 34.55700
C  26.00600 2.87100 34.67900
C  26.59800 2.54300 36.11300
H  26.06400 3.51000 37.23000
N  23.08700 1.31100 29.23400
C  22.14000 1.42300 30.29600
C  20.81300 1.36600 29.66300
C  20.94600 1.08100 28.22500
C  22.42600 0.98100 28.01500
C  19.58900 1.63700 30.46400
C  19.85700 1.04600 27.11000
O  20.12400 0.75600 25.95100
C  18.43000 1.23700 27.38400
N  25.48700 0.67800 27.36100
C  24.43300 0.52200 26.52400
C  24.87400 0.39800 25.04800
C  26.45100 0.42200 25.18400
C  26.66900 0.66800 26.68800
C  24.39700 -0.98200 24.40300
C  27.12300 1.53700 24.37100
C  26.84800 3.05700 24.77700
N  27.15800 1.10100 29.61300
C  28.18000 0.81300 28.73400
C  29.42100 0.65500 29.38800
C  29.11400 0.80600 30.74200
C  27.73100 1.13300 30.84900
C  30.73200 0.20600 28.83700
C  29.68700 0.84300 32.08000
O  30.86400 0.78400 32.45200
C  28.41200 0.91200 33.00000
C  28.21900 -0.23700 33.85200
O  27.53600 -1.21100 33.62300
O  28.90800 0.00900 35.04800
C  28.81000 -1.02600 36.08500
H  21.63000 1.84700 32.31300
H  22.49900 0.46100 25.89500
H  28.80000 0.28600 26.71400
H  25.74400 0.79700 34.44400
H  23.49800 2.63400 34.23700
H  22.64500 0.85100 35.44800
H  23.88100 -0.23700 34.93600
H  22.43100 -0.03900 33.91100
H  25.37600 3.76100 34.68600
H  26.87500 3.11300 34.06700
H  27.65800 2.74200 35.96000
H  26.45700 1.47400 36.27500
H  19.69500 1.51100 31.54100
H  18.74900 0.97500 30.25300
H  19.24200 2.64800 30.24800
H  18.31300 2.23700 27.80000
H  18.26900 0.49800 28.16900
H  17.82400 1.00300 26.50800
H  24.45400 1.27700 24.56000
H  26.95400 -0.50600 24.91200
H  23.83800 -0.75600 23.49600
H  23.92200 -1.43700 25.27200
H  25.23400 -1.56400 24.01600
H  26.89500 1.35200 23.32200
H  28.19500 1.42200 24.53400
H  26.68400 3.65000 23.87800
H  27.71100 3.42000 25.33500
H  25.90300 3.18200 25.30600
H  30.57400 -0.22300 27.84700
H  31.14600 -0.53700 29.51800
H  31.38500 1.07200 28.73500
H  28.67700 1.70300 33.70100
H  28.97600 -1.97300 35.57200
H  27.82700 -0.85500 36.52300
H  29.64200 -0.80700 36.75400
Mg 0.91300 42.91600 26.93600
C  2.44500 43.16300 30.02500
C  -1.89600 41.80900 28.45800
C  -0.17900 42.29500 23.88700
C  4.03800 43.94700 25.39200
N  0.41300 42.46600 29.07700
C  1.19000 42.73800 30.19700
C  0.39300 42.48000 31.47200
C  -0.99200 41.88400 30.96800
C  -0.83600 42.08300 29.41200
C  -1.29300 40.47400 31.48400
C  0.26500 43.70900 32.52100
C  0.34300 43.25100 34.07100
H  -0.84800 43.34500 35.00700
N  -0.78200 42.17300 26.26900
C  -1.84200 41.70400 27.03200
C  -2.92800 41.29000 26.24400
C  -2.54500 41.62100 24.87600
C  -1.02400 41.95000 24.95300
C  -4.25400 40.76100 26.79700
C  -3.32300 41.59900 23.59000
O  -2.92500 41.93400 22.50300
C  -4.69400 41.09700 23.64900
N  1.82200 43.35000 24.89800
C  1.10600 42.85000 23.80200
C  1.82300 43.09000 22.52200
C  3.09200 43.81700 23.04700
C  3.02300 43.71900 24.51800
C  2.14000 41.66800 21.82800
C  3.31700 45.21800 22.37900
C  3.75700 45.27200 20.91200
N  2.89700 43.42400 27.50500
C  4.00700 43.79500 26.78700
C  5.11100 43.91400 27.73800
C  4.57500 43.58100 29.01300
C  3.17200 43.39200 28.85800
C  6.61700 44.18600 27.49200
C  4.86500 43.41900 30.38500
O  5.92900 43.45200 31.01200
C  3.51500 43.21900 31.16600
C  3.56200 42.00100 31.97200
O  3.43600 40.83100 31.61300
O  4.01300 42.37100 33.16000
C  4.36100 41.34000 34.14600
H  -2.71000 41.31900 28.99500
H  -0.59700 42.08200 22.90100
H  4.92600 44.17900 24.80100
H  0.81600 41.72500 32.13500
H  -1.79000 42.58400 31.21600
H  -1.73200 39.89100 30.67400
H  -2.06400 40.60000 32.24400
H  -0.43600 39.95800 31.91700
H  -0.70800 44.16000 32.32500
H  0.97600 44.48900 32.25100
H  1.16400 43.82500 34.50100
H  0.82300 42.28600 34.23500
H  -4.32000 40.51700 27.85700
H  -4.51700 39.81900 26.31500
H  -5.03300 41.50900 26.65200
H  -5.38400 41.69700 24.24400
H  -4.67700 40.06800 24.00800
H  -5.08400 40.94100 22.64300
H  1.41900 43.74400 21.74900
H  3.90200 43.18400 22.68500
H  2.36500 41.00500 22.66400
H  3.02500 41.72600 21.19500
H  1.31100 41.23500 21.26900
H  3.96700 45.85500 22.98000
H  2.31400 45.61800 22.52700
H  4.72700 45.77000 20.92800
H  3.00500 45.84700 20.37100
H  3.80100 44.24500 20.55000
H  6.73400 45.14400 27.99800
H  6.79600 44.33200 26.42600
H  7.14100 43.24700 27.67100
H  3.31900 44.15300 31.69300
H  5.40400 41.02800 34.20400
H  3.68300 40.48800 34.16900
H  4.18400 41.72300 35.15100

