158

Mg 23.43600 -6.36400 45.19300
C  25.72800 -4.15900 43.83800
C  20.94400 -4.84900 43.23700
C  21.38300 -9.14300 45.46800
C  25.99700 -7.97500 46.85900
N  23.33100 -4.45500 43.85700
C  24.47300 -3.81300 43.43500
C  24.07700 -2.79100 42.39000
C  22.47300 -2.84500 42.46400
C  22.25100 -4.15000 43.21500
C  21.85900 -1.67100 43.32900
C  24.63500 -3.26200 41.11100
C  25.48200 -2.23000 40.31200
H  25.08400 -1.94500 38.86500
N  21.46000 -6.91100 44.52400
C  20.64700 -6.14400 43.82000
C  19.32600 -6.78000 43.64900
C  19.56700 -8.10400 43.99900
C  20.86500 -8.15200 44.67200
C  18.17100 -6.08800 42.88800
C  18.51700 -9.19900 43.68300
O  17.31300 -8.92100 43.37800
C  18.82400 -10.62100 44.13300
N  23.69600 -8.28200 45.93200
C  22.64800 -9.17400 46.07300
C  23.15300 -10.43600 46.91200
C  24.58700 -9.99300 47.42000
C  24.79600 -8.69200 46.67500
C  22.32600 -10.82800 48.12000
C  25.74500 -11.01600 47.32500
C  26.62000 -11.26600 48.58600
N  25.48300 -6.06700 45.41000
C  26.38700 -6.80100 46.17900
C  27.73200 -6.29800 45.96700
C  27.50100 -5.27500 45.03700
C  26.15600 -5.18400 44.73000
C  29.03800 -6.83500 46.59900
C  28.14700 -4.17800 44.31400
O  29.32700 -3.90900 44.18200
C  26.97100 -3.45700 43.41400
C  27.05600 -2.01500 43.97000
O  26.63900 -1.55000 45.05000
O  27.85200 -1.27400 43.12800
C  27.94400 0.19300 43.36900
H  20.25200 -4.31300 42.58400
H  20.87000 -10.10600 45.51600
H  26.73900 -8.50100 47.46400
H  24.38900 -1.77100 42.61700
H  21.99400 -2.83000 41.48500
H  22.53800 -0.89200 43.67400
H  21.36600 -2.04100 44.22800
H  21.05600 -1.16700 42.79100
H  23.79700 -3.47300 40.44600
H  25.23400 -4.17000 41.18000
H  26.55000 -2.44900 40.28900
H  25.36900 -1.25300 40.78200
H  17.95100 -6.56600 41.93400
H  18.34100 -5.02700 42.70200
H  17.19400 -6.20800 43.35600
H  18.14500 -11.27900 43.59100
H  18.68600 -10.76400 45.20500
H  19.85400 -10.80000 43.82700
H  23.26700 -11.32600 46.29300
H  24.51500 -9.70000 48.46700
H  21.63000 -10.02400 48.36000
H  22.92800 -11.19000 48.95300
H  21.80500 -11.73300 47.80700
H  26.41100 -10.66400 46.53700
H  25.38600 -12.03100 47.15500
H  26.60300 -12.34900 48.71000
H  26.13200 -10.85800 49.47100
H  27.52700 -10.66400 48.53600
H  29.22300 -7.79400 46.11500
H  28.88300 -7.01000 47.66300
H  29.90800 -6.22400 46.35800
H  27.18900 -3.41500 42.34700
H  27.72500 0.37900 44.42100
H  27.29000 0.62000 42.60900
H  28.93100 0.63700 43.24700
Mg 27.16100 50.48200 26.07600
C  25.07900 51.51400 28.68600
C  29.50600 49.71700 28.40600
C  29.28300 49.98300 23.47200
C  24.69200 51.47300 23.82900
N  27.14900 50.42200 28.34500
C  26.27500 51.00400 29.17500
C  26.64700 50.76300 30.66200
C  28.24300 50.39900 30.48600
C  28.33600 50.19500 29.01100
C  29.09700 51.59900 30.99800
C  25.80300 49.64800 31.34800
C  25.22600 50.05800 32.71600
H  25.47800 49.17900 33.95300
N  29.07600 49.86600 25.93900
C  29.89000 49.60300 27.04300
C  31.20900 49.15800 26.57400
C  31.22000 49.23100 25.14500
C  29.80900 49.73700 24.81000
C  32.38100 48.83300 27.50200
C  32.27700 48.81700 24.14800
O  32.14000 49.00200 22.92600
C  33.61500 48.25800 24.55100
N  27.06600 50.77900 23.88500
C  28.01800 50.40600 23.06100
C  27.50200 50.19600 21.60900
C  25.99500 50.55800 21.81100
C  25.92800 51.00100 23.23800
C  28.22600 50.99200 20.51400
C  24.88800 49.60300 21.27200
C  23.99800 50.15200 20.13200
N  25.37400 51.41400 26.16900
C  24.39300 51.72700 25.20400
C  23.20900 52.32700 25.76000
C  23.40300 52.19800 27.09800
C  24.72500 51.62300 27.30900
C  22.00300 52.87700 25.05000
C  22.78600 52.48700 28.43100
O  21.69300 52.86100 28.85000
C  23.86100 52.02600 29.48700
C  24.26800 53.21200 30.37600
O  25.15900 53.95300 30.11500
O  23.69200 53.13800 31.60900
C  23.88000 54.29600 32.54500
H  30.36600 49.49200 29.04000
H  29.98200 49.72800 22.67400
H  23.86600 51.62800 23.13100
H  26.34600 51.62400 31.26000
H  28.43000 49.50400 31.07900
H  29.92400 51.76000 30.30700
H  29.40900 51.35900 32.01500
H  28.45000 52.46900 30.88700
H  26.44000 48.78000 31.51700
H  24.97100 49.30700 30.73200
H  24.14700 50.02900 32.56300
H  25.45300 51.07800 33.02500
H  33.13100 48.11900 27.16000
H  31.99000 48.63800 28.50000
H  32.94100 49.76700 27.54000
H  34.23300 48.80700 25.26100
H  34.14400 48.06500 23.61800
H  33.51300 47.27900 25.02100
H  27.56700 49.12000 21.44500
H  25.84000 51.49400 21.27500
H  29.06800 51.57400 20.89000
H  27.51700 51.49300 19.85400
H  28.62200 50.17200 19.91500
H  24.14700 49.45400 22.05700
H  25.36700 48.69700 20.89900
H  24.26800 51.10900 19.68600
H  22.93100 50.25000 20.32900
H  24.06800 49.51500 19.25000
H  22.34500 52.98600 24.02100
H  21.85000 53.87800 25.45200
H  21.12400 52.24300 24.94000
H  23.59900 51.24600 30.20100
H  24.12700 55.22600 32.03200
H  24.63600 54.15200 33.31700
H  22.95900 54.50900 33.08700

