158

Mg 47.06400 24.96500 28.31800
C  48.29800 27.05600 30.74200
C  46.23100 22.73300 30.81300
C  46.41400 22.67700 25.95100
C  48.06400 27.16300 25.89300
N  47.18800 24.91500 30.55100
C  47.76800 25.90700 31.33600
C  47.62200 25.62900 32.87000
C  47.07500 24.11500 32.85000
C  46.84200 23.86800 31.30500
C  48.04900 23.15700 33.50000
C  46.60600 26.67000 33.53700
C  47.21100 27.36900 34.75100
H  46.36300 27.48700 35.94700
N  46.46100 22.93500 28.37500
C  46.12800 22.22900 29.52100
C  45.66100 20.86900 29.15400
C  45.79200 20.84700 27.72700
C  46.27300 22.18700 27.29400
C  45.29600 19.74300 30.20800
C  45.62200 19.67600 26.73800
O  45.74200 19.78100 25.50600
C  45.42100 18.27400 27.23500
N  47.33400 24.89000 26.22200
C  46.87900 23.95200 25.48400
C  46.71500 24.29600 24.00200
C  47.07700 25.83000 24.05500
C  47.49700 25.99500 25.45200
C  47.80200 23.56900 23.09900
C  45.85900 26.75400 23.74900
C  46.00400 27.68600 22.50400
N  48.00600 26.79600 28.26800
C  48.35000 27.56700 27.23700
C  49.12400 28.71600 27.71100
C  48.96500 28.64800 29.08500
C  48.44100 27.39500 29.36200
C  49.63800 29.80600 26.85900
C  49.22300 29.32900 30.34700
O  49.66900 30.45000 30.59300
C  48.86800 28.26700 31.48100
C  50.00900 27.94000 32.35700
O  50.84400 27.02800 32.13800
O  50.05400 28.71600 33.42400
C  51.13100 28.46700 34.42000
H  45.99100 21.93700 31.52100
H  45.98900 22.04600 25.16800
H  48.31700 27.80900 25.05000
H  48.62900 25.70000 33.27900
H  46.07600 24.11100 33.28500
H  48.47600 22.45800 32.78100
H  47.45400 22.47000 34.10200
H  48.82000 23.64700 34.09600
H  45.71300 26.21600 33.96600
H  46.39600 27.51200 32.87800
H  47.33800 28.42700 34.52100
H  48.21300 26.96200 34.88500
H  45.30800 20.13100 31.22600
H  46.11400 19.02700 30.12100
H  44.26600 19.58200 29.89000
H  46.39600 17.96800 27.61400
H  45.07300 17.57900 26.47000
H  44.67500 18.26500 28.03000
H  45.69700 24.02300 23.72200
H  47.94800 26.06700 23.44400
H  47.44700 22.54200 23.02000
H  48.72700 23.75400 23.64600
H  47.75500 24.02000 22.10800
H  45.27200 27.15900 24.57300
H  45.15500 26.05900 23.29100
H  45.44000 28.59700 22.70300
H  45.48900 27.15100 21.70600
H  47.01700 27.92800 22.18200
H  49.79500 29.63400 25.79400
H  50.64400 30.12600 27.13100
H  48.94800 30.63400 27.02200
H  48.18900 28.74700 32.18500
H  51.98400 28.00300 33.92600
H  50.85800 27.73200 35.17700
H  51.54700 29.33400 34.93500
Mg 41.63200 40.58500 27.03400
C  40.95200 43.23300 29.49900
C  42.52700 38.69700 29.54200
C  42.68200 38.60600 24.65500
C  40.98100 43.17500 24.46500
N  41.83000 41.02600 29.34400
C  41.41500 42.03000 30.09700
C  41.40000 41.71800 31.61900
C  42.04100 40.21000 31.55600
C  42.06500 39.91000 30.03800
C  43.43200 40.09600 32.29600
C  39.92400 41.87900 32.23300
C  39.74200 42.68500 33.50800
H  39.07000 42.04900 34.82400
N  42.49000 38.83700 27.14300
C  42.79100 38.16800 28.26200
C  43.31200 36.88600 27.91100
C  43.20500 36.75900 26.48700
C  42.78100 38.10800 26.03100
C  43.81500 35.91900 28.90900
C  43.45800 35.55700 25.57300
O  43.58400 35.66100 24.33000
C  43.53800 34.22400 26.25900
N  41.81700 40.88500 24.90900
C  42.15900 39.79600 24.16200
C  42.09200 40.09500 22.63300
C  41.58400 41.56000 22.60800
C  41.47300 41.91200 24.09700
C  43.51100 39.95200 22.00400
C  40.27500 41.64100 21.70400
C  40.32200 42.53500 20.55500
N  41.20400 42.77300 26.96900
C  40.86300 43.59900 25.85500
C  40.56300 44.93300 26.41800
C  40.52700 44.80400 27.84100
C  40.93600 43.51600 28.09300
C  40.11100 46.18600 25.60500
C  40.17700 45.47500 29.03100
O  39.78200 46.64700 29.16600
C  40.37600 44.48300 30.16700
C  41.33100 45.18300 31.13300
O  42.53900 45.26200 30.97500
O  40.71700 45.80600 32.14300
C  41.59900 46.55400 33.03000
H  42.62900 37.94000 30.32300
H  43.10700 37.90900 23.93000
H  40.67900 43.85900 23.66900
H  42.05500 42.45100 32.09200
H  41.31700 39.56600 32.05400
H  43.74900 41.04300 32.73300
H  44.10400 39.61400 31.58600
H  43.43500 39.38600 33.12300
H  39.39400 40.95100 32.44800
H  39.24100 42.29300 31.49100
H  39.06300 43.44600 33.12300
H  40.67500 43.10500 33.88400
H  43.11200 35.08600 28.90400
H  43.95900 36.28500 29.92600
H  44.76100 35.53000 28.53100
H  44.49900 33.97800 26.71100
H  43.30200 33.49100 25.48800
H  42.67500 34.15500 26.92200
H  41.38700 39.33500 22.29500
H  42.40400 42.11600 22.15400
H  44.19800 40.44700 22.69000
H  43.55900 40.41500 21.01900
H  44.01400 38.98700 21.93900
H  39.38900 41.91000 22.28000
H  39.95900 40.64900 21.38000
H  39.29600 42.88700 20.44100
H  40.59900 41.88800 19.72200
H  41.03900 43.32600 20.77200
H  39.02400 46.12000 25.54900
H  40.46800 46.24700 24.57700
H  40.33200 47.12200 26.11800
H  39.39900 44.33100 30.62600
H  41.96700 46.01400 33.90200
H  41.00900 47.36300 33.46000
H  42.45000 47.01200 32.52600

