158

Mg 24.39600 -4.72900 45.64800
C  26.50700 -2.32700 44.41300
C  22.05500 -3.84600 43.06100
C  22.71800 -7.47300 46.33000
C  27.08700 -5.91000 47.77200
N  24.27500 -3.21100 43.90300
C  25.25700 -2.38300 43.67700
C  24.86900 -1.58500 42.38200
C  23.33800 -1.83200 42.25100
C  23.18200 -3.04400 43.08900
C  22.38900 -0.72000 42.78500
C  25.60300 -2.16200 41.03800
C  26.54700 -1.18200 40.42900
H  26.32700 -1.06300 38.94600
N  22.57900 -5.47600 44.89800
C  21.82800 -4.98800 43.87400
C  20.64500 -5.84200 43.81400
C  20.80200 -6.89900 44.70300
C  22.07100 -6.62700 45.39000
C  19.41800 -5.45200 42.92400
C  19.73900 -8.02200 44.91100
O  18.74900 -8.17900 44.20500
C  19.77900 -8.90400 46.16600
N  24.92900 -6.53000 46.79000
C  23.94000 -7.37000 46.94500
C  24.42800 -8.55000 47.79000
C  25.63700 -7.97800 48.54000
C  25.96200 -6.73800 47.66000
C  23.39500 -9.18100 48.84900
C  26.79700 -9.06800 48.74000
C  27.37400 -9.39000 50.11300
N  26.39200 -4.13000 46.18100
C  27.37300 -4.71500 46.99900
C  28.62600 -3.95500 46.90300
C  28.33900 -3.00000 45.85200
C  26.93900 -3.19500 45.44800
C  29.98300 -4.30700 47.66900
C  28.85100 -1.96000 45.08100
O  29.96100 -1.51300 45.07800
C  27.71000 -1.50100 44.08300
C  27.51000 -0.05000 44.31300
O  27.57300 0.51300 45.38700
O  27.50700 0.71600 43.10100
C  27.73200 2.14000 43.30000
H  21.31700 -3.68400 42.27300
H  22.17100 -8.35900 46.65800
H  27.87700 -6.07100 48.50800
H  25.21200 -0.57400 42.60000
H  23.00800 -2.01400 41.22800
H  22.96000 0.02000 43.34500
H  21.63700 -1.05700 43.49900
H  21.92600 -0.14700 41.98200
H  24.87300 -2.43900 40.27700
H  26.12500 -3.08100 41.30300
H  27.58400 -1.48800 40.56500
H  26.50000 -0.15700 40.79900
H  19.09400 -6.31300 42.33900
H  19.54100 -4.67400 42.17100
H  18.55100 -5.19100 43.53100
H  20.33700 -9.83500 46.06800
H  18.78600 -9.33200 46.30800
H  19.95400 -8.24900 47.01900
H  24.77600 -9.34300 47.12800
H  25.31000 -7.62800 49.51900
H  23.81400 -9.65400 49.73700
H  22.81000 -9.94900 48.34400
H  22.76600 -8.36800 49.21200
H  27.64300 -8.55900 48.27800
H  26.63700 -10.02400 48.24200
H  26.83000 -8.81300 50.86100
H  28.41300 -9.07100 50.20200
H  27.19700 -10.42800 50.39400
H  30.59200 -5.08200 47.20400
H  29.82100 -4.64300 48.69300
H  30.53300 -3.37600 47.81000
H  28.10400 -1.76600 43.10200
H  28.56200 2.29400 43.99000
H  26.93800 2.71500 43.77500
H  27.94000 2.57400 42.32200
Mg 25.30200 1.29300 29.89800
C  27.59900 0.91300 32.62900
C  22.90400 1.83600 32.12800
C  23.27500 1.49300 27.32400
C  28.08300 0.76900 27.75300
N  25.31200 1.29300 32.13900
C  26.34600 1.42200 32.97700
C  25.83200 1.89600 34.37600
C  24.28200 1.96500 34.20800
C  24.15400 1.71000 32.71700
C  23.58200 0.86200 35.11700
C  26.46000 3.24500 34.90900
C  26.94200 3.19600 36.39100
H  26.29800 4.18900 37.38800
N  23.30200 1.60200 29.71400
C  22.42200 1.77300 30.74700
C  21.08700 1.72900 30.29400
C  21.19200 1.73500 28.89100
C  22.65200 1.64000 28.58300
C  19.87200 1.74700 31.19300
C  20.11100 1.76800 27.83700
O  20.31700 1.69100 26.65500
C  18.68200 1.78100 28.25700
N  25.62200 1.06100 27.92600
C  24.62800 1.25400 26.99100
C  25.11900 1.23100 25.50800
C  26.60800 1.33400 25.76800
C  26.78300 1.00800 27.25200
C  24.60900 0.16200 24.54200
C  27.35700 2.59300 25.24100
C  27.32100 3.79100 26.13500
N  27.31300 0.77600 30.11400
C  28.33400 0.60500 29.11900
C  29.59200 0.39700 29.76900
C  29.31100 0.55400 31.13700
C  27.95800 0.74400 31.30900
C  30.86100 0.06800 29.07800
C  29.99700 0.64100 32.39500
O  31.14300 0.52600 32.68500
C  28.88800 0.99300 33.44000
C  29.10200 0.00900 34.50200
O  29.10500 -1.18200 34.29800
O  29.20000 0.66600 35.66200
C  29.36900 -0.04700 36.91700
H  22.14800 1.99700 32.89900
H  22.61100 1.62500 26.46700
H  28.86600 0.77700 26.99200
H  26.07700 1.14900 35.13100
H  23.94800 2.96100 34.49700
H  24.04900 -0.10800 34.94600
H  22.55600 0.76000 34.76300
H  23.57200 1.19300 36.15500
H  25.75100 4.05200 34.72500
H  27.40100 3.42900 34.38900
H  28.01300 3.39500 36.38800
H  26.73100 2.20700 36.79800
H  19.56500 2.78500 31.32100
H  20.26100 1.38200 32.14400
H  19.14600 0.98500 30.90900
H  18.51300 2.59300 28.96400
H  18.45500 0.75300 28.53800
H  18.03600 1.97900 27.40100
H  24.76200 2.13000 25.00700
H  27.11300 0.42700 25.43500
H  24.23000 -0.62700 25.19100
H  25.41200 -0.39400 24.05700
H  23.82700 0.34000 23.80400
H  26.90700 2.80000 24.27000
H  28.41000 2.35000 25.09600
H  26.85800 3.64300 27.11000
H  26.65100 4.48900 25.63200
H  28.32200 4.21700 26.20200
H  31.04100 0.13000 28.00400
H  30.99000 -0.95900 29.42000
H  31.50300 0.84700 29.48900
H  29.04100 2.01900 33.77400
H  29.43300 -1.12900 36.80300
H  28.59500 -0.01400 37.68500
H  30.30000 0.26700 37.38900

