158

Mg -0.40800 7.33500 25.65100
C  0.62900 9.03600 28.62000
C  -0.43200 4.31600 27.50700
C  -0.57800 5.56100 22.83900
C  0.79900 10.08100 23.83100
N  0.07200 6.77700 27.81900
C  0.25700 7.68900 28.84100
C  0.14600 6.96300 30.30300
C  0.14100 5.44200 29.78400
C  -0.08300 5.43300 28.30500
C  1.41700 4.73200 30.34900
C  -1.20300 7.29000 30.95000
C  -1.13600 7.62400 32.46400
H  0.14800 7.20600 33.25900
N  -0.65300 5.21900 25.26600
C  -0.68200 4.21100 26.15800
C  -1.12100 2.99900 25.42700
C  -1.22900 3.35400 24.05200
C  -0.71900 4.74000 24.03700
C  -1.38300 1.65500 26.13200
C  -1.68100 2.49600 22.82300
O  -1.88700 3.01700 21.73500
C  -1.91900 1.01300 22.93800
N  -0.02300 7.75300 23.72300
C  -0.24700 6.92600 22.69700
C  -0.06100 7.48100 21.27800
C  0.42400 8.86300 21.62800
C  0.44900 8.89000 23.13300
C  0.72500 6.66000 20.28100
C  -0.36800 9.98800 20.93200
C  -1.64700 10.35700 21.67000
N  0.48700 9.16800 26.04500
C  0.89600 10.22400 25.22000
C  1.40000 11.32000 25.99200
C  1.24600 10.86100 27.29200
C  0.80400 9.55200 27.30200
C  1.75700 12.66400 25.51500
C  1.40500 11.37900 28.61700
O  1.83500 12.49200 29.01600
C  0.85400 10.22900 29.58700
C  1.80100 9.91800 30.64300
O  2.89300 9.34300 30.50900
O  1.41500 10.63400 31.70000
C  2.27900 10.62700 32.87000
H  -0.36700 3.42100 28.12800
H  -0.86300 5.05900 21.91200
H  1.15300 10.92400 23.23400
H  1.02800 7.18200 30.90600
H  -0.68400 4.82900 30.14700
H  1.83600 4.13700 29.53800
H  1.02400 4.14400 31.17800
H  2.13700 5.41300 30.80300
H  -1.79900 6.38300 30.84700
H  -1.64300 8.16700 30.47400
H  -1.93400 6.93600 32.74700
H  -1.31800 8.69400 32.56500
H  -2.44600 1.48500 25.95800
H  -1.07000 1.47400 27.16000
H  -0.82700 0.89700 25.57900
H  -1.00100 0.60500 23.36100
H  -1.94900 0.51900 21.96600
H  -2.77500 0.90700 23.60400
H  -1.01300 7.60500 20.76100
H  1.42400 9.03100 21.23000
H  -0.13000 6.15300 19.83400
H  1.53900 6.03800 20.65200
H  1.16200 7.24300 19.47100
H  -0.68400 9.84700 19.89900
H  0.31900 10.81600 20.75800
H  -2.46700 10.53000 20.97300
H  -1.57300 11.31200 22.19000
H  -1.96900 9.50300 22.26700
H  1.19600 12.89200 24.60800
H  2.80100 12.89400 25.30300
H  1.41000 13.33200 26.30300
H  -0.12600 10.51300 29.96900
H  1.74200 11.14000 33.66800
H  3.17800 11.19100 32.62300
H  2.66300 9.64200 33.13800
Mg 29.91100 57.21600 41.11100
C  27.05000 55.82300 39.65600
C  31.83000 55.04400 39.29900
C  32.61900 59.23500 41.72300
C  27.86100 59.89500 42.31600
N  29.41400 55.66500 39.53800
C  28.22200 55.15300 39.24500
C  28.32800 53.81700 38.45600
C  29.88200 53.61800 38.35300
C  30.43500 54.82700 39.14200
C  30.45200 52.21700 38.86200
C  27.51500 53.81600 37.12100
C  27.29100 55.09400 36.33300
H  27.76000 55.08100 34.82700
N  31.90200 57.00700 40.79700
C  32.49500 56.03400 40.04400
C  33.94500 56.24400 39.99500
C  34.25700 57.47300 40.71600
C  32.88300 57.99500 41.10800
C  34.85300 55.28500 39.39800
C  35.62300 58.03400 40.86400
O  36.62600 57.47500 40.45700
C  35.84200 59.37100 41.43700
N  30.14500 59.25500 41.90700
C  31.38300 59.84900 42.06000
C  31.32100 61.36300 42.49200
C  29.88400 61.40900 43.02400
C  29.20700 60.15000 42.36400
C  32.53900 61.78900 43.42700
C  29.21800 62.72300 42.75200
C  28.63300 63.42300 43.90700
N  27.88000 57.69800 41.11400
C  27.21800 58.77200 41.68500
C  25.81100 58.53500 41.55500
C  25.66900 57.38500 40.79800
C  26.93600 56.96600 40.47000
C  24.69300 59.39400 42.10100
C  24.74100 56.51900 40.13400
O  23.51200 56.49800 40.05800
C  25.62500 55.41300 39.36200
C  25.34100 54.04400 39.95200
O  25.79000 53.53200 40.99300
O  24.33900 53.51000 39.24800
C  23.94400 52.16800 39.70400
H  32.44700 54.39500 38.67400
H  33.43000 59.95800 41.83500
H  27.27900 60.69600 42.77700
H  27.96400 52.99000 39.06500
H  30.18800 53.62400 37.30700
H  31.11900 52.27400 39.72300
H  31.07100 51.73000 38.10900
H  29.63300 51.56000 39.15400
H  26.53100 53.41800 37.36900
H  27.87700 52.98500 36.51600
H  27.74900 55.92400 36.87200
H  26.22000 55.27800 36.25000
H  35.80400 55.74700 39.13200
H  34.45800 54.92000 38.45000
H  35.03400 54.43700 40.05800
H  35.39200 60.10700 40.77100
H  36.91300 59.52700 41.56700
H  35.35800 59.55300 42.39700
H  31.43600 61.98800 41.60700
H  29.93300 61.27900 44.10500
H  33.26800 62.41000 42.90500
H  33.06100 60.91200 43.80900
H  32.13200 62.32600 44.28400
H  28.47500 62.52400 41.97900
H  29.87000 63.43300 42.24500
H  27.61100 63.69300 43.63900
H  29.28400 64.26100 44.15400
H  28.56800 62.84200 44.82700
H  24.24200 60.01100 41.32400
H  25.04400 60.01600 42.92400
H  23.89400 58.81700 42.56600
H  25.25600 55.47500 38.33800
H  23.24500 51.79300 38.95700
H  23.48500 52.21800 40.69200
H  24.84600 51.55800 39.75000

