158

Mg 49.50100 44.16900 42.94200
C  46.06300 44.52200 41.80300
C  49.32400 40.85200 42.10000
C  52.88700 43.99400 42.82400
C  49.60300 47.63000 43.16100
N  47.88100 42.90900 42.00200
C  46.58700 43.24900 41.70500
C  45.89000 42.10800 41.00600
C  46.78000 40.89100 41.38500
C  48.09600 41.55600 41.87900
C  46.14000 39.95700 42.51700
C  45.76900 42.47900 39.50300
C  44.57400 41.94900 38.80000
H  44.78800 41.32000 37.37800
N  50.88300 42.57400 42.68900
C  50.67300 41.29700 42.34400
C  51.84400 40.50600 42.41900
C  52.90500 41.47900 42.69000
C  52.25000 42.78600 42.69000
C  51.99000 38.97600 42.19500
C  54.38600 41.11400 42.82200
O  54.76300 39.95800 42.69300
C  55.49000 42.02800 43.20400
N  51.00600 45.54000 42.99700
C  52.38000 45.27500 43.05300
C  53.27000 46.54500 43.17800
C  52.20200 47.62700 43.35100
C  50.85200 46.91900 43.21900
C  54.36800 46.52000 44.34500
C  52.28500 48.79400 42.26400
C  51.88300 50.19400 42.71600
N  48.13400 45.78100 42.69300
C  48.32600 47.13700 42.87500
C  47.07200 47.83800 42.67000
C  46.18300 46.85400 42.30100
C  46.89400 45.59600 42.29100
C  46.73800 49.29200 42.69600
C  44.83100 46.69700 41.74700
O  43.97800 47.52600 41.45200
C  44.69600 45.17800 41.43500
C  43.50200 44.54100 42.16000
O  42.57400 43.97100 41.52900
O  43.52700 44.83300 43.47100
C  42.24800 44.58000 44.15400
H  49.20500 39.77600 41.95700
H  53.96800 43.99000 42.98000
H  49.65500 48.71700 43.24400
H  44.88800 42.07700 41.43200
H  46.77000 40.23700 40.51300
H  45.69400 39.09900 42.01500
H  45.34000 40.48200 43.03800
H  46.79900 39.49900 43.25500
H  46.55800 42.04700 38.88700
H  45.82200 43.53300 39.23000
H  43.81600 42.72100 38.66700
H  44.19400 41.15100 39.43800
H  52.44500 38.73900 41.23400
H  51.01800 38.48500 42.24000
H  52.60700 38.42400 42.90500
H  56.39600 41.53000 43.55100
H  55.27800 42.51300 44.15700
H  55.71900 42.73900 42.41000
H  53.90300 46.76300 42.31700
H  52.16700 48.18500 44.28600
H  55.34600 46.88000 44.02400
H  54.62900 45.55800 44.78500
H  54.03700 47.23800 45.09500
H  51.54300 48.64900 41.47800
H  53.21500 48.81100 41.69500
H  52.54400 51.02700 42.47600
H  51.54800 50.25800 43.75100
H  51.01900 50.43600 42.09700
H  47.48200 49.95300 42.25200
H  46.61000 49.60100 43.73300
H  45.90800 49.31300 41.98900
H  44.45900 45.03000 40.38100
H  42.05100 43.53000 44.37000
H  41.37100 45.06900 43.72900
H  42.28200 44.96000 45.17600
Mg 29.95500 57.37600 39.73700
C  27.23300 55.18400 38.91900
C  32.10900 54.79300 38.89700
C  32.40400 59.58600 40.07000
C  27.62500 59.90900 40.21100
N  29.69300 55.30200 38.95500
C  28.49800 54.55600 38.74700
C  28.75700 53.08000 38.47400
C  30.27600 52.97900 38.70300
C  30.77000 54.43400 38.84600
C  30.73000 52.12800 39.94600
C  28.19900 52.73000 37.01900
C  28.73000 53.38700 35.68400
H  27.73500 54.27900 34.83500
N  31.99400 57.19800 39.43800
C  32.67700 56.07400 39.05900
C  34.05800 56.44300 39.06500
C  34.24800 57.81700 39.39800
C  32.86800 58.24700 39.68700
C  35.01200 55.44800 38.54900
C  35.62200 58.58400 39.27400
O  36.62900 57.97500 38.92700
C  35.74200 60.11900 39.65600
N  29.96300 59.52800 40.18700
C  31.11400 60.17800 40.21900
C  30.86200 61.66600 40.59200
C  29.30600 61.69800 40.78900
C  28.91200 60.32100 40.38200
C  31.66300 62.11900 41.86300
C  28.60800 62.88200 40.01100
C  27.86700 63.96100 40.66900
N  27.87300 57.50300 39.73600
C  27.09500 58.63800 39.87100
C  25.76000 58.27700 39.73000
C  25.80500 56.96000 39.45400
C  27.10200 56.49600 39.32000
C  24.54700 59.16200 39.84900
C  24.92900 55.81600 39.25400
O  23.71800 55.75500 39.41800
C  25.80800 54.61800 38.79800
C  25.47600 53.43400 39.71800
O  25.98000 53.12600 40.76200
O  24.56500 52.67500 39.09400
C  23.97500 51.49200 39.73700
H  32.80100 53.97300 38.70000
H  33.21000 60.31900 40.14300
H  26.84300 60.66000 40.34300
H  28.28500 52.51200 39.27500
H  30.87900 52.63900 37.86100
H  31.71600 51.68500 39.80700
H  29.99700 51.32100 39.96200
H  30.67500 52.67300 40.88800
H  27.11400 52.72900 37.13000
H  28.49700 51.68200 36.99200
H  29.14100 52.57300 35.08700
H  29.60800 54.01900 35.81800
H  34.58400 54.97000 37.66800
H  35.14000 54.61900 39.24400
H  35.96800 55.83000 38.19200
H  35.43300 60.22600 40.69600
H  35.23700 60.74000 38.91700
H  36.80600 60.33500 39.75700
H  31.17700 62.34900 39.80400
H  29.03600 61.60800 41.84100
H  32.00200 63.13100 41.64500
H  32.43900 61.36400 41.98900
H  30.99000 62.12400 42.72000
H  27.96800 62.57600 39.18300
H  29.35500 63.40600 39.41400
H  26.83900 63.86700 40.31700
H  28.23700 64.93700 40.35300
H  27.91400 63.88200 41.75500
H  24.82500 60.18500 39.59400
H  24.21300 59.08600 40.88300
H  23.71800 58.71400 39.30100
H  25.68000 54.27700 37.77100
H  24.54500 50.79200 39.12600
H  22.90400 51.54400 39.53800
H  24.08300 51.47600 40.82100

