158

Mg 30.05400 57.99300 39.48300
C  27.43000 56.09400 38.55100
C  32.27500 55.39600 38.64200
C  32.67300 60.10200 39.30800
C  27.95300 60.80300 39.39200
N  29.80000 56.04300 38.67400
C  28.63600 55.41900 38.36100
C  28.92100 54.04100 37.79200
C  30.35200 53.69000 38.28400
C  30.88300 55.12200 38.51300
C  30.34500 52.75900 39.47600
C  28.67700 54.03300 36.21100
C  27.48000 53.22800 35.71200
H  26.77200 54.03000 34.63300
N  32.16800 57.83000 39.25100
C  32.86100 56.65600 38.88900
C  34.28300 57.00700 38.69500
C  34.45800 58.38500 39.02800
C  33.08000 58.80900 39.24200
C  35.24600 55.96400 38.26400
C  35.75600 59.10500 39.10100
O  36.75100 58.47900 38.74100
C  35.92300 60.51300 39.57600
N  30.24300 60.15700 39.05700
C  31.45300 60.75700 39.26100
C  31.40000 62.31200 39.26500
C  29.86900 62.52700 39.17700
C  29.31700 61.08700 39.18000
C  31.99300 62.89400 40.58800
C  29.39600 63.31700 37.91000
C  28.40900 64.48300 38.22100
N  28.04100 58.36100 39.30800
C  27.28800 59.52900 39.37600
C  25.95200 59.15700 39.40700
C  25.90500 57.81000 39.07500
C  27.20900 57.39700 38.96100
C  24.82000 60.04900 39.62700
C  25.07200 56.66700 38.82700
O  23.83300 56.63600 38.86200
C  26.03400 55.48000 38.36500
C  25.84200 54.30200 39.27700
O  26.28200 54.21200 40.43900
O  25.16200 53.30200 38.70100
C  24.80000 52.14400 39.61000
H  32.91000 54.51400 38.53700
H  33.53900 60.76700 39.31300
H  27.32800 61.69700 39.39300
H  28.26300 53.28900 38.22800
H  30.94200 53.22700 37.49200
H  30.57800 53.23700 40.42700
H  31.01900 51.90700 39.39000
H  29.39700 52.24700 39.63800
H  29.55800 53.56100 35.77700
H  28.76400 55.03000 35.77900
H  26.74400 53.04300 36.49500
H  27.87400 52.23900 35.47700
H  36.17400 56.01100 38.83400
H  35.27400 56.03500 37.17700
H  34.82300 54.98600 38.49400
H  35.30400 60.63300 40.46600
H  35.65300 61.17900 38.75600
H  36.97200 60.61000 39.85700
H  31.95700 62.65200 38.39200
H  29.47100 63.04600 40.04800
H  32.82200 63.57600 40.39900
H  32.39200 62.03600 41.12900
H  31.29100 63.39100 41.25700
H  28.90500 62.62900 37.22100
H  30.23200 63.84700 37.45500
H  28.29900 64.68700 39.28600
H  27.45600 64.37900 37.70400
H  28.90900 65.35600 37.80100
H  24.98000 61.12300 39.72000
H  24.37400 59.83000 40.59700
H  23.98800 59.82800 38.95800
H  25.80400 55.22900 37.32900
H  25.66300 51.82500 40.19300
H  24.26400 51.33700 39.11100
H  24.20700 52.38200 40.49300
Mg 10.04900 47.00300 26.16600
C  8.24400 46.99300 29.11200
C  12.78500 48.11900 27.86900
C  11.70400 47.10100 23.28200
C  6.94800 46.57800 24.39900
N  10.41300 47.49500 28.24500
C  9.56100 47.40000 29.28000
C  10.21000 47.76700 30.55500
C  11.43300 48.62300 29.96500
C  11.58400 48.00500 28.60800
C  11.10800 50.14400 29.91500
C  10.71800 46.54400 31.26900
C  10.89500 46.72400 32.76200
H  10.49400 45.62000 33.72200
N  11.94600 47.61700 25.60800
C  12.95000 47.95700 26.46900
C  14.22700 47.97300 25.82000
C  13.94300 47.60700 24.48700
C  12.47600 47.49600 24.34400
C  15.52000 48.35800 26.44100
C  15.03000 47.28400 23.45500
O  14.66200 47.14500 22.30000
C  16.51500 47.35400 23.77300
N  9.40100 47.07700 24.10700
C  10.39500 47.10100 23.12000
C  9.72400 46.83300 21.75200
C  8.20800 46.46200 22.13000
C  8.14100 46.81100 23.66900
C  9.87800 47.95700 20.78700
C  7.90700 45.02100 21.87300
C  8.68100 43.93700 22.69100
N  7.99000 46.79400 26.56300
C  6.86700 46.69900 25.79700
C  5.74900 46.47300 26.66600
C  6.21000 46.63900 28.00900
C  7.60500 46.78400 27.85400
C  4.37900 46.00100 26.28800
C  5.78200 46.65500 29.34900
O  4.63000 46.56500 29.84400
C  7.10800 46.85300 30.19100
C  7.33800 45.66800 31.05800
O  7.77000 44.59700 30.69000
O  6.80800 45.93500 32.32800
C  6.72900 44.75300 33.20900
H  13.68700 48.42700 28.40200
H  12.23700 46.98800 22.33500
H  6.05000 46.44000 23.79300
H  9.43400 48.13300 31.22600
H  12.34100 48.36500 30.51000
H  10.03800 50.28100 30.07200
H  11.27600 50.32400 28.85300
H  11.71600 50.71300 30.61800
H  11.65900 46.24500 30.80800
H  10.06600 45.69900 31.04400
H  10.54700 47.67200 33.17200
H  11.97800 46.73700 32.87900
H  15.48100 48.62900 27.49600
H  16.04000 49.22400 26.03100
H  16.09900 47.43500 26.47100
H  16.67500 46.50900 24.44400
H  16.89800 48.26600 24.23100
H  17.13900 47.11900 22.91100
H  10.29500 46.01300 21.31600
H  7.48300 47.10400 21.63100
H  10.38500 47.69100 19.85900
H  10.40000 48.74600 21.32800
H  8.87300 48.22200 20.45900
H  8.03700 44.74800 20.82600
H  6.81900 45.00800 21.94100
H  9.24400 44.37000 23.51800
H  9.53500 43.71600 22.05200
H  8.04100 43.09300 22.94800
H  4.33900 45.38100 25.39200
H  3.65600 46.81200 26.20200
H  4.01500 45.37200 27.10100
H  6.86500 47.72500 30.79900
H  7.54700 44.03300 33.18100
H  5.74300 44.28700 33.21900
H  6.86000 45.12000 34.22700

