158

Mg 41.42300 8.96400 29.20800
C  43.31900 9.91600 31.84800
C  39.05700 7.55200 31.33700
C  39.77600 7.77800 26.56200
C  44.20700 9.66100 26.98100
N  41.18600 8.77700 31.35800
C  42.01500 9.42800 32.25600
C  41.35500 9.32700 33.64700
C  40.06700 8.46600 33.50100
C  40.09600 8.28900 31.95900
C  40.11900 7.14600 34.24700
C  41.07400 10.65100 34.25600
C  41.79400 10.90900 35.55100
H  41.34800 12.09000 36.43900
N  39.63400 7.93000 29.00300
C  38.82300 7.36200 29.96600
C  37.77900 6.62700 29.36400
C  37.86600 6.82100 27.96700
C  39.16600 7.56000 27.82600
C  36.66000 5.91300 30.23700
C  36.88900 6.38500 26.83500
O  37.16700 6.51100 25.63900
C  35.61700 5.69700 27.22300
N  41.97800 8.64100 27.05100
C  41.06500 8.18000 26.16700
C  41.50900 8.15400 24.75200
C  42.83100 9.02200 24.89700
C  43.04600 9.12600 26.39600
C  41.46400 6.79700 24.01000
C  42.77200 10.38500 24.12200
C  41.79700 11.47200 24.55300
N  43.39200 9.52100 29.31700
C  44.35200 9.90500 28.35300
C  45.50200 10.44200 29.03400
C  45.20900 10.53000 30.38500
C  43.90000 9.86500 30.49600
C  46.79200 10.91500 28.34600
C  45.61600 10.86300 31.74500
O  46.63400 11.45800 32.16200
C  44.44800 10.43900 32.75600
C  45.00600 9.36900 33.62500
O  45.38600 8.31600 33.23700
O  44.98000 9.72600 34.95700
C  45.61300 8.81700 35.90300
H  38.30200 7.21600 32.05100
H  39.16400 7.54100 25.68900
H  44.93100 10.04200 26.25700
H  42.03200 8.79200 34.31200
H  39.12800 8.87700 33.87100
H  39.12800 6.94900 34.65700
H  40.85200 7.23500 35.04900
H  40.43000 6.38100 33.53600
H  40.02100 10.59900 34.53000
H  41.13800 11.44600 33.51300
H  42.77100 11.28300 35.24700
H  41.97900 10.05400 36.20100
H  35.77800 6.55200 30.26200
H  36.98000 5.74100 31.26500
H  36.35100 4.98200 29.76200
H  35.05200 5.58300 26.29700
H  35.05400 6.27500 27.95500
H  35.95400 4.77900 27.70500
H  40.83000 8.81600 24.21500
H  43.68900 8.48000 24.49900
H  42.47500 6.48300 23.74700
H  40.82900 6.84500 23.12500
H  40.95200 6.06000 24.62900
H  42.69300 10.11200 23.07000
H  43.72400 10.89200 24.27600
H  40.95600 11.51000 23.86100
H  42.36300 12.40300 24.53700
H  41.56900 11.37000 25.61400
H  46.55200 11.90500 27.95800
H  47.05200 10.23600 27.53300
H  47.61000 10.87700 29.06500
H  44.12500 11.28900 33.35700
H  44.76500 8.37300 36.42400
H  46.09900 9.51400 36.58600
H  46.29800 8.06100 35.51900
Mg 47.18400 24.39000 28.52200
C  47.95700 26.63400 31.08500
C  46.34700 22.07400 30.79200
C  46.52200 22.36700 25.93800
C  48.49000 26.68700 26.22400
N  47.21200 24.38500 30.76600
C  47.54800 25.37600 31.61300
C  47.18500 24.92400 33.00500
C  46.64700 23.48200 32.86300
C  46.68100 23.31900 31.33700
C  47.39300 22.35400 33.77800
C  46.22100 25.99400 33.77000
C  45.34000 25.44500 34.88700
H  45.10300 26.28300 36.20500
N  46.55100 22.46500 28.42200
C  46.28500 21.59500 29.42100
C  45.94300 20.26900 28.91700
C  45.93800 20.37100 27.48600
C  46.32200 21.78800 27.21300
C  45.76800 18.99700 29.76900
C  45.64200 19.35600 26.39900
O  45.62700 19.65200 25.23400
C  45.33800 17.98400 26.77800
N  47.55700 24.40700 26.37700
C  47.05900 23.56800 25.55700
C  47.09000 23.98700 24.04600
C  47.82700 25.34100 24.15400
C  48.08200 25.46300 25.67400
C  47.64400 22.90500 23.06100
C  47.05300 26.61800 23.62800
C  47.79900 27.75700 22.92200
N  48.15900 26.22600 28.54100
C  48.56000 27.05200 27.54000
C  49.13200 28.33000 28.11200
C  48.84800 28.16500 29.48300
C  48.33200 26.87600 29.71300
C  49.61500 29.54800 27.37600
C  48.97500 28.74700 30.77400
O  49.53900 29.78500 31.04000
C  48.38300 27.82100 31.89500
C  49.31000 27.47900 33.08400
O  50.16900 26.65300 33.00900
O  48.99700 28.11400 34.26100
C  49.58800 27.93300 35.58600
H  45.95300 21.42900 31.57900
H  46.12200 21.82800 25.07700
H  48.70400 27.50600 25.53300
H  48.11800 24.84900 33.56400
H  45.61400 23.43000 33.20500
H  47.93600 21.58700 33.22500
H  46.63000 21.89000 34.40300
H  48.09900 22.94900 34.35800
H  45.55800 26.43500 33.02500
H  46.99500 26.61400 34.22300
H  45.73000 24.48100 35.21600
H  44.34100 25.35600 34.46000
H  46.49300 18.23700 29.47900
H  44.74600 18.67200 29.57700
H  45.83700 19.02000 30.85600
H  44.57700 17.96500 27.55700
H  46.24700 17.42800 27.00800
H  44.80700 17.49700 25.95900
H  46.06700 24.30800 23.84700
H  48.80700 25.33300 23.67700
H  47.80700 21.93800 23.53700
H  48.57700 23.15500 22.55600
H  46.89200 22.67900 22.30500
H  46.47100 26.99800 24.46800
H  46.24400 26.39500 22.93300
H  47.59700 27.70600 21.85200
H  48.87600 27.71300 23.09000
H  47.49300 28.78800 23.09700
H  49.63400 29.54200 26.28600
H  50.63100 29.74600 27.71700
H  48.97300 30.39100 27.63000
H  47.51700 28.33700 32.30800
H  48.86200 27.58100 36.31800
H  49.97900 28.85600 36.01500
H  50.35000 27.15300 35.56900

