158

Mg 27.00500 50.56000 25.52600
C  24.84800 51.35600 28.18500
C  29.35700 49.47000 27.82800
C  28.95700 49.79600 22.93600
C  24.47200 51.55600 23.37100
N  27.11100 50.55300 27.79600
C  26.07300 50.74300 28.67000
C  26.53500 50.55500 30.18100
C  27.99900 49.99700 29.95700
C  28.18200 50.00600 28.41000
C  29.11600 50.80400 30.72000
C  25.54000 49.58100 30.84600
C  25.09400 49.82000 32.33100
H  26.02600 50.55100 33.31900
N  28.81500 49.68900 25.35200
C  29.65800 49.39600 26.40900
C  30.77200 48.77800 25.90700
C  30.81100 48.92600 24.53200
C  29.48600 49.54200 24.23200
C  31.79200 48.12000 26.77000
C  31.91100 48.67200 23.59300
O  31.86000 48.97500 22.39600
C  33.15600 47.92400 24.05600
N  26.70100 50.70500 23.48900
C  27.68900 50.25800 22.61600
C  27.18200 50.45500 21.14200
C  25.78200 50.98200 21.29900
C  25.62300 51.05800 22.79600
C  28.14700 51.28300 20.18800
C  24.66000 50.16100 20.48500
C  23.99100 48.95900 21.13600
N  25.14900 51.44700 25.70200
C  24.23900 51.72700 24.73300
C  23.03600 52.28600 25.26900
C  23.24400 52.24400 26.66600
C  24.52100 51.62200 26.89600
C  21.90500 52.91300 24.49300
C  22.65400 52.54400 27.93200
O  21.58800 53.03200 28.22500
C  23.69700 51.95300 29.01600
C  24.16900 52.95600 29.99800
O  25.02500 53.80700 29.82900
O  23.44300 52.76200 31.18200
C  23.68800 53.75600 32.22900
H  30.12300 49.17400 28.54700
H  29.53900 49.54900 22.04600
H  23.66700 51.87200 22.70300
H  26.60200 51.53400 30.65600
H  28.08000 48.92900 30.15900
H  28.83500 51.80300 31.05400
H  30.04900 50.87200 30.16100
H  29.35600 50.27100 31.64000
H  25.96300 48.57700 30.80000
H  24.60700 49.61600 30.28400
H  24.94600 48.81600 32.73000
H  24.05900 50.16100 32.32400
H  31.44900 47.81300 27.75800
H  32.68900 48.73300 26.86300
H  32.12200 47.16600 26.36100
H  33.70400 48.30200 24.91900
H  33.81100 47.88400 23.18600
H  32.77400 46.90900 24.16900
H  27.12100 49.44600 20.73600
H  25.78700 51.96900 20.83800
H  29.15200 50.98000 20.48300
H  27.94600 52.35300 20.24100
H  28.03900 51.00400 19.14000
H  25.14400 49.99300 19.52300
H  23.84800 50.86000 20.28300
H  24.03900 48.11900 20.44300
H  22.95900 49.20900 21.38200
H  24.51100 48.64900 22.04300
H  22.05700 53.97800 24.31500
H  21.00700 52.75400 25.08900
H  21.69900 52.39500 23.55600
H  23.17800 51.18000 29.58300
H  24.64800 53.63800 32.73000
H  22.77300 53.74700 32.82100
H  23.81900 54.75700 31.81700
Mg 5.78500 53.54800 42.00400
C  5.11100 50.04000 41.52800
C  8.69300 53.06500 40.57700
C  6.05900 56.70900 42.29900
C  2.32400 53.60800 43.29000
N  6.69200 51.70800 40.95100
C  6.31400 50.36800 40.96600
C  7.38900 49.41800 40.45200
C  8.58000 50.45900 40.39700
C  7.97800 51.83400 40.62500
C  9.71300 50.13800 41.33200
C  6.98700 48.80100 39.06500
C  6.08500 49.54200 38.05300
H  6.46500 49.52800 36.56000
N  7.18600 54.73600 41.41800
C  8.37800 54.39600 40.87300
C  9.08300 55.60700 40.51300
C  8.33200 56.70200 41.06700
C  7.12900 56.08200 41.58400
C  10.40100 55.67600 39.78900
C  8.75600 58.15100 40.89800
O  9.80900 58.48000 40.38700
C  7.86500 59.22100 41.33100
N  4.36200 54.92700 42.73200
C  4.82000 56.22700 42.87000
C  3.69900 57.16300 43.30900
C  2.44700 56.11900 43.50400
C  3.05200 54.79400 43.08700
C  4.09700 58.02200 44.59600
C  1.17200 56.56400 42.65700
C  0.10000 57.41400 43.30800
N  4.07700 52.14900 42.41200
C  2.86400 52.32300 42.98100
C  2.28000 51.04300 43.40000
C  3.12500 50.09900 42.83100
C  4.16300 50.83300 42.19400
C  0.93200 50.82000 44.08400
C  3.33700 48.70000 42.59400
O  2.64800 47.70200 42.96500
C  4.64200 48.54700 41.77300
C  4.20400 47.80600 40.58100
O  3.41100 48.15700 39.71500
O  4.82000 46.56600 40.61400
C  4.50800 45.58400 39.53600
H  9.72900 52.87600 40.28800
H  6.02500 57.79100 42.44100
H  1.30700 53.70600 43.67600
H  7.51000 48.74400 41.30000
H  8.93500 50.49700 39.36700
H  9.70000 49.05200 41.42800
H  9.65000 50.70000 42.26300
H  10.58400 50.24900 40.68600
H  6.53000 47.81400 39.14700
H  7.94800 48.64500 38.57500
H  6.00100 50.61400 38.23300
H  5.08900 49.10600 38.11700
H  10.52900 54.70600 39.31000
H  11.14200 55.96300 40.53500
H  10.56300 56.44100 39.02900
H  8.25500 60.22600 41.16800
H  7.72100 59.18900 42.41100
H  6.92100 59.14500 40.79200
H  3.46200 57.75800 42.42600
H  2.22500 56.08900 44.57100
H  5.18000 58.00700 44.71800
H  3.66900 57.56600 45.48900
H  3.77500 59.05900 44.50400
H  0.73400 55.61700 42.34100
H  1.44800 56.95700 41.67900
H  -0.27300 58.16000 42.60700
H  0.42800 57.97700 44.18200
H  -0.71400 56.75200 43.60500
H  0.54200 49.85400 43.76200
H  0.30500 51.61500 43.68100
H  0.90700 51.00400 45.15800
H  5.35300 47.92500 42.31700
H  5.49400 45.35700 39.13000
H  4.00300 45.95700 38.64500
H  4.11800 44.63300 39.90100

