158

Mg 8.06700 2.34700 27.66200
C  9.61400 0.83400 30.35900
C  5.97500 3.93100 29.62500
C  6.11200 3.19400 24.85500
C  9.63100 -0.12000 25.59400
N  7.78700 2.27900 29.79500
C  8.65200 1.70300 30.72400
C  8.26700 2.17000 32.18900
C  6.94200 3.01300 31.96100
C  6.85200 3.08500 30.36400
C  5.54100 2.57900 32.57400
C  9.37000 3.00300 33.01000
C  9.93800 2.38400 34.30700
H  10.14700 3.34100 35.51400
N  6.46800 3.59600 27.29900
C  5.80000 4.21200 28.25600
C  4.89300 5.23700 27.73700
C  4.88000 5.03600 26.32800
C  5.86700 3.91100 26.13200
C  4.02800 6.21800 28.57800
C  4.04500 5.68000 25.27300
O  4.31400 5.53300 24.06600
C  3.00500 6.63600 25.67800
N  7.97100 1.75500 25.51600
C  6.96900 2.13300 24.66800
C  6.90800 1.20700 23.39600
C  8.28400 0.40300 23.52800
C  8.63600 0.66500 24.98500
C  5.66200 0.41000 23.18300
C  9.44100 0.76800 22.54300
C  10.43000 -0.29700 22.11200
N  9.33900 0.72000 27.85100
C  9.92100 -0.08800 26.92700
C  10.96700 -0.95700 27.55500
C  10.88500 -0.52300 28.89200
C  9.88500 0.44300 29.03300
C  11.84300 -1.99600 26.86100
C  11.39300 -0.76100 30.23500
O  12.30000 -1.52900 30.64300
C  10.63400 0.10800 31.20700
C  10.12200 -0.76500 32.32300
O  9.07800 -1.41700 32.20800
O  11.01200 -0.75000 33.33400
C  10.45400 -1.33100 34.57800
H  5.46300 4.57900 30.34000
H  5.47800 3.45200 24.00500
H  10.28300 -0.74800 24.98200
H  8.00200 1.23600 32.68400
H  7.03100 4.06600 32.23000
H  5.02100 3.35500 33.13600
H  5.82300 1.71900 33.18100
H  4.86900 2.26600 31.77500
H  9.10400 4.03800 33.22500
H  10.18000 3.20400 32.30900
H  10.89300 1.95500 34.00600
H  9.23200 1.63700 34.67200
H  4.39300 6.36600 29.59400
H  3.04100 5.75700 28.58500
H  4.11600 7.14100 28.00400
H  2.43300 6.14200 26.46400
H  2.38400 6.89800 24.82100
H  3.36700 7.53000 26.18600
H  7.04300 1.92600 22.58700
H  8.06600 -0.66100 23.42600
H  5.02700 0.38800 24.06900
H  5.78900 -0.63700 22.90700
H  5.08600 0.94000 22.42400
H  9.95900 1.64100 22.93900
H  8.94000 1.10300 21.63500
H  10.36300 -1.26800 22.60400
H  11.42800 0.12200 22.23700
H  10.24100 -0.54600 21.06800
H  12.89000 -1.71700 26.74200
H  11.47100 -2.18300 25.85300
H  11.74900 -2.91700 27.43600
H  11.40400 0.80400 31.54100
H  11.24800 -1.15000 35.30200
H  10.23300 -2.39900 34.56100
H  9.58700 -0.75600 34.90300
Mg 44.00500 4.69700 47.38600
C  42.09500 7.57400 47.36700
C  41.13800 2.74500 47.17900
C  45.96100 1.89700 46.66900
C  46.85800 6.60400 47.46700
N  41.85000 5.18700 47.07500
C  41.33000 6.39900 47.32400
C  39.77900 6.30500 47.58600
C  39.54500 4.73700 47.68500
C  40.89700 4.14700 47.33000
C  38.86200 4.37900 49.06300
C  38.94400 7.00900 46.46600
C  39.23000 6.58300 45.01400
H  39.11300 7.63000 43.92900
N  43.57600 2.60000 46.98000
C  42.31100 2.05100 47.05800
C  42.40100 0.61500 46.81200
C  43.77200 0.39000 46.48200
C  44.51400 1.65300 46.64200
C  41.19200 -0.39500 47.03700
C  44.44400 -1.00600 45.98400
O  43.72200 -2.00100 45.90900
C  45.91900 -1.19300 45.48500
N  46.10400 4.25400 47.03400
C  46.69500 3.05600 46.86500
C  48.23100 3.05200 46.93600
C  48.42100 4.58500 47.25700
C  47.02300 5.23400 47.24900
C  48.93700 1.97900 47.75700
C  49.36300 5.24300 46.23200
C  50.83100 5.42400 46.65600
N  44.48600 6.68200 47.40200
C  45.65800 7.35100 47.44900
C  45.37600 8.76700 47.46700
C  44.04200 8.87800 47.47700
C  43.51800 7.60800 47.36600
C  46.40500 9.84300 47.40900
C  42.96700 9.84500 47.34800
O  42.99400 11.05800 47.13000
C  41.62500 8.94200 47.32800
C  40.89100 9.29400 48.53100
O  40.95400 8.70700 49.58200
O  40.14900 10.45700 48.33900
C  39.40400 10.95700 49.47500
H  40.20300 2.18200 47.21200
H  46.66400 1.11300 46.38000
H  47.77100 7.18500 47.61300
H  39.59500 6.77900 48.55000
H  38.90100 4.36900 46.88700
H  38.55900 5.27800 49.60000
H  39.39900 3.72100 49.74600
H  37.91900 3.92700 48.75500
H  38.90200 8.09800 46.46200
H  37.91600 6.75400 46.72400
H  38.60600 5.72200 44.77200
H  40.25100 6.21300 44.91800
H  40.21500 0.06200 47.19100
H  41.49300 -0.90800 47.95100
H  41.12100 -0.90000 46.07400
H  46.68300 -1.18300 46.26200
H  46.09500 -0.35500 44.80900
H  46.04600 -2.14100 44.96200
H  48.49200 2.93200 45.88400
H  48.83200 4.57500 48.26700
H  48.25200 1.29200 48.25300
H  49.47500 2.52500 48.53300
H  49.53300 1.32400 47.12300
H  48.98300 6.25700 46.11400
H  49.40200 4.77600 45.24800
H  51.11800 5.03400 47.63300
H  50.83800 6.49500 46.85800
H  51.52000 5.17100 45.85000
H  47.43100 9.48700 47.31500
H  46.33600 10.50000 48.27600
H  46.24400 10.39600 46.48300
H  40.95000 9.22600 46.52100
H  38.57700 11.61700 49.21200
H  40.04700 11.34100 50.26700
H  38.82600 10.11000 49.84400

