158

Mg 8.30900 3.33300 27.73400
C  9.65300 2.15800 30.70900
C  6.47300 5.69200 29.67700
C  6.95200 4.46600 24.93800
C  9.88300 0.83800 26.01200
N  7.94000 3.62700 30.02600
C  8.78700 3.18700 30.99800
C  8.53500 3.84300 32.37400
C  7.34200 4.77600 31.97600
C  7.23000 4.69800 30.47200
C  5.96000 4.77200 32.73200
C  9.69500 4.52700 33.09600
C  10.04600 4.04100 34.56100
H  10.46700 5.06200 35.60400
N  6.90600 4.82800 27.41300
C  6.24500 5.66100 28.27700
C  5.45000 6.61400 27.41800
C  5.61500 6.27800 26.04000
C  6.56500 5.18700 26.09800
C  4.65000 7.75800 28.12800
C  5.02100 6.88200 24.87300
O  5.28100 6.64100 23.65600
C  3.85300 7.89100 25.04300
N  8.47900 2.76700 25.65600
C  7.76300 3.34400 24.74600
C  8.16000 2.80500 23.38900
C  9.40400 1.92400 23.67000
C  9.24500 1.79100 25.20100
C  7.00500 2.17700 22.59400
C  10.70200 2.67000 23.29300
C  11.04600 2.48400 21.83800
N  9.48700 1.67900 28.22400
C  10.09700 0.85000 27.39800
C  10.92800 -0.02400 28.21700
C  10.81400 0.49300 29.55200
C  9.89700 1.48700 29.47500
C  11.85400 -1.01700 27.60000
C  11.26300 0.29200 30.86500
O  12.00300 -0.52400 31.37900
C  10.61900 1.43900 31.64500
C  9.78900 0.79700 32.75100
O  8.56100 0.62100 32.79900
O  10.65000 0.60200 33.82600
C  9.95800 0.28500 35.06200
H  6.19300 6.42100 30.44100
H  6.48000 4.79600 24.01100
H  10.51200 0.16700 25.42200
H  8.05300 3.07300 32.97600
H  7.68500 5.79000 32.18200
H  5.16300 4.21600 32.23900
H  5.55700 5.77300 32.88200
H  6.06500 4.25700 33.68700
H  9.49300 5.59500 33.01500
H  10.58900 4.33500 32.50300
H  10.92300 3.42900 34.34700
H  9.19700 3.50200 34.98100
H  3.65200 7.32000 28.10200
H  4.60000 8.62200 27.46400
H  5.09800 7.96900 29.09900
H  3.09300 7.73400 25.80900
H  3.35500 7.85900 24.07400
H  4.40700 8.81700 25.20000
H  8.37600 3.53400 22.60700
H  9.34500 0.98900 23.11300
H  6.04800 2.24500 23.11100
H  7.25900 1.15600 22.30800
H  6.78200 2.75800 21.69900
H  11.46100 2.36000 24.01100
H  10.48000 3.70600 23.55100
H  10.78400 3.33800 21.21400
H  10.66600 1.55800 21.40600
H  12.12300 2.31900 21.78900
H  12.31200 -0.65100 26.68100
H  11.31600 -1.90700 27.27400
H  12.55600 -1.13600 28.42500
H  11.40300 2.12700 31.96000
H  10.58900 0.43000 35.93900
H  9.63700 -0.75600 35.10000
H  9.11800 0.97400 35.14800
Mg 47.69600 16.96600 28.76800
C  46.08700 16.33600 31.69100
C  50.08300 18.78300 30.27200
C  49.13100 17.33500 25.67000
C  44.98800 15.42800 27.06000
N  47.99200 17.57700 30.73000
C  47.28900 17.13500 31.83900
C  47.92700 17.64700 33.11000
C  48.99300 18.62200 32.58800
C  49.04800 18.38400 31.10600
C  48.78800 20.19300 33.01300
C  48.51800 16.39900 33.96100
C  48.59600 16.53300 35.49800
H  48.20900 17.92700 36.13400
N  49.37900 17.94900 28.05700
C  50.27500 18.50700 28.87900
C  51.43600 18.95800 28.12200
C  51.09600 18.69100 26.80100
C  49.78600 17.87300 26.78800
C  52.65900 19.70100 28.68600
C  51.91400 19.00700 25.51500
O  51.46200 18.67700 24.42300
C  53.21700 19.66900 25.57200
N  47.16900 16.26900 26.60800
C  47.93300 16.57000 25.52700
C  47.35800 16.05100 24.20800
C  45.94300 15.58400 24.70800
C  45.98700 15.75500 26.19600
C  47.15700 17.17200 23.07300
C  45.69000 14.11000 24.26800
C  44.76400 14.10000 23.03700
N  45.95500 16.00400 29.21500
C  45.00900 15.40900 28.42300
C  43.94100 14.88900 29.27200
C  44.35100 15.09000 30.59400
C  45.56900 15.90900 30.45600
C  42.69000 14.19400 28.86900
C  44.08100 14.97000 31.99900
O  43.14700 14.34100 32.50100
C  45.19100 15.79100 32.76600
C  44.40800 16.79000 33.47400
O  43.67700 17.67500 32.99100
O  44.61200 16.59400 34.87100
C  43.76500 17.53200 35.62200
H  50.87200 19.38000 30.73500
H  49.53300 17.41400 24.65800
H  44.11500 15.08300 26.50000
H  47.14500 18.12900 33.69600
H  49.95400 18.24900 32.94400
H  48.37700 20.76400 32.18100
H  49.76400 20.57500 33.31200
H  48.06000 20.19700 33.82500
H  49.54700 16.24700 33.63400
H  48.10200 15.43400 33.67100
H  49.56100 16.14700 35.82500
H  47.90000 15.83000 35.95700
H  52.89600 20.60600 28.12700
H  53.45900 18.96100 28.70600
H  52.43700 19.93400 29.72800
H  53.28000 20.69100 25.94300
H  53.76400 19.54900 24.63700
H  53.86200 19.01000 26.15500
H  47.89700 15.18800 23.81700
H  45.18000 16.24700 24.29900
H  47.72300 18.09100 23.22400
H  46.12300 17.36700 22.79100
H  47.69600 16.67300 22.26800
H  45.11000 13.56400 25.01200
H  46.59000 13.49600 24.24400
H  44.71200 15.05800 22.52000
H  43.73500 14.06600 23.39400
H  44.88700 13.12800 22.55800
H  42.62900 13.41800 29.63300
H  42.68700 13.80300 27.85200
H  41.82700 14.84500 29.00900
H  45.73100 15.13200 33.44600
H  43.93700 18.54300 35.25300
H  44.11200 17.61800 36.65100
H  42.74400 17.19500 35.79700

