158

Mg 1.99900 -1.61600 43.91200
C  5.32500 -1.39100 42.97900
C  1.25300 0.98500 41.71600
C  -1.29600 -2.52500 43.75900
C  2.79600 -4.61400 45.58500
N  3.18400 -0.30600 42.51900
C  4.57500 -0.33000 42.41800
C  5.04200 0.79300 41.53700
C  3.69900 1.59800 41.29700
C  2.62400 0.69100 41.87500
C  3.62300 2.94000 41.99400
C  5.75300 0.40300 40.15800
C  6.88900 1.36700 39.68300
H  6.69000 2.17800 38.35900
N  0.18800 -0.78000 43.01100
C  0.08100 0.25800 42.14700
C  -1.23200 0.65500 42.01100
C  -2.05400 -0.26900 42.68300
C  -1.08800 -1.32100 43.17700
C  -1.64600 1.98000 41.33900
C  -3.59600 -0.18000 42.80800
O  -4.21500 0.68400 42.20700
C  -4.28700 -1.17900 43.86500
N  0.95800 -3.23000 44.59800
C  -0.35900 -3.44900 44.27200
C  -0.79700 -4.90100 44.61200
C  0.40000 -5.53600 45.31200
C  1.45800 -4.40400 45.17300
C  -2.12600 -5.10600 45.28000
C  0.87600 -6.91300 44.77900
C  -0.05100 -8.07100 45.07400
N  3.75100 -2.65600 44.48500
C  3.96000 -3.86400 45.17600
C  5.37200 -4.13100 45.24900
C  5.93500 -3.17200 44.41100
C  4.94500 -2.35200 43.89000
C  6.02600 -5.30200 45.83500
C  7.18500 -2.73400 43.86000
O  8.37000 -2.99100 44.08700
C  6.77700 -1.64000 42.84900
C  7.56000 -0.49200 43.22400
O  7.57200 0.14900 44.25600
O  8.38200 -0.16200 42.20100
C  9.19100 1.03700 42.38500
H  1.06700 1.90400 41.15600
H  -2.33100 -2.86400 43.68200
H  3.08900 -5.58700 45.98600
H  5.73900 1.40400 42.11100
H  3.46400 1.69500 40.23700
H  4.37200 2.84900 42.78000
H  2.63200 3.01700 42.44200
H  3.93600 3.68300 41.26000
H  4.94700 0.36600 39.42500
H  6.29000 -0.54400 40.19600
H  7.85100 0.89200 39.48900
H  7.20800 2.06300 40.45900
H  -2.67100 2.24600 41.59500
H  -1.57100 1.98100 40.25200
H  -1.11300 2.77400 41.86300
H  -5.17800 -0.69600 44.26500
H  -3.59200 -1.32800 44.69200
H  -4.51800 -2.16600 43.46500
H  -0.86800 -5.43200 43.66300
H  0.26600 -5.62100 46.39000
H  -2.84900 -5.47400 44.55300
H  -2.56100 -4.17200 45.63700
H  -2.03100 -5.81100 46.10600
H  1.85700 -7.17400 45.17600
H  1.06700 -6.79000 43.71300
H  -0.96700 -7.87100 45.63000
H  0.45400 -8.77000 45.74000
H  -0.23100 -8.58100 44.12700
H  6.25100 -6.15200 45.19100
H  5.55800 -5.70000 46.73600
H  6.90400 -4.86800 46.31400
H  6.98400 -2.00600 41.84400
H  9.79900 0.85100 43.27000
H  8.55800 1.91300 42.24800
H  9.95900 1.06900 41.61200
Mg -4.75800 24.93400 26.06600
C  -3.18400 26.60800 28.66600
C  -6.24000 22.95000 28.21500
C  -5.56200 23.11800 23.39300
C  -2.98100 27.04100 23.85600
N  -4.73900 24.84700 28.25800
C  -3.97100 25.58100 29.09500
C  -4.36600 25.30300 30.56300
C  -5.07400 23.94200 30.39200
C  -5.42800 23.90600 28.88600
C  -4.19100 22.75000 30.78000
C  -5.14700 26.48500 31.16900
C  -6.13500 26.12600 32.30100
H  -5.68000 25.11800 33.37900
N  -5.69900 23.26300 25.85900
C  -6.20800 22.52700 26.88100
C  -6.87000 21.29800 26.40800
C  -6.70500 21.37700 24.98500
C  -5.96800 22.66600 24.69400
C  -7.65800 20.36600 27.30300
C  -7.11700 20.34100 23.88100
O  -6.91100 20.49200 22.70000
C  -7.77400 19.06500 24.27800
N  -4.52000 25.15000 23.88900
C  -4.93400 24.25900 22.94900
C  -4.76200 24.87300 21.49500
C  -3.90100 26.12000 21.78100
C  -3.78200 26.10500 23.26800
C  -4.29600 23.95100 20.34000
C  -4.47700 27.52900 21.25500
C  -3.44700 28.40100 20.51800
N  -3.32300 26.50400 26.15300
C  -2.68500 27.25900 25.22400
C  -1.76900 28.25300 25.89500
C  -1.90800 27.99100 27.19500
C  -2.86800 26.89900 27.31700
C  -0.95500 29.24300 25.13800
C  -1.49300 28.46500 28.52400
O  -0.72300 29.34800 28.87800
C  -2.32400 27.55000 29.46400
C  -1.42100 26.91200 30.43200
O  -0.30800 26.46500 30.13900
O  -1.89800 26.93000 31.77100
C  -1.13000 26.05800 32.64600
H  -6.94700 22.41500 28.85200
H  -5.76000 22.55300 22.47900
H  -2.52600 27.69500 23.10900
H  -3.46100 25.16600 31.15400
H  -6.00200 23.87000 30.95800
H  -4.32700 21.93100 30.07400
H  -4.46000 22.38800 31.77200
H  -3.12400 22.96100 30.70300
H  -5.68000 26.98600 30.36100
H  -4.43400 27.20100 31.57800
H  -7.06500 25.80400 31.83200
H  -6.35100 27.07100 32.79800
H  -8.68300 20.52600 26.96800
H  -7.68300 20.56900 28.37300
H  -7.30800 19.34700 27.14100
H  -8.69400 19.18300 24.85200
H  -6.96500 18.61300 24.85200
H  -8.09400 18.41600 23.46300
H  -5.73700 25.21800 21.14900
H  -2.93900 25.98000 21.28700
H  -4.28300 22.89200 20.59900
H  -3.27400 24.24500 20.10100
H  -4.90100 23.98400 19.43400
H  -4.75500 28.11400 22.13200
H  -5.27100 27.26700 20.55600
H  -2.63500 27.73600 20.22300
H  -3.15200 29.26300 21.11600
H  -3.92000 28.76900 19.60800
H  -0.92000 28.85600 24.12000
H  0.03800 29.44300 25.54200
H  -1.49200 30.18800 25.06800
H  -3.02700 28.20200 29.98300
H  -0.09800 26.40700 32.69100
H  -1.09300 25.09000 32.14700
H  -1.48400 25.98800 33.67500

