158

Mg 35.03800 2.14100 29.56300
C  33.06300 3.27900 32.15900
C  37.67800 2.06100 31.75800
C  37.05600 1.32700 26.93100
C  32.38900 2.87100 27.38700
N  35.32000 2.56100 31.73300
C  34.38000 3.05600 32.58200
C  34.91000 3.23900 34.03600
C  36.46900 3.15200 33.83600
C  36.52700 2.57900 32.34700
C  37.06400 4.52700 33.87600
C  34.41200 2.16100 34.95900
C  34.33600 2.40200 36.49500
H  34.95200 3.60500 37.12300
N  37.07500 1.70500 29.35600
C  37.98700 1.73600 30.42700
C  39.24700 1.18500 29.95500
C  39.09900 0.97700 28.56000
C  37.71500 1.39400 28.20100
C  40.44900 0.94600 30.80900
C  40.16300 0.56500 27.56200
O  39.98200 0.56100 26.39900
C  41.52300 0.17600 28.06800
N  34.86600 2.38200 27.44900
C  35.80800 1.88500 26.54700
C  35.33500 2.10800 25.10800
C  33.85200 2.49800 25.31300
C  33.63200 2.59000 26.81500
C  36.27400 3.08200 24.30700
C  32.86900 1.66100 24.42700
C  32.49800 0.29300 25.04100
N  33.10900 2.83200 29.68200
C  32.15400 3.10800 28.73800
C  30.93900 3.65300 29.34400
C  31.24000 3.67200 30.76000
C  32.59700 3.26400 30.81300
C  29.64900 3.87200 28.55900
C  30.65000 3.87200 32.06900
O  29.49600 4.19600 32.41000
C  31.89000 3.81000 33.05500
C  32.06000 5.18400 33.47500
O  32.24200 6.11200 32.74900
O  31.99100 5.23000 34.84500
C  32.03200 6.55100 35.47300
H  38.47700 2.14100 32.49800
H  37.69800 0.94300 26.13500
H  31.56000 3.11800 26.72100
H  34.49300 4.15600 34.45200
H  36.98600 2.45100 34.49200
H  36.37700 5.15700 34.44000
H  37.21100 4.99200 32.90100
H  38.03000 4.48700 34.37900
H  34.93300 1.21400 34.81700
H  33.39400 1.91200 34.65900
H  34.81400 1.63800 37.10900
H  33.25800 2.35100 36.65200
H  40.33800 1.47400 31.75600
H  41.32600 1.43700 30.38700
H  40.53900 -0.12900 30.96600
H  42.06600 -0.26200 27.23100
H  41.39500 -0.68800 28.72000
H  42.07300 1.01500 28.49600
H  35.52600 1.17400 24.58000
H  33.71200 3.51700 24.95100
H  35.62000 3.90000 24.00500
H  36.75900 2.53200 23.50100
H  37.09400 3.50700 24.88700
H  33.42800 1.62400 23.49200
H  31.98600 2.29000 24.31200
H  32.66600 -0.41100 24.22700
H  31.44900 0.11300 25.27900
H  32.99100 -0.17500 25.89300
H  28.77200 3.97700 29.19800
H  29.52400 3.02800 27.88000
H  29.68000 4.73300 27.89100
H  31.58100 3.11400 33.83500
H  30.99700 6.89400 35.44500
H  32.66300 7.27900 34.96500
H  32.32800 6.52900 36.52200
Mg 39.82300 10.17100 30.42200
C  41.86800 11.34600 33.02600
C  37.77800 8.77000 32.80900
C  38.19100 8.65400 28.00700
C  42.34400 11.12500 28.16700
N  39.72900 10.16600 32.64500
C  40.65900 10.76100 33.45200
C  40.20400 10.60500 34.88800
C  39.02900 9.58100 34.86100
C  38.85200 9.49900 33.35100
C  39.32000 8.17000 35.54500
C  39.85200 11.95200 35.53300
C  40.49800 12.51700 36.76000
H  39.61700 12.64800 37.96800
N  38.14700 8.91100 30.40600
C  37.48600 8.48300 31.44400
C  36.36900 7.67200 30.96000
C  36.42400 7.57800 29.53900
C  37.60000 8.40300 29.25900
C  35.44700 7.05400 31.95300
C  35.52300 6.86000 28.55100
O  35.60000 6.96100 27.31200
C  34.38200 6.09800 29.07500
N  40.33500 9.79200 28.41400
C  39.40600 9.22100 27.59700
C  39.75800 9.26600 26.07700
C  41.21000 9.93800 26.17400
C  41.33900 10.34200 27.64500
C  39.73000 7.92600 25.26500
C  41.28100 11.10900 25.20000
C  41.12900 12.58600 25.76800
N  41.68300 11.10900 30.50000
C  42.52900 11.50900 29.51000
C  43.50300 12.33300 30.06300
C  43.29700 12.33900 31.44000
C  42.17500 11.50200 31.68700
C  44.69700 12.99800 29.46400
C  43.85600 12.76400 32.75100
O  44.84600 13.36600 32.95700
C  42.86800 12.12700 33.83400
C  43.59700 11.27500 34.88300
O  43.65200 10.06600 34.91300
O  44.07500 12.17000 35.81000
C  44.92000 11.63000 36.92300
H  37.20100 8.26200 33.58500
H  37.51900 8.24100 27.25100
H  43.04200 11.50400 27.41800
H  40.96500 10.21700 35.56500
H  38.11700 9.79500 35.41900
H  40.34400 7.93300 35.83400
H  38.88000 7.31800 35.02600
H  38.74700 8.31700 36.46000
H  38.81000 11.81700 35.82500
H  39.76400 12.76100 34.80900
H  40.86500 13.53000 36.59400
H  41.32300 11.86200 37.03800
H  34.52600 7.63700 31.93600
H  35.75800 6.85700 32.97900
H  35.17700 6.06200 31.59000
H  33.84300 5.77800 28.18400
H  33.83700 6.76900 29.73900
H  34.73300 5.23200 29.63700
H  39.06800 9.98100 25.62800
H  41.95100 9.15000 26.04000
H  39.75100 7.10300 25.98000
H  40.59800 7.75400 24.63000
H  38.85600 7.91600 24.61400
H  40.76100 10.97900 24.25100
H  42.30900 11.06800 24.83900
H  42.06900 13.12600 25.65300
H  40.66800 12.66200 26.75300
H  40.40000 13.12900 25.16700
H  44.84500 13.88800 30.07700
H  44.37000 13.29000 28.46600
H  45.65700 12.48200 29.46400
H  42.44800 12.98700 34.35700
H  44.30800 11.67100 37.82400
H  45.83900 12.19800 37.06900
H  45.17100 10.58600 36.73400

