158

Mg 48.04300 35.72100 27.70200
C  46.31800 33.89800 30.22500
C  48.12400 38.41300 29.66500
C  49.25100 37.51900 25.03800
C  47.81900 33.02300 25.65700
N  47.31000 36.02800 29.69300
C  46.78800 35.13700 30.56300
C  46.65300 35.76700 31.94400
C  46.93000 37.31600 31.71300
C  47.41900 37.29100 30.21100
C  45.81000 38.34000 31.78700
C  47.69200 35.11900 32.94800
C  48.74500 35.96200 33.73600
H  48.30700 36.96100 34.86300
N  48.86000 37.69700 27.44300
C  48.75300 38.61700 28.38300
C  49.36400 39.86600 27.89900
C  49.67400 39.65700 26.50900
C  49.29400 38.22000 26.30600
C  49.48100 41.12700 28.73100
C  50.19800 40.65200 25.44400
O  50.44900 40.22900 24.29800
C  50.54900 42.13300 25.82500
N  48.45600 35.35300 25.60700
C  48.89600 36.24200 24.72800
C  48.91800 35.57800 23.28600
C  48.71900 34.07400 23.52900
C  48.33100 34.13400 25.01500
C  47.95600 36.35600 22.36100
C  50.00400 33.14900 23.29900
C  51.17700 33.22800 24.35100
N  47.20500 33.88800 27.83700
C  47.22500 32.87500 26.93500
C  46.48900 31.77400 27.43500
C  46.23700 32.12700 28.77800
C  46.55800 33.41700 28.89500
C  46.22400 30.46400 26.81100
C  45.65900 31.67000 29.99500
O  45.31600 30.51700 30.25600
C  45.46300 32.92000 30.90200
C  45.76900 32.53800 32.28800
O  46.82000 32.01600 32.63900
O  44.63000 32.76300 33.03800
C  44.57700 32.19200 34.34500
H  48.19500 39.17700 30.44200
H  49.51500 38.12100 24.16600
H  47.57100 32.15900 25.03600
H  45.59400 35.73200 32.19800
H  47.75400 37.68200 32.32600
H  46.11800 39.10700 32.49800
H  44.92900 37.83500 32.18500
H  45.49600 38.74600 30.82500
H  48.35500 34.42800 32.42600
H  47.05500 34.55700 33.63000
H  49.38400 36.55700 33.08300
H  49.46300 35.26700 34.17200
H  48.53000 41.61800 28.52400
H  50.23700 41.87900 28.50700
H  49.72100 40.94800 29.77900
H  49.92100 42.47700 26.64700
H  50.47700 42.63800 24.86100
H  51.59700 42.10700 26.12400
H  49.91500 35.81600 22.91500
H  47.85900 33.58600 23.07000
H  47.34400 37.14200 22.80300
H  47.35000 35.58400 21.88700
H  48.54200 36.72400 21.51900
H  50.55300 33.47200 22.41400
H  49.79300 32.13000 22.97500
H  51.09500 34.22000 24.79500
H  52.13900 33.04000 23.87500
H  50.98400 32.45800 25.09900
H  46.35200 29.65300 27.52800
H  46.88200 30.28900 25.96000
H  45.23700 30.63400 26.38100
H  44.42700 33.25300 30.84700
H  44.10800 32.94800 34.97500
H  45.55400 31.92500 34.74700
H  43.91400 31.32700 34.33300
Mg 7.79200 53.30700 42.01000
C  7.13900 50.00200 41.36100
C  10.97600 52.90000 40.89400
C  8.05500 56.70100 41.77100
C  4.42000 53.79600 42.88000
N  8.83900 51.61900 40.99800
C  8.47400 50.34300 40.98200
C  9.66900 49.40400 40.47500
C  10.93400 50.29100 40.53100
C  10.25900 51.68900 40.79200
C  11.96800 49.76700 41.55900
C  9.45500 48.75600 39.11700
C  9.11000 49.56200 37.90300
H  8.01100 48.95900 36.96300
N  9.34000 54.59700 41.55100
C  10.55100 54.20300 41.14600
C  11.35600 55.37500 40.95500
C  10.52100 56.50100 40.90000
C  9.22400 55.96300 41.41800
C  12.81100 55.25800 40.57100
C  10.91200 57.97700 40.57100
O  12.05100 58.16600 40.19100
C  10.05200 59.29000 40.73400
N  6.44200 54.98900 42.30000
C  6.85900 56.32300 42.25100
C  5.63900 57.29300 42.38100
C  4.45100 56.33100 42.60100
C  5.14400 54.92900 42.67100
C  5.83500 58.32100 43.49400
C  3.46100 56.32100 41.40900
C  2.00900 56.74200 41.74700
N  6.07600 52.20000 42.11600
C  4.78900 52.46000 42.56100
C  4.06700 51.20000 42.62900
C  4.91300 50.23000 42.29500
C  6.12200 50.84600 41.89100
C  2.58900 50.97700 43.02600
C  5.13800 48.79500 42.20000
O  4.45000 47.86500 42.54600
C  6.48700 48.58600 41.48000
C  6.34800 47.79900 40.26200
O  6.20000 48.23300 39.12800
O  6.27800 46.48100 40.69600
C  6.36300 45.59200 39.53700
H  12.01800 52.73500 40.61300
H  8.16700 57.78800 41.75800
H  3.40600 54.06200 43.18600
H  9.69500 48.51700 41.10800
H  11.39200 50.35300 39.54300
H  11.99200 50.22900 42.54600
H  12.92600 49.86100 41.04800
H  11.82000 48.69700 41.70300
H  8.76400 47.91800 39.20600
H  10.42800 48.31600 38.89700
H  9.91800 49.60100 37.17200
H  8.83000 50.58500 38.15300
H  13.38100 54.34700 40.75700
H  13.24400 56.07500 41.14900
H  13.00700 55.49600 39.52600
H  9.04300 59.39100 40.33200
H  10.54400 60.06300 40.14400
H  9.96000 59.59200 41.77700
H  5.47600 57.95000 41.52600
H  3.91900 56.53400 43.53000
H  5.77500 59.32700 43.08000
H  6.77700 58.19600 44.02800
H  5.03700 58.32200 44.23700
H  3.47200 55.41700 40.80000
H  3.76400 57.15400 40.77600
H  1.87100 56.55800 42.81300
H  1.31600 56.13300 41.16700
H  1.86600 57.78100 41.45100
H  2.06100 51.92700 43.11200
H  2.66500 50.44200 43.97300
H  2.14600 50.18900 42.41700
H  7.10200 47.97600 42.14200
H  7.24600 45.89400 38.97500
H  5.38200 45.52600 39.06500
H  6.60400 44.60900 39.94100

