158

Mg 48.66300 45.82100 43.25500
C  45.36200 46.24800 42.24800
C  48.78000 42.74600 41.81600
C  51.95100 45.89500 43.89200
C  48.60400 49.44200 43.98900
N  47.22400 44.63800 42.19000
C  45.92100 45.01500 41.79700
C  45.32200 43.97200 40.87200
C  46.44000 42.84400 40.85900
C  47.50300 43.37600 41.77600
C  45.88800 41.42400 41.25400
C  45.08900 44.44500 39.35000
C  43.81400 44.00200 38.64200
H  43.98100 43.02500 37.46700
N  50.21000 44.51100 42.83900
C  50.02900 43.24800 42.24300
C  51.27300 42.56100 42.31000
C  52.23200 43.44100 42.91800
C  51.52800 44.73300 43.27200
C  51.40300 41.15500 41.66600
C  53.77000 43.09700 43.01600
O  54.16400 41.99800 42.61800
C  54.72600 44.12200 43.48000
N  50.09400 47.45400 43.85200
C  51.38300 47.12500 44.15400
C  52.13100 48.35300 44.67300
C  51.08600 49.47600 44.57700
C  49.84400 48.74300 44.11600
C  52.85400 48.24100 45.98300
C  51.46300 50.67000 43.55300
C  51.60600 52.02300 44.17000
N  47.25000 47.50000 43.29300
C  47.34400 48.84000 43.67300
C  46.06800 49.47000 43.61800
C  45.28200 48.44100 43.08000
C  46.06500 47.31100 42.75100
C  45.71700 50.74700 44.41000
C  43.82900 48.09400 42.85500
O  42.73800 48.74800 43.03700
C  43.92600 46.76200 42.06900
C  42.77800 45.83600 42.37300
O  42.00500 45.38900 41.54900
O  42.86200 45.28700 43.65700
C  42.24300 43.93000 43.82700
H  48.86300 41.83800 41.21400
H  53.01500 45.84000 44.13400
H  48.52900 50.52800 44.07400
H  44.51700 43.51300 41.44400
H  47.00300 42.90900 39.92800
H  46.48600 41.05900 42.09000
H  45.93800 40.75300 40.39700
H  44.91600 41.33100 41.73800
H  45.79400 44.07400 38.60700
H  45.12600 45.53500 39.34700
H  43.25800 44.91100 38.41100
H  43.22000 43.46800 39.38300
H  50.58100 40.44100 41.62100
H  52.12300 40.65200 42.31200
H  51.81600 41.28900 40.66600
H  54.54900 44.33700 44.53400
H  54.83100 44.93300 42.75800
H  55.60900 43.48700 43.40000
H  52.90400 48.56800 43.93500
H  50.74000 49.89700 45.52100
H  53.92600 48.30900 45.80000
H  52.64900 47.27800 46.45200
H  52.54500 49.03600 46.66100
H  50.81000 50.59800 42.68300
H  52.46500 50.45400 43.18100
H  51.20800 52.00800 45.18500
H  51.03100 52.76000 43.60900
H  52.62600 52.35300 44.36800
H  44.71100 51.10600 44.19600
H  46.37500 51.52800 44.02800
H  45.82300 50.57900 45.48200
H  43.87500 47.21700 41.08100
H  42.38500 43.56300 44.84300
H  42.64800 43.23000 43.09700
H  41.18900 43.81000 43.57500
Mg 26.36100 50.28400 26.02800
C  24.81300 51.34500 28.97200
C  29.03600 49.23000 27.92700
C  27.93800 49.48200 23.21100
C  23.74400 51.62500 24.24400
N  26.86600 50.29600 28.28900
C  26.02700 50.70200 29.27100
C  26.62100 50.30200 30.64600
C  28.09100 49.88400 30.31600
C  28.03600 49.73300 28.77800
C  29.12800 51.02300 30.69600
C  25.78400 49.22200 31.43200
C  25.05400 49.63200 32.72900
H  25.88400 50.14900 33.92500
N  28.22500 49.50400 25.62100
C  29.17200 49.09900 26.56800
C  30.21200 48.25200 25.95300
C  29.87200 48.26200 24.54600
C  28.69600 49.18500 24.39600
C  31.31400 47.44700 26.65400
C  30.46000 47.45700 23.39600
O  29.96400 47.46400 22.29500
C  31.64800 46.55600 23.67500
N  25.87600 50.63700 24.04000
C  26.69400 50.09100 23.03800
C  26.07700 50.32300 21.69600
C  24.67600 50.92700 22.06700
C  24.76000 51.16100 23.53000
C  26.95200 51.10000 20.70900
C  23.45600 49.96600 21.65800
C  22.33300 50.65100 20.86800
N  24.59100 51.25100 26.39200
C  23.60600 51.67000 25.62900
C  22.58000 52.25800 26.41300
C  23.00500 52.13500 27.75800
C  24.21800 51.47400 27.66800
C  21.25600 52.91200 26.02100
C  22.66000 52.40700 29.12500
O  21.66400 52.94800 29.62200
C  23.77900 51.79200 30.00600
C  24.28400 52.87200 30.94500
O  25.38100 53.37300 30.82600
O  23.38400 53.02800 31.92500
C  24.01300 53.54500 33.15800
H  29.95600 48.94300 28.44200
H  28.51200 49.14600 22.34400
H  22.94500 52.03200 23.62100
H  26.65900 51.20200 31.25900
H  28.31000 48.89900 30.72700
H  28.68600 51.77700 31.34700
H  29.52800 51.53800 29.82200
H  29.97900 50.47300 31.09600
H  26.38300 48.34000 31.65600
H  25.01200 48.85900 30.75400
H  24.50700 48.74700 33.05400
H  24.44900 50.52600 32.58100
H  31.12300 46.38200 26.52600
H  31.34200 47.71000 27.71200
H  32.26200 47.78000 26.23100
H  31.48600 45.77600 24.41900
H  32.45500 47.21700 23.99300
H  32.02900 46.18700 22.72300
H  26.05400 49.30100 21.32000
H  24.40800 51.92300 21.71300
H  27.69300 51.63700 21.30000
H  26.48500 51.88800 20.11800
H  27.39500 50.36900 20.03200
H  22.95300 49.49200 22.50100
H  23.80900 49.11900 21.07100
H  21.44200 50.67000 21.49700
H  22.02500 50.16100 19.94400
H  22.47200 51.69700 20.59600
H  20.91500 52.63500 25.02400
H  21.35600 53.98800 26.16600
H  20.55300 52.51000 26.75000
H  23.19000 51.02000 30.50100
H  24.00200 54.63100 33.07500
H  24.99000 53.10800 33.37000
H  23.39300 53.23100 33.99800

