158

Mg 47.41600 25.79300 29.30800
C  48.29300 28.10500 31.95700
C  46.24500 23.76800 31.77900
C  46.96100 23.55100 27.06300
C  48.94600 27.92600 27.12100
N  47.21300 26.03500 31.72500
C  47.68600 26.97000 32.52100
C  47.47500 26.61800 33.97200
C  46.90200 25.15300 33.82400
C  46.82000 24.89900 32.37000
C  47.67700 23.96200 34.62300
C  46.31800 27.59800 34.50100
C  46.10800 27.80300 35.97600
H  46.72400 26.99700 37.10500
N  46.57200 23.94300 29.38400
C  46.07000 23.32400 30.46700
C  45.41500 22.11100 30.10100
C  45.53600 22.05200 28.65700
C  46.36300 23.20500 28.31000
C  44.72500 21.06400 31.07700
C  45.08500 20.99600 27.63200
O  45.41100 21.02700 26.43000
C  44.22600 19.89800 28.00200
N  48.12600 25.62000 27.40700
C  47.77200 24.59600 26.63700
C  48.34500 24.77100 25.24200
C  48.76300 26.25900 25.18200
C  48.53900 26.69200 26.65500
C  49.54700 23.81900 24.86200
C  48.02300 27.15700 24.15600
C  48.80700 28.19600 23.43100
N  48.28200 27.77000 29.44700
C  48.97000 28.46500 28.40600
C  49.50000 29.71600 28.90600
C  49.25500 29.62600 30.35900
C  48.51300 28.39700 30.58500
C  50.11200 30.78000 28.16500
C  49.51300 30.21300 31.62700
O  50.14000 31.20100 31.91300
C  48.89500 29.29200 32.68500
C  49.95600 28.93500 33.71500
O  51.06200 28.62800 33.46300
O  49.46200 29.09900 34.99600
C  50.44500 28.94800 36.06700
H  45.69800 23.27600 32.58700
H  46.64800 23.02600 26.15800
H  49.39900 28.57400 26.36900
H  48.35900 26.66800 34.60900
H  45.86700 25.08700 34.16100
H  48.26500 23.35800 33.93200
H  47.00600 23.23400 35.08000
H  48.28000 24.40600 35.41500
H  45.38000 27.20100 34.11300
H  46.44000 28.52200 33.93600
H  45.02300 27.69800 35.97500
H  46.18400 28.86800 36.19900
H  44.79600 21.49400 32.07500
H  45.20300 20.08400 31.06800
H  43.70100 20.83900 30.77600
H  44.65300 19.30900 28.81200
H  44.04800 19.18300 27.19800
H  43.25200 20.28400 28.30500
H  47.46600 24.54000 24.63900
H  49.81900 26.40500 24.95400
H  50.40500 24.32300 24.41900
H  49.18100 23.07600 24.15400
H  49.98900 23.36800 25.75100
H  47.29400 27.69200 24.76600
H  47.47100 26.58100 23.41300
H  48.43800 28.28400 22.40900
H  49.88700 28.04700 23.44900
H  48.82500 29.16400 23.93300
H  49.39500 31.58800 28.01800
H  50.39400 30.51700 27.14500
H  50.93100 31.12700 28.79400
H  48.11600 29.85500 33.19800
H  51.19800 29.72000 35.90700
H  50.76800 27.90800 36.03500
H  49.89500 29.21700 36.96900
Mg -11.40000 37.44200 43.16700
C  -9.01900 34.82400 42.68200
C  -9.05100 39.63100 42.08200
C  -13.80200 39.68700 43.06200
C  -13.75000 34.88400 43.75800
N  -9.22000 37.15600 42.49200
C  -8.44800 36.07100 42.46200
C  -7.01200 36.40700 41.87300
C  -7.07600 37.98500 41.87700
C  -8.51200 38.32500 42.20000
C  -6.20500 38.63600 42.87600
C  -6.74100 35.83500 40.39500
C  -5.28800 35.35700 40.11500
H  -4.59900 36.08600 38.90200
N  -11.42400 39.38400 42.59500
C  -10.33900 40.14300 42.31200
C  -10.77500 41.47000 42.03300
C  -12.18600 41.53200 42.24400
C  -12.54700 40.16900 42.64800
C  -9.85000 42.56500 41.50000
C  -13.05700 42.75700 41.91500
O  -12.70600 43.84800 41.49700
C  -14.57100 42.68400 42.16500
N  -13.58200 37.32400 43.34200
C  -14.27800 38.41500 43.39700
C  -15.72900 38.21000 43.80000
C  -15.68900 36.61300 43.69900
C  -14.24100 36.18700 43.67200
C  -16.25700 38.84600 45.13400
C  -16.48900 36.04800 42.46700
C  -17.68200 35.13200 42.93100
N  -11.40700 35.34400 43.43100
C  -12.47100 34.47700 43.57400
C  -12.05300 33.08800 43.55000
C  -10.65500 33.23000 43.27800
C  -10.33300 34.59100 43.12000
C  -12.77500 31.80900 43.80100
C  -9.39900 32.44900 43.10500
O  -9.16000 31.27600 43.23000
C  -8.36600 33.48700 42.59200
C  -7.20300 33.44200 43.57700
O  -7.27800 33.76200 44.76800
O  -6.10800 32.90000 43.04300
C  -5.01800 32.62700 44.09300
H  -8.29700 40.36000 41.77800
H  -14.58900 40.37800 43.36900
H  -14.46800 34.06200 43.81000
H  -6.32800 36.07800 42.65500
H  -6.94200 38.43800 40.89500
H  -5.45500 37.96200 43.29100
H  -6.74900 39.05500 43.72300
H  -5.61200 39.43700 42.43500
H  -6.87200 36.72900 39.78600
H  -7.38200 34.97600 40.20200
H  -5.25000 34.27500 39.99300
H  -4.65200 35.46200 40.99400
H  -8.85000 42.24500 41.21000
H  -9.77600 43.30600 42.29500
H  -10.38000 43.07400 40.69400
H  -15.02800 43.62600 41.86400
H  -14.85400 42.63300 43.21600
H  -14.84100 41.73800 41.69400
H  -16.45300 38.56000 43.06500
H  -16.10600 36.37000 44.67600
H  -17.34400 38.92300 45.11300
H  -15.82700 39.80900 45.40900
H  -15.84000 38.24300 45.94100
H  -15.82500 35.48200 41.81500
H  -16.81300 36.82700 41.77600
H  -17.77100 34.12000 42.53700
H  -18.66700 35.53300 42.69400
H  -17.69500 34.98400 44.01100
H  -13.85700 31.82900 43.66800
H  -12.50900 31.29300 44.72300
H  -12.63600 31.10300 42.98100
H  -8.01400 33.18800 41.60400
H  -5.17900 31.65700 44.56500
H  -4.97600 33.41900 44.84000
H  -4.02100 32.52100 43.66600

