158

Mg 53.60100 24.41200 45.05700
C  51.08400 26.67700 44.28400
C  51.60100 21.85700 43.86800
C  56.30500 22.35800 45.20800
C  55.54300 27.01400 46.19400
N  51.60500 24.27600 44.10400
C  50.73600 25.36600 43.88700
C  49.47000 24.85500 43.26700
C  49.47300 23.32300 43.36800
C  50.95600 23.10100 43.82100
C  48.51900 22.78100 44.52100
C  49.22800 25.30400 41.82200
C  50.59200 25.42500 40.91600
H  51.45500 24.17800 40.60600
N  53.89400 22.32700 44.64600
C  52.93500 21.49000 44.28000
C  53.50600 20.18000 44.25500
C  54.84100 20.31500 44.72400
C  55.08600 21.70700 44.88500
C  52.73700 18.98300 43.81600
C  55.83400 19.11400 44.96400
O  55.49900 17.95500 44.83000
C  57.29300 19.43800 45.42400
N  55.72100 24.71500 45.45200
C  56.63100 23.68500 45.44900
C  58.02500 24.19700 45.73100
C  57.79300 25.72500 45.95700
C  56.24500 25.82000 45.88400
C  58.76800 23.37500 46.82000
C  58.37900 26.69200 44.90200
C  59.53200 27.50900 45.42000
N  53.41800 26.41200 45.27900
C  54.20500 27.32800 45.86400
C  53.53000 28.60200 45.99000
C  52.29400 28.41900 45.39100
C  52.29900 27.04000 44.94400
C  53.96400 29.94600 46.64800
C  51.03700 29.07300 45.04000
O  50.60800 30.18300 45.12300
C  50.27800 27.96500 44.25000
C  50.06700 28.47200 42.85700
O  50.92000 28.47200 42.01100
O  48.76700 28.84000 42.67200
C  48.27000 29.07200 41.30800
H  51.03300 20.93900 43.70200
H  57.21600 21.75900 45.14800
H  56.19500 27.77700 46.62300
H  48.81500 25.43800 43.91500
H  49.26300 22.88200 42.39400
H  48.80700 21.75600 44.75700
H  47.47400 22.71600 44.22000
H  48.64300 23.46900 45.35700
H  48.75300 26.28200 41.75000
H  48.58900 24.55600 41.35100
H  51.34500 26.17100 41.17300
H  50.22500 25.73200 39.93600
H  52.04500 19.34800 43.05700
H  52.21200 18.52600 44.65400
H  53.23400 18.20400 43.23800
H  57.74300 18.45500 45.56600
H  57.27900 20.03800 46.33400
H  57.85200 19.97000 44.65400
H  58.54300 24.00100 44.79200
H  58.12000 25.95500 46.97100
H  58.95500 23.98500 47.70400
H  59.62900 22.83600 46.42300
H  58.19800 22.50400 47.14300
H  57.64100 27.32100 44.40400
H  58.88200 26.16900 44.08800
H  59.34400 27.52100 46.49400
H  59.58100 28.50400 44.97800
H  60.45300 26.96900 45.20000
H  53.71800 30.72700 45.92800
H  54.96300 29.94800 47.08400
H  53.22800 30.09100 47.43900
H  49.36400 27.64800 44.75200
H  49.06300 29.53300 40.71800
H  47.46100 29.76800 41.53100
H  47.83500 28.17600 40.86700
Mg -11.38100 37.69700 42.31700
C  -9.15700 35.05000 41.45000
C  -9.27700 39.92700 40.86400
C  -13.98000 39.99500 42.05700
C  -13.71300 35.14600 43.02500
N  -9.62500 37.43500 41.21000
C  -8.87000 36.29500 40.92800
C  -7.68000 36.53600 40.06600
C  -7.53000 38.09600 40.18400
C  -8.89300 38.55100 40.81600
C  -6.25000 38.52600 40.96500
C  -7.93900 36.08500 38.59900
C  -6.85600 35.17400 38.02400
H  -6.13300 35.68500 36.72500
N  -11.47500 39.86400 41.90100
C  -10.51900 40.54800 41.24400
C  -10.92700 41.90800 41.27800
C  -12.34200 41.87600 41.38500
C  -12.69800 40.55500 41.81500
C  -10.00700 43.02900 40.94500
C  -13.25700 43.02400 41.09600
O  -12.77000 44.14200 40.93200
C  -14.66000 42.93700 41.07300
N  -13.45600 37.60600 42.59600
C  -14.29600 38.72600 42.58700
C  -15.66600 38.33500 43.15600
C  -15.64700 36.80100 43.41600
C  -14.17600 36.48000 43.01000
C  -16.28400 39.14500 44.33300
C  -16.69600 35.95600 42.61200
C  -17.35200 34.82100 43.37400
N  -11.43600 35.50600 42.33300
C  -12.41800 34.68400 42.67400
C  -11.95100 33.34000 42.75900
C  -10.62500 33.40800 42.28400
C  -10.38900 34.76400 41.99600
C  -12.70100 32.16600 43.39600
C  -9.39100 32.69200 41.97100
O  -9.16300 31.49000 42.11300
C  -8.40900 33.72800 41.38900
C  -7.24300 33.77200 42.32600
O  -6.07500 33.80300 42.02700
O  -7.69800 33.90000 43.62500
C  -6.74200 34.09600 44.69800
H  -8.53800 40.65100 40.51600
H  -14.92600 40.53100 41.95700
H  -14.43900 34.36500 43.26100
H  -6.81200 36.02400 40.48100
H  -7.42600 38.56000 39.20300
H  -5.40300 37.87000 40.76000
H  -6.38300 38.55300 42.04600
H  -5.88600 39.50100 40.64200
H  -8.01700 36.98000 37.98200
H  -8.94000 35.65500 38.60200
H  -7.23400 34.23000 37.63100
H  -5.98200 35.05800 38.66500
H  -10.33100 43.61400 40.08400
H  -8.98300 42.70000 40.76800
H  -9.82200 43.76000 41.73200
H  -15.07300 43.89200 40.74900
H  -14.84400 42.80000 42.13800
H  -15.01000 42.06700 40.51700
H  -16.39200 38.55200 42.37200
H  -15.63400 36.65300 44.49600
H  -16.97200 38.50800 44.88900
H  -16.96500 39.88600 43.91600
H  -15.55400 39.57700 45.01700
H  -16.17700 35.58800 41.72700
H  -17.52800 36.60400 42.33500
H  -18.43800 34.90800 43.39200
H  -16.99700 34.86700 44.40400
H  -17.08000 33.87000 42.91600
H  -12.95300 31.37700 42.68700
H  -13.59700 32.54400 43.88700
H  -12.02800 31.63800 44.07200
H  -7.96900 33.45800 40.42900
H  -7.01200 34.89200 45.39300
H  -5.77400 34.40600 44.30500
H  -6.72000 33.12000 45.18200

