158

Mg -10.73800 38.38800 40.59000
C  -8.84400 35.73900 39.53000
C  -8.18200 40.47300 39.24400
C  -12.80700 41.15800 40.59800
C  -13.15600 36.33900 41.76600
N  -8.72600 38.05700 39.45500
C  -8.24100 36.87700 39.05900
C  -6.76800 37.00900 38.54300
C  -6.56300 38.57300 38.63800
C  -7.91400 39.12000 39.15700
C  -5.33300 39.03600 39.41000
C  -6.70500 36.38800 37.07300
C  -5.36300 35.75200 36.68300
H  -4.87600 36.16200 35.26100
N  -10.43700 40.61600 40.10200
C  -9.31400 41.22700 39.69300
C  -9.55300 42.52200 39.48300
C  -10.94900 42.81100 39.77500
C  -11.49000 41.47600 40.14800
C  -8.47600 43.52900 39.08100
C  -11.66000 44.11700 39.61000
O  -11.08100 45.19000 39.50500
C  -13.17200 44.15500 39.71000
N  -12.58600 38.68700 40.94600
C  -13.24700 39.89100 40.93600
C  -14.76000 39.67200 41.26000
C  -14.85000 38.17200 41.53700
C  -13.40300 37.71200 41.49500
C  -15.37900 40.67500 42.23900
C  -15.76200 37.31600 40.59800
C  -17.17600 37.11200 41.08300
N  -10.92400 36.47300 40.81000
C  -11.93300 35.74300 41.36900
C  -11.51400 34.36000 41.53300
C  -10.30200 34.27900 40.72000
C  -9.98500 35.60700 40.28200
C  -12.21800 33.23300 42.29100
C  -9.25300 33.37300 40.26400
O  -9.03900 32.16600 40.37100
C  -8.31600 34.28600 39.40900
C  -6.93200 34.03500 40.05100
O  -6.07400 33.38700 39.48900
O  -6.74900 34.76100 41.18900
C  -5.32600 34.69900 41.70100
H  -7.43600 41.16400 38.84600
H  -13.42300 42.04600 40.75400
H  -13.95800 35.73600 42.19800
H  -6.16600 36.38700 39.20600
H  -6.29700 38.94200 37.64700
H  -4.76200 39.74600 38.81200
H  -4.65200 38.18600 39.46500
H  -5.73000 39.51800 40.30300
H  -6.88300 37.27800 36.47000
H  -7.51800 35.72100 36.78600
H  -5.44800 34.66500 36.67500
H  -4.60100 36.03600 37.40900
H  -8.28600 43.27300 38.03900
H  -7.60300 43.34600 39.70700
H  -8.69500 44.59300 39.17600
H  -13.34800 44.04500 40.78000
H  -13.58400 43.40100 39.04000
H  -13.58100 45.12600 39.43000
H  -15.30400 39.87600 40.33800
H  -15.22600 37.92600 42.53000
H  -15.75700 40.23500 43.16200
H  -16.17300 41.23100 41.74000
H  -14.63400 41.41200 42.54000
H  -15.28900 36.37000 40.33600
H  -15.98600 37.80400 39.64900
H  -17.52500 36.25500 40.50600
H  -17.76800 38.00600 40.88800
H  -17.23700 36.89300 42.14900
H  -11.89100 33.27300 43.33000
H  -11.79600 32.31100 41.89100
H  -13.28900 33.39300 42.16800
H  -8.36600 33.86000 38.40700
H  -4.90700 35.52100 42.28200
H  -4.63700 34.72600 40.85700
H  -5.19500 33.75300 42.22700
Mg -1.08600 34.77200 26.46800
C  -2.66200 32.87800 29.06000
C  0.15300 36.82400 29.01000
C  0.23900 36.69900 24.12200
C  -2.67200 32.93500 24.13200
N  -1.38300 34.84800 28.79800
C  -1.87600 33.89100 29.58000
C  -1.53000 34.20700 31.06800
C  -0.75100 35.52100 31.06300
C  -0.64900 35.80400 29.52200
C  -1.50800 36.72900 31.90300
C  -0.87400 33.02300 31.98000
C  -1.45800 32.88600 33.40000
H  -0.51500 32.97900 34.56700
N  0.04500 36.43300 26.52900
C  0.54400 37.10200 27.67700
C  1.53000 38.04200 27.29500
C  1.53100 38.11600 25.86900
C  0.63600 37.00200 25.43300
C  2.30700 38.95700 28.31000
C  2.29200 38.99900 24.93900
O  2.21200 38.82100 23.71700
C  3.05000 40.16900 25.48700
N  -1.24900 34.86700 24.37100
C  -0.54900 35.68500 23.61100
C  -0.67500 35.39900 22.11700
C  -1.33300 33.95000 22.18400
C  -1.75900 33.87500 23.64400
C  -1.57200 36.42100 21.28900
C  -0.65500 32.66400 21.58900
C  0.66100 32.36000 22.30700
N  -2.41800 33.28300 26.52700
C  -3.02300 32.67600 25.49600
C  -3.80400 31.58400 25.93200
C  -3.68900 31.68700 27.32600
C  -2.85400 32.71300 27.64800
C  -4.70300 30.68700 25.19900
C  -4.02300 30.98500 28.53600
O  -4.67000 29.97000 28.64000
C  -3.39100 31.74700 29.75000
C  -4.52600 32.30200 30.52600
O  -5.31500 33.15500 30.21300
O  -4.58900 31.64100 31.77300
C  -5.66300 32.08700 32.63900
H  0.42100 37.56900 29.76200
H  0.58500 37.29100 23.27200
H  -3.11700 32.23900 23.41800
H  -2.48300 34.44800 31.53800
H  0.21000 35.44200 31.57200
H  -2.47900 36.86200 31.42600
H  -0.93600 37.65400 31.97800
H  -1.75400 36.32100 32.88300
H  0.20000 33.20200 32.01500
H  -1.13200 32.02300 31.63100
H  -1.89900 31.89100 33.46300
H  -2.26300 33.61000 33.52700
H  3.34400 38.65100 28.16900
H  2.13600 38.71600 29.35900
H  2.09400 39.99200 28.04100
H  2.37800 40.80300 26.06500
H  3.50600 40.73400 24.67400
H  3.89900 39.90800 26.11800
H  0.35400 35.46100 21.76300
H  -2.31300 33.89600 21.71000
H  -1.51500 37.42000 21.72200
H  -2.63500 36.18200 21.26000
H  -1.32800 36.54600 20.23400
H  -0.49000 32.69800 20.51200
H  -1.27000 31.77900 21.75400
H  1.29100 31.86900 21.56500
H  0.43200 31.66900 23.11900
H  1.30000 33.19900 22.58500
H  -4.75400 30.99200 24.15400
H  -5.70700 30.77900 25.61300
H  -4.37600 29.65100 25.28700
H  -2.76300 31.09000 30.35100
H  -5.24600 32.88500 33.25400
H  -5.84600 31.17100 33.20100
H  -6.59700 32.40800 32.17700

