158

Mg 1.48000 -1.75400 44.79600
C  4.77900 -0.88200 44.30600
C  0.45000 1.35400 43.82300
C  -1.66600 -3.04300 44.55900
C  2.65200 -5.07200 45.40700
N  2.50700 0.06900 44.34200
C  3.85500 0.16200 44.11900
C  4.17300 1.57700 43.52000
C  2.79600 2.36100 43.73900
C  1.83500 1.18400 43.94900
C  2.69100 3.28000 44.93200
C  4.59300 1.41500 42.03600
C  5.97900 1.98500 41.68500
H  6.52000 1.64800 40.27500
N  -0.30300 -0.96700 44.17500
C  -0.55400 0.37800 43.89700
C  -2.01700 0.54200 43.76800
C  -2.59700 -0.74500 43.88600
C  -1.47400 -1.70000 44.16200
C  -2.69100 1.88600 43.33500
C  -4.11200 -1.00900 43.87100
O  -4.89900 -0.07100 43.77400
C  -4.73300 -2.45000 43.87600
N  0.58100 -3.77300 44.99600
C  -0.73700 -4.04900 44.92800
C  -1.10000 -5.50700 45.39400
C  0.33900 -6.06300 45.74100
C  1.27500 -4.88600 45.32800
C  -2.17300 -5.67600 46.51500
C  0.74400 -7.42000 45.11700
C  1.16800 -8.52500 46.12100
N  3.30000 -2.81100 44.96400
C  3.62400 -4.11300 45.28800
C  5.07700 -4.20800 45.40800
C  5.54900 -2.97200 45.00500
C  4.45000 -2.14800 44.72400
C  5.76200 -5.43100 45.86500
C  6.75400 -2.21100 44.86100
O  7.90500 -2.54700 45.05500
C  6.27500 -0.75600 44.30100
C  6.57600 0.36200 45.28800
O  6.01300 0.43800 46.37900
O  7.52500 1.24800 44.87000
C  7.66700 2.49500 45.74000
H  0.05000 2.33800 43.56700
H  -2.70500 -3.37700 44.51500
H  3.02000 -6.07800 45.61700
H  4.88300 2.19400 44.07200
H  2.45800 2.90200 42.85500
H  2.56100 2.69800 45.84400
H  1.94200 4.06400 44.82200
H  3.62300 3.80100 45.15000
H  3.87500 1.93600 41.40300
H  4.52800 0.39000 41.67100
H  6.75100 1.68000 42.39200
H  5.99200 3.07400 41.74200
H  -3.22900 1.82600 42.38900
H  -1.88900 2.62300 43.37500
H  -3.40000 2.12800 44.12700
H  -5.79200 -2.39200 43.62500
H  -4.60800 -2.78800 44.90500
H  -4.19800 -3.00300 43.10400
H  -1.48900 -5.99900 44.50300
H  0.37200 -6.07000 46.83100
H  -3.00200 -6.27200 46.13300
H  -2.67800 -4.74000 46.75400
H  -1.76400 -6.29200 47.31500
H  1.46300 -7.31100 44.30500
H  -0.19300 -7.75900 44.67400
H  2.23500 -8.71900 46.01000
H  0.72000 -9.51500 46.04100
H  1.09600 -8.23800 47.17000
H  5.58000 -5.59600 46.92700
H  6.83600 -5.29500 45.73800
H  5.43700 -6.34800 45.37300
H  6.70800 -0.52500 43.32700
H  8.37400 3.23900 45.37400
H  7.92500 2.29000 46.77900
H  6.66900 2.92900 45.79800
Mg -6.00400 25.27300 26.58600
C  -4.53400 26.77200 29.38900
C  -8.02500 23.52500 28.56700
C  -6.93700 23.73700 23.82900
C  -3.36800 26.87200 24.62500
N  -6.12300 24.99900 28.75500
C  -5.53600 25.84500 29.67200
C  -6.09400 25.53000 31.05600
C  -7.20900 24.45500 30.82100
C  -7.12500 24.31700 29.30400
C  -6.96800 23.16700 31.53800
C  -6.64000 26.79500 31.74100
C  -6.54600 26.91900 33.25900
H  -5.89300 25.82700 34.13100
N  -7.47300 24.02300 26.19200
C  -8.21000 23.37200 27.15700
C  -9.22200 22.60300 26.52000
C  -8.87600 22.44600 25.15500
C  -7.73400 23.42000 24.94100
C  -10.47000 22.07700 27.29300
C  -9.45800 21.42300 24.18300
O  -9.02400 21.33000 23.04400
C  -10.48000 20.30500 24.63600
N  -5.19800 25.20900 24.52200
C  -5.81000 24.45700 23.60800
C  -5.19500 24.65300 22.17400
C  -4.07200 25.76200 22.42800
C  -4.24400 26.04500 23.99700
C  -4.73200 23.35100 21.51200
C  -4.16200 27.04700 21.45000
C  -3.11300 27.10200 20.35900
N  -4.25800 26.56600 26.88900
C  -3.33100 27.16400 26.01800
C  -2.43300 28.00600 26.75200
C  -2.92600 27.90800 28.07200
C  -3.97600 27.01500 28.09300
C  -1.41700 28.87900 26.20400
C  -2.65400 28.38600 29.49300
O  -1.76900 29.09900 29.99500
C  -3.71000 27.63300 30.35700
C  -2.96300 26.88300 31.36400
O  -2.24200 25.95900 31.11700
O  -3.00100 27.53400 32.55600
C  -2.11200 27.04400 33.61600
H  -8.82900 23.09200 29.16600
H  -7.46200 23.44800 22.91600
H  -2.63600 27.32500 23.95200
H  -5.29000 25.15700 31.69000
H  -8.20200 24.77500 31.13400
H  -7.83700 22.62000 31.90400
H  -6.29400 23.33600 32.37800
H  -6.38800 22.50700 30.89200
H  -7.70100 26.91900 31.52400
H  -6.22100 27.66500 31.23500
H  -7.48300 27.16500 33.75800
H  -5.87600 27.74400 33.50100
H  -11.36500 22.36400 26.74100
H  -10.61000 22.47400 28.29800
H  -10.48000 20.99200 27.40200
H  -9.93200 19.78900 25.42400
H  -10.61800 19.65100 23.77500
H  -11.48000 20.63400 24.91800
H  -5.87500 25.08800 21.44200
H  -3.12500 25.24000 22.29100
H  -3.65500 23.21200 21.59900
H  -5.07900 23.18100 20.49300
H  -5.08900 22.52600 22.12900
H  -4.16100 27.90600 22.12200
H  -5.15700 27.07500 21.00600
H  -2.31900 26.40000 20.61500
H  -2.81400 28.14000 20.21400
H  -3.63900 26.70900 19.48900
H  -1.27500 28.62100 25.15400
H  -0.51600 28.79400 26.81200
H  -1.82800 29.88800 26.20200
H  -4.31100 28.40000 30.84500
H  -1.87800 25.98700 33.49000
H  -2.52100 27.22300 34.61000
H  -1.12800 27.51300 33.58400

