158

Mg 24.66900 1.53100 28.76300
C  26.67100 1.26100 31.62700
C  21.92900 1.74400 30.75700
C  22.75900 1.65300 25.88800
C  27.44700 0.78500 26.81500
N  24.40400 1.63600 30.92400
C  25.31300 1.56100 31.96100
C  24.67900 1.67600 33.36500
C  23.16500 1.51400 33.08000
C  23.14100 1.66000 31.43900
C  22.44600 0.18000 33.45300
C  25.14900 3.02700 34.06100
C  25.91200 3.03400 35.44400
H  25.27400 3.92700 36.56400
N  22.70500 1.78300 28.41600
C  21.75200 1.86600 29.34100
C  20.47800 2.03700 28.69100
C  20.68700 1.86400 27.31500
C  22.09800 1.66800 27.16000
C  19.13100 2.17100 29.48700
C  19.62200 1.65800 26.15900
O  19.99900 1.42400 25.01600
C  18.24400 1.81900 26.39600
N  25.05100 1.25600 26.70400
C  24.13800 1.50600 25.71900
C  24.71300 1.52800 24.29300
C  26.25800 1.35900 24.56800
C  26.25300 1.14800 26.11700
C  24.23000 0.48100 23.41400
C  27.13000 2.53600 24.05700
C  27.21400 3.74800 25.03100
N  26.61800 0.97400 29.12600
C  27.62200 0.78300 28.19100
C  28.85800 0.64100 28.91300
C  28.52300 0.71300 30.26100
C  27.15100 1.02100 30.34400
C  30.20100 0.36100 28.41000
C  28.98500 0.65500 31.61900
O  30.11700 0.40300 31.97500
C  27.86400 1.11500 32.58000
C  27.60000 -0.03400 33.51300
O  26.69600 -0.85000 33.54500
O  28.54900 -0.04900 34.48100
C  28.64000 -1.15700 35.39100
H  21.10800 1.90700 31.46000
H  22.26300 1.73100 24.91900
H  28.36000 0.61700 26.23900
H  24.98000 0.86800 34.03300
H  22.56400 2.33900 33.46300
H  22.01700 -0.26800 32.55700
H  21.53100 0.28700 34.03600
H  23.05900 -0.51900 34.02100
H  24.24000 3.61400 34.19000
H  25.79000 3.53000 33.33700
H  26.91700 3.41400 35.26300
H  26.07300 2.00300 35.76100
H  19.43000 2.62800 30.43000
H  18.80100 1.13700 29.58800
H  18.29600 2.75200 29.09500
H  17.98100 2.61000 27.09900
H  17.75000 0.89600 26.70000
H  17.76900 2.05000 25.44300
H  24.51300 2.45700 23.75700
H  26.70900 0.45500 24.15900
H  23.23100 0.78800 23.10600
H  24.10000 -0.33800 24.12200
H  24.92000 0.23000 22.60800
H  26.75000 2.93900 23.11900
H  28.15400 2.21200 23.87300
H  26.28200 3.96900 25.55000
H  27.44100 4.66700 24.48900
H  27.99500 3.57100 25.77000
H  31.00900 0.67400 29.07100
H  30.34300 0.83500 27.43900
H  30.30900 -0.68600 28.12500
H  28.13400 2.07400 33.02300
H  28.70200 -2.07400 34.80600
H  27.92300 -1.25600 36.20500
H  29.61800 -0.97900 35.83600
Mg 29.82100 57.70200 39.40500
C  27.06600 55.56000 38.79100
C  31.93300 55.19800 38.48400
C  32.17900 60.11800 38.92200
C  27.38100 60.41800 39.87600
N  29.47900 55.62500 38.68200
C  28.26300 54.93100 38.47800
C  28.54400 53.54600 37.83200
C  30.05800 53.40200 38.14400
C  30.57500 54.82100 38.57700
C  30.51500 52.38400 39.13500
C  28.18700 53.21600 36.40700
C  28.35200 54.24000 35.37300
H  27.40000 54.27400 34.13800
N  31.90300 57.65500 38.91700
C  32.55500 56.50500 38.61800
C  33.90600 56.90400 38.20300
C  33.95700 58.34300 38.27800
C  32.65100 58.81800 38.78400
C  35.00400 55.84400 37.88100
C  35.13700 59.11300 37.78400
O  36.02000 58.54900 37.15000
C  35.24000 60.58400 38.03800
N  29.78000 59.94400 39.60700
C  30.91500 60.61200 39.22100
C  30.68100 62.15900 39.33700
C  29.13400 62.27400 39.68600
C  28.74300 60.81300 39.79300
C  31.59700 62.82600 40.37100
C  28.29400 63.05900 38.69800
C  27.85100 64.37000 39.19000
N  27.68500 57.98300 39.40000
C  26.87900 59.09200 39.58900
C  25.49900 58.68700 39.52100
C  25.52700 57.32100 39.20500
C  26.86600 56.97900 39.10800
C  24.29900 59.62400 39.89700
C  24.77200 56.16000 38.96200
O  23.57100 55.89300 38.93600
C  25.67100 55.03200 38.51900
C  25.28900 53.84000 39.37300
O  25.10900 53.82800 40.59200
O  25.06300 52.78200 38.51400
C  24.53600 51.49700 39.02200
H  32.52500 54.37400 38.08100
H  32.86000 60.93300 38.66500
H  26.60800 61.18900 39.91700
H  28.04900 52.84700 38.50600
H  30.56500 53.12400 37.22000
H  31.09100 52.73900 39.99000
H  31.00900 51.55600 38.62700
H  29.58300 52.01300 39.56000
H  27.20000 52.76600 36.30200
H  28.72700 52.34700 36.03200
H  29.33500 54.24500 34.90100
H  28.37000 55.22300 35.84500
H  35.43900 55.87300 36.88300
H  34.60600 54.84800 38.07400
H  35.72500 56.09800 38.65800
H  36.17500 61.07700 37.76800
H  34.94900 60.80700 39.06400
H  34.53500 60.96100 37.29700
H  30.89400 62.48400 38.31800
H  29.03800 62.68300 40.69100
H  32.63000 62.94900 40.04400
H  31.58700 62.28000 41.31400
H  31.20900 63.84200 40.44300
H  27.49500 62.49100 38.22100
H  28.83700 63.23500 37.77000
H  28.37900 64.96800 38.44700
H  28.21800 64.66100 40.17400
H  26.78400 64.57400 39.09600
H  24.14200 60.16700 38.96500
H  24.70900 60.32600 40.62300
H  23.43900 59.07200 40.27600
H  25.44900 54.81400 37.47500
H  23.57300 51.39700 38.52200
H  24.47300 51.49000 40.11000
H  25.05600 50.62000 38.63600

