158

Mg 24.05000 -4.42100 45.14300
C  26.23000 -2.18100 43.58900
C  21.36800 -3.16700 43.18600
C  22.37700 -7.34100 45.51200
C  26.85500 -5.85600 46.69300
N  23.82600 -2.95300 43.62700
C  24.82000 -2.12000 43.17100
C  24.21200 -1.01000 42.25000
C  22.70700 -1.26900 42.30800
C  22.55200 -2.49800 43.22300
C  21.85000 -0.07200 42.82100
C  24.75800 -1.05600 40.83900
C  24.50000 0.19300 39.98800
H  23.99900 -0.16500 38.59500
N  22.03200 -5.04400 44.58000
C  21.13200 -4.37700 43.74900
C  19.99400 -5.25000 43.52100
C  20.25500 -6.48600 44.19300
C  21.60600 -6.33900 44.84200
C  18.85200 -4.71500 42.68500
C  19.29200 -7.57900 44.15400
O  18.23000 -7.54700 43.50800
C  19.63900 -8.90200 44.84300
N  24.55100 -6.25900 46.06500
C  23.63500 -7.26300 46.09100
C  24.27600 -8.55700 46.73900
C  25.74200 -8.00500 47.18600
C  25.73400 -6.61200 46.56800
C  23.41100 -9.27700 47.75700
C  26.96600 -8.87600 46.83300
C  27.58900 -9.60900 48.04600
N  26.09400 -3.98700 45.32700
C  27.13000 -4.58200 46.06000
C  28.29100 -3.67600 46.04300
C  27.97100 -2.78300 44.99600
C  26.66300 -3.04100 44.63000
C  29.54700 -3.68600 46.91600
C  28.49000 -1.65400 44.29200
O  29.56200 -1.07800 44.43000
C  27.46100 -1.34800 43.28800
C  27.19000 0.09200 43.32200
O  27.14400 0.81200 44.31400
O  27.13500 0.63200 42.08500
C  26.90800 2.06100 42.08400
H  20.53400 -2.75400 42.61500
H  21.85000 -8.24800 45.81400
H  27.60100 -6.34800 47.32200
H  24.38300 -0.02900 42.69300
H  22.46100 -1.61000 41.30300
H  21.38300 0.58200 42.08400
H  22.42900 0.47000 43.56800
H  21.07500 -0.33000 43.54300
H  24.37600 -1.98700 40.42000
H  25.84400 -1.06600 40.93000
H  25.36600 0.83900 39.84600
H  23.74800 0.80900 40.48200
H  18.68500 -3.64700 42.82600
H  17.96600 -5.16700 43.13000
H  18.97900 -4.93000 41.62400
H  19.48400 -8.70800 45.90500
H  20.68100 -9.17000 44.67400
H  18.92000 -9.69500 44.64200
H  24.39400 -9.30400 45.95400
H  25.61200 -7.99700 48.26800
H  22.82100 -8.59300 48.36700
H  24.10000 -9.76500 48.44600
H  22.83800 -9.98500 47.15800
H  27.67500 -8.37700 46.17200
H  26.45100 -9.68800 46.31900
H  27.28200 -9.10000 48.96000
H  28.66500 -9.58900 47.87800
H  27.32300 -10.66600 48.00800
H  29.61300 -3.08300 47.82200
H  30.28000 -3.32700 46.19500
H  29.66600 -4.73300 47.19700
H  27.75200 -1.61400 42.27100
H  27.76100 2.55200 42.55100
H  25.97000 2.38400 42.53600
H  26.98900 2.49500 41.08800
Mg 48.63600 24.52300 28.89400
C  49.59100 26.89500 31.49600
C  47.67100 22.38100 31.43400
C  48.01900 22.17500 26.46700
C  49.63400 26.80300 26.58000
N  48.67000 24.66700 31.19200
C  48.97800 25.72900 32.01200
C  48.56100 25.44600 33.46100
C  48.10000 23.85900 33.37200
C  48.10800 23.62600 31.85900
C  48.91200 22.79100 34.30400
C  47.65100 26.54800 34.06000
C  48.06600 27.28000 35.36400
H  47.10200 27.16900 36.54700
N  47.94800 22.55600 28.93400
C  47.61500 21.82300 30.05800
C  47.16200 20.48200 29.60400
C  47.32100 20.48300 28.17200
C  47.80000 21.79300 27.78300
C  46.68000 19.45000 30.53200
C  47.09400 19.30400 27.23400
O  47.54800 19.35200 26.09800
C  46.53000 18.01500 27.69000
N  49.05200 24.43700 26.85600
C  48.60100 23.37400 26.02600
C  48.71300 23.72300 24.48700
C  48.88500 25.24600 24.59800
C  49.29900 25.49000 26.11800
C  49.93800 23.16500 23.87800
C  47.64100 26.07000 24.15600
C  47.89300 27.27800 23.21700
N  49.53200 26.40200 28.92200
C  49.86500 27.23700 27.87100
C  50.32100 28.54900 28.38900
C  50.21400 28.44700 29.77300
C  49.76500 27.13300 30.10000
C  50.82300 29.74300 27.61400
C  50.50500 29.15400 31.05600
O  50.92500 30.32700 31.15800
C  50.03300 28.23400 32.21600
C  51.11600 28.04900 33.15800
O  51.84100 27.10500 33.25700
O  51.20100 29.09100 34.08600
C  52.21200 28.95900 35.16900
H  47.24400 21.66700 32.14100
H  47.69300 21.51000 25.66400
H  49.81500 27.46300 25.72900
H  49.50700 25.58300 33.98300
H  47.07100 23.79500 33.72600
H  49.46100 22.03900 33.73800
H  48.31900 22.34400 35.10200
H  49.68300 23.42700 34.73700
H  46.68300 26.05500 34.14600
H  47.53200 27.23500 33.22300
H  48.18100 28.33200 35.10100
H  48.94100 26.89700 35.88800
H  46.60700 19.84900 31.54400
H  47.30000 18.55500 30.47300
H  45.65000 19.18300 30.29500
H  45.62400 18.16500 28.27800
H  47.22000 17.44300 28.31000
H  46.28600 17.31800 26.88800
H  47.90300 23.28600 23.90400
H  49.77500 25.51700 24.03000
H  49.81100 22.08300 23.91400
H  50.85900 23.52400 24.33900
H  50.10300 23.47300 22.84500
H  47.18700 26.50200 25.04800
H  46.96400 25.38700 23.64200
H  47.75300 26.95500 22.18500
H  48.94300 27.53300 23.35800
H  47.29700 28.10600 23.60000
H  50.36400 30.66800 27.96400
H  50.41400 29.59300 26.61400
H  51.87800 29.73500 27.34100
H  49.25200 28.83500 32.68200
H  53.16900 28.64300 34.75300
H  51.90700 28.20800 35.89700
H  52.39600 29.98300 35.49600

