158

Mg 24.84900 -5.41400 45.93900
C  26.96300 -3.25500 44.24700
C  22.31600 -4.41400 43.75500
C  23.02400 -8.14400 46.80500
C  27.71900 -6.86000 47.58900
N  24.73200 -4.00200 44.25400
C  25.71300 -3.23000 43.69100
C  25.24500 -2.69100 42.29900
C  23.66600 -2.80300 42.40700
C  23.53300 -3.73900 43.58600
C  22.95500 -1.42000 42.71700
C  25.96800 -3.57300 41.07400
C  26.86700 -2.80200 40.09400
H  26.30500 -2.76500 38.65500
N  22.87800 -6.25600 45.45300
C  21.99100 -5.59600 44.58800
C  20.65400 -6.23600 44.69600
C  20.69500 -7.25400 45.69600
C  22.16300 -7.29400 46.06500
C  19.50700 -5.71500 43.82600
C  19.61000 -8.22800 46.17400
O  18.49700 -8.33500 45.64400
C  19.88000 -9.18600 47.30100
N  25.39300 -7.27900 46.96000
C  24.45500 -8.22700 47.14800
C  24.90000 -9.38900 48.00600
C  26.36700 -8.93800 48.34600
C  26.55600 -7.64100 47.53800
C  24.08300 -9.77800 49.22600
C  27.47900 -9.95700 47.93700
C  28.20400 -10.74600 48.99300
N  26.96600 -5.08900 46.04000
C  27.97000 -5.62500 46.85900
C  29.10200 -4.85800 46.72400
C  28.81900 -3.92700 45.71100
C  27.48800 -4.06900 45.31000
C  30.29400 -5.05600 47.53200
C  29.39700 -2.84800 44.88900
O  30.46400 -2.26200 44.95300
C  28.21400 -2.37800 43.92000
C  28.05700 -0.93700 44.13000
O  27.40400 -0.42400 45.01800
O  28.74800 -0.23100 43.16000
C  28.76500 1.22600 43.29300
H  21.50200 -4.13500 43.08100
H  22.46000 -8.96500 47.25200
H  28.48400 -7.25100 48.26300
H  25.53000 -1.64000 42.34700
H  23.25200 -3.19700 41.47800
H  23.67100 -0.69400 43.10400
H  22.20400 -1.67200 43.46500
H  22.52500 -0.97300 41.82000
H  25.17300 -4.03900 40.49100
H  26.46000 -4.43000 41.53500
H  27.83000 -3.30100 40.19800
H  27.05500 -1.75600 40.33500
H  19.46000 -6.35900 42.94800
H  19.57800 -4.66400 43.54600
H  18.63700 -5.72100 44.48200
H  18.96500 -9.58500 47.73800
H  20.16200 -8.54400 48.13600
H  20.61700 -9.94700 47.04600
H  24.87900 -10.14000 47.21600
H  26.54800 -8.71600 49.39800
H  24.72700 -9.97900 50.08200
H  23.70300 -10.79100 49.09500
H  23.28900 -9.07500 49.47800
H  28.28500 -9.47600 47.38100
H  27.11200 -10.76100 47.29900
H  29.18800 -10.31900 49.18400
H  28.56500 -11.70900 48.63100
H  27.61200 -10.98000 49.87800
H  30.72400 -6.03600 47.32100
H  30.10700 -5.17700 48.59900
H  31.01000 -4.23900 47.45000
H  28.61700 -2.49100 42.91400
H  29.65300 1.54900 43.83600
H  27.87500 1.66300 43.74600
H  28.92400 1.59100 42.27900
Mg 39.99700 40.74400 26.79300
C  39.59100 43.03500 29.27300
C  41.18500 38.45100 29.22800
C  40.70700 38.55600 24.29900
C  39.09600 43.10100 24.37800
N  40.26300 40.73200 28.96900
C  39.73700 41.70800 29.78100
C  39.68200 41.19800 31.17700
C  40.44100 39.85100 31.14900
C  40.67300 39.66100 29.66200
C  41.83200 39.71100 31.83200
C  38.29100 41.19400 32.05100
C  38.49200 42.05500 33.37700
H  37.82800 41.48900 34.60900
N  40.76900 38.86000 26.81400
C  41.24500 38.09900 27.85500
C  41.72600 36.79300 27.47500
C  41.55100 36.80400 26.06000
C  40.90800 38.10400 25.67200
C  42.35600 35.72100 28.45400
C  41.73200 35.61900 25.05800
O  41.30600 35.70300 23.88700
C  42.36200 34.41400 25.46500
N  39.95000 40.77400 24.64200
C  40.19700 39.74300 23.83700
C  40.05100 40.07300 22.31800
C  39.26800 41.44300 22.49000
C  39.40400 41.83700 23.94800
C  41.47300 40.18200 21.49500
C  37.81600 41.31800 21.95500
C  36.83900 40.67800 22.94500
N  39.49900 42.66500 26.72800
C  39.21500 43.57100 25.68500
C  39.05100 44.91900 26.23400
C  39.23200 44.75200 27.62100
C  39.42100 43.33900 27.88200
C  38.81900 46.19200 25.49100
C  39.15800 45.45300 28.82300
O  38.88200 46.63100 29.04600
C  39.35700 44.31700 30.02400
C  40.55000 44.87000 30.86000
O  41.73000 44.82500 30.53600
O  40.08300 45.13000 32.05100
C  40.88700 45.68200 33.09500
H  41.49500 37.72000 29.97800
H  41.14000 37.92300 23.52100
H  38.76300 43.86000 23.66700
H  40.34900 41.92500 31.64100
H  39.74200 39.06800 31.44200
H  41.86400 40.42800 32.65100
H  42.69300 39.88800 31.18800
H  41.97500 38.74600 32.31900
H  37.96700 40.17400 32.25900
H  37.54700 41.61400 31.37400
H  38.05900 43.02200 33.12000
H  39.56900 42.08400 33.54600
H  41.88300 34.75500 28.28000
H  42.12900 35.90400 29.50500
H  43.42800 35.64700 28.27000
H  42.61300 33.72200 24.66100
H  41.65400 33.76500 25.98100
H  43.26700 34.52600 26.06100
H  39.51100 39.24100 21.86600
H  39.75700 42.26600 21.96900
H  41.60400 41.23500 21.24400
H  41.40000 39.69000 20.52500
H  42.39200 39.92100 22.01800
H  37.79000 40.73900 21.03200
H  37.51800 42.29400 21.57200
H  37.15900 40.37600 23.94200
H  36.39000 39.79200 22.49700
H  36.02300 41.39000 23.06900
H  37.73900 46.25300 25.35700
H  39.33100 46.20700 24.52900
H  39.12300 47.01600 26.13600
H  38.45100 44.11400 30.59400
H  41.91000 45.84700 32.75700
H  40.87700 44.79500 33.72700
H  40.38400 46.56300 33.49200

