158

Mg 40.48300 8.35400 29.65300
C  42.33400 9.62300 32.55000
C  38.22200 7.08900 31.83300
C  39.30700 6.45500 27.15000
C  43.28900 9.02800 27.67800
N  40.26900 8.46900 31.98300
C  41.07600 9.13300 32.96400
C  40.48200 9.10200 34.32500
C  39.19300 8.15300 34.06100
C  39.23900 7.75400 32.60800
C  39.02800 7.02300 35.08100
C  40.09900 10.44300 34.97800
C  39.22400 10.40600 36.22800
H  39.59600 11.32900 37.32600
N  38.90900 7.14500 29.52000
C  38.10300 6.77000 30.46700
C  36.99600 6.02500 29.90700
C  37.20400 5.97200 28.56200
C  38.51400 6.55500 28.31100
C  35.80900 5.48400 30.78900
C  36.30900 5.37200 27.49000
O  36.54500 5.40200 26.32300
C  35.02800 4.81300 27.78100
N  41.24100 7.64400 27.77300
C  40.56200 6.88600 26.86900
C  41.20400 6.89300 25.46100
C  42.23800 8.06200 25.52300
C  42.26800 8.26200 27.11500
C  41.93600 5.54200 25.03700
C  41.93200 9.31100 24.67600
C  40.71200 10.07900 25.12100
N  42.41500 9.16900 29.94400
C  43.41700 9.36900 29.05200
C  44.50500 10.10700 29.74600
C  44.09000 10.21400 31.06800
C  42.82600 9.57900 31.19800
C  45.85300 10.51000 29.12700
C  44.48900 10.73300 32.37100
O  45.52800 11.35200 32.62000
C  43.37700 10.38100 33.40000
C  43.96700 9.63300 34.51300
O  44.35700 8.47400 34.44800
O  43.99300 10.37300 35.62000
C  44.54600 9.81600 36.90300
H  37.43900 6.62900 32.44100
H  38.77500 5.83100 26.42800
H  44.11000 9.42200 27.07600
H  41.12800 8.50500 34.96800
H  38.24400 8.67500 34.18600
H  39.14400 6.00200 34.71700
H  38.07400 7.04500 35.60800
H  39.77300 7.15800 35.86500
H  39.53900 10.94400 34.18800
H  40.94600 11.06600 35.26600
H  39.28900 9.44000 36.72800
H  38.20500 10.56300 35.87600
H  34.88400 5.71400 30.26100
H  35.71100 5.96000 31.76500
H  36.00000 4.41800 30.90900
H  35.03900 4.13100 28.63100
H  34.74500 4.21500 26.91500
H  34.21100 5.53100 27.86100
H  40.40400 7.09600 24.74900
H  43.28200 7.86700 25.27900
H  41.56000 4.82900 25.77100
H  43.02000 5.62500 25.10300
H  41.78000 5.19100 24.01700
H  41.69000 9.01000 23.65700
H  42.85700 9.88800 24.65300
H  40.40300 9.79300 26.12600
H  39.89200 9.97300 24.41100
H  40.83400 11.15900 25.20000
H  46.39300 10.72700 30.04900
H  45.60000 11.35700 28.48900
H  46.27400 9.67600 28.56600
H  43.03200 11.34900 33.76300
H  45.41200 10.37700 37.25600
H  44.93600 8.82900 36.65000
H  43.88200 9.83400 37.76800
Mg 7.11200 53.00800 41.20100
C  6.72300 49.60900 40.42500
C  10.25200 52.78300 40.10600
C  7.19900 56.24300 41.44200
C  3.57600 53.01300 41.79400
N  8.26700 51.34200 40.41500
C  8.03000 50.03500 40.17000
C  9.20700 49.23700 39.71500
C  10.42100 50.22300 39.93800
C  9.60500 51.60400 40.11800
C  11.37200 49.94600 41.11800
C  9.22600 48.69000 38.22000
C  8.80800 49.74800 37.12500
H  7.78700 49.31800 36.02600
N  8.60200 54.36200 40.87000
C  9.83000 54.08000 40.36700
C  10.56100 55.32400 40.22400
C  9.69500 56.33000 40.65500
C  8.45900 55.65900 41.03300
C  11.99800 55.47000 39.74000
C  10.07900 57.81800 40.70500
O  11.15300 58.21900 40.26200
C  9.29900 58.72700 41.47400
N  5.60800 54.40700 41.40300
C  5.92600 55.68900 41.67000
C  4.68900 56.54000 42.09800
C  3.57900 55.51100 42.30700
C  4.27700 54.23500 41.77600
C  4.85600 57.69200 43.16700
C  2.14200 55.82300 41.76200
C  1.95500 55.66700 40.23900
N  5.47600 51.62600 41.10500
C  4.11900 51.76700 41.39500
C  3.46300 50.44000 41.39000
C  4.49900 49.60100 41.05100
C  5.61800 50.32300 40.80800
C  2.04000 50.19200 41.64500
C  4.76700 48.18000 40.83600
O  4.03500 47.21900 41.04600
C  6.23900 48.12600 40.36600
C  6.09200 47.58600 38.98800
O  5.60600 48.17200 38.07100
O  6.48400 46.23900 39.01600
C  6.23700 45.45600 37.81400
H  11.32800 52.61600 40.03500
H  7.15900 57.33100 41.52200
H  2.55300 53.06300 42.17100
H  9.32700 48.47700 40.48800
H  11.05700 50.31600 39.05800
H  11.20100 50.57700 41.99000
H  12.41000 49.88500 40.79000
H  11.18900 48.94200 41.50000
H  8.72400 47.72700 38.13900
H  10.23900 48.37000 37.97600
H  9.78300 49.89000 36.65900
H  8.47500 50.63200 37.67000
H  12.64600 56.19300 40.23500
H  12.06600 55.75800 38.69100
H  12.45900 54.49400 39.88800
H  8.62000 59.02600 40.67600
H  9.96400 59.51000 41.83800
H  8.72300 58.23800 42.26000
H  4.38700 57.04000 41.17800
H  3.42600 55.33400 43.37200
H  5.88300 57.74200 43.52800
H  4.17300 57.49900 43.99500
H  4.72900 58.61400 42.59900
H  1.86100 56.87200 41.85200
H  1.42200 55.23300 42.32900
H  1.97600 54.60300 40.00600
H  2.69400 56.21000 39.64900
H  0.93700 55.99200 40.02400
H  1.61400 51.06900 42.13200
H  1.96300 49.32100 42.29700
H  1.52200 49.84700 40.75000
H  6.79600 47.41900 40.98000
H  5.20200 45.31500 37.50100
H  6.61500 44.45700 38.02900
H  6.79800 45.94000 37.01400

