158

Mg 43.05300 42.24400 26.24800
C  41.81700 44.60000 28.62200
C  43.52300 40.06600 28.66700
C  44.34200 40.31200 23.87400
C  42.50300 44.77200 23.75600
N  42.69700 42.39200 28.33200
C  42.19900 43.41900 29.18500
C  42.25700 43.02400 30.65700
C  42.91700 41.55400 30.68700
C  43.08900 41.31500 29.15700
C  44.19500 41.34000 31.49900
C  40.83700 43.05800 31.30500
C  40.63100 44.00200 32.47700
H  41.44600 43.87800 33.77700
N  43.75700 40.43700 26.29100
C  43.85700 39.62700 27.36600
C  44.40900 38.33600 27.01800
C  44.64300 38.42300 25.60400
C  44.26500 39.82200 25.18600
C  44.52300 37.19900 27.98200
C  45.14600 37.39000 24.62400
O  45.48900 37.62900 23.51200
C  45.52100 36.04000 25.25800
N  43.60700 42.56700 24.13400
C  44.00700 41.54200 23.42800
C  44.01000 41.92100 21.87300
C  43.42400 43.29400 21.80400
C  43.14800 43.64400 23.30800
C  45.35000 41.82900 21.13600
C  42.14100 43.32400 20.89100
C  40.93000 42.51000 21.38500
N  42.34000 44.24400 26.15000
C  42.19400 45.09700 25.03800
C  41.64100 46.39800 25.56100
C  41.47800 46.17700 26.92900
C  41.95000 44.90100 27.26900
C  41.43200 47.69000 24.76700
C  40.95800 46.82200 28.14200
O  40.33600 47.85900 28.33400
C  41.11300 45.73500 29.29600
C  41.90900 46.39600 30.35300
O  43.09900 46.28800 30.48200
O  41.01500 47.16200 31.04900
C  41.62400 47.72900 32.27900
H  43.70700 39.38800 29.50400
H  44.50800 39.66100 23.01400
H  42.31200 45.50600 22.97000
H  42.99400 43.71600 31.06300
H  42.22000 40.80000 31.05200
H  44.95800 40.81600 30.92300
H  43.93500 40.68800 32.33300
H  44.71200 42.25400 31.79000
H  40.54300 42.05400 31.60800
H  40.11100 43.34200 30.54300
H  39.56900 43.92100 32.70500
H  40.50900 45.01100 32.08300
H  44.22500 37.50700 28.98400
H  45.51000 36.73900 28.04000
H  43.79400 36.43600 27.71100
H  44.58200 35.64100 25.64200
H  46.26000 36.16400 26.05100
H  45.93000 35.36100 24.51100
H  43.26800 41.18900 21.55200
H  44.12700 44.05100 21.45500
H  45.58200 40.79900 20.86500
H  46.20200 42.24600 21.67300
H  45.27700 42.28800 20.15000
H  42.40700 43.09800 19.85800
H  41.85800 44.37500 20.83000
H  41.20800 42.11200 22.36100
H  40.69300 41.69700 20.69800
H  40.12800 43.22700 21.55600
H  41.99800 47.80600 23.84300
H  41.46700 48.51900 25.47300
H  40.37200 47.77400 24.52600
H  40.11500 45.52900 29.68300
H  42.60300 48.18800 32.13700
H  41.90600 46.93700 32.97300
H  40.92600 48.41800 32.75300
Mg 7.07100 54.05700 39.62300
C  6.40000 50.60900 39.53800
C  10.27600 53.42800 38.55200
C  7.63800 57.36700 39.42600
C  3.68200 54.61200 40.02300
N  8.10500 52.21100 39.08700
C  7.71300 50.89500 39.14100
C  8.82100 49.87500 38.81700
C  10.13500 50.86800 38.81100
C  9.47300 52.23300 38.80700
C  10.94300 50.74300 40.06600
C  8.72800 49.15800 37.39400
C  8.35700 50.02400 36.19400
H  7.20400 49.52000 35.26500
N  8.72300 55.25800 38.95200
C  10.00800 54.80700 38.64000
C  10.92400 55.90900 38.44400
C  10.20900 57.05900 38.83400
C  8.79500 56.63100 39.03600
C  12.37100 55.73700 38.08000
C  10.71500 58.43700 39.03000
O  11.92200 58.73100 38.87500
C  9.80600 59.58400 39.21900
N  5.70400 55.74800 39.53300
C  6.23400 57.03100 39.50900
C  5.14100 58.05600 39.73700
C  3.79600 57.16700 39.95800
C  4.39000 55.77000 39.77900
C  5.39100 59.14200 40.79900
C  2.60400 57.44500 38.99900
C  1.52900 58.33100 39.66100
N  5.36300 52.85300 39.80900
C  4.07100 53.23600 40.00900
C  3.23500 52.06300 40.23000
C  4.14600 51.04400 40.14600
C  5.43000 51.55000 39.85500
C  1.68800 52.06700 40.44200
C  4.21700 49.56600 40.22400
O  3.37400 48.75000 40.65500
C  5.69500 49.21500 39.83100
C  5.72300 48.32700 38.65800
O  5.10700 48.46800 37.58700
O  6.36700 47.23200 39.04300
C  6.25900 46.07400 38.10700
H  11.32200 53.16000 38.39100
H  7.75200 58.44400 39.56500
H  2.62500 54.72500 40.27400
H  8.74500 49.18700 39.65900
H  10.64500 50.71600 37.86000
H  11.18800 51.73600 40.44200
H  11.86400 50.22200 39.80500
H  10.41000 50.18500 40.83500
H  8.13900 48.24300 37.32800
H  9.77300 48.86800 37.28900
H  9.18100 50.19400 35.50100
H  7.94300 50.96200 36.56500
H  12.91600 56.19400 38.90600
H  12.65700 56.22200 37.14700
H  12.68600 54.69600 38.15000
H  10.43600 60.46300 39.08000
H  9.47400 59.55500 40.25700
H  9.09500 59.56100 38.39400
H  5.15200 58.57400 38.77800
H  3.43600 57.14500 40.98600
H  6.42000 59.16100 41.15700
H  4.70700 59.13700 41.64800
H  5.26200 60.08200 40.26400
H  2.14800 56.48800 38.74400
H  2.98200 58.10100 38.21600
H  0.55800 57.83500 39.68900
H  1.34000 59.09800 38.91000
H  1.87400 58.81500 40.57400
H  1.29000 53.05900 40.65600
H  1.47900 51.46800 41.32900
H  1.24100 51.68100 39.52600
H  5.99000 48.73700 40.76600
H  6.96600 46.18600 37.28400
H  5.23400 45.89900 37.77900
H  6.57400 45.20400 38.68400

