158

Mg -1.37200 17.67400 27.23700
C  -2.00100 15.31100 29.79700
C  -1.31000 20.13800 29.57800
C  -1.16700 19.73300 24.72900
C  -2.35300 15.10100 25.06200
N  -1.61600 17.71600 29.43800
C  -1.86900 16.64700 30.27000
C  -1.89200 17.10500 31.75200
C  -1.95800 18.66200 31.58500
C  -1.55200 18.90000 30.10500
C  -3.32800 19.42100 31.79600
C  -0.69200 16.53600 32.53700
C  -0.20000 17.24400 33.81800
H  -0.09200 16.42700 35.12900
N  -1.18900 19.70700 27.11400
C  -1.14800 20.52400 28.18600
C  -0.94000 21.90800 27.68900
C  -0.86800 21.89600 26.28700
C  -1.16200 20.40600 25.94800
C  -0.85600 23.05900 28.71300
C  -0.85800 22.97200 25.31700
O  -0.87300 22.79200 24.10400
C  -0.81800 24.44100 25.77400
N  -1.64400 17.46600 25.22200
C  -1.47700 18.42800 24.34700
C  -1.68100 18.01600 22.87000
C  -1.84400 16.45500 22.97600
C  -1.97200 16.32200 24.49600
C  -2.81100 18.68400 22.10600
C  -0.63300 15.64400 22.45600
C  0.86000 15.91400 22.88200
N  -1.91600 15.62400 27.31400
C  -2.25000 14.72700 26.33200
C  -2.37600 13.39400 26.83100
C  -2.28400 13.59600 28.21100
C  -2.05000 14.94100 28.47600
C  -2.79300 12.25900 25.96100
C  -2.33500 12.90400 29.43700
O  -2.33200 11.69000 29.65300
C  -2.25300 13.98400 30.55600
C  -1.15400 13.51300 31.38100
O  0.04600 13.72300 31.22900
O  -1.68100 12.89200 32.44600
C  -0.67000 12.28300 33.38100
H  -1.21500 20.96400 30.28500
H  -1.03600 20.28400 23.79500
H  -2.48500 14.39300 24.24200
H  -2.87500 16.84800 32.14500
H  -1.14700 19.19600 32.08100
H  -3.99200 19.29700 30.94000
H  -3.08200 20.43700 32.10400
H  -3.86500 18.86700 32.56700
H  0.19000 16.28700 31.94500
H  -1.23500 15.65800 32.88600
H  -0.98000 17.97900 34.01400
H  0.64100 17.93000 33.72400
H  -1.33300 23.90500 28.21900
H  0.15300 23.33500 29.02000
H  -1.36100 22.85000 29.65600
H  -1.73500 24.78700 26.25000
H  -0.69200 25.25100 25.05500
H  0.07100 24.33700 26.39600
H  -0.78000 18.20900 22.28700
H  -2.77700 16.15100 22.50200
H  -2.37400 19.28700 21.31100
H  -3.40300 19.25500 22.82100
H  -3.50000 17.95600 21.67600
H  -0.69100 15.62800 21.36700
H  -0.74400 14.63900 22.86300
H  1.38500 15.00300 23.17000
H  0.96500 16.74000 23.58600
H  1.33000 16.18000 21.93500
H  -2.07500 12.27300 25.14100
H  -3.78600 12.27500 25.51100
H  -2.66500 11.30300 26.46900
H  -3.22600 13.83500 31.02300
H  0.28900 12.06200 32.91300
H  -1.00700 11.30900 33.73600
H  -0.60100 12.85700 34.30500
Mg 6.12800 55.01500 41.14900
C  3.71800 52.51100 41.14800
C  8.35400 52.59300 40.04800
C  8.32100 57.44000 40.46700
C  3.72000 57.35900 41.84900
N  5.93200 52.83400 40.43400
C  4.88500 52.06600 40.52900
C  5.27700 50.61100 40.10900
C  6.75000 50.53900 40.11400
C  7.05500 52.10500 40.18600
C  7.44700 49.63700 41.16900
C  4.61100 50.44900 38.67500
C  4.19200 49.07200 38.24300
H  4.95600 48.47600 37.04400
N  8.17700 55.04400 40.45900
C  8.90000 53.97500 40.11400
C  10.22900 54.30200 39.75900
C  10.30500 55.71200 39.90400
C  8.94400 56.19700 40.33500
C  11.20900 53.18300 39.31400
C  11.47300 56.49100 39.59700
O  12.49900 55.96500 39.20400
C  11.36700 57.97400 39.72200
N  5.99800 57.04600 40.96100
C  6.99600 57.88100 40.65000
C  6.58800 59.29200 40.62900
C  5.11200 59.26800 40.98400
C  4.88500 57.79100 41.24600
C  7.44500 60.09200 41.62900
C  4.16000 59.69000 39.80700
C  2.96500 60.61500 40.09700
N  4.12300 55.00000 41.44600
C  3.29500 56.01200 41.94700
C  2.06500 55.44100 42.37300
C  2.20500 54.08600 42.09800
C  3.42900 53.86800 41.50900
C  0.92200 56.24700 42.90200
C  1.52200 52.87700 42.12700
O  0.47100 52.58200 42.63800
C  2.50700 51.75800 41.46500
C  1.77200 51.05400 40.42400
O  1.17800 51.62300 39.51300
O  1.71500 49.65400 40.56400
C  0.86000 48.99700 39.60800
H  8.98700 51.73900 39.79900
H  8.89800 58.24300 40.00300
H  2.91600 58.05800 42.08700
H  4.80600 49.84500 40.72500
H  7.08500 50.26400 39.11300
H  6.93900 48.69400 41.37200
H  7.60300 50.29400 42.02500
H  8.43700 49.56600 40.72000
H  5.33800 50.78700 37.93600
H  3.70800 51.04000 38.52600
H  3.14500 49.10100 37.93900
H  4.31800 48.41800 39.10600
H  10.63500 52.53600 38.65100
H  11.51400 52.57200 40.16400
H  12.02000 53.49000 38.65300
H  12.34200 58.44700 39.83800
H  10.77500 58.14000 40.62300
H  10.90300 58.38900 38.82800
H  6.75700 59.81100 39.68500
H  4.89400 59.71700 41.95400
H  7.95100 59.44900 42.34900
H  6.90300 60.92900 42.06900
H  8.26600 60.55800 41.08300
H  3.61800 58.81300 39.45100
H  4.64300 59.99400 38.87900
H  2.10900 60.10800 39.65300
H  3.17400 61.47500 39.46100
H  2.79700 60.90400 41.13500
H  0.55100 56.97200 42.17700
H  1.24100 56.71700 43.83100
H  0.16900 55.47700 43.07700
H  2.69200 51.06900 42.28900
H  1.46200 48.15400 39.26900
H  0.54800 49.54800 38.72100
H  0.05500 48.55000 40.19100

