158

Mg 26.70900 0.16100 29.46700
C  28.72200 -0.04100 32.45400
C  23.94100 0.65700 31.25400
C  25.09000 0.25300 26.50400
C  29.78700 -0.50100 27.75000
N  26.43500 0.29900 31.51300
C  27.33000 0.28600 32.63000
C  26.57500 0.57900 33.90600
C  25.10900 0.57400 33.48500
C  25.14700 0.49200 31.98400
C  24.14400 -0.46500 34.06900
C  27.12100 1.75500 34.76800
C  26.41800 1.80200 36.23000
H  27.18600 1.35100 37.49800
N  24.86000 0.23400 28.94900
C  23.77900 0.48600 29.84200
C  22.52100 0.62800 29.10800
C  22.82700 0.54600 27.72200
C  24.30100 0.32300 27.69600
C  21.19400 1.04300 29.79800
C  21.85300 0.40200 26.52100
O  22.22400 0.38800 25.36100
C  20.36600 0.28200 26.76900
N  27.39300 -0.11800 27.46700
C  26.47100 0.00700 26.43400
C  27.22000 0.09500 25.02000
C  28.70600 -0.10400 25.47000
C  28.65000 -0.25700 27.00400
C  26.86500 -0.94400 23.92100
C  29.73500 1.01300 25.16600
C  31.07500 0.60100 24.51100
N  28.77700 -0.28600 29.96500
C  29.81800 -0.61700 29.08200
C  30.92700 -1.07000 29.80200
C  30.55800 -0.76200 31.14200
C  29.28300 -0.29400 31.20900
C  32.17500 -1.70500 29.21400
C  31.10100 -0.68300 32.47400
O  32.27400 -0.89300 32.79300
C  29.86600 -0.22500 33.43300
C  29.67700 -1.21600 34.47800
O  28.95400 -2.17800 34.32400
O  30.43000 -0.93700 35.60700
C  30.29200 -1.93600 36.68400
H  23.07700 1.01600 31.81700
H  24.55500 0.44900 25.57200
H  30.74500 -0.66700 27.25300
H  26.64300 -0.32800 34.50700
H  24.75000 1.50800 33.91900
H  24.51700 -1.02300 34.92700
H  23.87000 -1.17300 33.28600
H  23.20100 -0.00900 34.37000
H  26.87300 2.74800 34.39200
H  28.21000 1.70100 34.76400
H  25.43600 1.32900 36.20800
H  26.30400 2.87300 36.39900
H  21.04800 2.11400 29.66200
H  21.17400 0.86200 30.87200
H  20.36600 0.50600 29.33400
H  20.12400 -0.60400 27.35600
H  19.79900 0.18700 25.84300
H  19.94400 1.19000 27.20100
H  26.87700 1.02900 24.57500
H  29.08800 -1.02400 25.02700
H  26.49300 -1.86300 24.37500
H  27.68000 -1.26700 23.27400
H  26.15200 -0.49600 23.22900
H  29.99500 1.66000 26.00400
H  29.36600 1.77000 24.47400
H  31.29000 1.41400 23.81700
H  31.10300 -0.23900 23.81800
H  31.88300 0.47100 25.23100
H  31.99700 -2.12600 28.22500
H  32.54200 -2.39100 29.97700
H  32.89900 -0.90800 29.04700
H  30.33500 0.70300 33.76000
H  30.51400 -2.96600 36.40600
H  29.39000 -1.79600 37.28100
H  31.17900 -1.77200 37.29600
Mg 47.60800 15.97700 28.61800
C  45.34800 15.61300 31.30700
C  49.33400 18.16300 30.52000
C  49.50500 16.70800 25.87900
C  45.50000 13.99900 26.59400
N  47.36000 16.67000 30.65500
C  46.40600 16.43400 31.68400
C  46.80200 17.06800 32.97000
C  47.88900 18.07500 32.55300
C  48.19800 17.62800 31.13100
C  47.49500 19.61300 32.69000
C  47.26400 16.16800 34.17100
C  47.57300 16.98300 35.48500
H  48.60600 16.37000 36.47800
N  49.20000 17.24300 28.28300
C  49.81200 18.01500 29.22200
C  50.97000 18.79700 28.63800
C  51.04400 18.35700 27.24800
C  49.88900 17.36900 27.06100
C  51.78000 19.80300 29.42500
C  51.94700 18.81800 26.09900
O  51.96400 18.24000 25.00500
C  52.67000 20.06000 26.22800
N  47.50800 15.38100 26.57800
C  48.43600 15.78700 25.63600
C  48.30700 14.99200 24.29900
C  47.22000 13.91800 24.67800
C  46.74100 14.43600 26.06100
C  47.92000 15.96900 23.10600
C  47.74000 12.47000 24.64000
C  48.88900 12.04300 23.71700
N  45.82600 15.07400 28.85200
C  45.00600 14.38300 27.92700
C  43.77400 13.96800 28.56100
C  43.91900 14.36800 29.87500
C  45.11600 15.03600 30.02600
C  42.62600 13.24300 28.02600
C  43.24800 14.41100 31.15900
O  42.12700 14.00700 31.49500
C  44.19700 15.13700 32.21400
C  43.47000 16.19300 32.86800
O  42.73300 16.99700 32.30300
O  43.86000 16.28800 34.19400
C  43.12200 17.36000 34.92000
H  49.92100 18.89200 31.08300
H  50.13400 16.72100 24.98600
H  44.95100 13.31000 25.94900
H  46.00300 17.67900 33.38900
H  48.81100 17.98200 33.12700
H  46.44800 19.81400 32.91900
H  47.77600 20.24800 31.85100
H  48.05900 19.95400 33.55800
H  48.24600 15.80900 33.86500
H  46.63200 15.32500 34.45200
H  46.61300 17.02700 36.00000
H  47.95400 17.99100 35.32100
H  51.48300 19.97700 30.45900
H  51.82900 20.85300 29.13700
H  52.82400 19.49200 29.46400
H  52.00700 20.90500 26.41300
H  53.09200 20.28100 25.24700
H  53.56100 19.94300 26.84500
H  49.31200 14.62600 24.09000
H  46.36400 14.00000 24.00800
H  46.95900 15.68000 22.67900
H  48.69300 15.93700 22.33900
H  47.87200 17.04200 23.29200
H  46.90400 11.79600 24.45800
H  48.15300 12.25100 25.62400
H  48.58800 11.17200 23.13400
H  49.76000 11.72500 24.28800
H  49.33200 12.78300 23.05000
H  42.96600 12.82000 27.08100
H  41.81500 13.96000 27.89200
H  42.19200 12.52000 28.71700
H  44.58000 14.44500 32.96400
H  43.55600 17.29400 35.91800
H  42.03700 17.32000 35.01600
H  43.36400 18.33900 34.50500

