158

Mg 41.58000 8.99500 29.88000
C  43.51400 10.04900 32.51300
C  39.36600 7.48800 31.98700
C  39.78500 7.69300 27.22000
C  44.11000 9.76700 27.66400
N  41.52400 8.71100 31.98900
C  42.32000 9.40900 32.93400
C  41.67800 9.21400 34.35800
C  40.44500 8.25700 34.08900
C  40.38400 8.27100 32.63100
C  40.54500 6.88000 34.73300
C  41.33400 10.51000 35.16300
C  41.43200 10.28400 36.75300
H  41.38600 11.50800 37.67600
N  39.73300 7.81300 29.61100
C  39.07000 7.25600 30.68200
C  38.02200 6.51200 30.17200
C  37.93600 6.69300 28.78700
C  39.17100 7.42900 28.46700
C  37.03000 5.74800 31.04200
C  36.86400 6.33100 27.75700
O  37.10300 6.44400 26.54500
C  35.46500 5.96500 28.19200
N  41.89400 8.72800 27.75700
C  41.05900 8.21500 26.92800
C  41.62900 8.06000 25.52500
C  43.00500 8.83900 25.61200
C  42.97400 9.15200 27.06600
C  41.66400 6.59200 25.03000
C  43.19700 9.95700 24.60000
C  42.65700 11.30200 25.08500
N  43.33300 9.87900 30.00300
C  44.33200 10.02500 29.05100
C  45.52600 10.65900 29.61900
C  45.17900 10.73900 30.99500
C  43.90400 10.15300 31.16800
C  46.84000 10.96100 28.89200
C  45.74700 10.98200 32.33900
O  46.88800 11.33900 32.64300
C  44.58600 10.70500 33.37600
C  45.10900 9.78300 34.41000
O  45.82600 8.77900 34.18200
O  44.78300 10.23900 35.68700
C  45.15800 9.27900 36.74900
H  38.47000 7.21900 32.55000
H  39.36600 7.29800 26.29200
H  44.91500 9.94600 26.94800
H  42.37300 8.61500 34.94600
H  39.52500 8.68300 34.49000
H  41.33000 6.78400 35.48200
H  40.80600 6.15000 33.96700
H  39.56100 6.59600 35.10600
H  40.34900 10.85100 34.84300
H  41.94400 11.37000 34.88600
H  42.41600 9.85000 36.93100
H  40.72900 9.52600 37.09900
H  37.41700 5.41400 32.00500
H  36.68600 4.82700 30.57200
H  36.17400 6.34400 31.35900
H  35.02800 6.67900 28.88900
H  35.51100 4.96500 28.62500
H  34.81900 6.03500 27.31700
H  40.97600 8.64600 24.87800
H  43.78100 8.10000 25.41300
H  42.67100 6.23000 24.82100
H  41.05500 6.48100 24.13300
H  41.29100 5.95200 25.83000
H  42.78300 9.74900 23.61300
H  44.28300 10.03900 24.57100
H  43.46200 11.94500 25.44300
H  41.86500 11.11000 25.80800
H  42.16600 11.68200 24.18900
H  47.36000 11.55100 29.64700
H  46.65600 11.54800 27.99200
H  47.43400 10.05400 28.77500
H  44.27700 11.67200 33.77300
H  46.22800 9.07200 36.76800
H  44.65600 8.32000 36.61800
H  44.71400 9.69300 37.65400
Mg 55.61300 23.86000 45.23300
C  53.31400 26.28500 44.37800
C  53.32300 21.41000 44.37300
C  58.08100 21.52600 45.40400
C  58.04000 26.27000 45.82500
N  53.58700 23.90900 44.49500
C  52.80900 24.98000 44.19700
C  51.43500 24.53300 43.75200
C  51.43100 23.04000 44.14000
C  52.87700 22.73800 44.43000
C  50.61600 22.56800 45.34500
C  51.21800 24.82500 42.25400
C  49.81000 25.11300 41.74500
H  49.18800 24.33100 40.63400
N  55.66100 21.75400 44.91500
C  54.61400 20.95300 44.60600
C  55.05700 19.60200 44.52000
C  56.37600 19.53200 44.97400
C  56.79400 21.01100 45.11900
C  54.10800 18.46200 44.20800
C  57.22600 18.31400 45.03100
O  56.77000 17.15900 44.96200
C  58.69200 18.38700 44.91400
N  57.79100 23.88900 45.44100
C  58.57000 22.82200 45.59500
C  59.90500 23.21900 46.31000
C  59.99500 24.74700 46.09800
C  58.52100 25.02500 45.80900
C  59.83800 22.73300 47.75800
C  60.96000 25.09200 44.91300
C  62.45500 25.46000 45.31400
N  55.67000 25.90000 45.23100
C  56.66800 26.75000 45.58100
C  56.10900 28.12700 45.60000
C  54.75100 27.94900 45.15700
C  54.60900 26.63700 44.89600
C  56.74700 29.33800 46.09100
C  53.49600 28.66400 44.92400
O  53.18700 29.85600 44.97700
C  52.59500 27.60100 44.17400
C  52.48400 28.02900 42.72700
O  53.36300 28.18400 41.90500
O  51.14600 28.33200 42.49800
C  50.75100 28.87400 41.17200
H  52.63800 20.67800 43.94000
H  58.83400 20.86600 45.84100
H  58.76000 27.05100 46.07900
H  50.67400 25.07100 44.31800
H  51.14400 22.54200 43.21400
H  49.89900 23.36100 45.55900
H  51.24800 22.30100 46.19200
H  50.13900 21.66800 44.95800
H  51.59600 23.96400 41.70200
H  51.85200 25.66300 41.96700
H  49.89800 26.13700 41.38100
H  49.13000 25.17000 42.59500
H  54.66000 17.58700 43.86300
H  53.41300 18.92400 43.50800
H  53.36600 18.26400 44.98100
H  59.08200 17.44100 44.53900
H  59.13400 18.80100 45.82100
H  58.77000 19.12400 44.11500
H  60.71700 22.63900 45.87100
H  60.34700 25.27600 46.98400
H  60.40500 21.82700 47.97000
H  58.79700 22.49300 47.97800
H  60.16400 23.53500 48.42100
H  60.61900 25.99000 44.39600
H  60.95900 24.33300 44.13100
H  62.52500 25.43900 46.40200
H  62.75500 26.42300 44.90200
H  63.09800 24.66200 44.94200
H  57.63800 29.65800 45.55000
H  56.88200 29.13800 47.15400
H  56.07200 30.19400 46.09000
H  51.62400 27.60300 44.66900
H  50.75000 28.08100 40.42400
H  51.44100 29.62200 40.78100
H  49.76400 29.33700 41.15300

