158

Mg 16.93600 -1.64100 28.29500
C  15.99000 0.54600 31.05200
C  18.79800 -3.47500 30.55100
C  18.61600 -2.97300 25.72900
C  15.90000 1.08500 26.15300
N  17.36700 -1.35200 30.52300
C  16.85500 -0.48200 31.45200
C  17.33900 -0.80900 32.83600
C  18.36200 -2.06500 32.60800
C  18.17200 -2.32900 31.08900
C  19.87100 -1.90400 32.93200
C  16.25800 -0.99700 33.89500
C  16.52700 -0.44900 35.27500
H  17.91800 0.01900 35.68500
N  18.30800 -3.19600 28.12100
C  18.89300 -3.88100 29.19600
C  19.63900 -5.02800 28.60400
C  19.59600 -4.85700 27.22100
C  18.75400 -3.65800 26.96100
C  20.28200 -6.07800 29.43000
C  20.17600 -5.71800 26.14100
O  20.02400 -5.46800 24.89900
C  21.05100 -6.89700 26.49100
N  17.14500 -1.05800 26.23300
C  18.00600 -1.73900 25.41200
C  18.05600 -1.16000 24.01100
C  17.04800 0.07300 24.11500
C  16.72300 0.06900 25.60300
C  19.41300 -0.77200 23.49900
C  15.82200 0.05800 23.18400
C  14.69600 -0.90500 23.57800
N  15.90800 0.23300 28.54800
C  15.58600 1.13500 27.56700
C  14.79600 2.25900 28.22300
C  15.03700 2.05200 29.58600
C  15.66400 0.82400 29.72600
C  14.08600 3.32300 27.49100
C  14.70800 2.58800 30.91800
O  14.11900 3.56200 31.18000
C  15.37800 1.66400 31.92600
C  16.34800 2.51400 32.73300
O  17.46900 2.82400 32.35700
O  15.78800 2.89400 33.88000
C  16.56800 3.95900 34.60900
H  19.33100 -4.03500 31.32300
H  19.08300 -3.42800 24.85300
H  15.61500 1.93600 25.53100
H  18.00100 0.03200 33.04700
H  18.01900 -3.00100 33.04800
H  20.17000 -2.62800 33.68900
H  20.01500 -0.90100 33.33500
H  20.51400 -2.01200 32.05900
H  16.27100 -2.08400 33.96500
H  15.36600 -0.62700 33.38900
H  16.21700 -1.23900 35.95900
H  15.93300 0.46400 35.32100
H  20.31600 -5.87400 30.50000
H  21.22500 -6.43700 29.01700
H  19.61300 -6.93300 29.34100
H  21.92300 -6.42600 26.94400
H  21.30600 -7.34600 25.53200
H  20.63400 -7.66900 27.13800
H  17.68500 -1.87400 23.27600
H  17.58300 0.97600 23.82400
H  20.10100 -0.84000 24.34200
H  19.41100 0.24400 23.10300
H  19.75400 -1.61600 22.90000
H  16.08100 -0.24400 22.16900
H  15.47200 1.08800 23.24200
H  13.81200 -0.35600 23.90300
H  14.91700 -1.58300 24.40300
H  14.36700 -1.53800 22.75300
H  14.23600 4.28000 27.99100
H  13.00600 3.21900 27.59600
H  14.44300 3.46600 26.47100
H  14.64600 1.18900 32.57900
H  16.73200 4.76700 33.89600
H  17.56100 3.63800 34.92300
H  16.04400 4.40100 35.45600
Mg 45.28300 4.05300 47.18500
C  43.41100 6.96800 46.26300
C  42.24900 2.30700 46.41300
C  46.94100 1.34400 47.87800
C  48.15400 6.03000 47.17700
N  43.06500 4.61500 46.47700
C  42.63800 5.79900 46.02600
C  41.19300 5.75400 45.50200
C  40.74700 4.28100 45.76200
C  42.08900 3.69100 46.28900
C  39.63900 4.22000 46.80700
C  41.14900 6.14500 44.00600
C  40.22300 7.24300 43.61500
H  40.38500 7.61500 42.09400
N  44.66500 2.11100 47.15400
C  43.40300 1.57500 46.79200
C  43.56700 0.15700 46.82700
C  44.82900 -0.20400 47.38700
C  45.53700 1.09300 47.56300
C  42.48400 -0.72500 46.40600
C  45.33300 -1.60400 47.62100
O  44.49400 -2.49000 47.53900
C  46.74700 -1.90600 48.05400
N  47.34800 3.71100 47.36800
C  47.76300 2.51800 47.83100
C  49.25600 2.65900 48.19300
C  49.62000 4.11800 47.92900
C  48.28900 4.65500 47.45400
C  49.65900 2.16700 49.57700
C  50.78600 4.36200 47.00700
C  50.67300 3.84700 45.49400
N  45.76600 6.07800 46.88100
C  46.91100 6.70300 46.96700
C  46.77400 8.13000 46.71700
C  45.38200 8.30600 46.49300
C  44.81200 7.05400 46.56600
C  47.94400 9.09200 46.60400
C  44.31100 9.25500 46.16700
O  44.28600 10.45900 46.01800
C  43.03800 8.42600 45.97600
C  41.99900 8.94100 47.02700
O  41.52100 8.29200 47.98100
O  41.49900 10.17500 46.61700
C  40.35000 10.58400 47.53200
H  41.29600 1.85200 46.13200
H  47.53000 0.45400 48.10900
H  49.01700 6.67700 47.34500
H  40.57100 6.43700 46.08000
H  40.39900 3.74800 44.87700
H  38.70700 4.17000 46.24500
H  39.59700 5.07200 47.48600
H  39.78500 3.30000 47.37300
H  40.86900 5.21600 43.51000
H  42.11300 6.40800 43.57000
H  40.45100 8.18700 44.11000
H  39.15500 7.02400 43.59100
H  42.96100 -1.26300 45.58700
H  41.56700 -0.26000 46.04300
H  42.19400 -1.33000 47.26500
H  46.82900 -2.99100 48.11600
H  47.12100 -1.49700 48.99300
H  47.42400 -1.66100 47.23600
H  49.67500 2.00000 47.43300
H  49.86600 4.68500 48.82700
H  50.44500 2.83200 49.93500
H  50.05900 1.15400 49.53100
H  48.77000 2.26800 50.20000
H  51.70800 3.96400 47.43100
H  51.02100 5.42600 47.02500
H  51.34000 3.07700 45.10600
H  50.76900 4.73900 44.87400
H  49.67900 3.44300 45.30400
H  48.56700 8.79200 45.76100
H  48.53300 9.28300 47.50100
H  47.57900 10.07300 46.30200
H  42.59900 8.56100 44.98800
H  39.91700 9.80600 48.16200
H  39.59000 10.92800 46.83000
H  40.61100 11.42000 48.18000

