158

Mg 17.74800 -1.36200 27.81400
C  16.20900 0.55600 30.35700
C  19.43200 -3.18900 29.97000
C  18.95700 -2.97000 25.14500
C  15.99800 0.79500 25.52700
N  17.89800 -1.08400 29.89700
C  17.09600 -0.47800 30.77400
C  17.34800 -0.87200 32.18900
C  18.43800 -1.98700 32.00300
C  18.66000 -2.12300 30.47500
C  19.76900 -1.70900 32.82200
C  16.12900 -1.39900 32.97200
C  15.96200 -0.75200 34.37900
H  17.25200 -0.46400 35.17600
N  19.10900 -2.88100 27.60000
C  19.65000 -3.56800 28.67500
C  20.51300 -4.57500 28.11300
C  20.40800 -4.54700 26.71000
C  19.40100 -3.47500 26.43800
C  21.27700 -5.51400 29.00100
C  21.12500 -5.34900 25.56300
O  20.88900 -5.24800 24.34300
C  22.23000 -6.23700 25.99800
N  17.66300 -0.99100 25.62400
C  18.19100 -1.88100 24.79600
C  18.16100 -1.39300 23.36400
C  16.97800 -0.30000 23.43600
C  16.80700 -0.21400 24.93600
C  19.37400 -0.77100 22.74100
C  15.67500 -0.65800 22.67700
C  15.19600 0.31000 21.62800
N  16.38000 0.33900 27.88500
C  15.80400 1.08200 26.86200
C  14.96400 2.14300 27.41900
C  15.09400 2.00900 28.84000
C  15.89200 0.85400 29.01600
C  14.07100 3.10200 26.64100
C  14.69500 2.62700 30.12600
O  14.04200 3.66800 30.37000
C  15.33600 1.60900 31.14200
C  16.19000 2.35400 32.09800
O  17.40100 2.25100 32.14900
O  15.39900 3.07400 32.97500
C  16.16300 3.66500 34.09800
H  19.99800 -3.68500 30.76100
H  19.19500 -3.73700 24.40500
H  15.57000 1.49300 24.80400
H  17.72700 0.01900 32.69000
H  17.98800 -2.91900 32.34700
H  19.50600 -0.97800 33.58700
H  20.57900 -1.43000 32.14900
H  20.13200 -2.61100 33.31400
H  16.19200 -2.45800 33.22200
H  15.22700 -1.30900 32.36600
H  15.39500 -1.47100 34.96900
H  15.28400 0.07700 34.17500
H  20.95900 -6.54600 28.85000
H  21.14300 -5.36700 30.07300
H  22.34800 -5.42900 28.81800
H  21.72400 -6.99300 26.59800
H  23.11100 -5.69600 26.34400
H  22.71600 -6.72200 25.15100
H  17.86500 -2.22800 22.72900
H  17.41600 0.65700 23.15300
H  19.85700 -1.42100 22.01200
H  20.04600 -0.66500 23.59300
H  19.35000 0.19300 22.23300
H  14.88400 -0.78800 23.41500
H  15.84200 -1.59400 22.14500
H  14.15600 0.63600 21.62800
H  15.39600 -0.16200 20.66500
H  15.76100 1.23500 21.74000
H  13.61000 2.56400 25.81300
H  14.77300 3.87100 26.31900
H  13.24700 3.46100 27.25900
H  14.58700 1.03100 31.68300
H  17.01100 3.04100 34.37900
H  15.56200 3.74600 35.00400
H  16.64000 4.59300 33.78300
Mg 9.63900 48.83100 26.47200
C  7.98900 48.73400 29.52700
C  12.49900 49.62500 28.01800
C  11.13700 48.42400 23.43800
C  6.44600 48.54400 24.85900
N  10.07300 49.16100 28.56300
C  9.34300 49.07700 29.69000
C  10.19100 49.34200 30.90100
C  11.43200 50.00300 30.30400
C  11.37200 49.56400 28.86800
C  11.50300 51.58300 30.53100
C  10.46100 48.19900 31.84100
C  9.95300 48.44000 33.30900
H  9.85700 47.24700 34.25400
N  11.55900 49.02800 25.80000
C  12.62900 49.31500 26.62100
C  13.84800 49.20800 25.83900
C  13.52100 48.87100 24.53300
C  12.00300 48.75700 24.51700
C  15.12100 49.51300 26.34600
C  14.38000 48.70700 23.30100
O  13.96900 48.39600 22.19200
C  15.95200 48.85200 23.48600
N  8.80800 48.62200 24.40500
C  9.69300 48.33900 23.30200
C  8.79700 47.85000 22.14900
C  7.29500 48.20800 22.53700
C  7.47900 48.45500 24.03100
C  9.20500 48.57700 20.80400
C  6.24900 47.10800 22.11700
C  5.72500 47.12100 20.66200
N  7.67800 48.72600 26.98700
C  6.48300 48.63900 26.24100
C  5.37900 48.50200 27.15300
C  5.93000 48.51900 28.43800
C  7.32200 48.62900 28.29700
C  4.04100 48.15000 26.74000
C  5.59300 48.35400 29.91900
O  4.57400 48.11800 30.57900
C  6.92700 48.55900 30.60100
C  7.06200 47.30200 31.40500
O  7.61200 46.26800 31.06300
O  6.34500 47.51700 32.58400
C  6.13400 46.35800 33.44700
H  13.47900 49.79100 28.47100
H  11.64400 48.21800 22.49300
H  5.43300 48.43800 24.46500
H  9.62400 50.11600 31.41900
H  12.32300 49.55500 30.74400
H  10.56700 52.04800 30.84100
H  11.78400 52.02800 29.57600
H  12.20200 52.01200 31.24800
H  11.54100 48.08300 31.93900
H  10.05100 47.27800 31.42600
H  9.04000 49.01900 33.45200
H  10.69900 49.04300 33.82600
H  15.16100 49.37300 27.42600
H  15.53700 50.50300 26.16300
H  15.84000 48.74900 26.05000
H  16.24100 49.80900 23.91900
H  16.49700 48.71100 22.55200
H  16.22100 48.04300 24.16500
H  8.87700 46.77400 21.99500
H  6.94400 49.13900 22.09100
H  8.65700 49.49900 20.61200
H  9.07000 47.91500 19.94800
H  10.18800 49.04900 20.82000
H  5.46100 47.10400 22.87000
H  6.74100 46.15500 22.31200
H  6.06700 48.07600 20.26400
H  4.63500 47.10400 20.67600
H  6.06700 46.23400 20.12900
H  3.97200 47.40200 25.95100
H  3.58600 49.04100 26.30600
H  3.47200 47.82300 27.61100
H  6.98400 49.44200 31.23800
H  5.26700 45.78100 33.12400
H  5.95300 46.79700 34.42800
H  7.06400 45.79000 33.48400

