158

Mg 17.65000 -1.26900 28.10000
C  16.56200 0.47000 30.88700
C  19.34100 -3.49500 30.00600
C  18.95300 -2.51600 25.34900
C  15.81800 1.03300 26.13000
N  17.96200 -1.34600 30.21100
C  17.44300 -0.56300 31.20700
C  17.79300 -1.01700 32.64700
C  18.77500 -2.19300 32.27100
C  18.67100 -2.40500 30.76600
C  20.27300 -2.02200 32.80800
C  16.68700 -1.38500 33.68200
C  16.76500 -1.06900 35.14600
H  18.16500 -0.73900 35.69200
N  18.93700 -2.91300 27.65700
C  19.49700 -3.74700 28.62100
C  20.29000 -4.70000 27.91400
C  20.28200 -4.41700 26.53900
C  19.35200 -3.22000 26.42700
C  21.28000 -5.69200 28.54000
C  20.96100 -5.11100 25.31600
O  20.88500 -4.69200 24.19100
C  21.81600 -6.30700 25.46100
N  17.45100 -0.78900 26.03100
C  18.00400 -1.55200 25.10500
C  17.58400 -1.08800 23.69200
C  16.45700 -0.07000 23.97500
C  16.54800 0.06200 25.46400
C  18.83000 -0.52300 22.97600
C  15.15400 -0.46500 23.24300
C  14.44400 0.70400 22.50900
N  16.52400 0.56300 28.40600
C  15.89700 1.40400 27.46000
C  15.17800 2.39300 28.16800
C  15.36900 2.05600 29.57600
C  16.20900 0.92400 29.62500
C  14.34200 3.47800 27.63200
C  15.12800 2.37900 30.95700
O  14.37400 3.25800 31.38200
C  15.83000 1.41400 31.86800
C  16.84100 2.17600 32.73500
O  17.95200 2.40100 32.39900
O  16.23500 2.47600 33.89300
C  16.95300 3.33300 34.74300
H  20.00500 -4.13000 30.59600
H  19.33600 -2.96000 24.42700
H  15.10900 1.54600 25.47800
H  18.39800 -0.17400 32.98000
H  18.40100 -3.11100 32.72400
H  20.42700 -1.05900 33.29500
H  20.94600 -1.83300 31.97100
H  20.63800 -2.96000 33.22600
H  16.45200 -2.44800 33.62900
H  15.82000 -0.86400 33.27700
H  16.35500 -1.93000 35.67400
H  16.18700 -0.15700 35.28800
H  21.01600 -6.72900 28.33600
H  21.28700 -5.63400 29.62900
H  22.33400 -5.57800 28.28700
H  21.34100 -7.01000 26.14500
H  22.74000 -5.97800 25.93600
H  21.90500 -6.74800 24.46800
H  17.32200 -1.88600 22.99700
H  16.84600 0.91000 23.70000
H  19.72300 -0.76900 23.55100
H  18.82200 0.56600 23.01400
H  18.82900 -0.92000 21.96100
H  14.46400 -0.86000 23.98700
H  15.31200 -1.23100 22.48300
H  13.96800 0.47800 21.55500
H  15.25000 1.38200 22.22800
H  13.67500 1.24300 23.06100
H  13.28900 3.23300 27.49700
H  14.69900 3.93800 26.71100
H  14.32400 4.29800 28.35000
H  15.08500 0.93100 32.50000
H  18.01400 3.09300 34.67500
H  16.63900 3.38900 35.78600
H  16.72100 4.34500 34.41200
Mg 27.14800 49.91900 26.12900
C  25.21900 50.91400 28.84800
C  29.69000 48.91400 28.42400
C  29.14600 49.21700 23.46900
C  24.69300 50.94200 23.95700
N  27.41400 49.92700 28.36500
C  26.41400 50.35700 29.25600
C  26.89000 50.03500 30.71800
C  28.35600 49.41700 30.56000
C  28.51900 49.48100 28.99700
C  29.50800 50.20800 31.27700
C  25.81900 49.19200 31.49500
C  25.69700 49.74500 32.94000
H  25.74800 48.87200 34.14100
N  29.14500 49.18600 25.99600
C  30.03800 48.85400 27.03900
C  31.26500 48.36700 26.41600
C  31.16700 48.47000 24.98000
C  29.74400 48.96200 24.76300
C  32.42100 47.90200 27.36300
C  32.25400 48.28300 23.89200
O  32.07300 48.64100 22.71600
C  33.52300 47.64900 24.25500
N  26.94100 50.05600 24.06500
C  27.84700 49.59200 23.17100
C  27.22900 49.65100 21.74900
C  25.87000 50.22200 21.89000
C  25.80100 50.29300 23.41200
C  28.08400 50.31300 20.66500
C  24.76400 49.27800 21.33300
C  23.78200 49.98200 20.38100
N  25.30000 50.85600 26.29000
C  24.39900 51.10300 25.34800
C  23.25300 51.72700 25.99400
C  23.57200 51.77800 27.33000
C  24.78000 51.06700 27.47900
C  21.98900 52.17100 25.35900
C  23.06600 52.16800 28.66000
O  22.07200 52.81100 28.91800
C  24.08200 51.44800 29.68900
C  24.49000 52.57100 30.68800
O  25.19800 53.53800 30.46600
O  23.67500 52.45200 31.82900
C  24.11400 53.36200 32.86800
H  30.45900 48.46700 29.05700
H  29.73700 48.90500 22.60500
H  23.93800 51.31700 23.26200
H  26.91700 51.03400 31.15400
H  28.30200 48.41200 30.97900
H  29.08500 50.62600 32.19000
H  29.97100 50.95300 30.62900
H  30.28300 49.48500 31.53300
H  26.11300 48.14400 31.55000
H  24.84600 49.21000 31.00500
H  24.72000 50.19500 33.11900
H  26.43100 50.52300 33.14500
H  32.09900 47.04200 27.94900
H  32.63400 48.72700 28.04300
H  33.31400 47.65900 26.78700
H  34.13200 48.24900 24.93100
H  34.05400 47.57500 23.30600
H  33.44600 46.64300 24.67000
H  27.15500 48.59900 21.47300
H  25.93900 51.24400 21.51600
H  29.03800 50.56500 21.12800
H  27.68200 51.28300 20.37300
H  28.09800 49.74600 19.73400
H  24.25200 48.91100 22.22300
H  25.20200 48.48000 20.73400
H  24.27000 49.96700 19.40700
H  23.66700 51.01900 20.69600
H  22.83600 49.44800 20.29500
H  22.05300 53.20000 25.00800
H  21.21400 52.19300 26.12500
H  21.79100 51.47100 24.54700
H  23.52500 50.66800 30.20700
H  23.47600 53.29000 33.74800
H  23.91300 54.35100 32.45600
H  25.11400 53.20500 33.27300

