158

Mg 2.97000 -1.51600 43.40300
C  6.53900 -0.68700 42.88200
C  2.24400 1.21800 41.44300
C  -0.26200 -2.53700 43.20700
C  3.90500 -4.50400 44.74000
N  4.33200 -0.04200 42.11000
C  5.71400 0.23100 42.26400
C  6.03700 1.62400 41.67100
C  4.65200 2.26900 41.53300
C  3.62600 1.09900 41.73700
C  4.31900 3.43000 42.61600
C  6.64600 1.47300 40.22500
C  6.05500 0.48600 39.19900
H  5.70900 1.17800 37.95500
N  1.29400 -0.74800 42.49500
C  1.18400 0.43400 41.81700
C  -0.19400 0.72500 41.56800
C  -0.98300 -0.25300 42.19900
C  -0.01800 -1.21600 42.76100
C  -0.73200 1.96500 40.84700
C  -2.56400 -0.22900 42.43000
O  -3.18800 0.62000 41.81000
C  -3.28500 -1.19100 43.35800
N  1.91600 -3.35400 43.73600
C  0.60100 -3.49000 43.67300
C  0.20200 -4.91000 44.20400
C  1.52500 -5.56300 44.67000
C  2.49900 -4.42200 44.34700
C  -0.96100 -4.81800 45.26100
C  1.89400 -6.89800 43.90000
C  1.52100 -8.15100 44.65400
N  4.83000 -2.45200 43.81900
C  5.05200 -3.68300 44.42700
C  6.44100 -3.83800 44.66600
C  7.07500 -2.70200 44.16000
C  6.08000 -1.89000 43.54700
C  7.13600 -5.00100 45.37500
C  8.39900 -2.13400 43.84100
O  9.53400 -2.56900 44.02600
C  8.02100 -0.77900 42.99000
C  8.58500 0.48000 43.60600
O  9.25100 1.30400 43.00700
O  8.22700 0.76600 44.91800
C  8.77900 2.01800 45.50400
H  2.03700 2.23500 41.10300
H  -1.25700 -2.98300 43.15400
H  4.09500 -5.52100 45.09100
H  6.68100 2.14900 42.37700
H  4.55000 2.68200 40.52900
H  4.99300 3.41200 43.47200
H  3.29200 3.43400 42.98100
H  4.44100 4.41500 42.16600
H  7.66500 1.14100 40.42000
H  6.73900 2.48300 39.82400
H  5.11900 0.12900 39.62800
H  6.72000 -0.35000 38.98200
H  -0.07900 2.39200 40.08600
H  -0.93500 2.63500 41.68200
H  -1.68400 1.72800 40.37100
H  -2.64200 -1.82400 43.96800
H  -3.93200 -1.77900 42.70700
H  -3.95200 -0.61500 44.00000
H  -0.14200 -5.41800 43.30300
H  1.54300 -5.73500 45.74700
H  -1.59700 -3.94300 45.13000
H  -0.49900 -4.68900 46.24000
H  -1.57100 -5.71800 45.34400
H  2.93700 -6.95800 43.59000
H  1.31800 -7.01700 42.98200
H  0.79400 -8.79400 44.15800
H  1.14800 -7.84800 45.63300
H  2.38600 -8.79100 44.82300
H  7.55900 -5.71300 44.66600
H  6.43600 -5.54300 46.01100
H  7.95800 -4.62700 45.98500
H  8.49900 -0.80500 42.01000
H  8.94300 1.82000 46.56300
H  7.99200 2.75700 45.35600
H  9.64800 2.37200 44.94900
Mg 36.03000 50.12900 25.85700
C  36.07000 48.23800 28.69900
C  34.56700 52.64300 27.71500
C  35.52700 51.91400 23.04200
C  36.93500 47.39800 23.91700
N  35.51900 50.49400 27.97400
C  35.65000 49.48700 28.90900
C  35.33400 50.11000 30.32800
C  34.58800 51.35700 29.97800
C  34.87000 51.53100 28.44100
C  32.97600 51.37200 30.29000
C  36.56000 50.33000 31.20400
C  36.35800 49.59800 32.53400
H  34.98800 49.67900 33.16600
N  35.30100 52.06600 25.44800
C  34.80900 52.94500 26.38500
C  34.38900 54.12900 25.71500
C  34.69500 54.02700 24.34500
C  35.22800 52.62300 24.19000
C  33.81000 55.25900 26.38500
C  34.41800 55.00400 23.13500
O  34.70900 54.72000 21.92900
C  33.82400 56.42400 23.30800
N  36.36200 49.81100 23.75100
C  36.07900 50.68800 22.78200
C  36.42800 50.11800 21.39300
C  36.93600 48.71400 21.71400
C  36.66700 48.56400 23.21700
C  35.27800 50.25000 20.32700
C  38.31800 48.41200 21.17500
C  39.50900 48.92300 22.02900
N  36.40800 48.17200 26.17600
C  36.80000 47.16700 25.29600
C  37.15200 45.98300 26.07900
C  36.86400 46.35300 27.42200
C  36.44100 47.69700 27.39600
C  37.48700 44.66500 25.50200
C  36.86100 45.82900 28.73900
O  37.24100 44.74000 29.15300
C  36.21100 47.03600 29.63800
C  34.89900 46.48300 30.11800
O  33.91500 46.29100 29.47800
O  35.01400 46.11000 31.38200
C  33.86200 45.56600 32.05400
H  34.07500 53.31800 28.41900
H  35.38700 52.43700 22.09300
H  37.41600 46.57700 23.38100
H  34.62400 49.45700 30.83500
H  34.96800 52.22600 30.51600
H  32.72500 50.37500 30.65300
H  32.41800 51.65800 29.39800
H  32.77600 51.83200 31.25700
H  36.69500 51.40500 31.31900
H  37.44200 49.84400 30.78600
H  37.12100 50.00500 33.19800
H  36.70900 48.57800 32.37400
H  33.51000 55.15900 27.42800
H  32.91300 55.45100 25.79700
H  34.53700 56.06400 26.27200
H  34.28900 57.09500 24.03000
H  32.77200 56.40200 23.59200
H  33.72200 56.92500 22.34500
H  37.27300 50.68800 21.00500
H  36.24300 47.97300 21.31500
H  34.51700 50.92200 20.72500
H  34.91700 49.26800 20.02100
H  35.60400 50.76000 19.42000
H  38.43200 48.88000 20.19700
H  38.35500 47.33100 21.04500
H  39.95700 48.06500 22.53100
H  39.15100 49.64900 22.75900
H  40.31300 49.33100 21.41600
H  37.96800 44.01600 26.23400
H  38.21300 44.86700 24.71400
H  36.63700 44.14300 25.06200
H  36.80000 47.35100 30.49900
H  33.04200 46.27100 31.92000
H  34.04100 45.32100 33.10100
H  33.42800 44.66600 31.61800

