158

Mg 6.38700 54.77500 40.79200
C  5.90300 51.30500 40.62900
C  9.56200 54.38400 39.55500
C  6.70800 58.13400 40.33800
C  3.04700 55.12100 41.92500
N  7.49000 53.04200 39.99400
C  7.15400 51.66700 40.13200
C  8.28600 50.80000 39.49300
C  9.46900 51.79900 39.29300
C  8.82700 53.16100 39.69000
C  10.77100 51.53500 40.09500
C  7.92200 50.00700 38.17900
C  6.84600 50.56000 37.17800
H  7.45000 50.79200 35.80500
N  7.96300 56.09800 40.06500
C  9.17400 55.70300 39.64700
C  10.05000 56.92400 39.52800
C  9.21500 58.05000 39.80200
C  7.85600 57.49300 40.06900
C  11.46600 56.85100 39.09200
C  9.65800 59.49200 39.80400
O  10.81200 59.68700 39.63400
C  8.68600 60.62200 39.93100
N  4.98600 56.39400 40.99200
C  5.40800 57.68200 40.74700
C  4.21200 58.65500 40.84200
C  3.13800 57.75100 41.45900
C  3.69100 56.31400 41.46400
C  4.62300 59.83000 41.78300
C  1.70000 58.06100 40.89700
C  1.15800 57.24000 39.56500
N  4.81000 53.56400 41.25100
C  3.55700 53.82500 41.77700
C  2.89900 52.55500 42.09900
C  3.74400 51.54100 41.75500
C  4.89700 52.21500 41.16100
C  1.46000 52.38700 42.53100
C  3.87900 50.10300 41.66000
O  3.11100 49.21500 42.02000
C  5.27000 49.94100 40.91200
C  4.98600 49.09500 39.73200
O  4.59500 49.60600 38.64000
O  5.44500 47.84500 39.88400
C  5.50700 46.96000 38.70300
H  10.53700 54.20500 39.09600
H  6.67400 59.19900 40.09900
H  2.08300 55.31100 42.40100
H  8.47600 50.05700 40.26700
H  9.77500 51.93200 38.25500
H  11.23900 50.63800 39.69000
H  10.44200 51.16000 41.06500
H  11.44600 52.38600 40.17900
H  7.64500 49.00100 38.49600
H  8.87000 49.79500 37.68600
H  6.38300 51.45100 37.60200
H  6.13000 49.78400 36.90800
H  11.66500 57.21400 38.08400
H  11.87400 55.84600 39.19700
H  12.09900 57.43600 39.75900
H  8.03900 60.41200 39.08000
H  9.28600 61.52900 39.84300
H  8.08100 60.52200 40.83200
H  3.81600 59.02600 39.89700
H  3.19200 58.00200 42.51800
H  3.74600 60.22400 42.29700
H  4.84700 60.66700 41.12200
H  5.45200 59.67200 42.47300
H  1.75500 59.12800 40.68300
H  0.99800 57.78100 41.68200
H  0.09200 57.04400 39.68300
H  1.81300 56.37200 39.48600
H  1.30500 57.84700 38.67100
H  1.22200 51.35400 42.78600
H  0.79900 52.70800 41.72600
H  1.24000 52.95200 43.43700
H  5.83000 49.34200 41.63000
H  6.24700 46.16100 38.74100
H  5.79500 47.48700 37.79300
H  4.52300 46.54300 38.49100
Mg -11.61600 37.89000 42.41800
C  -8.98300 35.59400 41.56700
C  -10.09100 40.20600 40.46100
C  -14.34700 39.88100 42.74700
C  -13.17400 35.37800 43.95700
N  -9.77900 37.80100 41.03800
C  -8.85500 36.86000 40.92500
C  -7.76000 37.30400 39.96900
C  -7.96300 38.86500 39.87700
C  -9.36800 39.03700 40.51100
C  -6.84800 39.77500 40.55300
C  -7.63300 36.45100 38.64700
C  -6.29900 35.72300 38.31900
H  -5.52200 36.22900 37.03800
N  -12.17100 39.77200 41.63600
C  -11.34200 40.64700 40.95200
C  -12.00300 41.87900 40.68900
C  -13.21300 41.84600 41.44500
C  -13.30900 40.47100 41.97800
C  -11.51600 42.96900 39.65100
C  -14.24000 42.96800 41.54700
O  -13.94700 44.08800 41.16200
C  -15.68800 42.84800 42.05900
N  -13.60300 37.67300 43.26800
C  -14.52900 38.62200 43.31400
C  -15.83100 38.00400 43.83900
C  -15.35600 36.64700 44.47700
C  -13.97800 36.49000 43.79900
C  -16.64400 38.98600 44.77500
C  -16.33200 35.41700 44.11600
C  -16.62800 34.33300 45.26300
N  -11.20600 35.86600 42.74000
C  -11.89000 34.97000 43.50100
C  -11.19100 33.71500 43.52900
C  -10.01800 33.97500 42.81700
C  -10.11000 35.22900 42.31400
C  -11.66800 32.39100 44.20400
C  -8.82500 33.37100 42.48000
O  -8.32000 32.31300 42.81800
C  -8.00400 34.37200 41.63700
C  -6.66200 34.68400 42.30600
O  -5.67800 33.93500 42.24500
O  -6.67200 35.67000 43.23900
C  -5.44700 35.95000 44.02600
H  -9.52100 40.98300 39.94800
H  -15.15200 40.56500 43.02600
H  -13.61900 34.56000 44.52700
H  -6.78800 37.26900 40.46000
H  -8.08100 39.19500 38.84400
H  -7.34000 40.28100 41.38300
H  -6.51900 40.54100 39.85000
H  -5.96700 39.17200 40.77400
H  -7.69700 37.17700 37.83700
H  -8.47400 35.76000 38.58700
H  -6.47300 34.65300 38.20600
H  -5.60900 35.80700 39.15800
H  -11.66400 43.93400 40.13600
H  -11.99200 42.91200 38.67200
H  -10.43600 42.86200 39.55300
H  -16.30900 43.72800 41.88800
H  -15.73400 42.57200 43.11200
H  -16.15200 42.07400 41.44700
H  -16.25300 37.67800 42.88900
H  -15.32800 36.71500 45.56400
H  -17.27100 38.39400 45.44100
H  -17.26600 39.49400 44.03700
H  -16.06900 39.76300 45.27900
H  -15.96700 34.90100 43.22800
H  -17.26500 35.90600 43.83300
H  -17.69100 34.10200 45.18700
H  -16.56600 34.84900 46.22100
H  -15.98500 33.46300 45.13200
H  -10.90500 31.66500 43.92200
H  -12.65200 32.12400 43.82100
H  -11.61400 32.57200 45.27700
H  -7.79700 33.97500 40.64400
H  -5.10000 36.93500 43.71400
H  -4.54900 35.36000 43.83800
H  -5.63000 36.08000 45.09200

