158

Mg 36.82000 48.12900 24.58300
C  37.02000 46.14800 27.47600
C  35.69300 50.80500 26.48000
C  36.45400 49.86300 21.82600
C  37.80900 45.30600 22.67400
N  36.40400 48.39300 26.66800
C  36.65400 47.52600 27.69600
C  36.34000 48.13300 29.09600
C  35.85600 49.57500 28.70500
C  36.02000 49.63100 27.18800
C  34.41700 49.76900 29.16200
C  37.48700 48.13700 30.11600
C  37.09500 47.65900 31.53900
H  35.63700 47.73500 32.04400
N  36.23200 50.09600 24.19800
C  35.70500 51.04300 25.11400
C  35.36100 52.27200 24.43400
C  35.50600 52.01700 23.00200
C  36.11200 50.61000 22.92800
C  34.88900 53.51400 25.08800
C  35.28600 53.01300 21.92500
O  35.54600 52.75500 20.77900
C  34.92800 54.42100 22.14400
N  36.84100 47.56400 22.46900
C  36.83600 48.54100 21.50400
C  37.09200 47.95600 20.07100
C  37.68200 46.51900 20.48300
C  37.46800 46.44500 21.98100
C  35.90800 48.01300 19.10800
C  39.07000 46.22500 19.97400
C  40.14400 46.94700 20.75500
N  37.36300 46.19200 24.99100
C  37.75800 45.14200 24.07900
C  38.07000 43.96100 24.90300
C  37.75400 44.28400 26.25000
C  37.33500 45.67500 26.20000
C  38.48600 42.59800 24.33300
C  37.60900 43.83100 27.62500
O  37.71600 42.67200 28.05400
C  37.14800 45.05300 28.51200
C  35.77900 44.63800 29.10500
O  34.70800 44.62300 28.51600
O  35.96000 44.17200 30.40900
C  34.92200 43.33100 30.91500
H  35.23600 51.56400 27.11800
H  36.38200 50.55000 20.98000
H  38.10700 44.41500 22.11600
H  35.54900 47.50000 29.49800
H  36.57500 50.34500 28.98400
H  34.05300 49.34500 30.09800
H  33.88900 49.41700 28.27600
H  34.26300 50.84700 29.11800
H  37.96700 49.11300 30.18600
H  38.28500 47.47000 29.79100
H  37.72000 48.14700 32.28700
H  37.45000 46.63200 31.61600
H  35.63700 54.30600 25.14500
H  34.60800 53.26500 26.11200
H  33.96600 53.95700 24.71500
H  33.90500 54.53200 22.50400
H  35.04200 54.94400 21.19500
H  35.60700 54.80200 22.90700
H  37.96800 48.50300 19.72100
H  36.98400 45.77400 20.10000
H  34.99400 48.19000 19.67600
H  35.93400 47.07000 18.56300
H  36.04200 48.83900 18.41000
H  39.13200 46.48600 18.91800
H  39.22200 45.14900 20.06700
H  40.96300 47.26100 20.10700
H  40.64900 46.30000 21.47300
H  39.82700 47.82400 21.31800
H  38.57400 42.58700 23.24700
H  37.73500 41.87000 24.63800
H  39.36700 42.30800 24.90700
H  37.89100 45.27500 29.27800
H  34.58000 42.65300 30.13400
H  34.22500 43.96500 31.46300
H  35.44300 42.76500 31.68700
Mg -6.91900 26.05400 25.30700
C  -5.24800 27.29100 28.10400
C  -8.31300 23.70400 27.49000
C  -8.06100 24.35500 22.48900
C  -5.05600 27.95800 23.21700
N  -6.82300 25.62100 27.50100
C  -6.15900 26.35900 28.41700
C  -6.58700 26.01500 29.83500
C  -7.41200 24.67800 29.62100
C  -7.55300 24.66700 28.14600
C  -6.79700 23.34500 30.24400
C  -7.37400 27.19300 30.57400
C  -7.07900 27.40500 32.02800
H  -6.63100 26.17400 32.86200
N  -8.18300 24.31900 25.03400
C  -8.59500 23.52200 26.05700
C  -9.27900 22.40800 25.44400
C  -9.33500 22.53400 23.99900
C  -8.53700 23.78500 23.78700
C  -9.79900 21.30900 26.24000
C  -10.03400 21.71600 22.90000
O  -10.04800 22.17300 21.77800
C  -10.69600 20.41200 23.27900
N  -6.82200 26.32400 23.13600
C  -7.30200 25.41800 22.20600
C  -6.81100 25.82600 20.74900
C  -6.00200 27.15200 21.03100
C  -5.96900 27.18700 22.58700
C  -6.15600 24.72000 19.90400
C  -6.63100 28.46600 20.44300
C  -5.96800 29.04400 19.18200
N  -5.54300 27.51600 25.54700
C  -4.77200 28.14300 24.61100
C  -3.83800 29.03700 25.29800
C  -3.99800 28.74700 26.73400
C  -5.01500 27.77000 26.79500
C  -2.96300 30.06500 24.69900
C  -3.62100 29.12900 28.06300
O  -2.78200 29.95000 28.44700
C  -4.27900 28.03500 28.99100
C  -3.26900 27.11900 29.60700
O  -3.05500 26.01400 29.22900
O  -2.57400 27.73600 30.64500
C  -1.48500 26.92000 31.18200
H  -8.75300 22.97300 28.17200
H  -8.34000 23.82000 21.57900
H  -4.41000 28.53900 22.55600
H  -5.67700 25.86900 30.41700
H  -8.42200 24.81900 30.00400
H  -6.02900 22.98800 29.55800
H  -7.51100 22.54500 30.43800
H  -6.37900 23.60200 31.21700
H  -8.45000 27.18200 30.40100
H  -7.11400 28.14900 30.12000
H  -7.98500 27.79900 32.48700
H  -6.31300 28.17900 32.07800
H  -10.86500 21.47100 26.39600
H  -9.32600 21.20600 27.21700
H  -9.62900 20.33900 25.77300
H  -9.94900 19.70500 23.64000
H  -11.24300 20.07200 22.40000
H  -11.49500 20.61300 23.99200
H  -7.71500 26.05200 20.18300
H  -5.06300 26.97900 20.50500
H  -5.91600 23.88200 20.55900
H  -5.21800 25.03900 19.45000
H  -6.82900 24.27500 19.17200
H  -6.67100 29.37000 21.05100
H  -7.63400 28.31900 20.04300
H  -6.71100 29.40900 18.47300
H  -5.23500 28.37000 18.73900
H  -5.43100 29.92800 19.52700
H  -3.35600 30.40700 23.74200
H  -2.04100 29.54700 24.43400
H  -2.67100 30.82300 25.42600
H  -4.75600 28.71400 29.69700
H  -0.64600 26.97800 30.49000
H  -1.81200 25.88000 31.16700
H  -1.18700 27.34200 32.14200

