158

Mg 25.82300 -0.72900 29.38800
C  27.89400 -0.88500 32.19900
C  23.14300 -0.49900 31.46000
C  23.94800 -0.70400 26.57100
C  28.58800 -1.50300 27.37600
N  25.59500 -0.55400 31.61200
C  26.59500 -0.63500 32.63700
C  26.05000 -0.34200 33.99600
C  24.52200 -0.25000 33.73100
C  24.40000 -0.56600 32.18300
C  23.73300 -1.33900 34.44400
C  26.68800 0.86900 34.72200
C  27.48800 0.51100 35.96600
H  27.38500 1.33000 37.20700
N  23.77100 -0.58800 29.05900
C  22.84000 -0.38600 30.03000
C  21.58100 -0.18200 29.40900
C  21.82200 -0.40300 28.08500
C  23.21400 -0.60900 27.80400
C  20.35300 -0.07200 30.13900
C  20.74900 -0.38600 26.96100
O  20.92300 -0.82100 25.80400
C  19.31500 0.12400 27.21400
N  26.17600 -1.11300 27.28200
C  25.28200 -0.89100 26.30900
C  25.90300 -0.77500 24.96700
C  27.41800 -0.89000 25.19000
C  27.44200 -1.17700 26.70700
C  25.32100 -1.80100 23.89500
C  28.27600 0.26900 24.72200
C  28.45300 1.52000 25.57100
N  27.85300 -1.08600 29.63200
C  28.82900 -1.39500 28.76300
C  30.07700 -1.52500 29.50200
C  29.77800 -1.32200 30.82800
C  28.38000 -1.09800 30.86900
C  31.40900 -1.93900 28.86200
C  30.37500 -1.34600 32.11500
O  31.53300 -1.52200 32.45900
C  29.18200 -1.04200 33.09000
C  29.04600 -2.16100 34.01800
O  28.49700 -3.26400 33.84600
O  29.57000 -1.76800 35.21800
C  29.48400 -2.69500 36.30500
H  22.30700 -0.28500 32.12800
H  23.36200 -0.43500 25.68900
H  29.49200 -1.53100 26.76400
H  26.19600 -1.30500 34.48600
H  24.17700 0.75500 33.97700
H  24.23000 -1.61200 35.37500
H  23.59200 -2.27000 33.89500
H  22.72300 -0.98900 34.65500
H  25.93100 1.58600 35.03900
H  27.39000 1.50100 34.17800
H  28.51900 0.64800 35.64000
H  27.35800 -0.55300 36.16500
H  19.91700 0.89700 29.89800
H  20.55900 -0.23900 31.19600
H  19.65500 -0.81400 29.75000
H  19.27100 1.00500 27.85400
H  18.69800 -0.68800 27.59800
H  18.86500 0.41100 26.26400
H  25.77600 0.25700 24.64000
H  27.77600 -1.79000 24.69000
H  25.86500 -2.74300 23.96500
H  25.39500 -1.35700 22.90200
H  24.26200 -2.06000 23.90800
H  27.97900 0.56500 23.71600
H  29.26100 -0.16500 24.54800
H  29.51100 1.75100 25.69600
H  27.91100 1.48400 26.51500
H  28.14300 2.44300 25.08100
H  32.10500 -1.10800 28.97500
H  31.38800 -2.35100 27.85300
H  31.81700 -2.65700 29.57400
H  29.33400 -0.09900 33.61500
H  28.43300 -2.61500 36.57900
H  30.07700 -2.17000 37.05400
H  29.85000 -3.71000 36.15300
Mg -9.97300 40.51100 42.76600
C  -8.92100 37.36700 41.97100
C  -6.99200 41.75600 41.50000
C  -11.20800 43.59800 43.06000
C  -13.23900 39.21100 43.39000
N  -8.26000 39.58500 41.63600
C  -7.94700 38.28400 41.61200
C  -6.55900 38.13100 41.00500
C  -5.90600 39.51200 41.09000
C  -7.12000 40.36100 41.37100
C  -4.70900 39.65300 42.14700
C  -6.50900 37.51600 39.59400
C  -5.66600 36.26000 39.46400
H  -4.52400 36.31600 38.47500
N  -9.18800 42.44900 42.40800
C  -7.93500 42.72400 41.91700
C  -7.77100 44.08300 41.88500
C  -8.93300 44.67400 42.31000
C  -9.86500 43.59100 42.69100
C  -6.46300 44.76500 41.40800
C  -9.32000 46.23000 42.27200
O  -8.47900 47.00500 41.79400
C  -10.63300 46.79000 42.81100
N  -11.98800 41.33200 43.12400
C  -12.15500 42.65000 43.35400
C  -13.62600 42.95100 43.78000
C  -14.21400 41.52600 43.81200
C  -13.06500 40.59100 43.50300
C  -13.84400 43.85800 45.00500
C  -15.56500 41.28100 43.00900
C  -16.74400 40.70400 43.84200
N  -10.92100 38.68800 42.79100
C  -12.21300 38.26400 43.08500
C  -12.34300 36.93300 42.86900
C  -11.08500 36.53700 42.54900
C  -10.20300 37.61200 42.45900
C  -13.58400 36.08100 43.08700
C  -10.29400 35.38200 42.14800
O  -10.63800 34.22700 42.04600
C  -8.85500 35.86100 41.66800
C  -7.76600 35.08000 42.42800
O  -7.43100 35.26200 43.56600
O  -7.27900 34.09200 41.55400
C  -6.32300 33.12900 42.19900
H  -6.01200 42.13100 41.19800
H  -11.63600 44.60000 43.14600
H  -14.24500 38.81700 43.54200
H  -5.97000 37.54800 41.71300
H  -5.52000 39.81800 40.11700
H  -3.75900 39.61200 41.61400
H  -4.80800 38.89200 42.92200
H  -4.79400 40.61900 42.64400
H  -6.22400 38.19300 38.78900
H  -7.54400 37.23800 39.39400
H  -6.22300 35.34800 39.24700
H  -5.21100 36.07400 40.43600
H  -6.40300 44.76400 40.32000
H  -5.57800 44.23800 41.76600
H  -6.37500 45.80700 41.71400
H  -10.54700 47.86000 42.62400
H  -10.75400 46.46000 43.84300
H  -11.35700 46.32300 42.14300
H  -14.01000 43.54600 42.95200
H  -14.29000 41.26700 44.86800
H  -13.11700 44.65900 44.86900
H  -13.81800 43.21400 45.88500
H  -14.88300 44.18400 44.97000
H  -15.31000 40.75200 42.09000
H  -16.02700 42.23300 42.74600
H  -17.35300 41.58400 44.05000
H  -16.52200 40.24500 44.80500
H  -17.34000 40.00000 43.26200
H  -13.66500 35.50700 42.16400
H  -14.46300 36.63300 43.41900
H  -13.32400 35.30600 43.80700
H  -8.67800 35.58700 40.62800
H  -5.36200 33.62000 42.35000
H  -6.22200 32.25800 41.55100
H  -6.62300 32.68500 43.14900

