158

Mg 1.56400 -0.69600 43.79500
C  4.96800 -0.57600 42.95200
C  1.12400 2.02800 41.78100
C  -1.72000 -1.58000 43.65800
C  2.19700 -3.83400 45.32700
N  2.91700 0.56400 42.46700
C  4.24000 0.39700 42.29400
C  4.80000 1.50500 41.39000
C  3.53500 2.36600 41.10900
C  2.46500 1.62200 41.79800
C  3.54000 3.89500 41.35800
C  5.45000 0.87300 40.14800
C  6.80700 1.54000 39.77900
H  6.86100 2.20400 38.43400
N  -0.13500 0.23700 43.05000
C  -0.10000 1.35400 42.23200
C  -1.41400 1.62600 41.86400
C  -2.25400 0.65000 42.44100
C  -1.38400 -0.32200 43.05100
C  -1.73200 2.89900 41.14200
C  -3.81900 0.73000 42.39200
O  -4.43900 1.72600 41.98800
C  -4.68200 -0.29900 42.86900
N  0.42700 -2.45400 44.47000
C  -0.90000 -2.58200 44.22700
C  -1.44700 -3.98000 44.54600
C  -0.13900 -4.72400 45.06900
C  0.89300 -3.59500 44.91500
C  -2.54900 -3.83600 45.57400
C  0.30500 -6.01400 44.28300
C  0.65700 -7.32900 45.11600
N  3.23300 -1.91600 44.24700
C  3.30900 -3.10900 44.93600
C  4.74300 -3.41800 45.12300
C  5.42000 -2.44300 44.38300
C  4.43600 -1.58000 43.80400
C  5.32000 -4.69800 45.79800
C  6.73600 -2.06500 43.89600
O  7.81100 -2.62600 44.01400
C  6.50200 -0.82200 42.98400
C  7.23200 0.17000 43.65500
O  6.89300 0.65700 44.71800
O  8.28600 0.50400 42.83600
C  8.89100 1.81300 43.18900
H  0.92700 2.99600 41.31800
H  -2.71900 -1.99000 43.49500
H  2.34100 -4.76100 45.88600
H  5.45200 2.05100 42.07100
H  3.22900 2.45600 40.06600
H  4.47300 4.45300 41.43800
H  3.14100 4.08600 42.35500
H  2.96800 4.41400 40.58800
H  4.82900 1.00700 39.26200
H  5.64000 -0.18700 40.31700
H  7.54700 0.74100 39.74900
H  7.05200 2.35000 40.46600
H  -1.74800 2.55700 40.10700
H  -0.98600 3.68100 41.28400
H  -2.65900 3.39000 41.43700
H  -5.74100 -0.13000 42.67500
H  -4.49700 -0.40500 43.93800
H  -4.41100 -1.23500 42.38100
H  -1.82100 -4.38300 43.60500
H  -0.31200 -4.89200 46.13200
H  -2.40300 -4.55500 46.38100
H  -3.44700 -4.14600 45.03900
H  -2.62100 -2.78800 45.86300
H  1.18500 -5.90300 43.64900
H  -0.48200 -6.25500 43.56800
H  0.78600 -7.04400 46.16100
H  1.50800 -7.82700 44.65100
H  -0.19700 -7.98200 44.94100
H  5.75100 -4.44700 46.76700
H  6.11600 -5.13200 45.19300
H  4.50200 -5.38600 46.01000
H  6.98200 -1.12600 42.05400
H  8.21000 2.54800 43.61800
H  9.16900 2.18100 42.20200
H  9.85300 1.75900 43.69800
Mg 9.05700 3.61200 27.74500
C  10.36100 1.95600 30.66400
C  7.14700 5.49100 29.81900
C  7.50700 4.68600 24.97100
C  10.57500 1.02400 25.79500
N  8.79600 3.74000 30.08300
C  9.52600 3.00100 31.04600
C  9.19000 3.51700 32.41900
C  8.05900 4.62700 32.18400
C  7.99100 4.64400 30.59000
C  6.65700 4.37900 32.89700
C  10.42400 3.92900 33.27500
C  10.09000 4.97700 34.33500
H  10.59300 4.84700 35.74500
N  7.63400 5.01000 27.37900
C  6.98400 5.73700 28.37200
C  6.17500 6.73400 27.81500
C  6.40700 6.70500 26.36800
C  7.20100 5.41400 26.15100
C  5.28400 7.75600 28.45800
C  6.01700 7.66000 25.21600
O  6.18200 7.37200 24.01800
C  5.36500 8.99400 25.53900
N  8.86900 2.76200 25.70000
C  8.24700 3.51800 24.68200
C  8.66900 3.10200 23.31200
C  9.45700 1.78400 23.62400
C  9.67300 1.87700 25.11900
C  7.54600 2.94100 22.19800
C  10.80700 1.69800 22.83700
C  11.09200 0.27000 22.18100
N  10.20200 1.96400 28.02200
C  10.78400 1.02700 27.13000
C  11.61500 0.13400 27.84100
C  11.51300 0.52000 29.18300
C  10.63100 1.56600 29.27800
C  12.35900 -1.03800 27.22000
C  11.91500 0.11900 30.50500
O  12.71500 -0.72300 30.82000
C  11.28600 1.10300 31.47000
C  10.50800 0.29700 32.49100
O  9.60100 -0.48100 32.20100
O  11.03800 0.43800 33.71900
C  10.47900 -0.46000 34.70400
H  6.75000 6.27400 30.46900
H  7.12300 5.16700 24.06900
H  11.25300 0.40300 25.20600
H  8.83700 2.69400 33.03900
H  8.38600 5.65800 32.32200
H  5.80400 4.49300 32.22800
H  6.55300 5.23600 33.56200
H  6.70500 3.48200 33.51400
H  11.18200 4.23000 32.55200
H  10.79500 3.01400 33.73600
H  9.00200 5.00700 34.39800
H  10.52500 5.92600 34.02300
H  5.49500 8.81400 28.29800
H  5.29900 7.57100 29.53200
H  4.26200 7.56100 28.13200
H  6.09300 9.54500 26.13600
H  4.39300 8.80700 25.99500
H  5.08700 9.53400 24.63400
H  9.27800 3.94100 22.97500
H  8.81100 0.90800 23.57300
H  7.84400 3.60800 21.39000
H  6.53400 3.24300 22.46700
H  7.43100 1.90600 21.87500
H  11.69300 2.01600 23.38500
H  10.83200 2.40500 22.00800
H  11.30200 0.41000 21.12100
H  10.37700 -0.54600 22.28500
H  12.02400 0.01800 22.68700
H  12.89000 -0.64600 26.35300
H  11.58500 -1.77500 27.00700
H  13.00800 -1.34600 28.04000
H  12.10900 1.60700 31.97800
H  11.32900 -1.05500 35.03800
H  9.66300 -1.11500 34.39600
H  10.00400 0.15000 35.47200

