158

Mg -1.85600 17.49800 27.32700
C  -2.34500 15.54900 30.09600
C  -2.86100 20.29900 29.14100
C  -1.33600 19.39600 24.44500
C  -1.64900 14.63200 25.38000
N  -2.36600 17.89400 29.49500
C  -2.47300 16.91300 30.47200
C  -2.69400 17.61100 31.85700
C  -3.27000 18.99900 31.42300
C  -2.78200 19.14400 29.90700
C  -4.75200 19.23500 31.43900
C  -1.45300 17.55900 32.77400
C  -1.80600 17.40700 34.31900
H  -0.71000 17.72900 35.32800
N  -1.88300 19.59100 26.95000
C  -2.39100 20.55500 27.83700
C  -2.29800 21.84100 27.18700
C  -1.76200 21.59500 25.85100
C  -1.62000 20.13400 25.68900
C  -2.64100 23.17600 27.83800
C  -1.38800 22.62000 24.82500
O  -1.02000 22.29800 23.71700
C  -1.51300 24.07000 25.12500
N  -1.56300 17.04700 25.17000
C  -1.34800 18.04400 24.16300
C  -1.07300 17.37600 22.76900
C  -0.99800 15.88200 23.20400
C  -1.42400 15.78500 24.65500
C  -2.23300 17.68100 21.79300
C  0.47600 15.23400 23.04200
C  1.49400 16.06200 23.85600
N  -2.05400 15.46100 27.54900
C  -2.01700 14.40600 26.70800
C  -2.21300 13.16200 27.42500
C  -2.31600 13.57100 28.81000
C  -2.22700 14.96200 28.81500
C  -2.27500 11.79100 26.74000
C  -2.49900 13.09500 30.13200
O  -2.58700 11.94900 30.56900
C  -2.42700 14.36900 31.05800
C  -1.19400 14.16600 31.79200
O  -0.02000 14.17400 31.41700
O  -1.52500 14.07600 33.12800
C  -0.42800 13.87000 34.06800
H  -3.21300 21.15500 29.72000
H  -1.13100 20.02100 23.57400
H  -1.51900 13.76400 24.73100
H  -3.40500 16.93000 32.32500
H  -2.85200 19.85400 31.95500
H  -5.22400 18.26600 31.27500
H  -5.18300 19.81000 30.61900
H  -5.06800 19.78700 32.32400
H  -0.81300 18.42900 32.62500
H  -0.79700 16.71000 32.58300
H  -2.12300 16.42400 34.66700
H  -2.67500 18.03700 34.51000
H  -1.73700 23.78400 27.83600
H  -2.80900 23.07000 28.91000
H  -3.57100 23.66700 27.55000
H  -1.66800 24.52400 24.14600
H  -0.62300 24.42700 25.64400
H  -2.35800 24.38900 25.73600
H  -0.16600 17.67900 22.24500
H  -1.67500 15.32600 22.55500
H  -3.15000 17.43200 22.32600
H  -2.11100 17.22100 20.81300
H  -2.28100 18.76500 21.68600
H  0.80600 15.17600 22.00500
H  0.41600 14.20000 23.38100
H  2.17900 15.32100 24.26600
H  1.10300 16.80000 24.55700
H  2.14100 16.61500 23.17500
H  -2.01700 11.82400 25.68200
H  -3.28100 11.37600 26.80300
H  -1.62900 11.08300 27.25900
H  -3.30400 14.51200 31.69000
H  -0.64600 14.35200 35.02100
H  0.54200 14.25400 33.75100
H  -0.35600 12.78800 34.17700
Mg 17.69500 53.31100 26.01000
C  19.58800 51.89300 28.66300
C  15.46200 54.30600 28.43500
C  15.77300 54.28500 23.64900
C  20.00800 51.89500 23.72300
N  17.53400 53.13800 28.33600
C  18.42100 52.51100 29.17200
C  17.95900 52.68000 30.59900
C  16.54900 53.24600 30.44600
C  16.56700 53.71500 29.02100
C  15.48200 52.14900 30.71300
C  18.91600 53.67900 31.39800
C  19.07500 53.45000 32.90900
H  18.04500 52.66600 33.72500
N  15.80700 54.20300 26.07700
C  15.09500 54.61800 27.12500
C  13.85700 55.30300 26.67400
C  13.89900 55.20500 25.23600
C  15.20000 54.52800 24.93600
C  12.77600 55.64200 27.60800
C  12.85300 55.65500 24.21700
O  13.00300 55.57400 23.03200
C  11.53200 56.31400 24.70200
N  17.91300 53.13100 24.02500
C  16.94500 53.60600 23.18800
C  17.43500 53.79100 21.77800
C  18.83300 53.07100 21.82800
C  18.98300 52.73500 23.28800
C  16.55700 53.34500 20.53600
C  20.06600 54.00200 21.33800
C  21.29400 53.26500 20.82300
N  19.46800 52.27100 26.08900
C  20.32900 51.79200 25.08900
C  21.44100 51.03200 25.68600
C  21.14700 51.07300 27.05900
C  19.96200 51.78800 27.25700
C  22.50800 50.36800 24.96400
C  21.66200 50.65200 28.31700
O  22.65600 49.95700 28.55600
C  20.72500 51.25300 29.43100
C  20.28300 50.20300 30.36300
O  19.46800 49.35300 30.08100
O  20.81900 50.46900 31.61000
C  20.55400 49.54300 32.72500
H  14.72500 54.68500 29.14600
H  15.22100 54.63600 22.77500
H  20.82800 51.54800 23.09100
H  18.00800 51.73100 31.13300
H  16.37900 54.12800 31.06400
H  15.08600 51.90700 29.72700
H  14.67800 52.51100 31.35300
H  15.76500 51.24900 31.25900
H  18.71600 54.72500 31.16400
H  19.89100 53.53000 30.93500
H  19.07900 54.43700 33.37100
H  20.07700 53.07100 33.10600
H  11.76400 55.44900 27.25300
H  12.78300 56.68200 27.93400
H  12.93800 55.09600 28.53700
H  11.76300 56.98000 25.53300
H  10.92400 55.48500 25.06500
H  11.10100 56.79500 23.82400
H  17.59100 54.84400 21.54300
H  18.95600 52.08200 21.38500
H  15.53700 53.02300 20.74900
H  16.97900 52.42900 20.12400
H  16.67200 54.01400 19.68300
H  20.34100 54.51500 22.25900
H  19.67300 54.74500 20.64400
H  21.30100 52.18200 20.94800
H  22.17000 53.75900 21.24200
H  21.32700 53.46900 19.75300
H  23.43400 50.37200 25.54000
H  22.77900 51.07600 24.18200
H  22.35100 49.31200 24.74500
H  21.27700 51.99100 30.01300
H  20.99500 48.57300 32.49600
H  19.48800 49.44600 32.92700
H  20.99800 49.85200 33.67100

