158

Mg 48.51800 44.83800 42.64500
C  44.94700 44.38500 42.32100
C  48.93600 41.52000 42.12900
C  51.93200 45.49400 42.36900
C  47.91200 48.31800 42.44100
N  47.03900 43.18000 42.39500
C  45.70900 43.21800 42.12200
C  45.16000 41.88500 41.89100
C  46.43400 40.86800 42.14400
C  47.60300 41.89700 42.22500
C  46.46200 40.03200 43.44100
C  44.35600 41.76700 40.57800
C  44.62900 42.76000 39.38700
H  44.77600 41.99900 38.01800
N  50.17300 43.65000 42.33400
C  50.16000 42.31800 42.09300
C  51.50300 41.88400 41.84900
C  52.38800 42.97400 41.92300
C  51.48000 44.14000 42.24000
C  51.70900 40.44400 41.52000
C  53.88400 42.81700 41.61700
O  54.29300 41.69600 41.46800
C  54.75400 44.02700 41.45600
N  49.79700 46.56000 42.54200
C  51.13900 46.60600 42.50200
C  51.63400 48.06900 42.52400
C  50.34000 48.92700 42.19800
C  49.25700 47.85100 42.51100
C  52.48100 48.46900 43.79800
C  50.26200 49.65900 40.83100
C  50.35700 51.21100 40.94600
N  46.84300 46.13000 42.48100
C  46.75800 47.52700 42.42100
C  45.37500 47.91500 42.32100
C  44.65600 46.72800 42.36900
C  45.59000 45.69200 42.34500
C  44.82100 49.32600 42.17700
C  43.33100 46.14300 42.36000
O  42.22400 46.75000 42.35900
C  43.47400 44.51300 42.32200
C  42.93500 43.95800 43.54400
O  42.09800 43.05200 43.59800
O  43.69600 44.33800 44.65500
C  43.36800 43.48300 45.82700
H  49.13400 40.46200 41.94600
H  52.97200 45.71200 42.11900
H  47.79700 49.40200 42.50300
H  44.50900 41.66900 42.73800
H  46.49200 40.21800 41.27100
H  45.64200 40.42600 44.04200
H  47.42500 40.18100 43.92800
H  46.34400 38.95500 43.32300
H  43.31700 41.77800 40.90600
H  44.57800 40.74300 40.27500
H  45.59200 43.26700 39.43900
H  43.72500 43.36700 39.33600
H  52.22600 40.24000 40.58300
H  50.86300 39.75700 41.54000
H  52.24300 39.84000 42.25500
H  54.69300 44.60300 42.38000
H  54.36000 44.66100 40.66200
H  55.78200 43.67400 41.37300
H  52.28200 48.26000 41.66900
H  50.23000 49.62200 43.03000
H  51.93500 48.82100 44.67300
H  53.21400 49.19300 43.44200
H  52.87700 47.49100 44.07200
H  49.33700 49.45400 40.29200
H  51.12400 49.34700 40.24000
H  51.11500 51.60700 40.27000
H  50.41500 51.65900 41.93800
H  49.46700 51.61300 40.46100
H  44.48000 49.83600 43.07800
H  43.99500 49.08400 41.50800
H  45.48800 49.97000 41.60400
H  43.01300 44.04200 41.45400
H  42.31100 43.65400 46.02900
H  44.05900 43.67800 46.64700
H  43.50600 42.44700 45.51800
Mg 0.65900 43.19700 25.81200
C  2.28600 43.08900 29.11900
C  -2.06800 41.86000 27.29100
C  -0.53200 42.72100 22.76300
C  3.82700 43.71600 24.50600
N  0.22000 42.56600 27.95400
C  0.88100 42.82600 29.15600
C  -0.03800 42.76300 30.35300
C  -1.26200 42.08400 29.77700
C  -1.08900 42.14500 28.22400
C  -1.29200 40.58000 30.28000
C  -0.21400 44.18300 30.99100
C  0.45200 44.50600 32.43500
H  -0.45500 44.33600 33.69600
N  -1.09700 42.52200 25.17100
C  -2.13300 41.96600 25.86300
C  -3.27800 41.78200 24.99900
C  -2.77900 42.03500 23.65200
C  -1.42700 42.44100 23.84300
C  -4.69100 41.29300 25.38700
C  -3.60900 41.93000 22.38700
O  -3.26800 42.24300 21.27500
C  -4.97000 41.20800 22.40800
N  1.54200 43.16900 23.95300
C  0.84900 42.91000 22.81600
C  1.67700 42.98500 21.53100
C  2.92400 43.70600 22.13500
C  2.77000 43.54000 23.62800
C  1.97700 41.62600 20.86200
C  3.03200 45.23300 21.76300
C  3.42700 45.44200 20.27700
N  2.64000 43.43600 26.56800
C  3.86000 43.50700 25.89500
C  4.95800 43.55800 26.87400
C  4.35800 43.36500 28.03100
C  2.98600 43.25600 27.86800
C  6.41600 43.92500 26.69900
C  4.65100 43.00400 29.44700
O  5.72800 42.73800 29.90300
C  3.36000 43.04700 30.24200
C  3.37000 41.76500 31.01100
O  3.01800 40.66500 30.68800
O  3.96700 42.04800 32.22800
C  4.00700 41.07500 33.35800
H  -2.96900 41.57500 27.83900
H  -0.92600 42.55500 21.75800
H  4.82200 43.91100 24.10200
H  0.48400 42.18400 31.11600
H  -2.20400 42.50100 30.13200
H  -0.64000 40.22000 31.07600
H  -1.05700 39.94000 29.43000
H  -2.32600 40.40200 30.57500
H  -1.29800 44.28900 30.94100
H  0.29600 44.86100 30.30700
H  0.86900 45.51200 32.38000
H  1.28800 43.81000 32.51100
H  -5.51300 41.95900 25.12400
H  -4.72100 41.23400 26.47500
H  -4.85700 40.28600 25.00500
H  -4.83500 40.27700 22.95900
H  -5.38100 41.14700 21.40100
H  -5.61400 41.86000 22.99900
H  1.14700 43.65700 20.85600
H  3.72000 43.15800 21.63100
H  1.50900 40.80200 21.40100
H  3.04300 41.39800 20.85200
H  1.70900 41.60700 19.80500
H  3.85000 45.71900 22.29500
H  2.08800 45.77600 21.81100
H  3.45100 44.39700 19.96800
H  4.37100 45.97000 20.14200
H  2.62400 45.97200 19.76300
H  6.91000 43.76100 27.65600
H  6.52200 44.98800 26.47900
H  6.89600 43.34100 25.91400
H  3.44500 43.89700 30.91900
H  5.04000 40.72900 33.33900
H  3.28600 40.25800 33.33800
H  3.91000 41.59600 34.31000

