158

Mg 40.49900 9.34700 29.61900
C  42.16100 10.45800 32.37000
C  38.27000 7.52300 31.65300
C  38.90900 8.17700 26.90600
C  43.03200 10.61800 27.57500
N  40.29900 8.94300 31.76900
C  41.04200 9.66600 32.65100
C  40.54700 9.38500 34.08000
C  39.42000 8.30000 33.81900
C  39.29100 8.25300 32.33500
C  39.67900 6.84700 34.41100
C  39.90100 10.71500 34.77700
C  39.41800 10.49100 36.26700
H  39.99400 11.29000 37.41800
N  38.82100 8.03200 29.29900
C  38.00300 7.52000 30.22000
C  36.88700 6.85100 29.61500
C  37.00100 7.14800 28.19800
C  38.29400 7.78400 28.07900
C  35.84800 6.17400 30.43900
C  36.00000 6.90300 27.06600
O  36.14800 7.22600 25.89400
C  34.56700 6.27700 27.44700
N  41.07200 9.07200 27.55900
C  40.19000 8.76400 26.63300
C  40.70000 9.04400 25.26500
C  41.78100 10.14800 25.51900
C  41.96600 9.95800 27.02900
C  41.27100 7.77400 24.54000
C  41.32000 11.49600 24.99600
C  40.70800 12.55900 25.91700
N  42.34100 10.25700 29.85500
C  43.21500 10.73700 28.95800
C  44.26300 11.51500 29.67700
C  43.89100 11.35500 30.97400
C  42.72700 10.58800 31.06000
C  45.29600 12.39400 29.02200
C  44.21000 11.85300 32.30800
O  45.02600 12.72200 32.68100
C  43.11600 11.19700 33.24200
C  43.78500 10.42600 34.27400
O  44.68400 9.65600 34.06700
O  43.09800 10.69900 35.48900
C  43.75300 10.12300 36.65400
H  37.56700 7.09600 32.37100
H  38.44100 7.82400 25.98500
H  43.83500 11.07000 26.98900
H  41.30100 8.94900 34.73500
H  38.43200 8.52600 34.21900
H  38.83700 6.59600 35.05700
H  40.54000 6.92900 35.07500
H  39.73200 6.06200 33.65700
H  39.00700 10.93700 34.19400
H  40.63000 11.51400 34.64100
H  39.43200 9.41800 36.46100
H  38.36400 10.76600 36.22700
H  35.30000 5.41100 29.88700
H  35.06300 6.83900 30.79800
H  36.38100 5.64600 31.23000
H  33.83700 6.62300 26.71600
H  34.31300 6.81800 28.35800
H  34.61400 5.22700 27.73800
H  39.89600 9.49200 24.68000
H  42.81800 10.03100 25.20500
H  40.93000 6.83800 24.98200
H  42.35900 7.72400 24.58800
H  40.89100 7.76900 23.51800
H  40.58400 11.31600 24.21200
H  42.19200 11.96800 24.54400
H  40.88200 12.34700 26.97200
H  39.63000 12.70900 25.85300
H  41.15000 13.54800 25.79800
H  45.04100 12.89500 28.08800
H  46.11200 11.72600 28.74700
H  45.65400 13.15300 29.71700
H  42.48100 12.01500 33.58300
H  43.53700 9.05500 36.64100
H  43.58200 10.64200 37.59800
H  44.84100 10.17500 36.62100
Mg 48.10700 25.33200 29.54400
C  49.52000 27.42200 31.89600
C  46.85300 23.54400 32.00700
C  47.42900 23.04000 27.23200
C  49.79700 27.34800 27.05100
N  48.23300 25.46800 31.68800
C  48.86700 26.36700 32.49400
C  48.53300 26.27600 33.90800
C  47.72600 24.94000 33.91400
C  47.51300 24.69400 32.46500
C  48.42800 23.68400 34.53700
C  47.64000 27.46700 34.50100
C  48.23700 28.30100 35.62100
H  47.33200 28.43200 36.85900
N  47.19100 23.52500 29.57600
C  46.77700 22.96100 30.71400
C  46.07500 21.74400 30.32000
C  46.32000 21.55000 28.88500
C  47.01700 22.73500 28.50900
C  45.31100 20.88000 31.31500
C  45.78500 20.44300 28.01900
O  45.95000 20.38100 26.78700
C  44.94900 19.40800 28.58300
N  48.66400 25.14800 27.48100
C  48.16200 24.13700 26.73100
C  48.36100 24.30300 25.25200
C  48.86400 25.79000 25.17600
C  49.14600 26.14300 26.68200
C  49.27300 23.29900 24.57400
C  47.93500 26.87300 24.71100
C  48.41100 27.88100 23.54500
N  49.41100 27.02800 29.45400
C  49.97300 27.74700 28.38100
C  50.62700 28.89200 28.93500
C  50.42700 28.87100 30.26900
C  49.77500 27.65900 30.57300
C  51.18700 29.96300 28.12700
C  50.69500 29.54200 31.55200
O  51.21600 30.60600 31.89200
C  50.14600 28.56400 32.63500
C  51.24100 28.23100 33.54100
O  52.02900 27.33100 33.42000
O  51.32500 29.22500 34.51700
C  52.01400 28.93100 35.71700
H  46.42600 22.98000 32.83900
H  47.01500 22.39000 26.45800
H  50.16600 28.04500 26.29500
H  49.45300 26.20600 34.48800
H  46.77200 25.07500 34.42500
H  48.94100 23.99400 35.44700
H  48.99200 23.19500 33.74200
H  47.74400 22.88500 34.82200
H  46.73500 27.07600 34.96500
H  47.32800 28.18200 33.73900
H  48.41400 29.28400 35.18600
H  49.17500 27.95700 36.05600
H  44.25400 20.78600 31.06800
H  45.34200 21.31400 32.31500
H  45.75000 19.88300 31.28300
H  45.55700 18.67600 29.11500
H  44.43300 18.97000 27.72900
H  44.09400 19.86000 29.08600
H  47.42700 24.29400 24.69100
H  49.77800 25.76300 24.58300
H  49.71100 22.66800 25.34600
H  50.06900 23.66900 23.92700
H  48.63100 22.78300 23.86000
H  47.44900 27.40900 25.52600
H  46.99700 26.45100 24.34900
H  48.40700 28.94000 23.80200
H  47.77800 27.69600 22.67700
H  49.43700 27.70600 23.22000
H  50.46300 30.70500 27.79000
H  51.61800 29.41700 27.28800
H  52.01400 30.42900 28.66200
H  49.39100 29.12600 33.18500
H  51.34500 28.31000 36.31200
H  52.14100 29.80500 36.35500
H  53.01200 28.49300 35.67100

