158

Mg 17.68600 -1.94800 28.44000
C  16.74700 0.31300 31.08400
C  19.47900 -3.76000 30.58300
C  18.29700 -4.01400 25.90400
C  16.35200 0.39600 26.33100
N  18.24400 -1.54800 30.52700
C  17.72900 -0.64800 31.41300
C  18.20400 -1.04500 32.80500
C  19.14500 -2.24300 32.61900
C  18.85300 -2.61700 31.14700
C  20.67100 -1.88100 32.98000
C  17.04700 -1.31400 33.80400
C  17.09000 -0.72600 35.21300
H  18.35500 -0.65800 35.94800
N  18.66100 -3.76300 28.34600
C  19.38800 -4.30700 29.31500
C  19.99200 -5.55600 28.83600
C  19.72500 -5.66700 27.44500
C  18.81300 -4.49000 27.15900
C  20.56600 -6.54400 29.78900
C  20.17700 -6.75200 26.36000
O  19.79400 -6.73800 25.19200
C  21.05400 -7.88700 26.82400
N  17.44700 -1.78600 26.37900
C  17.71600 -2.79200 25.54500
C  17.50000 -2.38300 24.03900
C  16.77200 -0.97800 24.19400
C  16.92300 -0.70400 25.70400
C  18.61500 -2.48700 23.03800
C  15.31100 -0.85800 23.61600
C  15.24900 -0.19300 22.25800
N  16.73200 0.02300 28.57100
C  16.15800 0.73800 27.61100
C  15.43700 1.84500 28.13100
C  15.67500 1.78500 29.51100
C  16.48000 0.60100 29.76300
C  14.64000 2.81700 27.26200
C  15.45900 2.40900 30.79100
O  14.80600 3.38500 31.16900
C  16.11400 1.42000 31.82500
C  17.10700 2.16600 32.66400
O  18.32100 2.33800 32.41600
O  16.42700 2.79400 33.64400
C  17.33100 3.77000 34.39700
H  19.94600 -4.39500 31.33900
H  18.53600 -4.59100 25.00800
H  15.97900 1.10900 25.59300
H  18.75400 -0.13000 33.02600
H  18.77600 -3.01000 33.30100
H  20.95200 -2.02500 34.02400
H  20.90100 -0.82900 32.80700
H  21.32900 -2.50000 32.37000
H  17.11500 -2.37100 34.06300
H  16.09300 -1.13800 33.30800
H  16.43300 -1.20900 35.93600
H  16.53800 0.21400 35.19000
H  21.48000 -6.07400 30.15300
H  20.95600 -7.51100 29.47100
H  20.00300 -6.67300 30.71300
H  21.38200 -8.53400 26.01000
H  20.41900 -8.42900 27.52400
H  21.89300 -7.41000 27.32900
H  16.76300 -3.10200 23.68200
H  17.32900 -0.27100 23.57900
H  19.54700 -2.74500 23.54100
H  18.85900 -1.51300 22.61400
H  18.36400 -3.24000 22.29200
H  14.74100 -0.32100 24.37300
H  14.80000 -1.81800 23.54400
H  16.21900 -0.00400 21.79800
H  14.79400 0.79400 22.34300
H  14.72900 -0.90100 21.61300
H  15.24300 3.58800 26.78400
H  14.06400 3.33000 28.03200
H  13.95400 2.39700 26.52600
H  15.23500 1.14700 32.40900
H  16.97100 4.78200 34.21600
H  18.40300 3.74000 34.20400
H  17.16200 3.68100 35.47000
Mg 5.94100 55.92800 41.64000
C  5.91300 52.33200 41.61500
C  9.08500 55.82100 40.40600
C  5.90300 59.24700 41.70400
C  2.78200 55.85700 43.09000
N  7.21000 54.25400 40.92700
C  7.03200 52.86800 40.84600
C  8.13900 52.10600 40.12000
C  9.24000 53.19800 40.14400
C  8.49000 54.52800 40.52200
C  10.40300 52.88000 41.11600
C  7.55000 51.68500 38.70500
C  8.03000 50.39700 38.00100
H  7.15700 49.90600 36.87600
N  7.27300 57.35400 40.99700
C  8.55800 57.07100 40.64400
C  9.29000 58.36200 40.54800
C  8.31800 59.40300 40.61300
C  7.07100 58.67000 41.19400
C  10.77300 58.52800 40.35000
C  8.45800 60.91700 40.32800
O  9.56100 61.33300 39.95200
C  7.32300 61.93400 40.37800
N  4.40900 57.36600 41.94900
C  4.69000 58.66600 42.03300
C  3.39000 59.47300 42.33600
C  2.45800 58.31000 42.91200
C  3.26400 57.07800 42.66100
C  3.64600 60.65300 43.28700
C  1.02300 58.21900 42.21900
C  -0.15100 58.13700 43.18200
N  4.45100 54.44700 42.08100
C  3.31000 54.56500 42.84400
C  2.88400 53.28900 43.24400
C  3.83100 52.35500 42.76200
C  4.82700 53.09300 42.07600
C  1.66500 52.96900 44.08900
C  4.24600 50.92100 42.72300
O  3.68800 49.96400 43.27200
C  5.61400 50.90700 42.00900
C  5.46700 49.87500 40.97000
O  4.64700 49.91100 40.06700
O  6.35400 48.86600 41.20100
C  6.18900 47.77900 40.22800
H  10.14700 55.81500 40.14900
H  6.04500 60.32700 41.78300
H  1.80800 55.89500 43.58200
H  8.47300 51.30600 40.78100
H  9.69700 53.26700 39.15800
H  10.43800 51.80300 41.27800
H  10.23800 53.50100 41.99600
H  11.35300 53.20700 40.69100
H  7.77000 52.55300 38.08300
H  6.46600 51.60100 38.62900
H  8.22000 49.65200 38.77300
H  8.97800 50.63300 37.51800
H  11.15300 59.30300 41.01500
H  10.94400 59.02600 39.39500
H  11.42100 57.68200 40.57800
H  7.25600 62.26600 41.41400
H  6.35500 61.48400 40.15700
H  7.50200 62.76500 39.69500
H  2.98900 59.91900 41.42600
H  2.48200 58.49900 43.98500
H  2.74700 60.80500 43.88400
H  3.83600 61.51800 42.65100
H  4.53300 60.58400 43.91500
H  1.07300 57.36100 41.54800
H  0.79800 59.10000 41.61800
H  -0.83100 58.98400 43.08700
H  0.15700 58.09100 44.22700
H  -0.65800 57.20200 42.94500
H  0.88700 52.60400 43.41900
H  1.10800 53.75900 44.59400
H  1.89000 52.11400 44.72700
H  6.28400 50.46100 42.74400
H  6.94400 47.98600 39.47000
H  5.25400 47.74600 39.67000
H  6.40700 46.76300 40.55600

