158

Mg 25.93500 0.77300 29.03200
C  27.99200 0.43600 31.89700
C  23.29100 1.15900 31.10300
C  24.01200 0.94800 26.20400
C  28.62600 -0.23000 27.03800
N  25.69100 0.61700 31.24200
C  26.66200 0.60900 32.24600
C  26.08000 0.88100 33.61800
C  24.53500 0.88300 33.37100
C  24.46800 0.89300 31.82900
C  23.70600 -0.19400 34.21100
C  26.70100 2.17500 34.26900
C  26.16200 2.73200 35.65800
H  27.05700 2.74300 36.90300
N  23.91300 1.10200 28.70500
C  23.00600 1.30000 29.70800
C  21.70900 1.56000 29.06900
C  21.89000 1.44500 27.65800
C  23.32400 1.13500 27.43500
C  20.39900 1.73500 29.82500
C  20.87200 1.64400 26.51900
O  21.23400 1.52800 25.35000
C  19.43800 1.87800 26.84700
N  26.26700 0.37500 26.93200
C  25.35600 0.58300 25.98500
C  25.91200 0.39600 24.61100
C  27.41000 0.09900 24.85900
C  27.45200 0.00600 26.37400
C  25.22100 -0.66800 23.81200
C  28.29500 1.19400 24.24100
C  29.67300 0.73800 23.74900
N  27.90800 0.22200 29.35000
C  28.89600 -0.19100 28.49400
C  30.21300 -0.32500 29.16500
C  29.81800 -0.13000 30.51200
C  28.44200 0.20300 30.59600
C  31.51700 -0.69300 28.49700
C  30.32900 -0.24600 31.85900
O  31.48400 -0.41900 32.27300
C  29.20100 0.20600 32.79900
C  28.98300 -0.86100 33.85300
O  28.35900 -1.89300 33.62500
O  29.57200 -0.60700 35.04700
C  29.29700 -1.61200 36.17400
H  22.46700 1.35500 31.79100
H  23.61000 1.18900 25.21800
H  29.47500 -0.56900 26.44000
H  26.31700 0.06300 34.29800
H  24.24600 1.91100 33.58900
H  22.85400 -0.51900 33.61300
H  23.32500 0.08600 35.19400
H  24.23900 -1.10500 34.48400
H  26.73400 2.94600 33.50000
H  27.75200 1.96100 34.46000
H  25.18700 2.29000 35.86200
H  25.81900 3.75900 35.53500
H  20.09000 2.76100 29.62600
H  20.47600 1.74900 30.91300
H  19.72600 0.89200 29.67300
H  19.50900 2.62900 27.63300
H  18.96800 1.09000 27.43700
H  18.89100 2.20700 25.96400
H  25.74200 1.32600 24.06900
H  27.72500 -0.87500 24.48400
H  24.65500 -0.22800 22.99200
H  24.57500 -1.11700 24.56700
H  25.92600 -1.46800 23.58700
H  28.33100 2.04700 24.91800
H  27.82300 1.47200 23.29900
H  30.36300 1.35000 24.33000
H  29.76800 0.94900 22.68300
H  29.93600 -0.30500 23.92500
H  31.61600 -0.19500 27.53300
H  31.63700 -1.77200 28.39100
H  32.33400 -0.33200 29.12300
H  29.63000 1.06700 33.31200
H  29.93100 -1.56900 37.05900
H  29.34500 -2.67800 35.95100
H  28.30800 -1.45800 36.60700
Mg 47.03600 24.76700 27.99200
C  47.95300 26.96700 30.65700
C  46.27600 22.46400 30.46600
C  46.18200 22.80500 25.58100
C  48.25500 27.24100 25.70700
N  47.00900 24.78900 30.24200
C  47.35600 25.81200 31.13000
C  47.09800 25.44700 32.58800
C  46.80700 23.91300 32.42500
C  46.72500 23.65200 30.97400
C  47.87200 22.97400 33.15300
C  45.94300 26.18600 33.24900
C  46.36200 27.15600 34.38900
H  45.40500 27.15600 35.60000
N  46.33400 22.87500 27.97900
C  46.07500 22.06700 29.13500
C  45.62600 20.74800 28.64200
C  45.63200 20.82700 27.19700
C  46.03400 22.23300 26.86800
C  45.32700 19.57100 29.55500
C  45.35600 19.75300 26.15000
O  45.48100 19.96400 24.96000
C  44.90500 18.49100 26.64300
N  47.46100 24.79400 26.00200
C  46.78500 23.97200 25.21000
C  46.81200 24.29400 23.71200
C  47.18600 25.83000 23.81500
C  47.70200 25.99300 25.29200
C  47.75300 23.40900 22.82100
C  46.07300 26.87600 23.28400
C  46.38600 28.05300 22.37400
N  48.07800 26.60600 28.11800
C  48.51900 27.48200 27.09500
C  49.21300 28.60400 27.70000
C  48.95100 28.51500 29.10800
C  48.28600 27.23900 29.28300
C  50.00500 29.58100 26.89100
C  49.15800 29.18600 30.33100
O  49.75200 30.21200 30.67100
C  48.49700 28.24400 31.39800
C  49.49500 27.90400 32.41200
O  50.23500 26.93600 32.35300
O  49.41700 28.74800 33.46400
C  50.10400 28.39500 34.74300
H  45.93700 21.71500 31.18400
H  45.74100 22.22000 24.77100
H  48.37500 28.00300 24.93400
H  48.06500 25.64600 33.04900
H  45.88800 23.48100 32.82100
H  48.45600 23.56600 33.85700
H  48.58300 22.53500 32.45300
H  47.33700 22.17500 33.66500
H  45.11100 25.51600 33.46400
H  45.53200 26.86000 32.49700
H  46.30300 28.19900 34.07800
H  47.32300 26.85800 34.80900
H  44.29400 19.25300 29.41100
H  45.53500 19.67600 30.62000
H  45.97100 18.73700 29.27600
H  45.71700 17.99700 27.17800
H  44.72500 17.82300 25.80000
H  44.01900 18.61100 27.26600
H  45.80500 24.04700 23.37700
H  48.02500 25.92900 23.12600
H  47.78300 24.08000 21.96200
H  47.25000 22.45900 22.64400
H  48.77100 23.22200 23.16500
H  45.54800 27.24800 24.16300
H  45.35200 26.26700 22.73800
H  45.75600 27.77400 21.52900
H  47.44400 28.20100 22.16000
H  46.09400 29.04100 22.72900
H  50.09800 30.44500 27.54900
H  49.41900 29.93100 26.04200
H  50.99000 29.16500 26.68100
H  47.69300 28.72600 31.95400
H  49.36000 27.85700 35.33100
H  50.37300 29.32800 35.23900
H  51.01700 27.83300 34.54900

