158

Mg 40.81800 9.89600 28.80800
C  42.73400 10.83000 31.60700
C  38.64300 8.36800 30.97300
C  39.03200 8.92900 26.10700
C  43.36600 11.14100 26.73200
N  40.72500 9.64200 31.06300
C  41.51100 10.20600 31.96700
C  40.95700 10.02500 33.43700
C  39.83000 9.00300 33.11200
C  39.64000 9.03500 31.63700
C  39.98900 7.54000 33.60900
C  40.68800 11.44400 34.15300
C  39.79300 11.38800 35.36500
H  40.32900 11.99100 36.78000
N  39.09100 8.85300 28.57400
C  38.38800 8.29300 29.62300
C  37.25600 7.49300 28.98400
C  37.26400 7.73100 27.55500
C  38.45700 8.61000 27.38200
C  36.20200 6.76600 29.73900
C  36.20800 7.28200 26.50300
O  36.30900 7.62100 25.31500
C  34.92900 6.45400 26.89400
N  41.26100 9.87100 26.72400
C  40.27100 9.49300 25.81800
C  40.66800 9.87400 24.35500
C  41.99800 10.73300 24.56100
C  42.27400 10.55800 26.06600
C  40.75400 8.63300 23.39700
C  41.92100 12.29100 24.17600
C  40.76400 13.04300 24.80900
N  42.70300 10.63700 29.04300
C  43.67100 11.18700 28.19300
C  44.72800 11.78700 28.93700
C  44.37500 11.59900 30.27200
C  43.15600 10.89900 30.27200
C  45.94000 12.47900 28.38300
C  44.81900 11.98600 31.56800
O  45.83700 12.53700 31.97300
C  43.72900 11.50300 32.44500
C  44.27800 10.67700 33.50100
O  44.83400 9.58700 33.38000
O  44.14100 11.28600 34.71100
C  44.50700 10.54500 35.91700
H  38.08800 7.73400 31.66700
H  38.47500 8.75000 25.18500
H  44.08000 11.74700 26.17200
H  41.62200 9.48000 34.10700
H  38.93900 9.40600 33.59300
H  40.03500 6.80300 32.80700
H  39.29700 7.32600 34.42400
H  40.94100 7.42200 34.12800
H  40.22700 12.08000 33.39800
H  41.58000 11.92300 34.55700
H  39.40500 10.40200 35.62200
H  38.98000 12.06200 35.09500
H  36.62700 6.63400 30.73500
H  36.19100 5.80300 29.22900
H  35.24100 7.27500 29.66300
H  34.31400 6.31700 26.00500
H  34.26700 6.93500 27.61300
H  35.32800 5.50100 27.24300
H  39.88000 10.56000 24.04100
H  42.80200 10.29100 23.97300
H  40.49100 7.69700 23.89000
H  41.75200 8.57200 22.96500
H  40.03100 8.79600 22.59700
H  41.94600 12.48400 23.10300
H  42.90700 12.67000 24.44500
H  40.21000 13.41900 23.94900
H  41.20400 13.92500 25.27400
H  40.07000 12.47800 25.43100
H  45.71600 12.91600 27.41000
H  46.76000 11.77500 28.24800
H  46.30100 13.25100 29.06300
H  43.22000 12.32300 32.95200
H  45.58800 10.41000 35.96100
H  44.15700 9.51300 35.91500
H  44.12500 11.07500 36.79000
Mg 43.96800 42.36800 26.36700
C  42.93200 44.74500 28.82300
C  44.72800 40.20400 28.81600
C  45.02500 40.42400 24.04000
C  43.48000 44.98000 23.88800
N  43.62800 42.48200 28.65800
C  43.36500 43.54700 29.39200
C  43.28800 43.11300 30.87600
C  44.14700 41.76200 30.80500
C  44.17400 41.42400 29.30200
C  45.63400 41.81700 31.35100
C  41.80400 42.93900 31.31500
C  41.23400 43.83800 32.48100
H  42.08400 44.24300 33.69100
N  44.69400 40.50900 26.43000
C  44.99000 39.79300 27.51900
C  45.52200 38.52200 27.17300
C  45.62700 38.54600 25.76900
C  45.11600 39.89200 25.34100
C  45.93000 37.54800 28.23000
C  46.07300 37.45000 24.79200
O  46.13400 37.61700 23.58400
C  46.41500 36.15600 25.29900
N  44.28100 42.68000 24.25900
C  44.66100 41.66800 23.47500
C  44.68100 41.99500 21.98100
C  43.99200 43.38800 21.99200
C  43.92500 43.76600 23.48200
C  46.03800 41.80700 21.37200
C  42.59800 43.47800 21.22600
C  41.43200 42.75300 21.78800
N  43.29400 44.37500 26.31500
C  43.18800 45.30400 25.24700
C  42.74200 46.53500 25.77700
C  42.60900 46.35900 27.12000
C  42.91300 45.04200 27.43900
C  42.61400 47.81700 25.07400
C  42.37300 47.00600 28.34200
O  41.95800 48.14300 28.46900
C  42.49900 46.01000 29.47900
C  43.53600 46.66600 30.43800
O  44.70000 46.88600 30.29300
O  43.03900 46.87600 31.69800
C  43.97700 47.41900 32.73900
H  44.87600 39.58800 29.70500
H  45.34700 39.71600 23.27400
H  43.42200 45.81700 23.18900
H  43.94200 43.82200 31.38200
H  43.59300 41.04800 31.41500
H  46.34800 41.61900 30.55000
H  45.78000 41.09400 32.15300
H  45.83900 42.83400 31.68500
H  41.70600 41.91800 31.68500
H  41.08800 43.10500 30.51000
H  40.32800 43.27300 32.70100
H  40.84900 44.77100 32.07000
H  46.61300 36.78600 27.85400
H  45.14100 36.95300 28.69100
H  46.23000 38.10100 29.12000
H  45.81000 35.89700 26.16800
H  47.42800 36.29200 25.67800
H  46.26300 35.36200 24.56700
H  44.13800 41.20800 21.45800
H  44.65800 44.12000 21.53500
H  46.47500 42.80600 21.36200
H  45.94100 41.48100 20.33600
H  46.73700 41.27600 22.01800
H  42.81500 43.18500 20.19800
H  42.36700 44.54300 21.22000
H  40.55400 43.39600 21.74300
H  41.63100 42.47400 22.82300
H  40.93400 41.91100 21.30700
H  43.48100 48.02000 24.44500
H  42.52300 48.59200 25.83500
H  41.69900 47.81400 24.48100
H  41.58700 45.90600 30.06700
H  44.87700 46.84300 32.95300
H  43.51400 47.36700 33.72400
H  44.28800 48.44600 32.54500

