158

Mg 2.37900 -1.91300 43.84100
C  5.75500 -1.47600 43.38300
C  1.78200 0.58800 41.54400
C  -0.90500 -2.89400 43.77500
C  3.19900 -4.97700 45.37300
N  3.68800 -0.80300 42.31300
C  5.03800 -0.64100 42.48900
C  5.53900 0.38100 41.46900
C  4.26700 1.03100 40.85500
C  3.16100 0.21100 41.63400
C  4.13900 2.58000 40.97200
C  6.42100 -0.44800 40.45200
C  7.77500 0.26500 40.14100
H  8.13600 0.53500 38.68100
N  0.62500 -1.12300 42.93900
C  0.62900 -0.12100 42.05600
C  -0.75300 0.18900 41.82800
C  -1.53000 -0.70000 42.55500
C  -0.60000 -1.62100 43.16700
C  -1.13600 1.30000 40.92000
C  -3.07200 -0.68900 42.59700
O  -3.74000 -0.09800 41.75700
C  -3.83700 -1.38800 43.70400
N  1.22400 -3.73100 44.37200
C  -0.11100 -3.80900 44.40800
C  -0.57300 -5.05000 45.12000
C  0.78000 -5.78700 45.36600
C  1.80100 -4.75600 45.10300
C  -1.42500 -4.58600 46.40800
C  1.11600 -7.03400 44.47400
C  1.65800 -8.25500 45.18100
N  4.03200 -2.98000 44.41000
C  4.25300 -4.11000 45.18800
C  5.64300 -4.18900 45.55800
C  6.22500 -3.09600 44.91400
C  5.25600 -2.47700 44.15300
C  6.32800 -5.23500 46.46900
C  7.49800 -2.39400 44.77000
O  8.57100 -2.56100 45.37500
C  7.23600 -1.35000 43.71500
C  7.51100 0.07300 44.13000
O  7.14700 0.57400 45.12700
O  8.25800 0.64700 43.12200
C  8.69800 2.01900 43.43400
H  1.63000 1.42800 40.86300
H  -1.93700 -3.23200 43.65400
H  3.38500 -5.86800 45.97700
H  6.05300 1.20100 41.97100
H  4.16000 0.79400 39.79700
H  3.67900 2.84000 41.92600
H  3.54100 2.94000 40.13500
H  5.15600 2.95800 40.87200
H  5.89900 -0.58000 39.50500
H  6.55200 -1.46200 40.82900
H  8.62900 -0.28200 40.54000
H  7.92200 1.22300 40.64100
H  -0.96800 0.84400 39.94400
H  -0.45800 2.14300 41.04900
H  -2.15900 1.66300 41.01300
H  -4.75800 -0.83500 43.88900
H  -3.26500 -1.19500 44.61200
H  -4.01300 -2.40600 43.35600
H  -1.23000 -5.64800 44.48700
H  0.67200 -6.05800 46.41600
H  -2.42200 -5.02400 46.35400
H  -1.49600 -3.49800 46.41900
H  -0.93600 -4.69600 47.37600
H  1.68800 -6.69600 43.61000
H  0.23100 -7.31400 43.90300
H  1.67400 -8.00600 46.24200
H  2.70900 -8.38100 44.92500
H  1.01400 -9.07600 44.86500
H  6.89500 -5.93900 45.86100
H  5.59600 -5.80400 47.04300
H  7.00400 -4.73300 47.16100
H  7.85800 -1.70900 42.89500
H  7.84000 2.63100 43.15400
H  9.55500 2.37900 42.86400
H  8.95900 2.02600 44.49200
Mg -6.27700 25.88900 26.25000
C  -5.00200 27.36100 29.08700
C  -8.08900 23.61900 28.35800
C  -7.29700 23.97300 23.58200
C  -4.41100 27.88100 24.29900
N  -6.45100 25.47000 28.46000
C  -5.98700 26.32900 29.43100
C  -6.51300 26.01600 30.77900
C  -7.28600 24.63400 30.47700
C  -7.23700 24.55200 28.98000
C  -6.89800 23.39100 31.22200
C  -7.44600 27.22100 31.41500
C  -7.15000 27.48400 32.87200
H  -6.87200 26.36100 33.91400
N  -7.52800 24.08400 25.99600
C  -8.09800 23.33100 26.96500
C  -8.72600 22.18500 26.44500
C  -8.52800 22.22800 25.01000
C  -7.77500 23.43100 24.80500
C  -9.38100 21.15600 27.34500
C  -9.02200 21.35800 23.83400
O  -8.74100 21.41700 22.66000
C  -10.12700 20.39000 24.18800
N  -5.91300 25.92900 24.19800
C  -6.49200 25.08700 23.20400
C  -5.95700 25.46800 21.82000
C  -5.18900 26.82300 22.09300
C  -5.14600 26.88800 23.61900
C  -5.15200 24.30500 21.10100
C  -5.75600 28.12500 21.52100
C  -4.87000 28.71800 20.49300
N  -4.85500 27.24900 26.56100
C  -4.21000 28.05100 25.70500
C  -3.44500 29.07300 26.42700
C  -3.73300 28.77900 27.74500
C  -4.57300 27.68200 27.75800
C  -2.65800 30.19800 25.83800
C  -3.46800 29.26600 29.08200
O  -2.79200 30.22100 29.45100
C  -4.31200 28.38000 29.98600
C  -3.30900 27.77300 30.85500
O  -2.57400 26.85500 30.44900
O  -3.37700 28.37900 32.03700
C  -2.42200 27.83300 33.00400
H  -8.72900 23.01800 29.00700
H  -7.59600 23.43700 22.67800
H  -3.94800 28.72800 23.78800
H  -5.72600 25.70000 31.46400
H  -8.35500 24.75300 30.65200
H  -6.70200 23.72800 32.24000
H  -6.08200 22.77400 30.84500
H  -7.75600 22.72000 31.21300
H  -8.50000 26.95500 31.32700
H  -7.28200 28.09500 30.78500
H  -8.08000 27.86100 33.29700
H  -6.29600 28.14700 33.00600
H  -10.14400 20.60700 26.79200
H  -9.93500 21.59300 28.17600
H  -8.69000 20.37900 27.67100
H  -10.51300 19.85800 23.31900
H  -10.91000 20.85300 24.79000
H  -9.63400 19.69000 24.86200
H  -6.85400 25.74300 21.26600
H  -4.12700 26.79600 21.85100
H  -4.18000 24.73700 20.86500
H  -5.84200 23.93000 20.34600
H  -5.02700 23.44600 21.76000
H  -5.82400 28.84000 22.34100
H  -6.74500 27.81800 21.18100
H  -4.31100 27.99300 19.90200
H  -4.15900 29.36100 21.01100
H  -5.52800 29.30000 19.84700
H  -1.67100 29.94500 26.22400
H  -3.14600 31.16100 25.99100
H  -2.49700 30.13600 24.76200
H  -4.95000 28.91500 30.68900
H  -1.91800 28.68400 33.46200
H  -1.67100 27.15100 32.60500
H  -2.93300 27.21300 33.74100

