158

Mg 42.77500 41.65000 26.15300
C  41.69500 43.91700 28.60800
C  43.93400 39.64200 28.69800
C  43.65500 39.43800 23.87000
C  41.81600 43.91800 23.73000
N  42.65000 41.77300 28.38000
C  42.24000 42.75300 29.19500
C  42.09600 42.26200 30.64100
C  42.83200 40.89600 30.63300
C  43.22500 40.80100 29.13400
C  44.01400 40.83600 31.58900
C  40.62800 42.12100 31.20400
C  40.45000 41.66200 32.67800
H  39.70200 42.63800 33.60400
N  43.70600 39.81700 26.28500
C  44.08700 39.13300 27.42900
C  44.74200 37.88300 27.00900
C  44.53900 37.78300 25.61500
C  43.95900 39.04900 25.20800
C  45.13700 36.86500 28.04900
C  44.85300 36.60100 24.75500
O  44.78400 36.57400 23.51700
C  45.07200 35.32300 25.45700
N  42.61500 41.62000 24.08800
C  43.07300 40.59900 23.32900
C  42.92100 40.85400 21.78700
C  42.03900 42.15800 21.87100
C  42.16700 42.63800 23.27300
C  44.20500 41.08100 21.16300
C  40.56600 41.94600 21.44500
C  40.22700 42.24900 19.97500
N  42.10100 43.63300 26.08200
C  41.81000 44.44700 25.02600
C  41.31900 45.74400 25.48400
C  41.29500 45.58500 26.92300
C  41.83800 44.28300 27.19000
C  40.82500 46.77600 24.64700
C  40.80300 46.13700 28.17400
O  40.33900 47.24500 28.49900
C  41.05200 45.01400 29.29200
C  41.98700 45.59800 30.34400
O  43.08300 46.03000 30.23200
O  41.27200 45.54400 31.53200
C  42.00000 45.96300 32.75100
H  44.34000 39.01800 29.49700
H  43.78000 38.68300 23.09100
H  41.48000 44.50800 22.87400
H  42.60700 42.96300 31.30200
H  42.14800 40.07900 30.86400
H  43.96100 39.91900 32.17500
H  43.96000 41.67600 32.28200
H  44.95500 40.82600 31.03900
H  40.05000 41.46600 30.55200
H  40.08800 43.02900 30.93300
H  41.43200 41.55500 33.13800
H  39.97800 40.68900 32.53500
H  45.13400 37.17300 29.09400
H  46.15400 36.60000 27.76000
H  44.51300 35.97800 27.93600
H  45.97900 35.41000 26.05600
H  45.05300 34.56500 24.67400
H  44.19900 35.10200 26.07000
H  42.30000 40.06400 21.36500
H  42.42200 42.82600 21.10000
H  44.97500 40.66600 21.81400
H  44.54000 42.09600 20.94900
H  44.19400 40.51200 20.23400
H  39.97500 42.60200 22.08600
H  40.20500 40.91900 21.48800
H  39.85900 41.31300 19.55600
H  41.10000 42.66200 19.46800
H  39.45600 43.01800 19.91700
H  40.25400 46.43400 23.78300
H  41.54900 47.50300 24.28100
H  40.08900 47.33500 25.22500
H  40.01600 44.88900 29.60500
H  41.58400 45.53900 33.66500
H  41.82800 47.02300 32.94200
H  43.08300 45.86500 32.66800
Mg 27.50000 50.82200 25.34500
C  25.58700 51.76400 28.14200
C  29.88400 49.80800 27.62000
C  29.51300 50.14300 22.75000
C  25.25000 52.53500 23.34400
N  27.70300 50.73800 27.61600
C  26.74800 51.13200 28.53500
C  27.04000 50.66900 29.94400
C  28.57800 50.21800 29.79000
C  28.78300 50.25800 28.29400
C  29.66300 50.93500 30.59400
C  25.99700 49.52600 30.46700
C  25.32800 49.67900 31.84600
H  25.94500 50.44900 33.02700
N  29.47000 50.09000 25.23500
C  30.21800 49.69900 26.28500
C  31.40500 49.10400 25.70400
C  31.41900 49.27900 24.28900
C  30.13500 49.90200 24.03300
C  32.42900 48.42800 26.52400
C  32.46200 48.92300 23.18200
O  32.38300 49.33700 22.05000
C  33.59500 48.05900 23.55100
N  27.42500 51.31100 23.43900
C  28.29000 50.77200 22.50000
C  27.68400 50.69800 21.08500
C  26.67300 51.85700 21.25900
C  26.39800 51.89600 22.81000
C  28.62400 51.07800 19.86600
C  25.40800 51.63800 20.38700
C  24.92500 52.79600 19.45100
N  25.84500 52.06200 25.68800
C  24.97300 52.64500 24.78600
C  23.85100 53.26300 25.44700
C  24.05200 52.95200 26.80100
C  25.25800 52.20000 26.87300
C  22.66400 54.03900 24.70400
C  23.40800 53.01000 28.14500
O  22.32000 53.45000 28.49000
C  24.51800 52.29200 29.04300
C  24.92200 53.41600 29.96800
O  25.91100 54.12400 29.82000
O  24.08500 53.50600 31.07700
C  24.54200 54.46500 32.13400
H  30.55100 49.39300 28.37900
H  29.98600 49.62100 21.91500
H  24.49000 52.89700 22.64900
H  27.01000 51.53500 30.60600
H  28.68400 49.15400 30.00000
H  30.48900 51.38300 30.04200
H  30.15100 50.45800 31.44300
H  29.08000 51.75700 31.00900
H  26.58200 48.60700 30.51000
H  25.26200 49.39700 29.67300
H  25.13000 48.68500 32.24600
H  24.36500 50.15500 31.66000
H  32.14000 47.38400 26.64800
H  32.45200 48.85400 27.52600
H  33.43100 48.45300 26.09600
H  33.85000 47.47400 22.66700
H  33.16600 47.23400 24.12000
H  34.40600 48.61800 24.01800
H  27.22200 49.71600 20.98200
H  27.19600 52.78900 21.04800
H  28.39600 50.34500 19.09200
H  29.67700 51.15900 20.13700
H  28.35800 52.04100 19.43000
H  24.64100 51.33800 21.10100
H  25.55700 50.80000 19.70500
H  25.04100 52.31700 18.47900
H  25.54300 53.69400 19.43700
H  23.84800 52.91600 19.57000
H  23.20800 54.75900 24.09300
H  21.96900 54.54900 25.37100
H  21.95600 53.49300 24.08100
H  24.11900 51.47900 29.65000
H  24.56100 55.48100 31.73900
H  25.52800 54.35500 32.58500
H  23.80000 54.42500 32.93100

