158

Mg -12.03600 38.72200 43.03900
C  -9.93000 36.16400 41.84700
C  -9.94000 40.93700 41.25300
C  -14.45200 41.04900 43.26200
C  -14.12900 36.30600 44.32500
N  -10.18900 38.52600 41.57100
C  -9.55600 37.39200 41.31600
C  -8.36200 37.58500 40.40600
C  -8.20600 39.14100 40.50600
C  -9.58800 39.56200 41.07800
C  -7.05200 39.62100 41.40000
C  -8.75000 37.08400 38.89800
C  -7.79000 36.00100 38.31400
H  -6.89400 36.44000 37.12900
N  -12.22500 40.75300 42.32500
C  -11.17100 41.51000 41.71700
C  -11.63200 42.88000 41.68100
C  -12.95700 42.95300 42.17400
C  -13.30000 41.56100 42.62500
C  -10.80400 44.00800 41.18700
C  -13.85800 44.16100 42.22600
O  -13.41300 45.24000 41.90700
C  -15.31400 44.04100 42.59700
N  -14.03900 38.74500 43.56900
C  -14.82700 39.77500 43.74300
C  -16.18500 39.45800 44.47200
C  -16.03600 37.96600 44.69200
C  -14.66200 37.61500 44.19200
C  -16.69400 40.30100 45.71700
C  -17.13100 37.06100 44.00300
C  -16.86400 36.45400 42.65800
N  -12.06600 36.70700 43.11500
C  -12.91100 35.84300 43.76800
C  -12.42500 34.46200 43.71400
C  -11.30200 34.60300 42.95300
C  -11.10600 35.96000 42.63000
C  -12.99900 33.18900 44.36000
C  -10.24600 33.76800 42.34800
O  -10.11000 32.52000 42.40800
C  -9.18000 34.78800 41.78900
C  -7.88100 34.68900 42.64000
O  -7.23500 33.66300 42.68100
O  -7.51400 35.84500 43.34100
C  -6.42700 35.70600 44.26900
H  -9.19100 41.66800 40.94100
H  -15.28600 41.72500 43.46200
H  -14.77200 35.52600 44.73900
H  -7.47100 37.06200 40.75400
H  -8.08200 39.65700 39.55300
H  -7.40700 39.86800 42.40100
H  -6.60500 40.41300 40.79900
H  -6.23200 38.91500 41.52500
H  -8.76800 37.85400 38.12700
H  -9.72100 36.58900 38.91300
H  -8.32100 35.12300 37.94700
H  -7.18100 35.61500 39.13100
H  -11.00400 44.18900 40.13100
H  -9.76200 43.70100 41.27700
H  -11.02100 44.92100 41.74100
H  -15.89600 43.36100 41.97500
H  -15.79300 45.01400 42.49700
H  -15.32800 43.87200 43.67400
H  -16.90900 39.69600 43.69400
H  -15.92500 37.75600 45.75500
H  -17.54100 40.95300 45.50100
H  -15.82600 40.90500 45.98100
H  -16.78000 39.68200 46.61000
H  -18.04100 37.63800 43.83400
H  -17.39200 36.25300 44.68600
H  -16.27100 35.55100 42.79900
H  -16.38400 37.16800 41.98900
H  -17.72600 36.24800 42.02400
H  -12.28800 32.38800 44.56200
H  -13.79300 32.74600 43.75900
H  -13.46600 33.37200 45.32800
H  -8.86700 34.63800 40.75600
H  -5.75500 36.55100 44.12100
H  -5.80400 34.82000 44.15000
H  -6.74500 35.89900 45.29400
Mg -2.01300 34.50500 27.16200
C  -3.65900 32.36400 29.51600
C  -0.81700 36.26200 29.88500
C  -0.66200 36.55100 24.92600
C  -3.53900 32.59600 24.60900
N  -2.28900 34.39700 29.46200
C  -3.00000 33.44900 30.16800
C  -2.85600 33.65200 31.68100
C  -2.11600 35.05600 31.73500
C  -1.74300 35.22200 30.30800
C  -2.84500 36.31300 32.33800
C  -2.04300 32.46600 32.34800
C  -2.62300 31.82600 33.63000
H  -1.85900 31.85200 34.98200
N  -0.86000 36.02800 27.40900
C  -0.40800 36.59500 28.57400
C  0.64000 37.57100 28.27800
C  0.57800 37.72900 26.85400
C  -0.37800 36.76200 26.32000
C  1.62800 38.07600 29.32400
C  1.44300 38.72100 25.94600
O  1.32800 38.89000 24.72700
C  2.52400 39.59300 26.63400
N  -2.19400 34.65500 25.01100
C  -1.55700 35.62100 24.33400
C  -1.81100 35.49200 22.76200
C  -2.42100 34.03300 22.68700
C  -2.77000 33.71000 24.20100
C  -2.83300 36.52200 22.25900
C  -1.60500 32.93600 22.01700
C  -2.36700 31.67200 21.55600
N  -3.44200 32.92900 27.04600
C  -3.93200 32.20100 25.93100
C  -4.74500 31.07500 26.37300
C  -4.67900 31.08100 27.79600
C  -3.86600 32.21600 28.15600
C  -5.50400 30.05300 25.49900
C  -5.16900 30.43900 29.05600
O  -5.87000 29.51200 29.17400
C  -4.43200 31.24200 30.15200
C  -5.39300 31.66300 31.10200
O  -6.18700 32.56200 30.99700
O  -5.48600 30.78400 32.14600
C  -6.45500 31.04300 33.25300
H  -0.52200 36.92900 30.69700
H  -0.25600 37.32200 24.26700
H  -3.98200 31.85000 23.94600
H  -3.84600 33.70900 32.13400
H  -1.22800 34.87200 32.33900
H  -2.46100 36.66500 33.29500
H  -3.81900 35.88800 32.58100
H  -2.96700 37.08600 31.57900
H  -1.02100 32.72500 32.62500
H  -1.91400 31.66900 31.61500
H  -2.74700 30.79600 33.29500
H  -3.63600 32.15200 33.86400
H  2.58400 37.55200 29.33700
H  1.34900 37.93600 30.36800
H  1.86900 39.12700 29.16700
H  2.09500 40.39000 27.24100
H  3.20600 40.05600 25.92100
H  2.97500 38.80600 27.23800
H  -0.88500 35.48800 22.18700
H  -3.35900 34.06200 22.13400
H  -3.59600 36.52400 23.03700
H  -3.32000 36.30500 21.30800
H  -2.52500 37.56800 22.23000
H  -0.81600 32.63600 22.70700
H  -1.03500 33.44700 21.24000
H  -3.44800 31.73600 21.43800
H  -2.06300 30.95600 22.32000
H  -1.86000 31.29100 20.67000
H  -5.02800 29.73500 24.57100
H  -6.47700 30.53000 25.38000
H  -5.72100 29.18200 26.11700
H  -3.73000 30.57900 30.65700
H  -5.99600 31.76200 33.93300
H  -6.72400 30.09900 33.72600
H  -7.31000 31.48400 32.74000

