158

Mg 44.91500 1.89200 47.79700
C  42.88400 4.52800 46.68700
C  42.42700 -0.29700 47.37000
C  47.07300 -0.65200 48.39700
C  47.70200 4.14100 47.45800
N  42.92900 2.11600 47.12300
C  42.28900 3.26700 46.77800
C  40.78500 3.00800 46.51800
C  40.63900 1.59500 47.21900
C  42.11400 1.04600 47.10900
C  40.21500 1.67200 48.72100
C  40.37000 3.02600 45.05400
C  39.38000 4.11700 44.57900
H  39.94800 5.10500 43.43300
N  44.76500 -0.20800 47.89800
C  43.61000 -0.86000 47.61900
C  43.82100 -2.27600 47.68000
C  45.25900 -2.48200 47.97800
C  45.79500 -1.05600 48.08600
C  42.76100 -3.31900 47.43000
C  46.01100 -3.86300 48.15900
O  45.46500 -4.90300 48.03800
C  47.47300 -3.96000 48.48100
N  47.12400 1.68200 47.63700
C  47.69400 0.58700 48.23300
C  49.11600 0.77900 48.53100
C  49.32600 2.25300 47.99700
C  47.93700 2.76400 47.69000
C  49.47600 0.48500 50.01800
C  50.26700 2.30700 46.77700
C  51.79100 2.80500 47.03400
N  45.26900 3.93200 47.21200
C  46.40000 4.79300 47.21200
C  46.00300 6.22400 47.07300
C  44.59100 6.11600 46.91500
C  44.22500 4.75200 46.87200
C  46.83700 7.43200 46.96400
C  43.43000 6.92700 46.68700
O  43.16600 8.12100 46.61300
C  42.28900 5.95600 46.71700
C  41.42400 6.17700 47.88400
O  41.87900 6.05100 49.04500
O  40.11500 6.52100 47.56900
C  39.13500 6.65100 48.65600
H  41.54200 -0.91600 47.20600
H  47.74500 -1.42900 48.76600
H  48.46500 4.90500 47.61900
H  40.20500 3.78200 47.01900
H  40.02700 0.91200 46.63000
H  40.97200 1.26200 49.39100
H  39.31000 1.06400 48.74200
H  39.90800 2.67200 49.02700
H  39.89600 2.08800 44.76600
H  41.29200 3.15500 44.48800
H  39.12900 4.71800 45.45400
H  38.40500 3.79700 44.21100
H  43.10400 -3.91200 46.58200
H  41.80400 -2.86000 47.18200
H  42.62400 -3.84100 48.37700
H  47.58300 -3.72700 49.54100
H  47.92400 -3.27500 47.76300
H  47.84000 -4.98000 48.36800
H  49.69900 0.09400 47.91700
H  49.67300 2.89200 48.80900
H  49.86300 -0.50300 50.26700
H  48.62600 0.78300 50.63200
H  50.29000 1.16200 50.27800
H  49.92700 2.98800 45.99600
H  50.31300 1.39000 46.19000
H  52.47500 1.96300 46.92300
H  51.93600 3.27500 48.00600
H  52.05500 3.58900 46.32500
H  46.51900 7.95400 46.06100
H  47.92200 7.33000 46.97900
H  46.56700 8.03900 47.82800
H  41.72800 6.00600 45.78400
H  39.46100 6.40100 49.66500
H  38.27700 5.98500 48.55800
H  38.82900 7.69700 48.66000
Mg -0.25500 43.98900 25.36300
C  1.76300 43.81200 27.93900
C  -2.99400 43.05300 27.39600
C  -2.47300 43.75000 22.54400
C  2.18500 44.67300 23.20900
N  -0.59200 43.34900 27.44400
C  0.42300 43.51600 28.33500
C  0.01500 43.28000 29.74700
C  -1.59200 43.07900 29.62300
C  -1.76900 43.21500 28.08100
C  -1.94800 41.70600 30.11300
C  0.24500 44.63300 30.66600
C  0.52900 44.48500 32.21100
H  0.37000 43.15000 32.92200
N  -2.44900 43.44700 25.04800
C  -3.37200 43.05200 26.03100
C  -4.61000 42.72800 25.40000
C  -4.49800 43.08800 24.02200
C  -3.08500 43.47900 23.83600
C  -5.64700 42.06800 26.26200
C  -5.52300 43.05700 22.92400
O  -5.39700 43.57400 21.81700
C  -6.81700 42.34800 23.16200
N  -0.19900 44.28900 23.21800
C  -1.18500 44.16100 22.30200
C  -0.66200 44.38700 20.86900
C  0.74000 45.01800 21.14500
C  0.97400 44.49200 22.62700
C  -0.52100 43.04000 20.11900
C  0.79600 46.56600 21.00600
C  -0.34400 47.41600 21.52700
N  1.69000 44.16800 25.49700
C  2.59500 44.40000 24.51000
C  3.89800 44.55100 25.19400
C  3.63500 44.19600 26.53400
C  2.29600 44.00700 26.67100
C  5.17400 44.89300 24.46400
C  4.15600 44.03500 27.76600
O  5.35800 44.02000 28.08300
C  2.95300 43.82200 28.74200
C  3.18300 42.67500 29.66200
O  3.04700 41.46800 29.37800
O  3.74800 43.18900 30.80300
C  4.24700 42.20400 31.82200
H  -3.89300 42.85900 27.98500
H  -3.07700 43.66900 21.63800
H  2.93000 45.06700 22.51500
H  0.50400 42.42800 30.22000
H  -2.09600 43.86900 30.17900
H  -2.85900 41.86700 30.69000
H  -1.21500 41.34600 30.83500
H  -2.11000 40.86200 29.44200
H  -0.70800 45.15500 30.75500
H  0.88400 45.38000 30.19700
H  -0.04200 45.22500 32.77200
H  1.57900 44.77600 32.21200
H  -5.16600 41.25300 26.80300
H  -6.43700 41.58400 25.68700
H  -5.97800 42.79500 27.00400
H  -7.45300 42.76900 23.94100
H  -6.64000 41.29600 23.38500
H  -7.38600 42.38000 22.23300
H  -1.34000 45.15300 20.49400
H  1.52900 44.53500 20.56700
H  0.51300 42.76000 20.31600
H  -0.84800 43.20300 19.09200
H  -1.15800 42.30700 20.61300
H  1.06100 46.89400 20.00000
H  1.59100 46.83700 21.70100
H  -0.71000 48.21500 20.88200
H  0.03900 47.91800 22.41500
H  -1.17900 46.90800 22.01000
H  5.19500 45.45200 23.52900
H  5.67100 43.95700 24.21100
H  5.87400 45.52900 25.00500
H  3.02800 44.70700 29.37400
H  4.51000 42.78300 32.70700
H  5.15000 41.63200 31.60900
H  3.43700 41.50000 32.01700

