158

Mg 54.10100 24.08000 44.90600
C  51.43400 26.18800 43.85700
C  52.66200 21.59600 42.81000
C  57.04800 22.46500 44.77600
C  55.60800 26.72400 46.54000
N  52.30800 23.93400 43.42100
C  51.34500 24.89300 43.20500
C  50.05500 24.34400 42.59500
C  50.36300 22.82700 42.58400
C  51.87600 22.74000 42.94500
C  49.44700 21.86600 43.43400
C  49.70300 24.84300 41.18800
C  50.96300 25.07000 40.24400
H  50.68500 25.81200 38.95200
N  54.73200 22.21000 44.02700
C  53.98900 21.33500 43.19300
C  54.82600 20.20400 42.80400
C  56.07100 20.47100 43.36800
C  56.01900 21.72200 44.15400
C  54.28100 19.05300 41.96500
C  57.31700 19.59400 43.05600
O  57.25700 18.68700 42.28400
C  58.58400 19.66200 43.85500
N  56.10400 24.45200 45.61400
C  57.11100 23.65200 45.43500
C  58.37100 24.21300 46.18100
C  57.94700 25.68100 46.47300
C  56.45200 25.66300 46.17200
C  58.95400 23.28700 47.30300
C  58.64400 26.92300 45.74200
C  58.86900 28.17200 46.61700
N  53.60000 25.91900 45.28400
C  54.26600 26.87300 45.98000
C  53.42600 28.10700 46.11300
C  52.34500 27.87100 45.27300
C  52.46900 26.55300 44.74200
C  53.60800 29.35100 46.93900
C  51.07900 28.42100 44.76300
O  50.56700 29.50800 44.97500
C  50.36400 27.34300 43.93500
C  49.94900 27.84000 42.61600
O  50.65500 28.14100 41.69700
O  48.59600 28.01400 42.61600
C  47.96100 28.55100 41.38200
H  52.17200 20.83000 42.20600
H  58.03400 22.00900 44.67100
H  56.08700 27.56000 47.05400
H  49.41000 24.56800 43.44400
H  50.27800 22.39900 41.58500
H  48.84000 22.41400 44.15400
H  50.01600 21.18900 44.07100
H  48.81400 21.22200 42.82300
H  49.14600 25.77700 41.11300
H  49.12000 23.99700 40.82200
H  51.39500 24.08400 40.07200
H  51.67200 25.69700 40.78500
H  53.22800 18.85400 42.16600
H  54.76200 18.10600 42.21100
H  54.53500 19.26800 40.92700
H  59.16700 18.74400 43.77400
H  58.28000 19.83600 44.88700
H  59.13300 20.53200 43.49300
H  59.23400 24.06300 45.53200
H  57.97000 25.98300 47.52000
H  59.98200 23.00600 47.07100
H  58.37600 22.36300 47.31500
H  59.03300 23.77200 48.27500
H  58.00600 27.19100 44.90000
H  59.64800 26.70500 45.37700
H  59.88500 28.55800 46.53400
H  58.59200 27.99200 47.65500
H  58.25000 28.95200 46.17300
H  54.50900 29.26500 47.54700
H  52.74600 29.49400 47.59100
H  53.61200 30.24800 46.32100
H  49.51900 27.08700 44.57400
H  48.19600 27.90900 40.53200
H  48.17900 29.60100 41.18700
H  46.90300 28.45400 41.62600
Mg 10.36600 47.29800 25.92000
C  8.36700 47.64300 28.80400
C  12.95900 48.48900 27.66400
C  12.17400 47.07900 23.10300
C  7.38200 46.61900 24.02900
N  10.47600 48.20900 27.87700
C  9.60400 48.18200 28.93300
C  10.23700 48.73400 30.15300
C  11.56200 49.30700 29.68800
C  11.72100 48.65100 28.30500
C  11.60700 50.85600 29.64300
C  10.58400 47.68500 31.31000
C  10.19700 48.00700 32.76400
H  10.01200 46.92000 33.81800
N  12.34700 47.55800 25.46900
C  13.26600 47.97500 26.43900
C  14.56500 47.84900 25.94300
C  14.39400 47.41600 24.56500
C  12.95900 47.26200 24.31100
C  15.84900 48.14800 26.67300
C  15.50600 47.18200 23.48200
O  15.23400 46.70000 22.38800
C  16.91800 47.53000 23.90800
N  9.81600 47.14700 23.79800
C  10.82900 47.08500 22.85500
C  10.20200 46.77300 21.52300
C  8.67600 46.52100 21.84400
C  8.57900 46.76400 23.34000
C  10.50100 47.88400 20.41000
C  8.19600 45.08500 21.57400
C  8.76000 43.99600 22.52000
N  8.22900 47.17300 26.30100
C  7.22400 46.77100 25.44200
C  6.05500 46.52400 26.30200
C  6.43700 46.86800 27.65900
C  7.81200 47.19700 27.56800
C  4.68200 46.19100 25.88100
C  6.01700 46.99200 28.98900
O  4.94800 46.71300 29.44900
C  7.32900 47.35300 29.81200
C  7.62600 46.27100 30.83100
O  8.09500 45.20000 30.58100
O  7.15200 46.59800 32.08200
C  7.08900 45.43200 32.97400
H  13.77000 48.80800 28.32200
H  12.74800 46.92800 22.18600
H  6.53400 46.25500 23.44400
H  9.63600 49.52200 30.60500
H  12.38700 49.07200 30.36000
H  10.58900 51.24500 29.66200
H  12.13200 51.29300 28.79300
H  12.09700 51.19700 30.55400
H  11.63400 47.41600 31.42400
H  10.19200 46.70100 31.05600
H  9.23800 48.52000 32.70200
H  11.03000 48.64900 33.05100
H  16.64900 47.41000 26.61800
H  15.69600 48.18100 27.75200
H  16.22100 49.10500 26.30800
H  17.19200 48.53200 24.24000
H  17.51500 47.39900 23.00600
H  17.33700 46.83100 24.63200
H  10.65400 45.83700 21.19300
H  8.00300 47.19800 21.31800
H  11.14800 48.71200 20.70000
H  9.57400 48.38300 20.13000
H  10.87600 47.40400 19.50600
H  8.51600 44.77700 20.57800
H  7.10700 45.05900 21.61700
H  7.94100 43.56400 23.09600
H  9.60600 44.43100 23.05100
H  9.13900 43.19200 21.88800
H  4.18000 47.12300 25.62300
H  4.16300 45.54300 26.58800
H  4.68000 45.67500 24.92000
H  7.11200 48.31500 30.27700
H  6.18500 44.83400 32.86000
H  7.14100 45.78300 34.00500
H  7.91400 44.75400 32.75600

