158

Mg 47.83900 25.33400 28.00700
C  48.68600 27.58000 30.47900
C  46.52200 23.23400 30.65500
C  47.45900 22.81600 25.85000
C  49.47500 27.26400 25.71400
N  47.48400 25.53700 30.29500
C  47.89500 26.52500 31.09600
C  47.73400 26.30800 32.59100
C  47.14000 24.85200 32.57200
C  47.02500 24.51300 31.08600
C  47.80900 23.82800 33.58600
C  46.90400 27.49800 33.24800
C  46.00000 27.10200 34.42600
H  45.64800 28.17100 35.44400
N  47.11300 23.34300 28.19600
C  46.56200 22.67700 29.33700
C  46.01800 21.33400 28.97500
C  46.21700 21.27300 27.55500
C  46.94900 22.46500 27.11200
C  45.32100 20.26500 29.84400
C  45.79700 20.19300 26.62200
O  46.28400 20.17700 25.47500
C  44.95400 19.09100 26.98000
N  48.39600 25.10400 26.02600
C  48.16800 23.97200 25.37000
C  48.59000 24.22000 23.86900
C  48.84700 25.79600 23.80800
C  48.83200 26.14100 25.26100
C  49.83500 23.40300 23.36900
C  47.84600 26.63500 23.01000
C  48.49300 27.88900 22.32700
N  48.82800 27.04100 28.02900
C  49.49300 27.71900 27.02200
C  50.23600 28.84300 27.52100
C  49.89800 28.88600 28.86700
C  48.98600 27.75700 29.13400
C  51.02600 29.79800 26.73300
C  50.08800 29.65700 30.08600
O  50.65000 30.71800 30.29200
C  49.25400 28.83000 31.13500
C  50.22000 28.38700 32.18400
O  51.19700 27.70000 32.00600
O  49.94800 28.96600 33.41000
C  50.76500 28.59700 34.60100
H  46.26500 22.52600 31.44600
H  47.38900 22.06100 25.06500
H  49.96600 27.89100 24.96600
H  48.71100 26.24500 33.07000
H  46.08900 24.93800 32.85100
H  46.98800 23.61100 34.27000
H  48.57500 24.16600 34.28400
H  48.31500 22.97000 33.14200
H  46.27300 27.85600 32.43500
H  47.63200 28.29000 33.42400
H  46.48000 26.23200 34.87300
H  45.07100 26.66500 34.05900
H  45.85600 19.32100 29.94400
H  44.29200 20.16300 29.50000
H  45.18000 20.72200 30.82300
H  44.61300 18.53300 26.10900
H  44.05300 19.39400 27.51400
H  45.49200 18.32000 27.53000
H  47.78500 23.80800 23.26000
H  49.87500 25.99700 23.50700
H  50.66700 23.57500 24.05100
H  50.20400 23.76300 22.40900
H  49.64600 22.35000 23.15800
H  47.00300 26.97500 23.61000
H  47.50100 25.96700 22.22000
H  47.78000 28.70600 22.43500
H  48.77100 27.69100 21.29200
H  49.44700 28.22800 22.72900
H  50.42500 30.43300 26.08300
H  51.82400 29.21400 26.27500
H  51.46800 30.47500 27.46400
H  48.52500 29.47000 31.63100
H  50.12300 27.91200 35.15400
H  50.90900 29.44600 35.26900
H  51.70500 28.07000 34.43700
Mg -5.11800 25.59400 26.58800
C  -3.65500 26.82600 29.64000
C  -7.26100 23.64300 28.48800
C  -6.18300 24.21100 23.70300
C  -2.98300 27.50300 24.81900
N  -5.27200 25.18000 28.74400
C  -4.62900 25.84400 29.77400
C  -5.24100 25.38900 31.11900
C  -6.22000 24.22500 30.71900
C  -6.29200 24.32400 29.22000
C  -5.70400 22.86800 31.22900
C  -5.98100 26.58600 31.91800
C  -7.04100 26.31500 33.03000
H  -6.70400 25.24500 34.10000
N  -6.51500 24.26200 26.15200
C  -7.31600 23.58100 27.08800
C  -8.25300 22.76700 26.38300
C  -7.96000 22.87700 25.00800
C  -6.81600 23.79200 24.90500
C  -9.32100 22.06300 27.15200
C  -8.60500 22.22700 23.81700
O  -8.30400 22.50500 22.63700
C  -9.55200 21.06700 24.13500
N  -4.62400 25.77300 24.55100
C  -5.18000 25.11700 23.53100
C  -4.46700 25.39100 22.27000
C  -3.63300 26.68300 22.52400
C  -3.79300 26.76200 24.04900
C  -3.64400 24.16800 21.72400
C  -4.09100 27.96100 21.77300
C  -3.10200 28.41500 20.72800
N  -3.56600 26.87300 27.03500
C  -2.84900 27.65400 26.17500
C  -1.89300 28.50500 26.97200
C  -2.24400 28.26000 28.34000
C  -3.25500 27.28200 28.29400
C  -0.83400 29.38600 26.41000
C  -1.97300 28.64200 29.72900
O  -1.24900 29.53900 30.20500
C  -2.93600 27.70400 30.65900
C  -2.13200 27.01200 31.70500
O  -1.45300 26.00100 31.63100
O  -2.27600 27.71400 32.88100
C  -2.21000 26.93700 34.13200
H  -7.87400 22.91400 29.02100
H  -6.47800 23.90900 22.69600
H  -2.18500 27.98300 24.24800
H  -4.48400 25.09900 31.84700
H  -7.22200 24.32100 31.13900
H  -4.98100 22.99100 32.03600
H  -5.21100 22.42300 30.36400
H  -6.54900 22.27500 31.57800
H  -6.40500 27.09500 31.05200
H  -5.26000 27.28000 32.34900
H  -7.86400 25.97900 32.39900
H  -7.32300 27.27400 33.46600
H  -9.01000 21.07400 27.49000
H  -10.20000 21.76000 26.58300
H  -9.68900 22.65800 27.98800
H  -9.87100 20.63600 23.18600
H  -10.48200 21.36400 24.61900
H  -9.05200 20.30400 24.73200
H  -5.28900 25.68100 21.61500
H  -2.56700 26.51500 22.36700
H  -3.38300 23.45600 22.50700
H  -2.77900 24.56100 21.19000
H  -4.27700 23.68000 20.98300
H  -4.25400 28.81200 22.43500
H  -5.04200 27.81900 21.26000
H  -3.42400 28.09100 19.73800
H  -2.07700 28.09100 20.90200
H  -3.09100 29.50500 20.68800
H  -0.43700 28.98800 25.47600
H  -0.03600 29.58600 27.12500
H  -1.30600 30.35600 26.25700
H  -3.73700 28.28500 31.11600
H  -1.29600 27.22200 34.65400
H  -2.32800 25.86700 33.96200
H  -3.08500 27.20800 34.72300

