158

Mg 36.48400 0.41700 29.64300
C  34.26700 1.60500 32.01700
C  38.89300 0.43800 32.05600
C  38.74800 0.00400 27.15400
C  34.00900 1.11700 27.15500
N  36.50700 0.94200 31.77200
C  35.51700 1.41000 32.57000
C  35.93300 1.49300 34.01400
C  37.50700 1.38300 33.90800
C  37.66800 0.89900 32.47500
C  38.32500 2.70400 34.08100
C  35.20900 0.43500 34.85600
C  35.61800 0.25400 36.37200
H  36.41400 1.39600 37.09300
N  38.48600 0.14300 29.63000
C  39.31400 0.15100 30.75400
C  40.62000 -0.10400 30.32300
C  40.65200 -0.35300 28.93300
C  39.26200 -0.07500 28.48000
C  41.70700 -0.24500 31.33300
C  41.82300 -0.67000 27.94200
O  41.63500 -0.79800 26.69700
C  43.26200 -0.74800 28.45700
N  36.36400 0.45200 27.51000
C  37.45200 0.21300 26.75900
C  37.08000 0.19000 25.21500
C  35.62900 0.47400 25.23600
C  35.31100 0.71000 26.71000
C  37.93800 1.06000 24.22800
C  34.62500 -0.56400 24.52100
C  34.16800 -1.77900 25.38000
N  34.47900 1.07100 29.60300
C  33.65500 1.37100 28.51800
C  32.39800 1.91700 29.01300
C  32.58400 2.01600 30.41300
C  33.83900 1.46400 30.69200
C  31.34100 2.38500 28.12000
C  32.04000 2.50700 31.57400
O  31.00500 3.10000 31.78000
C  33.04000 2.21000 32.70500
C  33.25900 3.43500 33.48200
O  33.96600 4.39500 33.16900
O  32.73300 3.31900 34.76200
C  32.89900 4.53900 35.60000
H  39.64800 0.47100 32.84400
H  39.36100 -0.27500 26.29500
H  33.27000 1.31100 26.37500
H  35.77000 2.51400 34.35800
H  37.99600 0.70100 34.60400
H  37.72800 3.60800 34.20600
H  38.98700 2.84400 33.22600
H  39.10300 2.58300 34.83500
H  35.50900 -0.46900 34.32600
H  34.12400 0.53100 34.87800
H  36.32700 -0.55600 36.19800
H  34.89500 -0.18000 37.06300
H  42.23500 0.67400 31.58700
H  42.44400 -0.93800 30.92600
H  41.40200 -0.82000 32.20700
H  43.46100 0.03500 29.18800
H  43.88800 -0.63400 27.57100
H  43.45100 -1.72700 28.89700
H  37.19200 -0.82600 24.83800
H  35.38400 1.37400 24.67100
H  38.85700 1.37700 24.71900
H  37.34000 1.91300 23.90600
H  38.21100 0.37200 23.42800
H  34.93900 -1.00500 23.57600
H  33.71600 0.01000 24.33800
H  34.27500 -2.71100 24.82600
H  33.11400 -1.70000 25.64600
H  34.88700 -1.85700 26.19600
H  31.14600 1.63000 27.35900
H  31.72600 3.23700 27.55900
H  30.35600 2.55900 28.55500
H  32.62500 1.45900 33.37700
H  32.38500 5.38500 35.14200
H  33.97100 4.73300 35.62700
H  32.51000 4.32600 36.59600
Mg 47.92600 15.47500 27.89000
C  45.84900 15.00800 30.73100
C  49.83600 17.57600 29.89600
C  49.93000 15.88300 25.35900
C  45.65500 13.54400 26.00800
N  47.88600 16.08800 30.14200
C  46.93000 15.79400 31.04400
C  47.33200 16.37800 32.39200
C  48.48000 17.47200 32.03000
C  48.79800 16.96700 30.62700
C  47.98900 18.94100 31.92500
C  47.68400 15.30000 33.44400
C  47.42100 15.63200 34.95800
H  48.64900 15.50100 35.84100
N  49.61700 16.62200 27.63700
C  50.24100 17.37800 28.55500
C  51.29900 18.13700 27.89200
C  51.51300 17.49100 26.59200
C  50.40600 16.59200 26.48900
C  52.09400 19.26600 28.58100
C  52.62800 17.70100 25.46100
O  52.50300 17.37400 24.26400
C  53.79500 18.52400 25.88800
N  47.69900 14.92400 25.86700
C  48.70300 15.17800 25.04900
C  48.52100 14.31000 23.76100
C  47.10600 13.71300 23.91500
C  46.73800 14.07400 25.36700
C  48.74600 15.22900 22.50900
C  46.87000 12.27700 23.34100
C  47.08100 10.98800 24.25600
N  46.13800 14.34800 28.28500
C  45.24200 13.68100 27.36400
C  44.08300 13.17700 28.10000
C  44.35200 13.58000 29.43600
C  45.48800 14.41800 29.46000
C  42.96000 12.25300 27.63800
C  43.88300 13.54100 30.81200
O  42.87900 13.00700 31.24000
C  44.75000 14.54600 31.60900
C  43.80400 15.66200 31.99400
O  43.12000 16.37400 31.22400
O  43.66800 15.83000 33.34100
C  42.72900 16.81900 33.83400
H  50.28400 18.41800 30.42800
H  50.61500 15.98400 24.51500
H  45.04900 12.92600 25.34200
H  46.51700 16.95800 32.82400
H  49.39500 17.35000 32.61100
H  47.06500 19.11100 32.47800
H  47.76800 19.21400 30.89300
H  48.78900 19.61400 32.23300
H  48.76700 15.35400 33.33300
H  47.38200 14.30100 33.13000
H  46.67200 15.07700 35.52300
H  47.03000 16.63900 35.10800
H  51.61000 19.50500 29.52800
H  52.03300 20.05500 27.83200
H  53.13400 18.95300 28.67300
H  54.63700 18.59400 25.20000
H  54.24600 18.12200 26.79500
H  53.41000 19.54000 25.98500
H  49.36600 13.62700 23.85600
H  46.44300 14.35300 23.33200
H  48.05600 14.73500 21.82500
H  49.66600 14.92300 22.01000
H  48.42000 16.25800 22.65700
H  47.59300 12.18300 22.53100
H  45.91500 12.37600 22.82500
H  47.61400 10.15300 23.80000
H  46.15900 10.46500 24.51000
H  47.48400 11.29600 25.22000
H  41.98000 12.58200 27.98200
H  43.09300 11.26100 28.07000
H  42.93300 12.21200 26.54900
H  45.08900 14.13100 32.55800
H  42.11200 17.29800 33.07400
H  43.28600 17.63700 34.29200
H  42.05000 16.31200 34.52000

