158

Mg 8.62600 3.54200 27.53600
C  9.93000 2.02600 30.45600
C  6.81600 5.42300 29.49000
C  7.24200 4.59700 24.65600
C  10.04300 0.70500 25.72100
N  8.30000 3.56500 29.82300
C  9.07000 3.06500 30.75100
C  8.75400 3.70100 32.10400
C  7.50900 4.62700 31.76700
C  7.49400 4.57100 30.29600
C  6.15000 4.29700 32.46700
C  10.08900 4.20300 32.80600
C  10.53500 3.51300 34.13100
H  10.97600 4.39000 35.27500
N  7.34700 4.91600 27.15600
C  6.68600 5.59400 28.12900
C  5.92800 6.55500 27.47200
C  5.92300 6.33000 26.06700
C  6.84100 5.24400 25.89700
C  5.20700 7.68300 28.29600
C  5.27000 7.15000 24.92700
O  5.42100 6.87300 23.73700
C  4.35800 8.28200 25.22600
N  8.62400 2.78500 25.47600
C  8.00500 3.46100 24.49700
C  8.24200 2.76400 23.08900
C  9.07800 1.48800 23.44600
C  9.34700 1.69500 24.95300
C  6.82400 2.44100 22.51900
C  10.36500 1.28600 22.60000
C  10.55500 -0.14200 21.93700
N  9.75000 1.78200 27.92500
C  10.27100 0.71700 27.11300
C  11.08300 -0.14700 27.94300
C  10.98600 0.34100 29.18100
C  10.15000 1.46500 29.16500
C  11.89900 -1.25600 27.37700
C  11.48600 0.15500 30.53200
O  12.36800 -0.61300 30.92600
C  10.71100 1.09800 31.37000
C  9.78300 0.28800 32.21400
O  8.59800 0.05300 32.02800
O  10.48300 -0.15400 33.35900
C  9.56900 -0.48100 34.48200
H  6.18100 6.10700 30.05600
H  6.59000 4.97200 23.86500
H  10.50000 -0.08400 25.12000
H  8.42200 2.89000 32.75200
H  7.80600 5.67300 31.84800
H  6.01000 5.09800 33.19300
H  6.12800 3.29400 32.89100
H  5.25800 4.29100 31.84000
H  9.91400 5.27000 32.93700
H  10.92100 4.06800 32.11500
H  11.38600 2.88600 33.86600
H  9.77900 2.79800 34.45600
H  5.16200 8.64600 27.78700
H  5.89200 7.88800 29.11800
H  4.22400 7.28400 28.54800
H  4.29500 8.77400 24.25500
H  4.90400 9.02500 25.80800
H  3.35500 8.05800 25.58900
H  8.79400 3.48500 22.48600
H  8.49700 0.58000 23.28200
H  5.99100 2.57900 23.20800
H  6.87600 1.44800 22.07100
H  6.57600 3.13200 21.71300
H  11.25400 1.48200 23.19900
H  10.30900 1.85400 21.67100
H  9.69700 -0.77500 22.16200
H  11.34700 -0.62000 22.51300
H  10.84700 -0.12900 20.88700
H  11.29000 -1.89300 26.73700
H  12.20700 -1.91100 28.19200
H  12.75200 -0.86600 26.82100
H  11.38400 1.51100 32.12200
H  9.40800 0.47300 34.98500
H  9.88000 -1.30000 35.13200
H  8.60200 -0.87800 34.17400
Mg 30.17600 58.00200 39.93700
C  27.06700 56.60800 39.16000
C  31.71600 54.98900 39.06800
C  33.19300 59.61700 39.72000
C  28.51800 61.08300 40.11900
N  29.45400 56.02400 39.10100
C  28.12600 55.69400 39.02800
C  27.98500 54.20600 38.76800
C  29.49200 53.63600 38.79700
C  30.30100 54.96700 39.03500
C  29.90300 52.55100 39.86500
C  27.32000 53.89200 37.46600
C  27.95300 54.42700 36.09100
H  27.01100 55.29800 35.23700
N  32.19100 57.31800 39.72100
C  32.63700 56.04100 39.27300
C  34.07400 56.07700 39.12000
C  34.46200 57.46500 39.32900
C  33.25700 58.19800 39.64800
C  34.93400 54.96500 38.77100
C  35.85700 57.97800 39.26100
O  36.69700 57.23000 38.87000
C  36.34600 59.36400 39.78500
N  30.74700 60.00500 39.89200
C  32.01400 60.40200 39.90700
C  32.18600 61.93300 39.84900
C  30.76700 62.39600 40.01600
C  29.95600 61.05000 40.04800
C  33.21000 62.48800 40.84300
C  30.24200 63.44000 38.99900
C  29.86300 64.80100 39.55200
N  28.20900 58.73100 39.85300
C  27.69100 59.99900 39.97800
C  26.23800 59.91900 39.90800
C  26.02100 58.61900 39.51000
C  27.21300 57.96800 39.52900
C  25.36700 61.01400 40.05600
C  24.92000 57.70400 39.17500
O  23.66400 57.87000 39.06400
C  25.58700 56.42500 38.99800
C  24.89400 55.49500 39.86700
O  25.17200 55.37800 41.03600
O  24.03200 54.64500 39.24500
C  23.33000 53.78500 40.16800
H  32.17800 54.02900 38.82700
H  34.12400 60.11700 39.44500
H  28.03000 62.05100 40.24900
H  27.34100 53.85900 39.57500
H  29.77500 53.18800 37.84500
H  30.47800 52.95700 40.69700
H  30.38900 51.65500 39.47800
H  28.99500 52.16400 40.32800
H  26.33000 54.34800 37.45200
H  27.28600 52.80400 37.41400
H  28.25800 53.53900 35.53600
H  28.87700 54.96000 36.31500
H  35.74500 54.80200 39.48100
H  35.31900 55.10300 37.76000
H  34.48100 53.97500 38.81700
H  36.13600 60.18200 39.09600
H  37.42000 59.17300 39.79900
H  36.01800 59.46200 40.82000
H  32.62900 62.25500 38.90600
H  30.63200 62.81200 41.01400
H  33.52500 61.60300 41.39700
H  32.74200 63.23200 41.48600
H  34.09300 62.94500 40.39500
H  29.33900 62.98300 38.59400
H  30.99900 63.49000 38.21600
H  30.28600 65.62800 38.98200
H  30.05400 64.99600 40.60700
H  28.79600 64.98700 39.43400
H  25.73100 61.65000 40.86300
H  24.38000 60.83200 40.48300
H  25.15900 61.53300 39.12100
H  25.32500 56.06200 38.00400
H  23.84600 52.85100 40.38700
H  22.45600 53.45000 39.61100
H  22.90600 54.42000 40.94600

