158

Mg 26.47300 -0.20500 28.81500
C  28.13800 -0.38400 31.87700
C  23.53800 0.53700 30.64200
C  24.67900 -0.26200 25.99000
C  29.32600 -0.83300 27.15700
N  25.91300 -0.01600 31.05200
C  26.81400 -0.05000 32.09600
C  26.14200 0.35900 33.35900
C  24.65400 0.67300 33.01300
C  24.67500 0.34400 31.47700
C  23.61300 -0.15300 33.84700
C  26.80400 1.58000 34.10900
C  26.98300 1.42000 35.63400
H  25.96900 0.61900 36.50300
N  24.39600 0.15200 28.36400
C  23.35800 0.36100 29.25000
C  22.16200 0.51600 28.49300
C  22.43500 0.15300 27.16900
C  23.87600 -0.04100 27.11400
C  20.86200 0.85900 29.13200
C  21.56000 -0.04700 25.98700
O  21.98000 -0.50100 24.95600
C  20.04300 0.28900 26.12400
N  26.96400 -0.48600 26.89000
C  26.08200 -0.41800 25.82900
C  26.75100 -0.59500 24.50100
C  28.28800 -0.53600 24.80300
C  28.21200 -0.65100 26.38200
C  26.37100 -1.83100 23.65900
C  28.86100 0.79600 24.29400
C  30.14800 0.72800 23.48600
N  28.29900 -0.79400 29.39500
C  29.40500 -0.96700 28.56100
C  30.60400 -1.11000 29.39700
C  30.12300 -0.98400 30.74600
C  28.74300 -0.71100 30.67400
C  32.02700 -1.32300 28.91900
C  30.47300 -1.03400 32.16500
O  31.51700 -1.18500 32.75300
C  29.20300 -0.60100 32.99800
C  28.79600 -1.61400 33.97400
O  28.17000 -2.62000 33.74000
O  29.42500 -1.34300 35.22500
C  29.41500 -2.42400 36.26400
H  22.66100 0.88700 31.19100
H  24.24500 -0.50600 25.01800
H  30.29800 -0.75300 26.66600
H  26.23300 -0.44900 34.08500
H  24.51500 1.75300 33.05900
H  23.91100 -0.76100 34.70100
H  23.04600 -0.79800 33.17500
H  22.98000 0.66000 34.20100
H  26.24200 2.51100 34.03700
H  27.79300 1.71600 33.67300
H  27.10100 2.42500 36.03700
H  27.92700 0.90700 35.81500
H  20.93500 1.21100 30.16100
H  20.24100 -0.03600 29.14000
H  20.25500 1.58300 28.58800
H  19.66800 0.19700 25.10500
H  19.96200 1.32000 26.47100
H  19.74500 -0.38400 26.92800
H  26.43200 0.21800 23.85000
H  28.83800 -1.37900 24.38500
H  27.21400 -2.41900 23.29600
H  25.81400 -1.60900 22.74900
H  25.70200 -2.46600 24.24000
H  29.10900 1.35700 25.19500
H  28.11500 1.24300 23.63600
H  31.08800 1.21600 23.74400
H  29.95000 1.13500 22.49400
H  30.40700 -0.30200 23.24500
H  32.71300 -0.93800 29.67400
H  32.15300 -0.94800 27.90300
H  32.22700 -2.39300 28.87500
H  29.56000 0.24400 33.58700
H  29.43600 -3.42900 35.84300
H  28.53800 -2.36900 36.90900
H  30.30000 -2.30500 36.88900
Mg -2.94200 35.78500 26.59700
C  -4.48900 33.94900 29.14700
C  -1.44000 37.82700 28.98800
C  -1.77100 37.76000 24.05600
C  -4.76400 33.98900 24.34900
N  -3.12800 35.90300 28.81200
C  -3.65600 34.95800 29.66600
C  -3.49900 35.38700 31.14800
C  -2.38800 36.47700 30.97300
C  -2.32500 36.78400 29.49300
C  -2.39100 37.80100 31.79300
C  -3.18000 34.22700 32.12700
C  -2.01900 34.32100 33.11600
H  -2.07400 33.48200 34.38700
N  -1.72200 37.46200 26.53900
C  -1.14400 38.12100 27.60300
C  -0.13500 39.06100 27.10100
C  -0.25200 39.11800 25.68800
C  -1.31900 38.12500 25.37200
C  0.66200 39.97500 28.05500
C  0.46600 39.93500 24.70800
O  0.26500 39.91000 23.49100
C  1.53900 40.80500 25.18300
N  -3.45500 36.08100 24.53500
C  -2.70400 36.77800 23.65600
C  -3.15000 36.55100 22.28000
C  -3.88600 35.21000 22.39400
C  -3.97200 35.06500 23.90300
C  -3.96500 37.73500 21.84400
C  -3.21900 34.03100 21.58000
C  -2.12200 33.22500 22.28000
N  -4.51800 34.37300 26.66600
C  -5.08900 33.68300 25.63800
C  -5.96400 32.67600 26.13700
C  -5.68400 32.72700 27.49000
C  -4.91500 33.80000 27.80700
C  -6.84200 31.58200 25.42900
C  -6.02100 32.06000 28.75300
O  -6.67200 31.02100 28.91200
C  -5.29900 32.83300 29.91800
C  -6.37200 33.35300 30.71400
O  -7.22000 34.10900 30.32000
O  -6.29600 32.81700 31.95900
C  -7.32500 33.24600 32.86100
H  -0.85100 38.38100 29.72300
H  -1.42000 38.39500 23.24000
H  -5.09800 33.25100 23.61600
H  -4.38500 35.97400 31.39000
H  -1.45200 35.97900 31.22700
H  -2.55700 38.71000 31.21400
H  -1.42000 37.80500 32.28900
H  -3.08600 37.64200 32.61700
H  -3.06800 33.33400 31.51200
H  -3.89500 34.10400 32.94100
H  -1.87000 35.37200 33.36100
H  -1.08500 34.04800 32.62500
H  1.71700 39.83600 27.82000
H  0.56300 39.73300 29.11300
H  0.49300 41.05100 28.02700
H  1.90700 41.24500 24.25600
H  2.33300 40.22500 25.65300
H  1.03700 41.58500 25.75500
H  -2.24600 36.35900 21.70200
H  -4.87600 35.42700 21.99200
H  -4.75700 37.57500 21.11300
H  -3.21200 38.28900 21.28300
H  -4.34900 38.27300 22.71100
H  -2.67800 34.36200 20.69400
H  -3.97900 33.37200 21.15900
H  -1.37700 32.91000 21.54900
H  -2.54200 32.30800 22.69500
H  -1.64300 33.78100 23.08600
H  -6.32300 30.63800 25.59300
H  -7.08900 31.88500 24.41100
H  -7.80800 31.53300 25.93200
H  -4.69200 32.04300 30.36000
H  -8.23200 33.12500 32.26900
H  -7.19400 34.26600 33.22100
H  -7.30100 32.58600 33.72800

