158

Mg 16.39600 -2.84200 27.29400
C  15.75900 -0.92900 30.17000
C  18.13600 -5.16300 29.20900
C  17.71100 -4.10900 24.46200
C  14.79800 -0.29900 25.36000
N  16.91700 -2.97800 29.37100
C  16.44600 -2.14200 30.35700
C  17.01700 -2.61000 31.73500
C  17.71800 -4.00700 31.41300
C  17.58900 -4.09500 29.89100
C  19.22400 -4.06300 31.94900
C  15.87500 -2.56400 32.87700
C  16.20100 -1.82300 34.18400
H  17.60000 -1.49600 34.63700
N  17.72600 -4.44900 26.92000
C  18.18800 -5.39700 27.77500
C  18.80200 -6.50100 27.03400
C  18.66100 -6.18400 25.62000
C  17.99900 -4.80500 25.61700
C  19.44300 -7.71900 27.62400
C  19.03700 -7.04300 24.38800
O  18.73800 -6.78800 23.23000
C  19.77100 -8.36200 24.43300
N  16.35900 -2.22500 25.17800
C  17.01300 -2.91800 24.26100
C  16.76900 -2.32300 22.81600
C  15.66300 -1.20300 23.14300
C  15.53500 -1.21800 24.62400
C  18.11100 -1.60500 22.30900
C  14.20600 -1.38800 22.49100
C  12.99600 -1.69800 23.31500
N  15.38600 -0.93600 27.66200
C  14.74600 -0.08300 26.75000
C  14.14100 1.01200 27.53100
C  14.58600 0.81000 28.83400
C  15.29300 -0.45100 28.89300
C  13.32500 2.12500 26.93400
C  14.37300 1.18900 30.26700
O  13.76300 2.15100 30.74600
C  15.25800 0.16500 31.09600
C  16.39100 1.07400 31.49100
O  17.24300 1.49600 30.70700
O  16.31900 1.41800 32.79500
C  17.19700 2.43500 33.28000
H  18.50500 -6.03700 29.75100
H  18.00900 -4.45300 23.46900
H  14.35600 0.48500 24.74200
H  17.79400 -1.93400 32.09100
H  17.10600 -4.81900 31.80600
H  19.26700 -4.73200 32.80900
H  19.64100 -3.09100 32.21100
H  19.84600 -4.37200 31.10900
H  15.48900 -3.52800 33.20900
H  14.94900 -2.14600 32.48100
H  15.80700 -2.48100 34.95800
H  15.55900 -0.94400 34.24200
H  19.68700 -7.62600 28.68200
H  20.39600 -7.74100 27.09600
H  18.80500 -8.58700 27.45900
H  20.75600 -8.24800 24.88700
H  19.90700 -8.67800 23.39900
H  19.10200 -9.02000 24.98700
H  16.40800 -3.09400 22.13500
H  16.03000 -0.23000 22.81700
H  18.14400 -0.57600 22.66600
H  18.11800 -1.40900 21.23700
H  19.02800 -2.15100 22.53000
H  14.33300 -2.18500 21.75800
H  14.02500 -0.44100 21.98300
H  12.52300 -0.72200 23.42700
H  13.08500 -2.29200 24.22500
H  12.32100 -2.23500 22.64900
H  13.94100 2.80600 26.34700
H  12.87100 2.68600 27.75100
H  12.49200 1.67100 26.39700
H  14.73800 -0.17300 31.99300
H  16.97600 3.36000 32.74800
H  18.26300 2.23200 33.17500
H  16.85200 2.58500 34.30300
Mg 30.07300 59.48400 39.34400
C  27.09400 58.00000 38.15800
C  31.82000 56.82800 37.99400
C  32.97000 61.13200 39.65300
C  28.18500 62.45900 39.76900
N  29.53000 57.67200 38.16300
C  28.25400 57.26400 37.85100
C  28.21800 55.91900 37.07900
C  29.74400 55.47900 37.34900
C  30.42000 56.74000 37.88600
C  29.96900 54.23600 38.09700
C  27.88500 56.08700 35.48800
C  26.82900 55.14100 34.96800
H  25.89100 55.76900 33.95700
N  32.19500 58.91600 39.03000
C  32.69200 57.84400 38.47700
C  34.16300 57.82200 38.56400
C  34.55500 59.11600 39.18100
C  33.21100 59.79800 39.35000
C  35.00200 56.73900 38.02200
C  35.85900 59.58100 39.46400
O  36.79400 58.79000 39.49200
C  36.19600 61.05300 39.81800
N  30.43000 61.47000 39.71300
C  31.73500 61.92800 39.73700
C  31.84800 63.47400 39.71200
C  30.34800 63.88800 39.98200
C  29.56300 62.56900 39.73800
C  32.85800 63.96500 40.76500
C  29.80800 65.07800 39.17900
C  29.34900 66.32600 39.96100
N  28.01000 60.10900 39.29800
C  27.40000 61.34100 39.45000
C  25.99400 61.21300 39.26200
C  25.81400 59.88500 38.78500
C  27.12600 59.26100 38.71800
C  24.92200 62.31700 39.34000
C  24.78600 58.91900 38.31200
O  23.59300 59.01100 38.08600
C  25.64100 57.56600 37.95100
C  25.34500 56.33200 38.78700
O  25.69200 56.24800 39.97200
O  24.59600 55.38400 38.13600
C  24.21800 54.11400 38.88100
H  32.34900 55.93500 37.65600
H  33.84100 61.79000 39.63200
H  27.55900 63.34400 39.63900
H  27.50400 55.26400 37.57800
H  30.29800 55.46100 36.41000
H  29.04600 53.67000 37.97100
H  30.05500 54.40000 39.17200
H  30.86300 53.72800 37.73500
H  28.85700 55.85100 35.05700
H  27.59400 57.10800 35.23800
H  26.24900 54.70800 35.78200
H  27.25800 54.24400 34.52000
H  34.53800 56.44900 37.07900
H  34.88600 55.87900 38.68200
H  36.03800 57.00100 37.80700
H  37.22100 61.06500 40.18700
H  35.52300 61.16400 40.66800
H  36.00400 61.74100 38.99400
H  32.19200 63.81000 38.73400
H  30.35200 64.12800 41.04500
H  33.26300 63.11300 41.31100
H  32.42500 64.64500 41.50000
H  33.58000 64.62900 40.29100
H  29.00300 64.70200 38.54700
H  30.61000 65.33900 38.48900
H  29.97500 67.19700 39.77000
H  29.40900 66.15000 41.03500
H  28.36100 66.64700 39.62900
H  24.66900 62.49900 38.29600
H  25.32300 63.23400 39.77200
H  24.03500 62.11200 39.94000
H  25.50100 57.31800 36.89900
H  25.05900 53.74100 39.46600
H  23.74900 53.40600 38.19800
H  23.45000 54.36400 39.61200

