158

Mg 29.39900 58.78400 41.17200
C  26.45200 57.13900 40.30100
C  31.22700 56.23700 39.87700
C  32.05400 60.95000 40.90600
C  27.45600 61.65900 41.98100
N  28.84300 57.01600 40.15500
C  27.57700 56.43600 39.99300
C  27.69300 55.15300 39.20500
C  29.18900 54.73200 39.47300
C  29.83200 56.08700 39.87000
C  29.33800 53.54100 40.49800
C  27.32300 55.38000 37.66900
C  26.35700 54.42600 36.94900
H  25.62700 55.01100 35.69900
N  31.40400 58.52200 40.75200
C  31.96500 57.35100 40.26500
C  33.38800 57.60800 40.21200
C  33.66300 58.94300 40.53300
C  32.36200 59.54400 40.75500
C  34.39900 56.51000 39.68900
C  35.08000 59.50800 40.72500
O  36.00800 58.75200 40.66200
C  35.26200 60.86100 41.27300
N  29.72900 61.07000 41.52500
C  30.96300 61.58200 41.41700
C  30.98100 63.07900 41.73700
C  29.45200 63.35700 42.02400
C  28.80600 61.99100 41.93800
C  31.94400 63.40200 42.98000
C  28.77300 64.33800 41.05600
C  27.99700 65.48800 41.83600
N  27.38900 59.29900 41.22900
C  26.73200 60.48500 41.59800
C  25.25900 60.25600 41.47100
C  25.08200 59.00900 40.99800
C  26.44600 58.45000 40.86100
C  24.24700 61.35900 41.79000
C  24.12400 57.98700 40.58100
O  22.91500 58.01000 40.62700
C  24.97000 56.85300 40.13400
C  24.57900 55.67600 41.09200
O  24.51300 55.77400 42.33200
O  24.16300 54.52700 40.37800
C  23.86000 53.32800 41.11800
H  31.62700 55.28900 39.51200
H  32.88700 61.56400 40.55800
H  26.90100 62.53300 42.32700
H  26.96800 54.40100 39.51600
H  29.58700 54.38100 38.52000
H  29.57400 53.86200 41.51300
H  30.15700 52.88800 40.19600
H  28.41300 52.96500 40.50700
H  28.22900 55.35700 37.06300
H  26.98600 56.40500 37.51000
H  25.58300 54.11400 37.65100
H  26.88900 53.51700 36.67100
H  35.00400 56.97800 38.91200
H  33.89300 55.62600 39.30100
H  35.08700 56.09600 40.42700
H  35.16400 61.59800 40.47600
H  36.29900 60.92500 41.60500
H  34.59900 61.04200 42.12000
H  31.20200 63.59500 40.80300
H  29.38200 63.79000 43.02200
H  31.38300 63.91900 43.75900
H  32.72400 64.09000 42.65300
H  32.41200 62.49800 43.36900
H  28.10800 63.83100 40.35700
H  29.45900 64.76200 40.32300
H  26.91900 65.47300 41.67700
H  28.27900 66.50300 41.55400
H  28.26600 65.51000 42.89200
H  24.53100 62.27400 41.27100
H  24.45400 61.49400 42.85100
H  23.22000 61.04800 41.59500
H  24.70500 56.58100 39.11300
H  23.27300 52.76500 40.39300
H  23.36400 53.54500 42.06400
H  24.69200 52.64900 41.30300
Mg -9.14400 18.72700 43.00900
C  -5.58300 18.04400 43.22000
C  -8.35600 21.85400 42.10700
C  -12.39100 19.11000 42.15900
C  -9.69800 15.22400 43.29100
N  -7.16400 19.77500 42.89100
C  -5.83200 19.39500 42.96500
C  -4.79900 20.45000 42.60300
C  -5.72000 21.71100 42.44000
C  -7.20500 21.09500 42.57700
C  -5.55900 22.89200 43.49500
C  -3.85100 20.07800 41.36900
C  -4.47700 19.35700 40.10900
H  -3.96700 19.89800 38.70500
N  -10.28400 20.36600 42.28600
C  -9.74500 21.57500 41.95100
C  -10.85300 22.43300 41.45200
C  -12.06700 21.72900 41.68200
C  -11.64100 20.31900 42.04100
C  -10.63700 23.81500 40.97500
C  -13.42700 22.25200 41.39000
O  -13.56700 23.41100 41.07800
C  -14.60400 21.39500 41.46500
N  -10.78200 17.34100 42.79300
C  -12.04800 17.78300 42.39700
C  -13.06500 16.64600 42.39800
C  -12.17100 15.41500 42.74000
C  -10.84400 16.03700 43.05800
C  -14.35900 16.86800 43.16100
C  -11.97800 14.42300 41.53400
C  -12.60700 13.05200 41.77200
N  -7.92200 16.92400 43.10000
C  -8.31600 15.63800 43.23600
C  -7.15400 14.80100 43.39400
C  -6.09800 15.69800 43.42000
C  -6.58200 16.98700 43.25300
C  -7.16700 13.26200 43.53000
C  -4.73200 15.74300 43.64600
O  -3.89000 14.85600 43.96400
C  -4.19100 17.23800 43.49400
C  -3.35500 17.75100 44.63700
O  -2.15300 17.84400 44.52100
O  -4.07200 17.90400 45.78900
C  -3.29100 18.30300 46.83100
H  -8.13400 22.90900 41.93600
H  -13.46100 19.17700 41.95400
H  -9.85800 14.14400 43.25600
H  -4.07500 20.53800 43.41300
H  -5.53400 22.20600 41.48700
H  -6.44400 22.91600 44.12900
H  -5.52000 23.83400 42.94900
H  -4.60100 22.87700 44.01600
H  -2.97000 19.50400 41.65600
H  -3.55700 21.07300 41.03700
H  -5.56300 19.27100 40.09000
H  -4.24000 18.29700 40.02100
H  -11.00500 24.05300 39.97700
H  -9.57100 23.99100 41.11800
H  -11.12700 24.57400 41.58500
H  -14.54800 20.75800 42.34800
H  -14.65300 20.66600 40.65600
H  -15.57700 21.88500 41.48800
H  -13.44100 16.60400 41.37500
H  -12.40300 14.82300 43.62500
H  -14.49700 15.99600 43.80000
H  -15.16100 16.92500 42.42500
H  -14.57500 17.77900 43.71900
H  -10.92100 14.26400 41.32100
H  -12.39500 14.83400 40.61500
H  -13.50300 12.90100 41.17000
H  -12.93800 13.02200 42.81000
H  -11.98300 12.17500 41.59900
H  -6.42600 13.07800 44.30800
H  -6.87000 12.70800 42.64000
H  -8.15000 12.86900 43.79000
H  -3.43000 17.29100 42.71600
H  -2.46800 18.96800 46.56900
H  -2.80600 17.44200 47.29300
H  -3.78500 18.67100 47.73000

