158

Mg 2.61200 -1.52900 43.81600
C  6.12700 -0.72800 43.32100
C  1.85300 1.16600 41.87700
C  -0.55200 -2.56600 43.80600
C  3.78700 -4.57500 45.15000
N  3.87900 -0.04800 42.71600
C  5.25700 0.16200 42.67200
C  5.63800 1.47100 42.01200
C  4.26300 2.12700 41.74100
C  3.22700 1.01000 42.08100
C  4.15600 3.61500 42.46500
C  6.43300 1.22400 40.69900
C  7.76500 1.94300 40.51500
H  8.32200 2.23100 39.16100
N  0.87600 -0.72400 43.07300
C  0.79600 0.33600 42.30100
C  -0.63000 0.68000 42.07400
C  -1.38200 -0.39500 42.70300
C  -0.34200 -1.31000 43.20500
C  -1.08100 1.87500 41.27300
C  -2.92800 -0.47900 42.68500
O  -3.69700 0.43600 42.45200
C  -3.63900 -1.74500 43.02500
N  1.76200 -3.42300 44.15800
C  0.43000 -3.45000 44.27500
C  0.08800 -4.91200 44.95100
C  1.48000 -5.48600 45.43300
C  2.36400 -4.36600 44.93200
C  -1.10100 -5.13100 45.94200
C  1.77000 -6.85400 44.73800
C  2.41400 -7.96000 45.69600
N  4.56700 -2.49800 44.27900
C  4.82700 -3.71300 44.89100
C  6.25600 -3.88100 45.04100
C  6.81100 -2.72500 44.44800
C  5.72100 -1.94600 43.95700
C  6.99900 -5.02300 45.61400
C  8.07800 -2.00700 44.11000
O  9.22400 -2.37000 44.30600
C  7.67200 -0.65400 43.45000
C  7.99500 0.42200 44.33900
O  8.04500 0.36600 45.57000
O  8.36100 1.54700 43.58500
C  8.79700 2.78100 44.40900
H  1.59000 2.02000 41.24900
H  -1.53300 -3.00100 44.01100
H  3.92800 -5.52900 45.66300
H  6.23300 2.00000 42.75600
H  4.13200 2.26000 40.66700
H  4.15900 4.39800 41.70700
H  4.97500 3.90200 43.12500
H  3.23200 3.61100 43.04400
H  5.89400 1.32300 39.75700
H  6.68300 0.16500 40.64500
H  8.46700 1.23700 40.96000
H  7.72100 2.86600 41.09400
H  -0.74100 1.78100 40.24200
H  -0.59800 2.78200 41.63700
H  -2.15400 2.05300 41.34200
H  -4.70600 -1.72700 42.80500
H  -3.44000 -1.99600 44.06700
H  -3.29900 -2.54000 42.36100
H  -0.18900 -5.43900 44.03800
H  1.43500 -5.39500 46.51800
H  -0.64700 -5.74500 46.72000
H  -1.98500 -5.56100 45.47200
H  -1.38400 -4.19500 46.42600
H  2.47700 -6.66000 43.93200
H  0.86500 -7.30500 44.33200
H  2.76600 -7.35400 46.53100
H  3.36200 -8.32400 45.30000
H  1.71900 -8.77500 45.89800
H  7.97100 -4.91700 45.13200
H  6.50100 -5.95500 45.34600
H  7.00600 -4.78100 46.67700
H  8.17700 -0.58300 42.48700
H  7.93800 3.42200 44.60800
H  9.55100 3.31900 43.83500
H  9.30200 2.44600 45.31500
Mg 17.53700 -0.58600 27.95900
C  16.38800 1.63200 30.48100
C  19.16800 -2.42700 30.32500
C  18.85600 -2.47200 25.49800
C  15.94700 1.51300 25.58700
N  17.74000 -0.41200 30.13600
C  17.18500 0.54800 30.96100
C  17.48900 0.25100 32.38700
C  18.64200 -0.82500 32.23700
C  18.64100 -1.21400 30.78700
C  20.03600 -0.28600 32.57400
C  16.24200 -0.13000 33.21200
C  16.48300 -0.02500 34.78700
H  17.84100 0.50900 35.35800
N  18.84700 -2.22000 27.91600
C  19.26500 -2.92200 29.00800
C  19.96700 -4.16600 28.65400
C  19.99200 -4.14600 27.22800
C  19.23000 -2.94300 26.77100
C  20.53300 -5.21900 29.69200
C  20.59500 -5.15400 26.23000
O  20.66800 -4.89300 25.05300
C  21.04800 -6.52700 26.71700
N  17.40200 -0.55400 25.87400
C  18.10000 -1.36100 25.07100
C  18.03700 -0.84300 23.60600
C  17.02100 0.26000 23.68500
C  16.68000 0.39900 25.13500
C  19.39600 -0.55200 22.89600
C  15.75400 0.27200 22.78700
C  14.45200 -0.51400 23.24400
N  16.31500 1.12600 27.97600
C  15.73400 1.85300 26.93200
C  14.92400 2.98200 27.49100
C  15.19800 2.89800 28.93500
C  16.02200 1.80400 29.13700
C  14.05400 3.94300 26.62100
C  14.97900 3.57400 30.15600
O  14.37400 4.55700 30.40800
C  15.65900 2.68600 31.22600
C  16.61800 3.49700 32.03000
O  17.68700 3.87000 31.70200
O  16.04300 3.90100 33.18900
C  16.81000 4.71900 34.05100
H  19.59200 -2.93400 31.19400
H  19.18000 -2.88600 24.54000
H  15.54100 2.22400 24.86400
H  17.84000 1.12500 32.93500
H  18.37400 -1.67800 32.86100
H  19.97600 0.70000 33.03500
H  20.69200 -0.33500 31.70400
H  20.42600 -1.01400 33.28500
H  15.85800 -1.09900 32.89300
H  15.58100 0.71300 33.01200
H  16.41100 -1.06000 35.12200
H  15.63000 0.54300 35.15900
H  19.80500 -6.02100 29.56300
H  20.43700 -4.85500 30.71500
H  21.54600 -5.53800 29.44500
H  20.26100 -6.98300 27.31800
H  21.91600 -6.43600 27.36900
H  21.18000 -7.12700 25.81700
H  17.59300 -1.66200 23.04100
H  17.48700 1.16800 23.30200
H  19.35900 0.22000 22.12800
H  19.72700 -1.47800 22.42500
H  20.13400 -0.24600 23.63800
H  16.01300 -0.19100 21.83500
H  15.38700 1.28500 22.61900
H  13.78600 0.30500 23.51600
H  14.64400 -1.20500 24.06600
H  13.97400 -1.06200 22.43200
H  13.81600 3.46800 25.66900
H  14.64100 4.78500 26.25600
H  13.19200 4.26000 27.20700
H  14.78600 2.52700 31.85800
H  16.63700 5.74000 33.71100
H  17.80600 4.28800 34.16000
H  16.33300 4.56000 35.01800

