158

Mg 17.25100 -1.87000 28.15400
C  15.79100 0.08000 30.93700
C  19.03800 -3.58900 30.36800
C  18.78900 -3.27400 25.56000
C  15.41700 0.29700 25.95200
N  17.34300 -1.70200 30.43100
C  16.70800 -0.93500 31.39600
C  17.09100 -1.37500 32.80700
C  18.12100 -2.58300 32.52900
C  18.17000 -2.66200 31.01700
C  19.55900 -2.43500 33.10000
C  15.88100 -1.89200 33.67500
C  16.15900 -2.17800 35.10100
H  17.46000 -1.73600 35.76200
N  18.60800 -3.29100 27.98400
C  19.27200 -3.88500 29.01300
C  20.11300 -4.94200 28.50900
C  19.97600 -4.93000 27.08600
C  19.12400 -3.81100 26.84300
C  20.90400 -5.85100 29.33300
C  20.67800 -5.66500 26.03400
O  20.40600 -5.56900 24.83500
C  21.91000 -6.57300 26.38900
N  16.92600 -1.62500 25.99400
C  17.82600 -2.28800 25.14900
C  17.65900 -1.70400 23.65500
C  16.45500 -0.78000 23.82400
C  16.19000 -0.66300 25.31600
C  19.05500 -1.08000 23.04900
C  15.17200 -1.19100 23.14700
C  15.29400 -1.15000 21.60500
N  15.84000 -0.25500 28.33400
C  15.23100 0.52300 27.33800
C  14.50000 1.55300 27.98400
C  14.61100 1.38400 29.33400
C  15.55500 0.37800 29.54100
C  13.60300 2.59400 27.31100
C  14.08100 1.91200 30.59900
O  13.22200 2.74600 30.79800
C  14.96900 1.19600 31.67000
C  15.85100 2.18200 32.24900
O  16.84800 2.69500 31.74700
O  15.50900 2.14500 33.55600
C  16.38500 2.82700 34.48200
H  19.65400 -4.14300 31.07900
H  19.33400 -3.64500 24.69000
H  15.13800 1.22200 25.44400
H  17.56200 -0.54100 33.32700
H  17.68700 -3.43200 33.05600
H  19.69000 -1.60700 33.79600
H  20.23300 -2.25800 32.26200
H  19.86500 -3.37500 33.55900
H  15.34500 -2.68600 33.15400
H  15.06200 -1.17200 33.68100
H  15.92800 -3.22800 35.28400
H  15.39500 -1.58400 35.60400
H  20.72200 -5.58600 30.37400
H  21.94300 -5.60400 29.11200
H  20.60600 -6.82200 28.93900
H  22.45500 -6.28500 27.28700
H  22.60400 -6.47300 25.55500
H  21.53700 -7.59200 26.50100
H  17.40300 -2.54600 23.01200
H  16.58400 0.28500 23.63100
H  19.82800 -1.25200 23.79700
H  18.87800 -0.02200 22.85700
H  19.37800 -1.61700 22.15700
H  14.42000 -0.47900 23.48700
H  15.02300 -2.20800 23.51000
H  14.30000 -0.98300 21.18900
H  15.72400 -2.05800 21.18300
H  15.89500 -0.29400 21.29600
H  13.53100 3.46100 27.96900
H  12.58000 2.22100 27.26700
H  14.08700 2.93200 26.39400
H  14.35000 0.68800 32.40900
H  16.09900 3.86100 34.67500
H  17.36800 3.06900 34.07900
H  16.48600 2.25500 35.40400
Mg 35.98500 49.08100 24.38900
C  35.97800 47.47800 27.56300
C  34.33700 51.70600 26.14400
C  35.38900 50.46700 21.40600
C  37.06500 46.07600 23.08300
N  35.19300 49.55200 26.61400
C  35.48800 48.79400 27.69500
C  35.10700 49.59600 28.96900
C  34.40500 50.88100 28.52400
C  34.63400 50.72100 27.04800
C  32.91000 51.03500 28.84900
C  36.36700 49.83200 29.92700
C  36.05800 49.86200 31.41500
H  34.52900 49.80100 31.87500
N  35.19300 50.88500 23.83600
C  34.56300 51.82100 24.73500
C  34.13200 52.95200 23.89900
C  34.37300 52.66500 22.55400
C  35.01000 51.27900 22.49600
C  33.44400 54.25100 24.42900
C  34.06900 53.49700 21.29200
O  34.27700 52.97300 20.13400
C  33.83200 54.92000 21.32800
N  36.30400 48.48200 22.56200
C  35.98000 49.19700 21.43700
C  36.42500 48.45200 20.18100
C  37.21400 47.21600 20.72100
C  36.85800 47.19200 22.22100
C  35.34200 48.18100 19.06000
C  38.69900 46.99500 20.31500
C  39.70900 47.93000 21.06100
N  36.54100 47.13000 25.11300
C  36.99100 45.99700 24.50400
C  37.19200 44.93800 25.37300
C  36.87500 45.48100 26.61200
C  36.38800 46.76600 26.39600
C  37.65600 43.50900 25.03500
C  36.85300 45.16400 28.00200
O  37.12000 44.09400 28.58300
C  36.40200 46.45500 28.70400
C  35.27600 46.16000 29.59900
O  34.09200 46.01900 29.24900
O  35.72700 46.02500 30.94300
C  34.92900 45.13400 31.72300
H  33.71800 52.53100 26.50400
H  35.11300 50.60300 20.35800
H  37.59800 45.18100 22.75700
H  34.45400 48.95900 29.56500
H  34.99800 51.71700 28.89400
H  32.28800 51.01300 27.95400
H  32.72900 51.98100 29.36000
H  32.68900 50.25700 29.57900
H  36.85300 50.74700 29.58900
H  37.05500 49.06000 29.58000
H  36.51900 50.76200 31.82200
H  36.44900 49.01200 31.97300
H  34.22700 55.00800 24.47900
H  33.12700 54.17700 25.47000
H  32.49700 54.54500 23.97700
H  32.97000 55.16400 21.95000
H  33.75600 55.21400 20.28100
H  34.75800 55.34800 21.71200
H  37.20100 49.06000 19.71400
H  36.68000 46.32800 20.38100
H  34.54800 48.92700 19.11000
H  34.81800 47.25500 19.29600
H  35.86300 48.21800 18.10400
H  38.84000 47.16800 19.24800
H  39.09300 45.98000 20.36800
H  39.03800 48.69100 21.45800
H  40.48700 48.39700 20.45800
H  40.07200 47.34600 21.90700
H  37.62100 43.22400 23.98300
H  36.94700 42.80900 25.47700
H  38.64600 43.34800 25.46200
H  37.30900 46.61400 29.28600
H  34.92300 44.13100 31.29600
H  33.89300 45.47100 31.75900
H  35.24200 45.14500 32.76700

