158

Mg 46.89400 17.14000 28.26100
C  44.86400 16.75000 31.24600
C  48.93000 19.16200 30.10800
C  48.47500 17.86100 25.38800
C  44.29800 15.48700 26.44000
N  46.92700 17.82800 30.45700
C  46.09800 17.51400 31.49200
C  46.60200 17.99800 32.85300
C  47.82100 18.93000 32.43800
C  47.90100 18.63800 30.91300
C  47.67400 20.47000 32.71500
C  46.93900 16.78900 33.74400
C  46.26400 16.64500 35.07300
H  46.02900 18.02700 35.81400
N  48.55000 18.27900 27.78600
C  49.24800 19.06300 28.70900
C  50.30400 19.77500 27.92400
C  50.15600 19.41200 26.59300
C  49.11300 18.42700 26.54600
C  51.18200 20.74600 28.56300
C  50.85700 19.87300 25.28800
O  50.65500 19.39400 24.20300
C  51.93600 21.01900 25.32200
N  46.59400 16.56300 26.25300
C  47.36400 17.01700 25.25000
C  46.76500 16.72900 23.83600
C  45.36600 16.14400 24.21400
C  45.44100 15.93900 25.72900
C  46.60200 18.04900 22.99500
C  45.00400 14.86800 23.48300
C  44.85400 14.93100 22.00100
N  45.00200 16.37600 28.65000
C  44.10400 15.63600 27.85600
C  42.94900 15.26200 28.62300
C  43.25700 15.61900 29.94800
C  44.46600 16.33300 29.95600
C  41.78200 14.46600 28.02500
C  42.77700 15.47900 31.29800
O  41.77300 14.90500 31.78800
C  43.78300 16.32600 32.17200
C  43.08000 17.47900 32.71500
O  43.13200 18.63100 32.30100
O  42.60700 17.09400 33.96300
C  42.14600 18.17000 34.86500
H  49.63200 19.64200 30.79300
H  48.76300 18.19100 24.38800
H  43.43100 15.14400 25.87200
H  45.79900 18.63300 33.22700
H  48.72700 18.67900 32.98900
H  46.60500 20.66400 32.79300
H  48.16700 21.14800 32.01800
H  48.25000 20.72000 33.60600
H  48.01200 16.71500 33.92200
H  46.66700 15.84600 33.27000
H  46.83900 16.02800 35.76400
H  45.31100 16.12500 34.97100
H  50.83800 21.19300 29.49500
H  51.25800 21.59400 27.88300
H  52.13600 20.25200 28.75100
H  51.63500 21.97100 25.75900
H  52.14700 21.38800 24.31900
H  52.83400 20.69600 25.85000
H  47.27700 15.86500 23.41500
H  44.61800 16.93300 24.13900
H  47.08500 17.88400 22.03100
H  47.00200 18.86900 23.59200
H  45.56700 18.32100 22.78800
H  44.00800 14.58600 23.82300
H  45.71600 14.06900 23.69000
H  45.77800 14.51800 21.59500
H  44.81500 15.97900 21.70500
H  43.90400 14.55100 21.62500
H  41.99500 13.40100 28.11200
H  41.67200 14.69500 26.96500
H  40.85800 14.66700 28.56700
H  44.12100 15.62200 32.93300
H  41.14900 18.50600 34.58000
H  42.77600 19.05800 34.82500
H  42.07100 17.74000 35.86400
Mg 49.94600 44.42500 43.45800
C  46.81100 45.21300 41.96900
C  49.55100 41.21300 42.59700
C  53.09900 43.88000 44.44500
C  50.37200 47.87800 43.94100
N  48.30700 43.32400 42.47000
C  47.23000 43.83800 41.74000
C  46.35000 42.66200 41.19000
C  47.24600 41.42300 41.42200
C  48.44200 41.97000 42.20200
C  46.59000 40.07300 42.06800
C  45.77300 42.71700 39.69900
C  46.30400 43.64300 38.57700
H  46.64100 42.96500 37.23800
N  51.14600 42.82300 43.52900
C  50.81700 41.54800 43.16400
C  51.91100 40.62600 43.28000
C  52.98700 41.37900 43.78300
C  52.39900 42.74900 44.02400
C  51.88200 39.23200 42.85500
C  54.45800 40.89000 43.87300
O  54.73000 39.75600 43.52800
C  55.65400 41.72600 44.33200
N  51.49500 45.70300 44.24100
C  52.75200 45.21000 44.49200
C  53.79300 46.35900 44.77400
C  52.90400 47.65500 44.60600
C  51.49100 47.08700 44.23000
C  54.53600 46.19700 46.10500
C  53.38500 48.69200 43.55400
C  53.95200 50.06100 44.12900
N  48.81100 46.18400 43.24100
C  49.11800 47.46700 43.50500
C  48.00900 48.39100 43.11300
C  47.06800 47.51400 42.61400
C  47.59400 46.21100 42.61700
C  48.05500 49.83700 43.21600
C  45.76400 47.47200 42.01700
O  44.96800 48.39200 41.80400
C  45.58300 45.99600 41.48500
C  44.33600 45.32200 41.84900
O  43.44900 45.07000 40.98000
O  44.33800 45.19600 43.21300
C  42.99900 44.69500 43.71600
H  49.50800 40.20500 42.18000
H  54.11700 43.64000 44.75800
H  50.54300 48.95200 44.04300
H  45.56600 42.59300 41.94400
H  47.75700 41.32200 40.46500
H  46.47300 39.29400 41.31500
H  45.63700 40.33700 42.52700
H  47.25900 39.73100 42.85700
H  44.71600 42.90300 39.88900
H  45.90700 41.71100 39.30000
H  47.17600 44.17100 38.96100
H  45.56100 44.42600 38.42900
H  51.81200 39.04600 41.78300
H  50.95400 38.76200 43.18000
H  52.70500 38.59200 43.17500
H  55.76600 42.54100 43.61800
H  56.55700 41.13100 44.19900
H  55.41300 42.14100 45.31100
H  54.62700 46.30500 44.07400
H  52.75900 47.98100 45.63600
H  54.81000 45.18400 46.40000
H  53.73400 46.48000 46.78700
H  55.36400 46.90000 46.19800
H  52.63800 48.83700 42.77400
H  54.16600 48.30800 42.89700
H  54.93800 50.21000 43.68900
H  54.14400 50.03600 45.20100
H  53.30000 50.91600 43.95300
H  48.19900 50.09100 44.26600
H  47.09300 50.22500 42.88300
H  48.93800 50.21600 42.70000
H  45.58600 46.08400 40.39900
H  42.39800 45.38900 44.30300
H  43.28300 43.96800 44.47700
H  42.35200 44.28900 42.93900

