158

Mg 49.80200 45.24300 43.28700
C  46.48400 45.57800 42.32400
C  49.64900 42.00000 42.26000
C  53.04900 45.12500 44.01200
C  49.79600 48.77800 43.81700
N  48.16800 43.93000 42.50000
C  46.89200 44.24700 42.19200
C  46.09400 43.02700 41.62700
C  47.11600 41.91300 41.89400
C  48.40400 42.62600 42.20500
C  46.64000 40.92900 42.95100
C  45.73500 43.28900 40.09100
C  47.06300 43.52000 39.23800
H  47.17900 42.87100 37.87300
N  51.21700 43.78800 43.13800
C  50.95700 42.51700 42.68400
C  52.20700 41.77600 42.61500
C  53.21600 42.67900 43.11400
C  52.53700 43.96700 43.49900
C  52.24300 40.21500 42.32400
C  54.67000 42.30800 43.23200
O  55.06500 41.24100 42.79900
C  55.65500 43.23100 43.82200
N  51.23300 46.76200 43.76000
C  52.51500 46.37800 44.17200
C  53.35400 47.63300 44.36000
C  52.32000 48.85300 44.31400
C  51.00600 48.08300 43.95000
C  54.33900 47.71400 45.54700
C  52.69400 49.86300 43.18500
C  52.69900 51.32000 43.55700
N  48.42000 46.85100 43.35500
C  48.56200 48.25200 43.50500
C  47.35000 48.95400 43.25900
C  46.50200 47.91400 42.83500
C  47.24100 46.68500 42.83000
C  47.12700 50.45000 43.36700
C  45.19200 47.73700 42.23300
O  44.32900 48.51000 41.95200
C  45.13300 46.24100 41.88200
C  43.91500 45.67700 42.46700
O  42.75600 45.74400 42.06600
O  44.28500 45.00100 43.61800
C  43.22000 44.29900 44.36400
H  49.79400 40.96700 41.93500
H  54.11500 45.20000 44.23800
H  49.84200 49.86000 43.95500
H  45.15600 42.92900 42.17300
H  47.20000 41.31600 40.98600
H  47.30700 40.94300 43.81300
H  46.59600 39.93800 42.50000
H  45.67400 41.22800 43.35900
H  45.05900 44.14400 40.12400
H  45.39700 42.34300 39.66700
H  47.98200 43.32500 39.79100
H  46.95500 44.58600 39.03900
H  51.70200 39.96900 41.41000
H  51.82200 39.72300 43.20100
H  53.20300 39.70900 42.22100
H  55.76900 44.10600 43.18000
H  56.59800 42.68600 43.77100
H  55.32700 43.41400 44.84500
H  53.88800 47.60000 43.41000
H  52.22700 49.39100 45.25700
H  54.34300 46.93000 46.30400
H  54.31200 48.57200 46.21800
H  55.31700 47.58200 45.08300
H  52.13700 49.75100 42.25500
H  53.73400 49.69000 42.91000
H  53.62500 51.78900 43.22600
H  52.41800 51.49600 44.59600
H  51.87300 51.77200 43.00900
H  46.16000 50.70500 42.93500
H  47.92500 51.08200 42.97800
H  46.98200 50.69000 44.42000
H  44.91100 46.31300 40.81800
H  42.46300 43.83700 43.72900
H  42.72900 45.11900 44.88800
H  43.61700 43.60600 45.10500
Mg -12.76100 16.11800 41.87700
C  -9.72300 14.41100 41.49500
C  -11.19500 18.93200 40.65300
C  -15.74000 17.42700 41.48300
C  -14.22700 13.00100 42.68500
N  -10.76000 16.54900 41.02700
C  -9.68800 15.70300 41.03200
C  -8.39600 16.45000 40.57500
C  -8.81000 18.00800 40.71600
C  -10.35800 17.85900 40.82600
C  -8.16100 18.70200 41.92600
C  -7.85200 16.20400 39.08200
C  -6.33500 16.18200 39.00900
H  -5.77100 16.92200 37.80400
N  -13.45600 17.98100 41.06600
C  -12.64100 19.06100 40.77000
C  -13.43300 20.24900 40.53100
C  -14.79700 19.80200 40.67900
C  -14.75400 18.33500 41.12500
C  -12.88200 21.63800 40.05900
C  -16.06300 20.71100 40.62000
O  -16.07100 21.92000 40.25100
C  -17.42200 20.10000 40.88000
N  -14.64100 15.28600 42.04500
C  -15.68300 16.10300 41.95500
C  -16.97800 15.45100 42.29900
C  -16.50500 13.99300 42.61900
C  -15.05500 14.03300 42.41300
C  -17.70900 16.08300 43.46000
C  -17.21800 12.83600 41.70500
C  -17.95300 11.83700 42.57900
N  -12.12900 14.12600 42.14800
C  -12.83000 12.95000 42.47700
C  -11.90700 11.87800 42.68400
C  -10.65700 12.41600 42.35600
C  -10.85600 13.72000 41.95400
C  -12.12700 10.51900 43.22000
C  -9.24100 12.15200 42.28000
O  -8.56500 11.15300 42.50700
C  -8.56700 13.44200 41.66000
C  -7.44300 13.89300 42.56200
O  -7.59500 14.45400 43.65600
O  -6.27200 13.88000 41.82900
C  -5.12600 14.53500 42.45900
H  -10.72400 19.85400 40.30400
H  -16.76900 17.79100 41.44400
H  -14.75700 12.09100 42.97200
H  -7.60900 16.11700 41.25200
H  -8.60000 18.67400 39.87900
H  -8.66900 18.62900 42.88800
H  -8.04100 19.74700 41.64200
H  -7.18000 18.23300 41.99700
H  -8.30400 16.90700 38.38200
H  -8.20500 15.21400 38.79400
H  -6.07000 15.12500 39.03200
H  -5.83500 16.52300 39.91500
H  -13.42400 21.86700 39.14200
H  -11.80600 21.66800 39.88700
H  -13.18300 22.43200 40.74200
H  -18.15400 20.88800 40.70300
H  -17.38100 19.85100 41.94000
H  -17.72200 19.31000 40.19200
H  -17.71700 15.47000 41.49900
H  -16.62000 13.67800 43.65600
H  -17.27700 15.87200 44.43900
H  -18.78500 15.92800 43.39000
H  -17.47100 17.13800 43.59600
H  -16.40000 12.26400 41.26700
H  -17.79000 13.27200 40.88700
H  -18.90100 11.62600 42.08400
H  -18.24600 12.25700 43.54000
H  -17.42600 10.88900 42.69300
H  -12.29700 10.50100 44.29600
H  -11.24700 9.89100 43.07900
H  -13.00200 10.03900 42.78100
H  -8.14800 13.17800 40.68900
H  -5.17100 15.61600 42.32900
H  -4.20700 14.15800 42.00900
H  -4.91500 14.28200 43.49800

