158

Mg 24.30300 -5.47800 45.69800
C  26.52900 -3.25000 44.19100
C  21.88300 -4.52500 43.45200
C  22.46100 -8.13700 46.58400
C  27.10200 -6.74100 47.58400
N  24.18700 -3.98200 44.04400
C  25.30900 -3.29600 43.54000
C  24.87200 -2.46900 42.30700
C  23.32200 -2.78300 42.16600
C  23.07900 -3.85300 43.29200
C  22.36100 -1.63300 42.52000
C  25.68100 -2.82600 40.98000
C  26.27900 -1.57800 40.24500
H  25.79900 -1.19000 38.89500
N  22.35300 -6.06300 45.26600
C  21.52700 -5.60900 44.26900
C  20.25300 -6.40000 44.35400
C  20.40200 -7.29800 45.32100
C  21.74400 -7.16500 45.78200
C  19.10500 -6.20800 43.42100
C  19.32800 -8.29400 45.75600
O  18.22500 -8.29300 45.22300
C  19.49400 -9.39600 46.88500
N  24.76000 -7.20000 46.88700
C  23.83100 -8.23100 47.00500
C  24.46900 -9.48000 47.60600
C  25.78800 -8.90300 48.25300
C  25.96600 -7.58900 47.49700
C  23.64300 -10.16800 48.80500
C  27.04600 -9.86800 48.11200
C  27.65100 -10.40600 49.40700
N  26.36700 -5.06600 46.00000
C  27.33700 -5.51000 46.87000
C  28.58000 -4.86300 46.57200
C  28.26300 -3.98000 45.54400
C  26.91500 -4.11500 45.24600
C  29.86100 -5.22900 47.12200
C  28.84400 -3.00300 44.68900
O  30.06100 -2.69700 44.60100
C  27.68700 -2.44200 43.83900
C  27.69400 -0.94600 44.12000
O  27.20000 -0.42400 45.10400
O  28.38600 -0.25700 43.14200
C  28.80900 1.12900 43.29600
H  21.15400 -4.29900 42.67100
H  21.86700 -9.04400 46.71300
H  28.02500 -7.06000 48.07200
H  25.06000 -1.42300 42.55000
H  23.10600 -3.15200 41.16300
H  22.69400 -0.69500 42.07400
H  22.41500 -1.38400 43.57900
H  21.40000 -1.92300 42.09600
H  25.08900 -3.37800 40.25000
H  26.48700 -3.45400 41.36000
H  27.35900 -1.70400 40.16900
H  26.02500 -0.78600 40.95100
H  18.99500 -7.11900 42.83400
H  19.43500 -5.38400 42.78800
H  18.26500 -5.87000 44.02700
H  18.47500 -9.48000 47.26200
H  20.07700 -8.92800 47.67900
H  19.84900 -10.37300 46.55800
H  24.81200 -10.09200 46.77200
H  25.61600 -8.70600 49.31100
H  23.15800 -11.10700 48.53700
H  22.96200 -9.37900 49.12500
H  24.33700 -10.31400 49.63200
H  27.80900 -9.41500 47.48000
H  26.75200 -10.71900 47.49800
H  27.45300 -9.79000 50.28400
H  28.70200 -10.67500 49.30600
H  27.20800 -11.32300 49.79500
H  29.85700 -4.87300 48.15200
H  30.66800 -4.62400 46.70900
H  30.14100 -6.26700 46.93900
H  28.04900 -2.59000 42.82100
H  27.95900 1.74200 42.99300
H  29.62400 1.43100 42.63900
H  29.17800 1.61100 44.20000
Mg 35.48700 49.12000 26.47500
C  35.83200 46.77100 29.05800
C  34.34200 51.41500 28.70300
C  34.47200 50.98500 23.82900
C  36.03800 46.49900 24.28700
N  35.06500 49.01500 28.67400
C  35.48200 48.03500 29.51900
C  35.41400 48.52100 30.94300
C  34.61700 49.91700 30.84400
C  34.61800 50.13900 29.30500
C  33.23200 50.09000 31.43000
C  36.79700 48.70600 31.63600
C  36.80300 48.30800 33.15800
H  36.69200 49.43100 34.24600
N  34.67700 50.98900 26.31000
C  34.35000 51.79400 27.29500
C  33.85000 53.06800 26.75800
C  33.96400 53.01500 25.34100
C  34.43300 51.65300 25.08700
C  33.12300 54.15700 27.60800
C  33.54600 54.12500 24.29600
O  33.36600 53.90000 23.10400
C  33.18000 55.48000 24.81900
N  35.40200 48.78000 24.42600
C  34.83500 49.70400 23.53400
C  34.84400 49.18000 22.04700
C  35.57000 47.80100 22.23800
C  35.72000 47.68500 23.74600
C  33.44200 49.14100 21.28100
C  36.88700 47.54200 21.47200
C  36.78000 46.64300 20.17000
N  35.89200 47.09300 26.56800
C  36.14900 46.10400 25.59200
C  36.58100 44.83800 26.16500
C  36.48000 45.03900 27.55100
C  36.05900 46.43300 27.70100
C  36.89200 43.61700 25.36000
C  36.62100 44.52100 28.93400
O  36.89900 43.40600 29.34200
C  36.33900 45.68800 29.90000
C  35.28700 45.30900 30.92200
O  34.08100 45.22100 30.87700
O  35.96400 44.95100 32.07200
C  35.18700 44.69400 33.24400
H  34.05600 52.25000 29.34600
H  33.92900 51.62600 23.13100
H  36.18900 45.58300 23.71100
H  34.83500 47.81200 31.53400
H  35.25300 50.62700 31.37400
H  33.16000 50.95700 32.08600
H  32.85700 49.18400 31.90400
H  32.52300 50.38600 30.65600
H  37.01900 49.77200 31.57600
H  37.56100 48.22700 31.02200
H  37.72300 47.73900 33.29100
H  35.92900 47.67000 33.29000
H  33.62900 55.12200 27.62400
H  33.06400 53.83300 28.64700
H  32.09800 54.28900 27.26000
H  33.02200 56.15800 23.98100
H  34.15000 55.78700 25.21000
H  32.39700 55.49700 25.57700
H  35.49100 49.86100 21.49400
H  34.87700 47.01100 21.94700
H  32.69200 49.69500 21.84700
H  33.00200 48.16900 21.06000
H  33.56500 49.79400 20.41700
H  37.58000 47.20900 22.24500
H  37.32100 48.46600 21.09100
H  37.85700 46.52500 20.05000
H  36.35800 47.10600 19.27800
H  36.43300 45.61000 20.19400
H  37.77200 43.85600 24.76300
H  36.12400 43.22100 24.69700
H  37.20100 42.72700 25.90900
H  37.25400 46.01500 30.39400
H  34.35900 45.39300 33.36300
H  35.82100 44.57200 34.12200
H  34.74500 43.70000 33.17800

