158

Mg 23.83400 -6.21200 45.49300
C  25.77200 -3.52500 44.02200
C  21.21600 -5.01800 43.44900
C  22.09600 -8.90500 46.12200
C  26.73800 -7.54600 46.76900
N  23.59600 -4.47300 43.88200
C  24.46900 -3.48200 43.60300
C  23.95200 -2.64700 42.42600
C  22.39200 -2.98700 42.43200
C  22.41100 -4.29900 43.25900
C  21.35900 -1.97700 42.99100
C  24.66000 -2.83900 41.08000
C  25.16000 -1.64700 40.20700
H  25.03600 -1.65900 38.73100
N  21.84900 -6.73100 45.15600
C  20.93300 -6.13500 44.29800
C  19.70200 -6.82400 44.28700
C  19.86100 -7.98900 45.06000
C  21.28400 -7.93600 45.51600
C  18.53500 -6.38600 43.39400
C  18.88700 -9.17100 45.22800
O  17.84400 -9.25100 44.58000
C  19.05800 -10.19900 46.38100
N  24.36400 -7.94800 46.46000
C  23.44100 -8.94900 46.51000
C  24.06000 -10.22000 47.03100
C  25.54800 -9.79100 47.37600
C  25.58600 -8.32700 46.93000
C  23.24900 -10.83600 48.21400
C  26.58400 -10.66800 46.60200
C  27.97700 -10.86400 47.34800
N  25.85200 -5.62400 45.56200
C  26.89500 -6.24400 46.21500
C  28.05400 -5.30300 46.17200
C  27.61900 -4.24600 45.33300
C  26.31200 -4.50800 44.90200
C  29.48100 -5.49900 46.68900
C  28.03500 -3.05300 44.63900
O  29.16100 -2.60600 44.58300
C  26.89200 -2.60600 43.65800
C  26.65400 -1.14400 43.81500
O  26.00500 -0.54100 44.69900
O  27.50300 -0.50000 42.89800
C  27.79700 0.88600 43.00300
H  20.39400 -4.63800 42.83900
H  21.56700 -9.85500 46.22100
H  27.66400 -7.92300 47.20800
H  24.10300 -1.62300 42.76500
H  22.09500 -3.25000 41.41600
H  21.70700 -0.94400 43.01800
H  20.85300 -2.21700 43.92600
H  20.54300 -2.03700 42.27100
H  23.97200 -3.39200 40.44100
H  25.50600 -3.48700 41.30900
H  26.20500 -1.49200 40.47400
H  24.65900 -0.77100 40.62000
H  18.69100 -6.49200 42.32100
H  18.31700 -5.36100 43.69600
H  17.67200 -6.99300 43.66800
H  19.66900 -9.79000 47.18700
H  19.39000 -11.13200 45.92700
H  18.10200 -10.29600 46.89600
H  23.96500 -10.96200 46.23800
H  25.72500 -9.88600 48.44700
H  23.80100 -10.94300 49.14800
H  22.85200 -11.80800 47.92200
H  22.39800 -10.21400 48.49100
H  26.77100 -10.20500 45.63300
H  26.12800 -11.62400 46.34600
H  28.76100 -10.60600 46.63600
H  28.13600 -11.83400 47.81900
H  27.87000 -10.15500 48.16900
H  30.12800 -4.79900 46.16100
H  29.73800 -6.55700 46.62600
H  29.58800 -5.22000 47.73800
H  27.15400 -2.74200 42.60900
H  27.31800 1.55200 42.28500
H  28.84700 1.08800 42.78900
H  27.56500 1.34900 43.96200
Mg 27.11200 50.75100 25.63600
C  25.02900 51.90900 28.26700
C  29.49700 49.93600 28.15900
C  29.23300 50.23300 23.06900
C  24.97100 52.37700 23.34700
N  27.27900 50.89300 27.95100
C  26.23100 51.34500 28.77200
C  26.61900 51.02400 30.25600
C  28.18000 50.79400 30.20000
C  28.37700 50.52700 28.68900
C  29.15000 51.92100 30.62500
C  25.91400 49.81000 30.99900
C  25.23800 49.98700 32.35800
H  25.97100 50.63600 33.52500
N  29.08800 49.99300 25.63500
C  29.88400 49.65800 26.75700
C  31.03100 49.00100 26.18700
C  30.91500 49.10000 24.74700
C  29.71200 49.81600 24.40700
C  32.15500 48.38000 27.01200
C  31.86400 48.53800 23.64900
O  31.68100 48.74600 22.44200
C  33.09400 47.72000 23.98200
N  27.09900 51.14000 23.56100
C  28.09300 50.88100 22.76400
C  27.84700 51.22600 21.26000
C  26.39300 51.77000 21.39100
C  26.09700 51.76700 22.89400
C  28.90000 52.26000 20.65700
C  25.28400 51.12800 20.52600
C  24.85900 49.72300 20.90300
N  25.36400 51.96900 25.72000
C  24.61000 52.49300 24.70300
C  23.44100 53.14800 25.25900
C  23.53000 52.87000 26.66500
C  24.69800 52.11200 26.90200
C  22.40800 53.82400 24.41700
C  22.90400 53.02800 27.95900
O  21.81400 53.56700 28.21100
C  23.78400 52.20700 29.01200
C  24.00200 53.07100 30.11200
O  24.78800 53.92800 30.19300
O  23.27800 52.58700 31.18600
C  23.57700 53.15400 32.50300
H  30.36200 49.68400 28.77700
H  29.97000 50.09400 22.27500
H  24.34700 52.97100 22.67600
H  26.36900 51.90900 30.84000
H  28.46000 49.90500 30.76600
H  28.61500 52.86200 30.75700
H  29.94400 52.20000 29.93300
H  29.62800 51.78500 31.59600
H  26.52500 48.91100 31.08600
H  25.19500 49.48900 30.24500
H  25.03400 48.95700 32.65100
H  24.29000 50.50400 32.20600
H  32.07900 47.31900 26.77500
H  31.99400 48.46800 28.08700
H  33.13900 48.72300 26.69600
H  33.97400 48.30200 24.25200
H  33.29000 47.07700 23.12400
H  32.76600 47.04200 24.77000
H  27.96200 50.29800 20.69900
H  26.35200 52.83700 21.17300
H  28.37100 53.15200 20.32200
H  29.48100 51.96200 19.78500
H  29.66600 52.43900 21.41100
H  25.72600 51.04800 19.53300
H  24.48300 51.82400 20.27700
H  24.86000 49.07400 20.02700
H  23.90000 49.72200 21.42200
H  25.55500 49.23100 21.58200
H  22.73300 54.86200 24.48600
H  21.48200 53.69900 24.97900
H  22.37900 53.45900 23.39100
H  23.34300 51.27900 29.37500
H  24.54100 53.66300 32.52600
H  23.76000 52.37100 33.24000
H  22.75700 53.79900 32.81900

