158

Mg 30.11900 58.19200 40.33200
C  27.09600 56.44000 39.74200
C  31.81900 55.64500 38.71500
C  32.98600 60.13600 40.32600
C  28.15300 60.97500 41.43400
N  29.52700 56.27600 39.42300
C  28.21600 55.71300 39.33100
C  28.25400 54.43200 38.47500
C  29.77300 54.22200 38.15200
C  30.43800 55.42800 38.79800
C  30.41600 52.82000 38.59400
C  27.31500 54.42700 37.17400
C  27.65800 55.36900 36.02300
H  26.64800 56.29600 35.39900
N  32.11600 57.93300 39.66200
C  32.60300 56.85500 38.94600
C  34.04700 57.04000 38.74800
C  34.42900 58.31200 39.32600
C  33.13000 58.83900 39.81800
C  34.96900 55.95600 38.13700
C  35.86000 58.85600 39.48200
O  36.74900 58.30000 38.84600
C  36.26700 59.96100 40.34900
N  30.48300 60.23600 40.82500
C  31.74000 60.71500 40.81600
C  31.78800 62.16200 41.35700
C  30.33400 62.36300 41.71100
C  29.52000 61.17800 41.18200
C  32.73800 62.25900 42.59900
C  29.74200 63.74500 41.14000
C  29.56500 64.88300 42.10500
N  28.08600 58.60900 40.62700
C  27.44000 59.81100 41.09200
C  26.01300 59.47900 41.15400
C  25.92400 58.23400 40.60300
C  27.16500 57.70300 40.29600
C  24.94000 60.48500 41.61100
C  24.87500 57.28300 40.21300
O  23.67300 57.36200 40.28800
C  25.62100 56.06400 39.54600
C  25.18600 54.85200 40.27600
O  25.39900 54.65100 41.45300
O  24.45300 54.08400 39.44000
C  24.00900 52.77800 39.94100
H  32.23500 54.88800 38.04600
H  33.87200 60.76500 40.21800
H  27.46800 61.74500 41.79500
H  27.91800 53.66700 39.17500
H  29.89100 54.30500 37.07100
H  30.87200 52.23000 37.79800
H  29.61600 52.17700 38.95900
H  31.16200 52.94200 39.37900
H  26.24900 54.59600 37.32100
H  27.31700 53.37500 36.88900
H  27.87300 54.65900 35.22400
H  28.58300 55.91700 36.20200
H  35.67000 55.59400 38.88900
H  35.58300 56.36700 37.33500
H  34.46100 55.06900 37.76000
H  36.22700 60.97700 39.95800
H  37.29300 59.71400 40.62200
H  35.66900 59.81400 41.24900
H  32.18300 62.87200 40.63000
H  30.18600 62.29200 42.78800
H  32.19100 62.29600 43.54100
H  33.34100 63.15400 42.44400
H  33.58200 61.57200 42.66700
H  28.78700 63.53600 40.65800
H  30.38700 64.10800 40.34000
H  30.12300 65.79800 41.90700
H  29.84000 64.52000 43.09600
H  28.51700 65.14700 42.24400
H  25.26800 61.07700 42.46500
H  24.00700 59.93200 41.71700
H  24.77900 61.14500 40.75800
H  25.27900 56.16900 38.51700
H  23.46200 52.93200 40.87200
H  24.88000 52.15000 40.12800
H  23.46000 52.32800 39.11400
Mg -1.61500 34.99400 26.17600
C  -3.48000 33.38500 28.76600
C  -0.55900 37.15400 28.59600
C  -0.00100 36.68500 23.82500
C  -3.39200 33.14100 23.97200
N  -1.93600 35.13300 28.46800
C  -2.77900 34.44200 29.30000
C  -2.77600 34.91800 30.71700
C  -2.01700 36.29700 30.57200
C  -1.43300 36.19900 29.13400
C  -2.90300 37.53200 30.82100
C  -2.14900 33.95400 31.77800
C  -2.96300 33.85600 33.13500
H  -2.30500 33.12600 34.33200
N  -0.38700 36.59700 26.20800
C  -0.06400 37.35200 27.29700
C  0.85500 38.39200 26.87700
C  1.13200 38.20300 25.55500
C  0.26600 37.08300 25.13100
C  1.32200 39.44400 27.86900
C  1.90400 39.03800 24.56900
O  2.30100 38.55600 23.49300
C  2.38700 40.40700 24.97500
N  -1.81500 35.07200 24.12900
C  -0.95900 35.75500 23.32800
C  -1.14800 35.43600 21.86700
C  -2.15800 34.24300 21.95800
C  -2.52100 34.14100 23.43800
C  -1.61300 36.70300 21.02500
C  -1.65300 32.90000 21.31400
C  -0.46400 32.20200 22.01800
N  -3.01400 33.40700 26.22800
C  -3.66500 32.74000 25.24000
C  -4.52500 31.69600 25.77100
C  -4.49700 31.96300 27.17600
C  -3.55500 32.92400 27.40900
C  -5.36500 30.72000 25.08400
C  -5.05800 31.50600 28.39600
O  -5.81000 30.61000 28.70000
C  -4.30700 32.36600 29.51500
C  -5.38300 32.99400 30.24600
O  -5.97200 34.07200 30.01900
O  -5.75000 32.16000 31.30200
C  -6.73700 32.63800 32.25900
H  -0.27700 37.83400 29.40200
H  0.54400 37.04900 22.95100
H  -3.86600 32.46400 23.25700
H  -3.82100 35.10200 30.96500
H  -1.14100 36.41200 31.20900
H  -2.92200 38.16400 29.93300
H  -2.44400 38.20200 31.54800
H  -3.94100 37.33500 31.08900
H  -1.17000 34.31500 32.09600
H  -2.05300 32.97900 31.30100
H  -3.94000 33.43100 32.90200
H  -3.06000 34.88300 33.48600
H  1.27200 39.08600 28.89800
H  0.65400 40.30500 27.85900
H  2.38500 39.68200 27.89100
H  1.61600 40.93600 25.53500
H  2.66100 40.92200 24.05500
H  3.27100 40.14600 25.55800
H  -0.21800 35.02200 21.47900
H  -3.08700 34.58300 21.50000
H  -2.69900 36.76100 21.10900
H  -1.33600 36.61700 19.97500
H  -1.18800 37.61700 21.44000
H  -1.46900 33.17700 20.27600
H  -2.43600 32.14300 21.27200
H  -0.86700 31.30800 22.49400
H  0.04400 32.73700 22.82100
H  0.30200 31.85500 21.32500
H  -5.21500 29.70200 25.44400
H  -5.20500 30.91100 24.02300
H  -6.41100 30.91100 25.32300
H  -3.71600 31.62600 30.05500
H  -6.42700 33.26700 33.09400
H  -7.27800 31.79500 32.69000
H  -7.44300 33.36100 31.85000

