158

Mg 24.18200 -6.87400 46.62800
C  25.85800 -4.20100 45.33700
C  21.50000 -5.98800 44.32600
C  22.68100 -9.85000 47.14900
C  26.85800 -7.84800 48.34700
N  23.75300 -5.27500 44.98800
C  24.63800 -4.25400 44.70600
C  24.03700 -3.35600 43.62400
C  22.51700 -3.80600 43.52600
C  22.58100 -5.08900 44.31900
C  21.45000 -2.73600 43.91800
C  24.86800 -3.48800 42.31100
C  25.14300 -2.20500 41.47900
H  24.65100 -2.17600 40.02200
N  22.25100 -7.82100 45.99300
C  21.32200 -7.30400 45.00200
C  20.16800 -8.15600 45.05000
C  20.46300 -9.21300 45.96600
C  21.81100 -8.99800 46.42000
C  18.93500 -7.91900 44.18200
C  19.49100 -10.33200 46.37200
O  18.40400 -10.45200 45.77300
C  19.84000 -11.32800 47.49600
N  24.66600 -8.59800 47.62200
C  23.83900 -9.62000 47.77300
C  24.42500 -10.63900 48.79000
C  25.82700 -10.05000 49.12600
C  25.77300 -8.72600 48.36000
C  23.53900 -11.01800 49.96200
C  27.13700 -10.92800 48.85700
C  28.03000 -11.16700 50.14500
N  25.99100 -6.26200 46.76300
C  27.05900 -6.70400 47.55300
C  28.10700 -5.71100 47.56800
C  27.68000 -4.74600 46.68500
C  26.37200 -5.11800 46.24000
C  29.31400 -5.76700 48.49200
C  28.02100 -3.43600 46.18500
O  28.90100 -2.62700 46.41800
C  26.85300 -3.06100 45.23500
C  26.35600 -1.79300 45.68400
O  26.87400 -0.71900 45.26900
O  25.17100 -1.90900 46.37300
C  24.73400 -0.68500 47.11300
H  20.61900 -5.77800 43.71500
H  22.28300 -10.84000 47.38200
H  27.68500 -8.09600 49.01500
H  24.01900 -2.29200 43.85700
H  22.27800 -4.07300 42.49700
H  20.88500 -3.11200 44.77000
H  20.73100 -2.58600 43.11300
H  21.84500 -1.80300 44.32100
H  24.37600 -4.18500 41.63300
H  25.80100 -3.99800 42.55200
H  26.22400 -2.27500 41.36400
H  24.99100 -1.29500 42.06100
H  18.83700 -8.78700 43.52900
H  19.02400 -7.11600 43.45100
H  17.98800 -7.82100 44.71300
H  20.40600 -12.07000 46.93200
H  18.94200 -11.79100 47.90600
H  20.40900 -10.78700 48.25300
H  24.55000 -11.59100 48.27600
H  25.75500 -9.81700 50.18900
H  22.73900 -10.28000 50.03200
H  23.99200 -11.05200 50.95200
H  23.13100 -12.00600 49.74900
H  27.82300 -10.52400 48.11300
H  26.70300 -11.86400 48.50500
H  28.00400 -12.23700 50.35300
H  27.66300 -10.66200 51.03800
H  29.05500 -10.82500 50.00100
H  29.35200 -4.83400 49.05500
H  30.21000 -5.87400 47.88100
H  29.12200 -6.56000 49.21400
H  27.18100 -3.02500 44.19600
H  24.07500 -0.07600 46.49400
H  25.59700 -0.06600 47.36000
H  24.28800 -1.00400 48.05500
Mg -4.37100 25.48200 26.21800
C  -2.74500 26.97900 28.96000
C  -5.43000 22.94600 28.32400
C  -5.42900 23.79400 23.54200
C  -2.75100 27.81400 24.12100
N  -4.19700 25.09400 28.39100
C  -3.52900 25.88200 29.32800
C  -3.94400 25.43000 30.67400
C  -4.35100 23.94600 30.43400
C  -4.64800 23.97100 28.91500
C  -3.35100 22.84800 30.88500
C  -5.15600 26.24500 31.29000
C  -5.07700 26.53500 32.76700
H  -4.69600 25.28800 33.66700
N  -5.33000 23.70900 25.94400
C  -5.71200 22.78000 26.95400
C  -6.37800 21.63000 26.27200
C  -6.08600 21.75000 24.91600
C  -5.57200 23.13700 24.76200
C  -6.89100 20.43000 27.07400
C  -6.36700 20.81400 23.83400
O  -5.99000 21.00300 22.67000
C  -7.07200 19.49900 24.09800
N  -4.24100 25.80000 24.19200
C  -4.85100 25.02000 23.31200
C  -4.74600 25.56500 21.86600
C  -3.91200 26.86900 21.95800
C  -3.57200 26.88000 23.50500
C  -4.19600 24.57900 20.82100
C  -4.68100 28.12900 21.55800
C  -4.78700 28.44100 20.05000
N  -3.10100 27.17300 26.49600
C  -2.44500 27.93200 25.53100
C  -1.53400 28.84300 26.18200
C  -1.63100 28.52100 27.52800
C  -2.57900 27.49900 27.65900
C  -0.53700 29.69100 25.40400
C  -1.04000 28.74700 28.85700
O  -0.17300 29.55200 29.14300
C  -1.82000 27.81300 29.82200
C  -0.83100 27.15500 30.81100
O  -0.31700 26.08500 30.65100
O  -0.69900 27.98100 31.88400
C  -0.14100 27.30200 33.05600
H  -5.63200 22.09100 28.97200
H  -5.91600 23.24300 22.73500
H  -2.28900 28.51200 23.42000
H  -3.09200 25.49500 31.35000
H  -5.31000 23.78500 30.92600
H  -2.38000 23.30100 31.08600
H  -3.22200 21.99500 30.22000
H  -3.58300 22.25100 31.76600
H  -6.06600 25.75200 30.94800
H  -5.24200 27.16200 30.70700
H  -6.09400 26.83600 33.01800
H  -4.40900 27.38900 32.87600
H  -7.98000 20.45000 27.03500
H  -6.70300 20.50000 28.14600
H  -6.45200 19.48200 26.76300
H  -6.38800 18.80100 24.57900
H  -7.41100 18.97700 23.20300
H  -7.86700 19.59600 24.83700
H  -5.70800 25.83700 21.43200
H  -2.95000 26.82900 21.44800
H  -3.41400 25.05200 20.22700
H  -4.86200 24.27800 20.01100
H  -3.91200 23.71500 21.42200
H  -4.22700 29.04000 21.94900
H  -5.70300 28.08500 21.93700
H  -4.13600 27.78100 19.47500
H  -4.57500 29.48400 19.81700
H  -5.84600 28.28500 19.84500
H  -0.02600 30.53200 25.87200
H  -1.16000 30.17200 24.65000
H  0.17100 29.05700 24.86800
H  -2.46200 28.46500 30.41500
H  -0.81700 27.37700 33.90800
H  0.77300 27.82300 33.33800
H  0.03700 26.22700 33.09700

