158

Mg 50.16900 45.16700 42.32600
C  46.83400 44.97600 41.13800
C  50.47100 41.70900 41.42200
C  53.55300 45.49100 42.39600
C  49.72200 48.54000 42.74100
N  48.81300 43.53800 41.48400
C  47.52500 43.73800 41.13400
C  46.87900 42.29900 40.73800
C  48.03200 41.29600 40.92500
C  49.20800 42.22700 41.31600
C  47.70600 40.20700 41.95300
C  46.34700 42.15300 39.26100
C  47.00100 42.99200 38.15500
H  47.02200 42.31200 36.67900
N  51.72000 43.77800 42.19400
C  51.68300 42.42000 41.76600
C  53.08000 41.90000 41.72900
C  53.93000 42.92200 42.28500
C  53.06600 44.13700 42.32400
C  53.46100 40.49500 41.31400
C  55.41700 42.85900 42.54200
O  55.93700 41.74100 42.48000
C  56.20900 43.90800 43.08700
N  51.43700 46.82300 42.49900
C  52.76000 46.71600 42.43300
C  53.44100 48.11200 42.62600
C  52.23200 49.05800 42.91100
C  51.06900 48.11000 42.72700
C  54.62300 48.16600 43.61800
C  52.18000 50.41900 41.99300
C  52.06800 51.79500 42.70100
N  48.50700 46.55200 42.15600
C  48.50400 47.91800 42.29100
C  47.23400 48.40700 41.97800
C  46.53400 47.29500 41.48000
C  47.38300 46.19400 41.58900
C  46.76600 49.90700 42.16600
C  45.26700 46.90300 40.93200
O  44.27100 47.55300 40.65700
C  45.39900 45.31700 40.79800
C  44.39100 44.86900 41.76900
O  43.27500 44.56800 41.43700
O  44.98200 44.72400 43.02100
C  43.98900 44.26000 44.00000
H  50.63600 40.65800 41.17400
H  54.61500 45.54500 42.15100
H  49.69800 49.63100 42.72000
H  46.04400 42.04000 41.38800
H  48.34500 40.71000 40.06100
H  48.21500 39.26400 41.75300
H  46.67400 39.90100 41.78400
H  48.08200 40.47700 42.94000
H  45.27500 42.33200 39.18200
H  46.36100 41.09000 39.01800
H  48.05100 43.19500 38.36400
H  46.49100 43.94500 38.01500
H  54.24800 40.47900 40.56000
H  52.56900 40.06800 40.85600
H  53.92800 39.92500 42.11600
H  56.48200 44.69000 42.38000
H  57.19800 43.55800 43.38000
H  55.66000 44.29500 43.94600
H  53.83700 48.26800 41.62200
H  52.13200 49.33300 43.96100
H  54.62400 47.34600 44.33700
H  54.53000 49.10900 44.15600
H  55.54300 48.10200 43.03700
H  51.36600 50.33200 41.27300
H  53.10900 50.37700 41.42400
H  53.01200 52.27400 42.43800
H  51.95200 51.71700 43.78200
H  51.16400 52.33300 42.41700
H  46.43600 49.96900 43.20300
H  45.98100 50.24900 41.49200
H  47.66700 50.51200 42.06400
H  45.18600 44.98900 39.78000
H  43.29100 45.08600 44.13700
H  44.41400 43.93600 44.94900
H  43.38500 43.40800 43.68900
Mg 49.82000 35.96300 28.55400
C  47.50600 34.67000 30.48000
C  50.10900 38.67100 30.57500
C  52.15500 37.33600 26.39500
C  49.15600 33.71000 25.98800
N  49.00000 36.51400 30.43000
C  48.12400 35.75400 31.15100
C  47.84800 36.40900 32.60500
C  48.35500 37.88200 32.28300
C  49.27900 37.65500 31.09500
C  47.24500 38.92100 31.96900
C  48.44000 35.67800 33.76300
C  49.97400 35.33900 33.72900
H  50.74700 35.48300 35.00900
N  51.05100 37.73800 28.53700
C  51.03000 38.70400 29.53400
C  52.11100 39.63500 29.27900
C  52.67300 39.31600 27.97600
C  52.02000 38.07700 27.54500
C  52.33900 40.72700 30.22800
C  53.93600 39.94400 27.28100
O  54.56300 39.51900 26.32800
C  54.45700 41.20000 28.02000
N  50.32200 35.77300 26.24900
C  51.43700 36.35600 25.77400
C  51.82600 35.80900 24.39100
C  50.75700 34.66900 24.21500
C  50.10300 34.65300 25.57400
C  51.73300 36.86800 23.20300
C  51.39200 33.34900 23.82900
C  52.31900 33.33100 22.57700
N  48.66000 34.45400 28.27100
C  48.43600 33.59700 27.19400
C  47.54200 32.57100 27.57100
C  47.06100 33.03100 28.80400
C  47.78600 34.13900 29.19100
C  47.08200 31.38600 26.86300
C  46.10200 32.75600 29.88900
O  45.26500 31.81500 29.97900
C  46.24900 33.93800 30.92300
C  46.28100 33.31200 32.24600
O  46.94900 32.33000 32.46100
O  45.35600 33.78000 33.06200
C  45.35300 33.27500 34.42900
H  50.12300 39.41500 31.37400
H  53.02000 37.58400 25.77700
H  48.85500 32.93800 25.27600
H  46.78300 36.23200 32.75800
H  48.94200 38.22300 33.13600
H  47.29400 39.64000 32.78800
H  46.26400 38.44800 31.94100
H  47.37200 39.59800 31.12500
H  47.96700 34.70000 33.66900
H  48.13400 36.05900 34.73700
H  50.43700 35.99700 32.99300
H  50.13000 34.32600 33.35800
H  53.32600 40.68000 30.69000
H  51.68500 40.61200 31.09300
H  52.18600 41.68900 29.74100
H  53.83000 42.08900 28.09300
H  55.30200 41.52700 27.41300
H  54.84800 40.87600 28.98400
H  52.84400 35.42500 24.45100
H  49.99700 34.98900 23.50200
H  51.08200 36.61400 22.36600
H  52.72000 36.90700 22.74200
H  51.54800 37.83100 23.67900
H  50.65700 32.55800 23.68000
H  51.89500 32.87600 24.67200
H  53.36600 33.31500 22.87800
H  52.20200 34.34100 22.18500
H  52.02700 32.54100 21.88500
H  46.49200 31.77500 26.03300
H  46.52300 30.72900 27.52900
H  47.88600 30.74500 26.50200
H  45.42800 34.65000 30.84400
H  45.31300 34.18100 35.03300
H  46.16300 32.62000 34.74800
H  44.46700 32.69500 34.68600

