158

Mg 49.54300 45.58900 42.94100
C  46.12000 45.95000 42.15200
C  49.27400 42.22500 42.19700
C  52.87000 45.46300 42.82900
C  49.72300 49.21700 42.71600
N  47.86200 44.30800 42.14200
C  46.57000 44.58900 42.00700
C  45.76400 43.31500 41.75000
C  46.76400 42.17800 42.14700
C  48.03600 42.91200 42.27600
C  46.39500 41.52300 43.47500
C  45.14200 43.23000 40.31300
C  46.01400 42.80500 39.06700
H  45.84700 43.66000 37.80600
N  50.85900 44.06900 42.83400
C  50.57000 42.67500 42.52300
C  51.77100 41.89500 42.62600
C  52.83100 42.83800 42.88900
C  52.22500 44.18900 42.88800
C  51.77900 40.38400 42.49300
C  54.29800 42.49400 43.10400
O  54.67600 41.35300 43.15000
C  55.29300 43.50500 43.40300
N  51.06300 47.17600 42.82300
C  52.36300 46.81500 42.81900
C  53.21200 48.09000 42.66100
C  52.31000 49.23200 42.33300
C  50.90700 48.52900 42.74300
C  54.14100 48.30700 43.95500
C  52.58200 49.75300 40.89300
C  53.90900 50.42700 40.65000
N  48.22400 47.26600 42.55400
C  48.42300 48.62800 42.55900
C  47.15700 49.31900 42.42700
C  46.25200 48.29600 42.24600
C  46.93100 47.07800 42.37200
C  46.93100 50.83500 42.54700
C  44.86400 48.04100 41.91100
O  43.99700 48.85800 41.64100
C  44.77900 46.51300 41.81500
C  43.73300 45.90300 42.63600
O  42.99600 45.07500 42.10600
O  43.63900 46.39700 43.85500
C  42.43200 45.87200 44.61200
H  49.31000 41.14600 42.03100
H  53.95600 45.41600 42.73200
H  49.79000 50.30700 42.75100
H  44.91300 43.36200 42.42900
H  46.74600 41.43100 41.35300
H  45.50800 42.02800 43.85600
H  47.23100 41.68000 44.15700
H  46.23100 40.45600 43.33100
H  44.69100 44.21000 40.16000
H  44.26900 42.58700 40.43000
H  45.67200 41.81700 38.76000
H  47.07500 42.66500 39.27700
H  51.88300 40.01800 41.47200
H  50.91600 40.06300 43.07600
H  52.62800 40.01200 43.06600
H  55.64700 44.03100 42.51700
H  56.20300 43.13500 43.87400
H  54.87700 44.16700 44.16200
H  53.88800 47.77400 41.86600
H  52.54500 49.94100 43.12700
H  55.20000 48.10100 43.80400
H  53.83500 47.64900 44.76800
H  54.02600 49.22800 44.52600
H  51.81600 50.50900 40.72100
H  52.48000 48.93300 40.18300
H  53.67500 51.45900 40.38800
H  54.39100 49.97400 39.78400
H  54.51700 50.26200 41.53900
H  47.18200 51.12000 43.56900
H  45.89900 51.16900 42.65600
H  47.59500 51.38900 41.88300
H  44.53300 46.49200 40.75400
H  41.71400 45.24900 44.08000
H  41.85900 46.72600 44.97200
H  42.79400 45.31600 45.47700
Mg 26.39500 49.61500 26.74700
C  24.15900 50.77400 29.21100
C  28.77600 48.94500 29.10000
C  28.70100 48.91500 24.15300
C  24.21700 50.65300 24.44100
N  26.44900 49.78400 28.88800
C  25.39900 50.21900 29.69600
C  25.76400 50.16300 31.20200
C  27.27700 49.73400 31.17600
C  27.52300 49.35500 29.64200
C  28.26700 50.83200 31.64400
C  24.92600 49.20200 32.09700
C  24.60600 49.73600 33.52900
H  24.58000 48.73700 34.69300
N  28.40100 48.98200 26.65500
C  29.22300 48.85200 27.74300
C  30.47900 48.47000 27.34900
C  30.58800 48.63900 25.96300
C  29.16500 48.83500 25.53400
C  31.73500 48.24700 28.25700
C  31.79400 48.55000 25.00900
O  31.58100 48.87700 23.81400
C  33.20800 48.39100 25.36000
N  26.50900 49.87000 24.62000
C  27.44300 49.38800 23.77800
C  26.93400 49.34100 22.28000
C  25.47600 49.98300 22.44900
C  25.35800 50.13000 23.92200
C  27.87800 49.87500 21.25200
C  24.39300 49.00600 21.80600
C  23.25800 49.62600 20.92800
N  24.66600 50.67500 26.81300
C  23.79400 50.91000 25.73600
C  22.59900 51.58700 26.15500
C  22.66700 51.57300 27.57600
C  23.90400 50.98400 27.89400
C  21.51000 52.16200 25.21800
C  21.99300 51.91500 28.86800
O  20.98600 52.56500 29.16500
C  22.98600 51.32600 29.98300
C  23.31800 52.50200 30.90200
O  24.17500 53.38200 30.75300
O  22.73400 52.29200 32.07100
C  22.84300 53.35200 33.12800
H  29.58600 48.84400 29.82500
H  29.43800 48.55100 23.43400
H  23.40400 50.80100 23.72700
H  25.62800 51.19600 31.52100
H  27.56500 48.92400 31.84600
H  28.99300 50.38800 32.32600
H  27.87300 51.69000 32.19000
H  28.88300 51.08900 30.78300
H  25.49300 48.27700 32.20300
H  23.96400 49.03000 31.61500
H  23.64600 50.22300 33.35700
H  25.38900 50.46500 33.73300
H  32.06900 47.20900 28.26300
H  31.42500 48.60700 29.23800
H  32.56900 48.86300 27.91800
H  33.38800 47.82600 26.27500
H  33.62300 49.39600 25.43800
H  33.78700 47.82700 24.62900
H  26.75700 48.30400 21.99400
H  25.47200 50.97300 21.99300
H  28.75700 50.44400 21.55600
H  27.27500 50.55500 20.65000
H  28.16600 49.12300 20.51700
H  23.86500 48.48800 22.60700
H  24.87500 48.25200 21.18400
H  23.61700 50.55700 20.49100
H  22.45800 49.92300 21.60600
H  22.81300 48.96300 20.18600
H  21.33600 51.42800 24.43100
H  21.83900 53.06200 24.69800
H  20.60300 52.21900 25.81800
H  22.59800 50.49700 30.57400
H  23.81600 53.31100 33.61700
H  22.05700 53.20800 33.86900
H  22.67200 54.36300 32.75600

