158

Mg 24.83300 -5.48200 46.00100
C  27.27600 -3.45800 44.61500
C  22.56300 -4.12800 43.86100
C  22.94000 -8.09200 46.66000
C  27.50100 -7.07600 47.94300
N  24.97900 -4.08800 44.43300
C  26.02100 -3.31300 44.01200
C  25.70200 -2.29400 42.95100
C  24.12800 -2.15500 43.19600
C  23.85000 -3.52800 43.87100
C  23.61900 -1.01100 44.04400
C  26.23700 -2.65900 41.57200
C  26.76600 -1.49300 40.70800
H  26.21500 -1.41200 39.23900
N  22.88700 -6.01800 45.30400
C  22.10500 -5.31800 44.56500
C  20.93100 -6.10500 44.28000
C  20.94000 -7.25700 45.13300
C  22.24800 -7.17600 45.78500
C  19.92200 -5.66000 43.18800
C  19.86200 -8.20400 45.23900
O  18.82500 -7.91400 44.66700
C  20.03700 -9.40000 46.09500
N  25.26600 -7.30300 47.11800
C  24.18200 -8.14800 47.32500
C  24.58900 -9.35200 48.25300
C  26.03700 -8.95400 48.67600
C  26.31100 -7.66500 47.87400
C  23.50300 -9.65800 49.35100
C  27.15400 -10.08100 48.40500
C  27.54500 -11.01000 49.61100
N  26.87400 -5.22800 46.40600
C  27.82300 -5.89100 47.14300
C  29.07400 -5.19600 47.06400
C  28.90500 -4.21200 46.10600
C  27.57500 -4.30500 45.67800
C  30.23900 -5.64400 47.84500
C  29.63300 -3.28400 45.29700
O  30.82100 -3.01000 45.26100
C  28.54900 -2.73200 44.35500
C  28.61100 -1.29400 44.60700
O  28.66900 -0.66900 45.66300
O  28.70200 -0.58100 43.44500
C  28.51600 0.90200 43.47500
H  21.79500 -3.71300 43.20600
H  22.28900 -8.89000 47.02000
H  28.30200 -7.58000 48.48800
H  26.13600 -1.36100 43.31100
H  23.58800 -2.20400 42.25000
H  24.19100 -0.08600 43.97500
H  23.47200 -1.41800 45.04400
H  22.64800 -0.74300 43.62800
H  25.42700 -3.15300 41.03700
H  26.92500 -3.49000 41.72600
H  27.83600 -1.65000 40.84500
H  26.65900 -0.52800 41.20300
H  20.36700 -5.03400 42.41400
H  19.03000 -5.26200 43.67200
H  19.52100 -6.49000 42.60800
H  19.37700 -10.25100 45.92900
H  19.78200 -9.19400 47.13500
H  21.01200 -9.74600 45.75200
H  24.62100 -10.28400 47.68900
H  26.06200 -8.78400 49.75300
H  22.56000 -9.13200 49.19700
H  23.97800 -9.38800 50.29400
H  23.14100 -10.68600 49.36800
H  28.08700 -9.65000 48.04100
H  26.66500 -10.70300 47.65500
H  28.55800 -10.77900 49.94200
H  27.45100 -12.05100 49.30100
H  26.88500 -10.79300 50.45100
H  31.10000 -5.17900 47.36600
H  30.36200 -6.70800 47.64500
H  30.11500 -5.26400 48.85900
H  28.83100 -2.89400 43.31400
H  27.50000 0.98100 43.08900
H  29.19500 1.30900 42.72600
H  28.67500 1.43300 44.41300
Mg 6.46700 54.55900 40.43900
C  5.73700 51.09000 40.14600
C  9.66900 53.86900 39.96500
C  6.83300 57.59600 39.49400
C  2.98300 54.98500 40.90700
N  7.48200 52.75400 39.93200
C  7.04900 51.43400 39.92600
C  8.24200 50.42700 39.63100
C  9.38600 51.41100 40.05700
C  8.85200 52.77400 40.06200
C  9.98900 51.05900 41.48400
C  8.26700 49.95200 38.19300
C  8.01600 50.99300 37.09700
H  6.84100 50.65900 36.09800
N  8.15800 55.66500 39.99900
C  9.41900 55.26800 39.90400
C  10.28600 56.32800 39.64700
C  9.43800 57.50900 39.32400
C  8.05800 56.96500 39.56400
C  11.85600 56.26400 39.58900
C  9.90500 58.94400 38.98100
O  11.06900 59.25100 38.93900
C  8.97800 60.09600 38.95000
N  5.07400 56.06000 40.18000
C  5.52900 57.27000 39.81100
C  4.27400 58.27500 39.58900
C  3.09400 57.47400 40.17800
C  3.66400 56.07200 40.36200
C  4.51500 59.54500 40.49800
C  1.78800 57.47300 39.26900
C  0.43600 57.84900 39.84700
N  4.67900 53.30200 40.54600
C  3.43500 53.62500 40.92100
C  2.67600 52.47200 41.25200
C  3.53300 51.40300 40.84000
C  4.72800 51.98400 40.42600
C  1.23900 52.48100 41.65000
C  3.66500 49.91100 40.82100
O  2.96800 49.00600 41.28900
C  5.09900 49.73500 40.32800
C  5.02300 48.93500 38.99600
O  4.59800 49.45300 37.96000
O  5.37300 47.66500 39.20600
C  5.40000 46.89900 37.99000
H  10.71700 53.56800 40.02800
H  6.93000 58.60200 39.08000
H  1.97900 55.23900 41.25100
H  8.12300 49.60900 40.34200
H  10.27100 51.35100 39.42400
H  10.94700 50.58500 41.27400
H  9.35900 50.35100 42.02300
H  10.09700 51.89200 42.17900
H  7.58100 49.11500 38.06600
H  9.28500 49.65500 37.93900
H  8.91200 51.17300 36.50300
H  7.76400 51.93900 37.57600
H  12.25700 56.23100 38.57600
H  12.20400 55.40300 40.15800
H  12.36800 56.97000 40.24300
H  9.52200 60.99800 39.23100
H  8.19000 60.07100 39.70200
H  8.58200 60.14700 37.93600
H  4.22900 58.49100 38.52200
H  2.77700 57.83700 41.15600
H  4.16500 60.40600 39.92800
H  5.53200 59.60100 40.88600
H  3.93100 59.50900 41.41800
H  1.56100 56.43100 39.04100
H  1.92500 58.07500 38.37100
H  -0.38300 57.13200 39.79700
H  0.09100 58.66500 39.21200
H  0.61600 58.09200 40.89400
H  1.12000 53.32100 42.33400
H  0.90300 51.66100 42.28500
H  0.55600 52.64000 40.81600
H  5.59700 49.05300 41.01700
H  5.76500 47.49900 37.15800
H  4.36500 46.60100 37.82400
H  5.96700 45.97800 38.13300

