158

Mg 35.95400 49.05400 25.45800
C  36.18600 47.16900 28.50700
C  34.27700 51.50400 27.09300
C  35.82900 50.75600 22.57200
C  37.51300 46.41700 23.84500
N  35.31000 49.22300 27.51200
C  35.62200 48.47800 28.60000
C  35.40500 49.21000 29.87500
C  34.61000 50.48800 29.43400
C  34.63100 50.41800 27.86000
C  33.17100 50.53500 30.03000
C  36.77600 49.45700 30.68300
C  36.90800 49.12200 32.23800
H  35.60300 49.39600 33.02200
N  35.08500 50.86500 24.87300
C  34.43900 51.77200 25.69100
C  33.82400 52.77100 24.91600
C  34.22600 52.53800 23.57300
C  35.07700 51.35600 23.59800
C  32.88700 53.88100 25.49100
C  33.96300 53.25600 22.25700
O  34.56500 53.04600 21.20900
C  32.96500 54.32600 22.27800
N  36.60200 48.69800 23.50300
C  36.38900 49.46200 22.46200
C  37.00600 48.95300 21.15500
C  37.62800 47.61700 21.63900
C  37.21400 47.57700 23.12600
C  35.96600 48.82400 19.99300
C  39.23800 47.48600 21.50600
C  39.76600 46.16000 21.13500
N  36.77500 47.17900 25.97500
C  37.33600 46.21100 25.17400
C  37.62100 44.99700 25.95400
C  37.29400 45.34500 27.29300
C  36.74700 46.65300 27.25200
C  38.00800 43.64600 25.45600
C  37.22500 44.90200 28.68400
O  37.57400 43.88300 29.20200
C  36.68200 46.08900 29.54800
C  35.56200 45.72200 30.43100
O  34.42300 45.47800 30.14000
O  36.08000 45.60600 31.74500
C  35.00700 45.31100 32.71600
H  33.92400 52.35600 27.67800
H  35.80500 51.30900 21.63100
H  38.11400 45.67900 23.31000
H  34.80200 48.51400 30.45800
H  35.16900 51.39100 29.67900
H  32.37400 50.67200 29.29900
H  33.13800 51.36600 30.73400
H  32.84900 49.67700 30.62100
H  37.01000 50.51600 30.57900
H  37.57600 48.99500 30.10600
H  37.74100 49.69300 32.64700
H  37.13300 48.05900 32.33000
H  33.43500 54.74200 25.87300
H  32.43900 53.36200 26.33800
H  32.11100 54.01800 24.73800
H  32.90500 54.61800 21.23000
H  33.25900 55.24600 22.78300
H  31.93200 54.08600 22.52900
H  37.73200 49.67100 20.77400
H  37.19500 46.75500 21.13100
H  36.07500 47.85100 19.51300
H  36.22700 49.61400 19.28900
H  34.94600 48.94800 20.35700
H  39.68300 47.81600 22.44500
H  39.43500 48.22400 20.72900
H  40.18600 46.14400 20.13000
H  39.10200 45.31100 21.30000
H  40.54000 45.91000 21.86000
H  38.45500 43.67900 24.46300
H  37.10900 43.04600 25.31800
H  38.64800 43.07300 26.12800
H  37.44100 46.61200 30.12900
H  34.79300 44.24400 32.77200
H  34.13100 45.92900 32.52000
H  35.28300 45.57400 33.73800
Mg -10.94100 39.94800 41.46200
C  -9.96400 36.66000 40.71500
C  -7.82900 41.08800 40.34700
C  -12.20900 43.05600 41.28500
C  -14.29900 38.72400 41.66100
N  -9.16900 38.93900 40.67000
C  -8.95700 37.55500 40.46300
C  -7.58100 37.31700 39.82800
C  -6.82900 38.68700 40.04300
C  -8.01000 39.63400 40.38200
C  -5.71000 38.80300 41.14000
C  -7.63900 36.78100 38.32400
C  -6.59600 35.72100 37.88200
H  -5.65200 36.18600 36.79900
N  -10.04700 41.83300 40.93000
C  -8.75600 42.12700 40.54800
C  -8.69300 43.55300 40.27400
C  -9.96100 44.11600 40.48500
C  -10.81600 42.97600 40.93000
C  -7.40600 44.24500 39.67300
C  -10.31400 45.53100 40.21100
O  -9.49300 46.28100 39.76300
C  -11.78300 45.95900 40.25700
N  -13.05900 40.73700 41.62000
C  -13.20200 42.12200 41.54800
C  -14.75100 42.44000 41.63400
C  -15.38900 41.06400 41.73700
C  -14.24300 40.09400 41.66000
C  -15.24900 43.60600 42.67600
C  -16.56900 40.73900 40.81400
C  -17.96800 40.66600 41.45900
N  -11.84400 38.11900 41.58000
C  -13.17700 37.80700 41.67700
C  -13.37400 36.43000 41.72800
C  -12.10300 35.87300 41.43200
C  -11.20400 36.97200 41.23500
C  -14.56300 35.74300 42.01000
C  -11.33400 34.71600 41.18300
O  -11.69000 33.53500 41.27800
C  -9.96800 35.17300 40.71800
C  -8.91000 34.64900 41.58800
O  -8.68900 34.87200 42.80700
O  -8.06500 33.91000 40.85200
C  -6.72300 33.69800 41.36500
H  -6.81800 41.36700 40.04600
H  -12.63400 44.05600 41.40200
H  -15.31100 38.31600 41.65100
H  -7.03100 36.55900 40.38700
H  -6.45400 38.97400 39.06000
H  -4.90500 39.44600 40.78700
H  -5.28100 37.80500 41.22900
H  -5.99000 39.08200 42.15600
H  -7.44100 37.63000 37.67000
H  -8.59400 36.34700 38.02700
H  -7.18100 34.88700 37.49400
H  -6.01700 35.34600 38.72600
H  -6.77600 43.40900 39.36800
H  -6.95300 44.82400 40.47700
H  -7.59400 44.90500 38.82600
H  -12.08700 46.09600 41.29500
H  -12.41800 45.25200 39.72300
H  -11.79600 46.93900 39.77900
H  -14.94700 42.81300 40.62900
H  -15.58000 40.90100 42.79800
H  -15.73800 43.07900 43.49600
H  -15.89800 44.23200 42.06400
H  -14.42400 44.05300 43.23000
H  -16.44100 39.80700 40.26400
H  -16.69200 41.54500 40.09000
H  -18.22500 39.60800 41.51300
H  -18.76700 41.28900 41.05600
H  -17.89100 40.97800 42.50100
H  -15.02600 36.24200 42.86100
H  -14.46100 34.69400 42.28600
H  -15.19100 35.82700 41.12300
H  -9.90300 34.74400 39.71800
H  -5.95000 34.35700 40.96800
H  -6.34900 32.74200 40.99800
H  -6.53300 33.62500 42.43600

