158

Mg 9.18300 47.00400 27.20600
C  7.48300 46.49100 30.25300
C  12.07100 47.50300 28.95700
C  10.64400 48.18800 24.37500
C  6.19600 47.17300 25.55400
N  9.76500 46.76400 29.54500
C  8.85000 46.63400 30.55800
C  9.56100 46.97300 31.88600
C  10.97000 47.52600 31.41700
C  10.97700 47.24200 29.85700
C  11.33400 48.96100 31.77900
C  9.68600 45.80700 32.91300
C  9.37500 46.16000 34.34600
H  9.70800 45.01200 35.32900
N  11.08800 47.69800 26.77700
C  12.16700 47.68200 27.57000
C  13.40700 47.89600 26.74300
C  12.95400 48.12100 25.42000
C  11.53900 47.94900 25.45600
C  14.85900 47.87600 27.27700
C  13.78500 48.36000 24.18800
O  13.24000 48.58700 23.12000
C  15.33900 48.28200 24.26200
N  8.45300 47.60600 25.22400
C  9.30800 48.01400 24.24700
C  8.56300 48.20200 22.89000
C  7.12700 47.66400 23.26500
C  7.22600 47.43300 24.72800
C  8.52400 49.75100 22.39700
C  6.76100 46.39600 22.51800
C  5.35700 46.45100 21.83400
N  7.23200 46.73100 27.70900
C  6.10600 46.79600 26.94500
C  4.90200 46.71000 27.79000
C  5.45300 46.48300 29.05300
C  6.85800 46.56200 29.00300
C  3.41100 46.61300 27.29100
C  5.05800 46.19900 30.43200
O  3.96100 46.02400 30.95300
C  6.37000 46.25800 31.27300
C  6.55800 45.00200 31.97200
O  6.66600 43.90100 31.47700
O  6.49000 45.20900 33.33400
C  6.46300 43.91400 34.08700
H  12.92100 47.65600 29.62600
H  10.99200 48.51900 23.39400
H  5.26500 47.33400 25.00600
H  8.94300 47.71700 32.38900
H  11.72100 46.89600 31.89500
H  11.57300 49.67200 30.98800
H  12.19400 48.87200 32.44300
H  10.59600 49.41500 32.44000
H  10.69500 45.40100 32.98400
H  9.01200 45.02500 32.56300
H  8.34400 46.47000 34.51600
H  9.88900 47.09500 34.57100
H  15.44700 47.08300 26.81600
H  14.78400 47.65700 28.34200
H  15.21300 48.89600 27.12500
H  15.86700 48.89800 24.99100
H  15.56700 48.76000 23.30900
H  15.67700 47.24600 24.24600
H  8.99900 47.50800 22.17100
H  6.38800 48.46500 23.26900
H  9.45900 50.24500 22.66000
H  7.67000 50.26800 22.83500
H  8.52500 49.73700 21.30700
H  6.76600 45.47000 23.09200
H  7.49800 46.32100 21.71900
H  5.40000 46.32000 20.75200
H  4.81000 47.37900 22.00700
H  4.92800 45.56600 22.30300
H  2.79500 45.90600 27.84700
H  3.26200 46.29800 26.25800
H  2.95600 47.57600 27.51900
H  6.28700 47.13700 31.91200
H  7.30900 43.26500 33.86200
H  5.58200 43.29600 33.91300
H  6.43100 44.12000 35.15700
Mg -1.94000 34.23600 26.85800
C  -3.41000 32.50400 29.49800
C  -0.95800 36.58700 29.07800
C  -1.25400 36.14900 24.21900
C  -3.58600 31.89500 24.61900
N  -2.23900 34.59600 29.00000
C  -2.72000 33.66900 29.93200
C  -2.32300 34.08300 31.38400
C  -1.41900 35.31600 31.20200
C  -1.60200 35.54200 29.67300
C  -1.66500 36.57800 32.04600
C  -1.70100 32.86500 32.19700
C  -2.39000 32.42700 33.51000
H  -1.60900 32.53200 34.90100
N  -1.16500 36.06900 26.66300
C  -0.90900 36.92000 27.77900
C  -0.35800 38.19000 27.20300
C  -0.28400 37.99300 25.77900
C  -0.96100 36.69600 25.48400
C  0.47300 39.27200 27.96400
C  0.34400 38.89300 24.68900
O  0.28600 38.60900 23.43900
C  1.03300 40.07700 24.98600
N  -2.43000 34.10100 24.64500
C  -1.91700 34.96100 23.82400
C  -2.05500 34.40400 22.35300
C  -2.58800 33.00000 22.48700
C  -2.94400 33.00200 24.00000
C  -2.90200 35.20100 21.37900
C  -1.48700 31.94100 22.10600
C  -0.34000 31.91500 23.06300
N  -3.21700 32.54800 27.02600
C  -3.70300 31.67600 26.05500
C  -4.45700 30.58600 26.71700
C  -4.40500 30.87600 28.09600
C  -3.52700 32.03000 28.18800
C  -5.26900 29.57400 26.08700
C  -4.81600 30.53100 29.37400
O  -5.57800 29.60000 29.69600
C  -4.22500 31.54400 30.29000
C  -5.26300 32.27500 31.08100
O  -6.02300 33.12200 30.66900
O  -5.21000 31.69300 32.34500
C  -6.31900 32.11800 33.22100
H  -0.40600 37.24800 29.75000
H  -0.94500 36.71700 23.33900
H  -4.08000 31.15200 23.99000
H  -3.21800 34.46100 31.87900
H  -0.41400 34.98900 31.46900
H  -1.71600 37.49000 31.45000
H  -0.96900 36.56700 32.88500
H  -2.65000 36.52600 32.50900
H  -0.66600 33.03000 32.49700
H  -1.63700 31.98500 31.55800
H  -2.70700 31.38400 33.50600
H  -3.26700 33.07300 33.54000
H  0.16500 40.25300 27.60200
H  1.55200 39.25400 27.81500
H  0.34800 39.26500 29.04700
H  1.79300 40.20000 25.75800
H  0.40300 40.96600 24.96700
H  1.56000 40.43500 24.10200
H  -1.03600 34.50500 21.97900
H  -3.39400 32.74300 21.79900
H  -3.52500 35.85500 21.99000
H  -3.50600 34.63600 20.66900
H  -2.31700 35.92700 20.81600
H  -1.06200 32.16500 21.12700
H  -1.91500 30.94000 22.15100
H  -0.51200 31.43500 24.02600
H  0.00500 32.90800 23.35100
H  0.47300 31.34500 22.61300
H  -4.84400 29.20400 25.15400
H  -6.32500 29.82800 25.99400
H  -5.17700 28.74100 26.78300
H  -3.44000 31.09500 30.89900
H  -5.92900 32.56200 34.13600
H  -6.81800 31.18600 33.48900
H  -6.93700 32.91100 32.80100

