158

Mg 1.27200 8.55000 27.09500
C  1.87000 10.76200 29.91500
C  1.45700 5.95400 29.32300
C  1.46200 6.49800 24.42900
C  1.51100 11.29100 25.09400
N  1.71000 8.38900 29.39100
C  1.85600 9.35600 30.27900
C  1.69600 8.83600 31.68900
C  1.98700 7.31700 31.57900
C  1.67900 7.21100 30.04300
C  3.33700 6.71400 31.85600
C  0.31800 9.18800 32.30400
C  0.25200 9.26500 33.85000
H  1.29400 8.53400 34.69600
N  1.31400 6.51900 26.90500
C  1.27000 5.62500 27.93300
C  1.20900 4.26800 27.37700
C  1.29600 4.42800 25.95200
C  1.33200 5.85900 25.71800
C  1.11400 3.08200 28.22400
C  1.22000 3.40300 24.82500
O  1.35500 3.68400 23.58900
C  0.76200 2.01300 25.19200
N  1.67800 8.90400 24.98000
C  1.57100 7.85300 24.10000
C  1.55800 8.37900 22.63700
C  1.32300 9.88200 22.88900
C  1.45100 10.07500 24.39600
C  2.82800 7.98700 21.81100
C  0.03100 10.47400 22.25900
C  -1.20500 10.74200 23.09700
N  1.58300 10.59600 27.42800
C  1.63100 11.59000 26.45900
C  1.61600 12.91300 27.12500
C  1.74700 12.59600 28.51400
C  1.66800 11.23000 28.64300
C  1.70300 14.24800 26.61700
C  1.98800 13.15900 29.81800
O  2.17200 14.32400 30.20800
C  1.97900 11.99600 30.81800
C  3.08000 12.04400 31.74400
O  4.23700 11.69300 31.51500
O  2.67300 12.49900 32.95300
C  3.66100 12.47700 34.09400
H  1.50800 5.09100 29.99100
H  1.48700 5.95700 23.48100
H  1.36500 12.23400 24.56200
H  2.47600 9.37000 32.23100
H  1.24800 6.77600 32.17200
H  3.77400 6.14400 31.03600
H  3.18700 5.90100 32.56600
H  4.01100 7.52300 32.13800
H  -0.51900 8.56300 31.99200
H  0.07400 10.14800 31.84800
H  -0.82100 9.18900 34.02900
H  0.42300 10.29100 34.17500
H  0.17000 2.57800 28.01500
H  1.04700 3.33500 29.28200
H  2.01200 2.51200 27.98600
H  0.63500 1.46600 24.25800
H  -0.20500 2.08200 25.69200
H  1.38600 1.43700 25.87600
H  0.70800 7.91000 22.14100
H  2.10300 10.50900 22.45700
H  3.51000 7.55100 22.54000
H  3.32400 8.86400 21.39500
H  2.51300 7.25100 21.07100
H  -0.34700 9.71800 21.57100
H  0.24400 11.36300 21.66500
H  -2.00400 10.22000 22.57100
H  -1.38500 11.81700 23.11600
H  -1.25200 10.45600 24.14800
H  2.69600 14.55600 26.29100
H  1.44200 14.92300 27.43300
H  0.96500 14.58900 25.89100
H  1.03800 12.12800 31.35300
H  4.45200 11.74200 33.94600
H  3.09600 12.29600 35.00900
H  4.12700 13.45400 34.22600
Mg 48.02500 16.03800 28.55700
C  45.99300 15.65700 31.35200
C  50.17400 17.95300 30.44500
C  49.81700 16.38800 25.78200
C  45.45800 14.44600 26.61500
N  48.06000 16.69100 30.63200
C  47.17000 16.37600 31.60800
C  47.63300 16.78800 32.96300
C  48.73100 17.83900 32.62600
C  49.02200 17.56100 31.14700
C  48.16200 19.31300 32.93500
C  48.12900 15.59900 33.76800
C  48.15200 15.89000 35.31200
H  47.72000 17.22400 35.85100
N  49.74100 16.93100 28.17900
C  50.48200 17.71100 29.07200
C  51.71500 18.23700 28.41500
C  51.69000 17.66500 27.11700
C  50.32700 17.00100 26.94000
C  52.71800 19.12600 29.09800
C  52.83200 17.66200 26.09200
O  52.71100 17.18300 24.94900
C  54.24000 18.15700 26.39600
N  47.57600 15.68500 26.41100
C  48.57900 15.74000 25.52600
C  48.22500 15.11800 24.17400
C  46.82900 14.51900 24.48400
C  46.58300 14.87700 25.91900
C  48.25500 16.20300 23.02100
C  46.78900 12.92600 24.25900
C  45.57600 12.15900 23.80700
N  46.16500 15.14900 28.86700
C  45.21900 14.64000 27.97500
C  44.07600 14.32100 28.73600
C  44.32000 14.58700 30.09500
C  45.61100 15.19000 30.06900
C  42.85900 13.70500 28.21700
C  43.67500 14.64500 31.40000
O  42.53000 14.30100 31.74500
C  44.84300 15.18000 32.34600
C  44.31000 16.22900 33.24800
O  44.40100 17.44600 32.98400
O  43.84200 15.67400 34.45500
C  43.24900 16.55800 35.45600
H  50.84400 18.55100 31.06600
H  50.53400 16.46100 24.96100
H  44.74000 13.85800 26.04000
H  46.79000 17.23700 33.48800
H  49.64600 17.61900 33.17600
H  47.08300 19.45900 32.88400
H  48.65700 20.00300 32.25300
H  48.40600 19.63300 33.94800
H  49.18700 15.40600 33.59100
H  47.49700 14.75000 33.51000
H  49.13300 15.67600 35.73600
H  47.45700 15.12000 35.64600
H  53.53900 18.54300 29.51500
H  52.35100 19.71700 29.93700
H  53.13500 19.85400 28.40100
H  54.52100 17.83800 27.39900
H  54.19800 19.20600 26.10100
H  54.95200 17.63500 25.75600
H  49.02900 14.38400 24.13000
H  46.00700 14.96300 23.92300
H  48.91700 15.84600 22.23200
H  48.64300 17.11200 23.48000
H  47.25700 16.36100 22.61300
H  47.03700 12.42000 25.19200
H  47.61000 12.61800 23.61100
H  45.38700 11.44000 24.60400
H  45.86500 11.66200 22.88100
H  44.65600 12.72900 23.67300
H  43.10200 12.77500 27.70300
H  42.53800 14.42500 27.46400
H  42.20100 13.61800 29.08200
H  45.04000 14.34200 33.01600
H  42.19600 16.62200 35.18000
H  43.58800 17.59400 35.47400
H  43.24600 16.14100 36.46300

