158

Mg -2.11500 17.33400 27.40800
C  -2.41900 14.94600 30.05000
C  -2.53600 19.84900 29.49400
C  -2.14500 19.41500 24.69100
C  -1.70300 14.52800 25.19800
N  -2.44700 17.32600 29.52900
C  -2.39500 16.30600 30.51500
C  -2.69800 16.94500 31.88500
C  -2.82900 18.47200 31.61600
C  -2.47800 18.60500 30.10400
C  -4.08300 19.26600 32.20100
C  -1.62500 16.47000 32.99100
C  -1.37600 17.35300 34.26300
H  -1.37800 16.62200 35.61100
N  -2.25700 19.40600 27.13700
C  -2.45500 20.29500 28.11800
C  -2.58800 21.60700 27.58200
C  -2.42300 21.51500 26.18600
C  -2.33500 20.05500 25.91600
C  -2.83500 22.80800 28.46600
C  -2.42700 22.53100 25.11300
O  -2.43000 22.21800 23.88500
C  -2.49900 24.05500 25.43700
N  -1.98200 16.98400 25.29000
C  -1.99300 17.99800 24.37300
C  -1.64100 17.52300 22.92800
C  -1.32300 15.97500 23.20500
C  -1.63400 15.78600 24.70000
C  -2.83300 17.77000 21.97200
C  0.07300 15.59400 22.79500
C  1.21200 16.10300 23.70900
N  -2.10200 15.25200 27.54000
C  -1.93700 14.26400 26.58300
C  -2.07600 12.94600 27.12300
C  -2.28200 13.25300 28.47300
C  -2.23200 14.62000 28.67400
C  -2.04500 11.69000 26.38700
C  -2.47500 12.54100 29.70800
O  -2.35100 11.35700 29.88900
C  -2.60200 13.65900 30.82200
C  -1.48500 13.35200 31.72500
O  -0.32100 13.73000 31.60500
O  -2.02200 12.67900 32.77800
C  -1.07600 12.46500 33.82600
H  -2.66000 20.72300 30.13700
H  -2.09600 20.00800 23.77500
H  -1.61500 13.69500 24.49700
H  -3.63900 16.45500 32.13700
H  -1.94300 18.97900 32.00000
H  -3.78200 20.06500 32.87900
H  -4.72200 18.50400 32.64600
H  -4.60500 19.58200 31.29900
H  -0.68300 16.44500 32.44300
H  -1.95600 15.47300 33.28400
H  -2.26400 17.98500 34.25100
H  -0.47500 17.93400 34.06900
H  -2.00800 23.49300 28.27900
H  -2.98700 22.50800 29.50300
H  -3.77700 23.17800 28.06200
H  -3.49000 24.34400 25.78800
H  -2.20900 24.66800 24.58300
H  -1.76100 24.18700 26.22800
H  -0.72700 18.03700 22.63100
H  -1.88700 15.29600 22.56600
H  -3.63100 18.28500 22.50800
H  -3.26600 16.89100 21.49500
H  -2.40400 18.40300 21.19500
H  0.20300 15.88900 21.75300
H  0.10700 14.51300 22.92800
H  1.21600 15.40800 24.54800
H  0.87900 17.01500 24.20400
H  2.17000 16.23200 23.20500
H  -1.91300 10.80900 27.01600
H  -1.30100 11.73000 25.59200
H  -3.00800 11.47100 25.92500
H  -3.58100 13.77900 31.28500
H  -0.28800 11.76200 33.55300
H  -1.70800 11.91000 34.51900
H  -0.79600 13.41600 34.27900
Mg 25.80300 1.53900 29.38100
C  27.98700 1.17500 32.12400
C  23.17100 2.05700 31.45500
C  23.95500 1.80400 26.67500
C  28.60300 0.46900 27.39500
N  25.63500 1.59200 31.58800
C  26.63700 1.45200 32.50800
C  26.11700 1.81700 33.90000
C  24.51400 1.94300 33.63300
C  24.40400 1.86100 32.11300
C  23.55200 0.90600 34.36200
C  26.90100 2.99000 34.55600
C  27.52000 2.88800 35.98300
H  26.88500 3.72200 37.03500
N  23.85600 1.79500 29.13300
C  22.92400 1.96200 30.07100
C  21.57500 2.09300 29.45300
C  21.78400 2.11100 28.02500
C  23.21100 1.88500 27.86500
C  20.32000 2.32000 30.33400
C  20.69700 2.30700 26.99000
O  20.91100 2.02900 25.84000
C  19.28400 2.81100 27.33700
N  26.16800 1.04600 27.32300
C  25.28500 1.46700 26.40300
C  25.89100 1.59400 24.98100
C  27.29000 0.88200 25.26600
C  27.38900 0.78200 26.74900
C  25.12200 0.95300 23.80900
C  28.51200 1.67900 24.59900
C  29.77000 0.86500 24.09900
N  27.87200 0.94500 29.63900
C  28.83700 0.50000 28.79200
C  30.03600 0.20100 29.47300
C  29.75900 0.54900 30.84700
C  28.43300 0.91000 30.83800
C  31.31000 -0.26200 28.82500
C  30.28500 0.67000 32.17600
O  31.46600 0.45400 32.49300
C  29.19200 1.14100 33.11100
C  29.02100 -0.03800 34.09200
O  28.19700 -0.92600 33.85300
O  29.85700 0.02800 35.22300
C  29.45600 -0.88000 36.23400
H  22.37500 2.33300 32.14900
H  23.46400 2.07400 25.73700
H  29.38000 0.19400 26.67900
H  26.35500 0.93900 34.50100
H  23.99900 2.87100 33.88200
H  22.78500 1.53700 34.81300
H  24.13600 0.33400 35.08300
H  23.09200 0.25300 33.62100
H  26.11400 3.73100 34.70100
H  27.50800 3.53400 33.83300
H  28.57700 3.12300 35.86400
H  27.42100 1.83000 36.22700
H  19.44800 1.89000 29.84000
H  20.08800 3.38500 30.36900
H  20.42300 1.85700 31.31500
H  18.67900 1.94000 27.59000
H  18.85800 3.41200 26.53300
H  19.29300 3.36000 28.27800
H  26.09400 2.62900 24.70700
H  27.30900 -0.16200 24.95500
H  25.81700 0.30500 23.27400
H  24.76900 1.72800 23.12800
H  24.29900 0.31500 24.13000
H  28.70500 2.43400 25.36200
H  28.13100 2.19800 23.72000
H  29.50800 -0.19200 24.05300
H  30.74900 1.06100 24.53500
H  29.85700 1.04600 23.02800
H  32.18300 -0.39500 29.46300
H  31.67000 0.22700 27.91900
H  31.02900 -1.25700 28.48100
H  29.25900 2.11300 33.59900
H  30.31400 -1.04600 36.88600
H  29.23400 -1.89500 35.90600
H  28.67000 -0.47500 36.87100

