158

Mg 0.94400 8.29100 25.92700
C  1.88500 10.41300 28.66900
C  1.16300 5.66000 28.03100
C  0.57600 6.29700 23.21600
C  1.22000 11.10400 23.90100
N  1.55800 8.07400 28.23400
C  1.81500 9.06600 29.11100
C  2.10800 8.42300 30.47700
C  2.06700 6.80400 30.12400
C  1.50400 6.83600 28.70500
C  3.32500 5.93300 30.28400
C  1.17700 8.99600 31.57300
C  1.38800 8.48700 33.09100
H  2.61000 7.59400 33.25100
N  0.68400 6.26100 25.62500
C  0.74200 5.39300 26.68900
C  0.36100 4.04000 26.24800
C  0.26600 4.15700 24.80500
C  0.58700 5.56500 24.45600
C  0.23600 2.91700 27.27500
C  0.12700 3.04100 23.72400
O  0.14200 3.39300 22.51700
C  0.02600 1.65300 24.10100
N  1.11000 8.60000 23.83700
C  0.82500 7.62700 22.91200
C  0.75400 8.29200 21.54000
C  0.47300 9.76600 21.83900
C  0.91800 9.85900 23.25400
C  2.09400 7.95600 20.77500
C  -0.97800 10.48500 21.74800
C  -0.88500 11.79300 20.92800
N  1.47200 10.33900 26.11800
C  1.47400 11.34100 25.21100
C  1.79900 12.63000 25.81500
C  1.93200 12.28600 27.17800
C  1.74300 10.89700 27.33000
C  2.01500 13.99000 25.17300
C  2.13800 12.85200 28.46500
O  2.43900 14.01500 28.70800
C  2.09700 11.67900 29.48800
C  3.41500 11.57600 30.25800
O  4.54200 11.37300 29.82100
O  3.05700 11.89800 31.59900
C  4.19000 11.73000 32.57600
H  1.17500 4.76700 28.66000
H  0.18000 5.69100 22.39800
H  1.09100 11.95400 23.22700
H  3.12600 8.66400 30.78000
H  1.28200 6.31400 30.70000
H  4.06600 6.62500 30.68200
H  3.59200 5.56100 29.29400
H  3.04200 5.14200 30.97900
H  0.12800 8.94200 31.28500
H  1.46900 10.04600 31.60000
H  0.46300 8.10900 33.52600
H  1.66000 9.32300 33.73500
H  0.00300 2.01600 26.70800
H  -0.45400 3.19200 28.07400
H  1.25300 2.86300 27.66400
H  0.00300 1.09600 23.16400
H  -0.83600 1.35300 24.69600
H  0.84600 1.30200 24.72700
H  -0.03200 7.75100 21.01300
H  1.15800 10.34900 21.22400
H  2.80000 8.76800 20.60100
H  1.77200 7.71200 19.76300
H  2.66600 7.10500 21.14300
H  -1.25300 10.66600 22.78700
H  -1.61200 9.72800 21.28500
H  0.11300 12.18800 20.73900
H  -1.48900 12.58000 21.38100
H  -1.31000 11.52200 19.96100
H  2.96500 14.46900 25.40800
H  1.30200 14.62000 25.70500
H  1.77100 14.00600 24.11000
H  1.33200 11.89000 30.23600
H  5.21200 11.72700 32.19800
H  4.07400 10.82100 33.16700
H  4.02900 12.39500 33.42400
Mg 35.98700 49.34400 24.71800
C  36.46900 47.66800 27.85700
C  35.08000 52.11000 26.45900
C  35.44700 50.82500 21.77300
C  37.33900 46.50900 23.11700
N  35.68700 49.76000 26.96700
C  35.91900 48.91100 28.05100
C  35.65400 49.71000 29.40000
C  35.25600 51.16000 28.89000
C  35.33800 51.01500 27.36500
C  33.90500 51.72600 29.41000
C  36.78100 49.75000 30.56000
C  36.58900 49.06100 31.90500
H  35.13700 48.99400 32.48000
N  35.23300 51.19500 24.17300
C  35.03700 52.19100 25.06800
C  34.68800 53.42800 24.28200
C  34.54800 52.99000 22.90200
C  35.06300 51.59000 22.89100
C  34.24800 54.85600 24.97700
C  34.17600 53.70100 21.62700
O  33.95500 53.09000 20.55200
C  33.93100 55.24100 21.65700
N  36.37700 48.74400 22.70300
C  36.02700 49.56700 21.71100
C  36.41400 49.01300 20.33300
C  37.29200 47.72600 20.88600
C  36.92700 47.62700 22.28500
C  35.23800 48.64800 19.43300
C  38.85400 47.81800 20.64300
C  39.52300 49.20000 20.77200
N  36.63400 47.41900 25.29800
C  37.23300 46.39800 24.52900
C  37.64500 45.33900 25.44700
C  37.37300 45.81300 26.72600
C  36.78100 47.05500 26.62100
C  38.30000 44.07900 25.09100
C  37.32400 45.39200 28.12300
O  37.61100 44.26500 28.62800
C  36.88700 46.67000 28.98600
C  35.62900 46.16900 29.76200
O  34.44400 46.42600 29.45600
O  35.97500 45.43600 30.83600
C  34.93400 44.96400 31.69800
H  34.86800 53.09900 26.87200
H  35.11500 51.20500 20.80400
H  37.84200 45.67600 22.62300
H  34.83100 49.29400 29.98100
H  36.04400 51.87600 29.12600
H  33.74300 52.63400 28.82800
H  33.87900 52.04500 30.45200
H  33.03200 51.07700 29.33300
H  36.91400 50.77500 30.90500
H  37.71100 49.36200 30.14400
H  37.17800 49.51500 32.70100
H  37.01600 48.06200 31.81600
H  33.90800 54.72700 26.00500
H  33.41700 55.34200 24.46700
H  35.03600 55.59000 24.81000
H  34.86400 55.72300 21.95000
H  33.10800 55.46100 22.33800
H  33.62900 55.50500 20.64300
H  36.97200 49.80400 19.83200
H  37.07500 46.81800 20.32400
H  35.39000 49.17100 18.48800
H  34.32900 49.07100 19.86000
H  34.99600 47.60200 19.24900
H  39.08200 47.43300 19.64900
H  39.34200 47.11300 21.31700
H  39.02900 49.83700 21.50500
H  39.63100 49.78200 19.85600
H  40.51400 48.94600 21.15000
H  37.47300 43.37100 25.13800
H  39.06200 43.65100 25.74200
H  38.70400 44.06800 24.07800
H  37.71200 46.96600 29.63400
H  34.57700 44.00000 31.33400
H  34.08300 45.63300 31.82900
H  35.36500 44.93100 32.69800

