158

Mg -1.44400 17.69900 27.24500
C  -2.18700 15.55200 29.88400
C  -2.37400 20.35900 29.35900
C  -1.81300 19.80200 24.52300
C  -1.45200 14.94600 25.13200
N  -2.21400 17.93700 29.48400
C  -2.33300 16.88300 30.32900
C  -2.47700 17.45000 31.77400
C  -2.72600 18.99500 31.53700
C  -2.49400 19.14100 29.98500
C  -4.04100 19.60800 32.07700
C  -1.28600 17.02700 32.65100
C  -0.69000 17.98800 33.74300
H  -0.28200 17.39000 35.09100
N  -2.00800 19.73400 26.99200
C  -2.20600 20.64900 27.99000
C  -2.44100 21.96100 27.42000
C  -2.15300 21.88500 26.04000
C  -2.05700 20.41100 25.77200
C  -2.95000 23.19300 28.21200
C  -2.05200 22.96400 24.95600
O  -2.05600 22.71200 23.75500
C  -2.16100 24.43700 25.31600
N  -1.65200 17.41300 25.09500
C  -1.61000 18.45900 24.21200
C  -1.40900 17.96400 22.72100
C  -1.14600 16.42300 22.94300
C  -1.47400 16.25700 24.49900
C  -2.62300 18.36500 21.79500
C  0.26300 15.93100 22.45000
C  1.35900 16.51500 23.40300
N  -1.67800 15.58300 27.39800
C  -1.70100 14.67600 26.45700
C  -1.80800 13.38200 27.02900
C  -2.05300 13.61800 28.40900
C  -1.97100 14.98600 28.60800
C  -1.89400 12.04400 26.36500
C  -2.25300 13.08100 29.73200
O  -2.42300 11.95700 30.14500
C  -2.35700 14.26900 30.68400
C  -1.29300 14.01800 31.72700
O  -0.15000 14.25300 31.60100
O  -1.85600 13.42300 32.83800
C  -0.87600 12.94200 33.78800
H  -2.51600 21.29400 29.90500
H  -1.58700 20.51200 23.72400
H  -1.36300 14.10100 24.44500
H  -3.39000 16.98800 32.14900
H  -1.90600 19.58600 31.94300
H  -4.83200 19.74200 31.33900
H  -3.88400 20.61700 32.45700
H  -4.46900 19.09800 32.94000
H  -0.38100 16.88900 32.06000
H  -1.58000 16.07400 33.09100
H  -1.39000 18.78900 33.98000
H  0.13000 18.46300 33.20500
H  -2.19600 23.96500 28.36100
H  -3.29200 22.93000 29.21300
H  -3.82400 23.49700 27.63500
H  -1.27900 24.64100 25.92300
H  -3.11200 24.68700 25.78600
H  -2.01800 25.05600 24.43000
H  -0.47900 18.37200 22.32500
H  -1.83400 15.73000 22.45900
H  -3.51800 18.33100 22.41500
H  -2.69300 17.61700 21.00500
H  -2.38900 19.35900 21.41500
H  0.44300 16.38500 21.47600
H  0.13800 14.84900 22.47600
H  1.02600 17.16200 24.21500
H  2.07200 17.10300 22.82500
H  1.96200 15.73500 23.86800
H  -1.14500 12.15300 25.58000
H  -2.88500 11.91500 25.92900
H  -1.66100 11.26300 27.08800
H  -3.25700 14.32500 31.29600
H  -0.17700 13.71500 34.10700
H  -0.42500 12.02200 33.41300
H  -1.58800 12.62900 34.55100
Mg 0.57600 44.36300 26.32000
C  2.83400 44.27100 29.06300
C  -1.94900 43.70400 28.68700
C  -1.44500 43.80000 23.84000
C  3.35700 44.55100 24.21000
N  0.50000 44.01200 28.69200
C  1.52000 44.20500 29.56300
C  1.05500 44.05500 30.96100
C  -0.43900 43.57700 30.79200
C  -0.70800 43.78300 29.30300
C  -0.63400 42.07800 31.30400
C  1.23100 45.43300 31.72700
C  1.60400 45.41800 33.24300
H  1.06000 44.23000 34.04400
N  -1.48500 44.08800 26.23700
C  -2.32200 43.77100 27.34500
C  -3.63600 43.89200 26.88300
C  -3.60800 43.74900 25.41800
C  -2.16800 43.87600 25.11100
C  -4.86400 44.12000 27.82300
C  -4.75400 43.60000 24.42700
O  -4.59100 43.50300 23.25200
C  -6.18100 43.50700 25.03300
N  0.94900 43.96600 24.33500
C  -0.06500 43.86900 23.51500
C  0.47500 43.90500 22.05100
C  1.79700 44.68600 22.19200
C  2.07900 44.39000 23.67900
C  0.51400 42.51600 21.38600
C  1.70500 46.16300 21.91400
C  2.40000 46.60900 20.60000
N  2.63600 44.38700 26.50800
C  3.66300 44.49400 25.57200
C  4.94800 44.63800 26.16000
C  4.63900 44.48800 27.52800
C  3.24600 44.35800 27.70800
C  6.26300 44.67300 25.47200
C  5.29500 44.48600 28.81000
O  6.47200 44.51400 29.09300
C  4.14000 44.25300 29.85000
C  4.33900 43.01400 30.70800
O  4.47800 41.90200 30.22200
O  4.22000 43.28200 32.02000
C  4.32900 42.14300 32.98600
H  -2.65600 43.39900 29.46100
H  -2.10200 43.74100 22.97000
H  4.17400 44.92700 23.59100
H  1.54600 43.24100 31.49600
H  -1.16100 44.09900 31.42000
H  0.26900 41.47500 31.40400
H  -1.22600 41.50900 30.58700
H  -1.21400 42.22700 32.21500
H  0.32000 46.00000 31.53400
H  1.94300 45.99500 31.12300
H  1.12700 46.33300 33.59300
H  2.68300 45.55000 33.32600
H  -5.47900 43.22900 27.95500
H  -5.49300 44.89400 27.38500
H  -4.61200 44.60500 28.76700
H  -6.24100 42.93600 25.96000
H  -6.73500 42.82100 24.39200
H  -6.68700 44.47200 25.04700
H  -0.26600 44.47500 21.48900
H  2.52800 44.15600 21.58200
H  -0.11500 41.81400 21.93300
H  1.47900 42.02200 21.49500
H  0.23800 42.66200 20.34100
H  2.06100 46.74600 22.76300
H  0.72400 46.58300 21.69300
H  3.15800 47.35800 20.83100
H  1.69900 47.16900 19.98100
H  2.98600 45.88800 20.03100
H  6.13600 45.52100 24.79900
H  6.55200 43.73600 24.99600
H  7.01500 44.96500 26.20500
H  4.05100 45.10600 30.52300
H  5.25300 41.59000 32.81600
H  3.48900 41.46300 32.83800
H  4.41200 42.54900 33.99300

