158

Mg 55.68400 24.52300 44.67100
C  52.96600 26.45400 43.72800
C  53.89100 21.71000 43.33600
C  58.44900 22.91400 44.89900
C  57.20900 27.48700 45.97700
N  53.78000 24.15100 43.52500
C  52.87000 25.11700 43.22800
C  51.67100 24.52700 42.55800
C  51.75400 23.07600 42.99800
C  53.22000 22.93200 43.31300
C  50.81700 22.69300 44.14500
C  51.62300 24.76500 41.00100
C  50.17000 24.58200 40.48100
H  49.96400 24.81000 38.95100
N  56.08400 22.60000 44.08200
C  55.27100 21.58300 43.64600
C  55.99600 20.30500 43.55900
C  57.32700 20.64600 44.00300
C  57.34400 22.08900 44.36400
C  55.43300 18.94900 43.10500
C  58.44100 19.65300 44.13800
O  58.38400 18.60800 43.52800
C  59.65300 19.92700 44.84200
N  57.58400 25.09700 45.39900
C  58.61600 24.18000 45.38500
C  59.91400 24.83600 45.85500
C  59.50400 26.31700 46.19400
C  58.00200 26.32000 45.87800
C  60.52500 24.14500 47.12800
C  60.35300 27.50600 45.40800
C  60.80500 28.79700 46.22500
N  55.19800 26.57100 44.96500
C  55.89800 27.64200 45.51300
C  55.05400 28.80000 45.38600
C  53.84700 28.37900 44.73500
C  54.06200 27.05300 44.44300
C  55.44000 30.17900 45.88300
C  52.60500 28.79100 44.31300
O  52.11800 29.86900 44.38700
C  51.88900 27.56400 43.60700
C  51.49100 27.97000 42.24500
O  52.27600 28.20100 41.33800
O  50.08700 28.11000 42.17000
C  49.57600 28.48100 40.76300
H  53.32300 20.83600 43.01200
H  59.44100 22.46300 44.96800
H  57.68100 28.38500 46.38200
H  50.76200 24.98800 42.94200
H  51.54400 22.39600 42.17200
H  51.46300 22.61900 45.02000
H  50.47300 21.67800 43.94700
H  50.03400 23.41600 44.37500
H  52.22400 24.02100 40.47800
H  52.03100 25.74300 40.74300
H  49.56500 25.41500 40.83800
H  49.79200 23.58700 40.71800
H  55.24700 18.22700 43.90000
H  56.15400 18.45800 42.45200
H  54.49800 19.05100 42.55400
H  60.22300 20.56200 44.16500
H  60.15500 18.96800 44.97400
H  59.42300 20.42700 45.78300
H  60.69200 24.78700 45.09300
H  59.55000 26.50400 47.26600
H  60.18600 23.13400 47.35200
H  60.46200 24.66600 48.08300
H  61.59400 24.19300 46.92000
H  59.90600 27.81600 44.46300
H  61.33200 27.09700 45.16000
H  60.22400 28.83400 47.14700
H  60.69300 29.73300 45.67900
H  61.84100 28.69400 46.54800
H  56.39000 30.08900 46.41100
H  54.79900 30.66700 46.61700
H  55.58200 30.92400 45.10000
H  51.01900 27.21500 44.16300
H  49.15200 29.48300 40.68900
H  48.86600 27.69600 40.50200
H  50.34500 28.51600 39.99200
Mg 16.33400 52.32000 26.49500
C  17.99300 50.96000 29.17400
C  13.71400 53.20800 28.51000
C  14.76500 53.52100 23.77500
C  18.69200 50.83100 24.34200
N  15.86600 51.95600 28.61000
C  16.83900 51.62000 29.53300
C  16.37800 51.99400 30.96400
C  14.90300 52.52000 30.75800
C  14.77900 52.54900 29.22900
C  13.71200 51.59100 31.26800
C  17.31900 53.05800 31.62000
C  17.33900 53.18200 33.20400
H  16.43000 52.31000 34.03500
N  14.51500 53.28100 26.23800
C  13.55700 53.50700 27.13800
C  12.39500 54.17100 26.49300
C  12.77000 54.37200 25.10500
C  14.04000 53.74100 24.97700
C  11.22600 54.56200 27.31300
C  12.03800 55.03900 24.02200
O  12.46800 55.20400 22.86600
C  10.82800 55.67000 24.33300
N  16.64100 52.15400 24.42000
C  15.82000 52.80000 23.48700
C  16.33700 52.60200 22.04300
C  17.66200 51.76400 22.27400
C  17.65600 51.55700 23.77000
C  15.34900 52.02500 20.94100
C  18.93400 52.61700 21.84500
C  20.05400 51.87100 21.20000
N  18.03800 51.12400 26.65900
C  18.93400 50.64900 25.73300
C  20.06100 49.98900 26.33100
C  19.72900 50.14000 27.69200
C  18.46900 50.77900 27.85800
C  21.17700 49.19900 25.70100
C  20.12000 49.80200 29.08500
O  21.12900 49.27400 29.52600
C  19.04700 50.33900 30.01700
C  18.46200 49.39000 31.04500
O  17.64800 48.50200 30.88000
O  18.95200 49.65700 32.31500
C  18.50200 48.71900 33.35700
H  13.04500 53.63400 29.26000
H  14.31200 53.80500 22.82300
H  19.39200 50.35600 23.65300
H  16.37900 51.12400 31.62000
H  14.77600 53.47400 31.27000
H  14.13800 50.69000 31.70900
H  13.06200 51.32100 30.43600
H  13.12600 52.08700 32.04200
H  17.05800 54.00000 31.13900
H  18.32700 52.77600 31.31600
H  17.17800 54.24500 33.37900
H  18.35800 52.87700 33.44400
H  11.09700 55.63400 27.16300
H  11.31200 54.39400 28.38700
H  10.29300 54.08600 27.01200
H  10.25700 54.91300 24.87000
H  10.34700 55.96400 23.40000
H  11.07200 56.58400 24.87400
H  16.54000 53.60800 21.67400
H  17.66300 50.80600 21.75500
H  14.54500 51.48900 21.44400
H  15.96500 51.52500 20.19300
H  14.92600 52.86500 20.38900
H  19.32000 53.14700 22.71600
H  18.62200 53.41200 21.16900
H  20.12900 52.11500 20.14000
H  19.89000 50.79700 21.29700
H  20.94500 52.23500 21.71100
H  21.15100 49.31500 24.61800
H  21.04200 48.15900 25.99800
H  22.16000 49.56100 26.00300
H  19.53600 51.16000 30.54300
H  19.25800 48.77300 34.14100
H  18.60100 47.69300 33.00300
H  17.48200 48.84700 33.72000

