158

Mg 46.83700 25.35000 28.86000
C  47.58700 27.80600 31.25400
C  45.81000 23.26600 31.41500
C  46.38500 22.80900 26.71200
C  48.37600 27.36800 26.46500
N  46.47600 25.62600 31.07000
C  46.95900 26.63300 31.82400
C  46.70600 26.36600 33.29400
C  46.20000 24.86800 33.31000
C  46.24400 24.52400 31.84000
C  47.02800 24.00900 34.38100
C  45.53600 27.35400 33.82300
C  46.00100 28.10200 35.10900
H  46.49500 27.32800 36.36000
N  45.94400 23.38700 29.03000
C  45.60800 22.69800 30.14100
C  45.19300 21.37900 29.80200
C  45.27800 21.26700 28.39600
C  45.85100 22.52100 27.97800
C  44.44000 20.45500 30.74900
C  44.77500 20.17600 27.47100
O  44.66500 20.35400 26.27300
C  44.21000 18.84900 28.00700
N  47.39600 25.11700 26.95400
C  47.06400 23.96600 26.26400
C  47.52300 24.10100 24.84100
C  47.92000 25.64800 24.62300
C  47.87100 26.09400 26.11700
C  48.62400 23.17500 24.55100
C  46.88000 26.47900 23.83600
C  47.50500 27.57100 22.99600
N  47.78100 27.19800 28.72200
C  48.34600 27.89000 27.73000
C  48.86600 29.12200 28.16100
C  48.61400 29.09000 29.56400
C  47.93100 27.96900 29.88200
C  49.43900 30.12400 27.31300
C  48.69200 29.94300 30.77300
O  49.13900 31.06100 30.88500
C  48.22900 29.02100 31.96600
C  49.40600 28.68600 32.84600
O  50.53500 28.50800 32.39400
O  49.08200 28.68300 34.19000
C  50.27200 28.75300 35.07700
H  45.56800 22.62600 32.26600
H  46.23300 22.06900 25.92300
H  48.83600 27.99100 25.69500
H  47.59500 26.48600 33.91300
H  45.15700 24.67600 33.56300
H  46.44700 23.13300 34.67200
H  47.41900 24.58300 35.22100
H  47.86900 23.66300 33.78200
H  44.53600 26.93400 33.92600
H  45.40100 28.12300 33.06200
H  45.06800 28.49400 35.51300
H  46.66900 28.95300 34.96900
H  44.95400 19.49400 30.72300
H  43.44300 20.26300 30.35200
H  44.46800 20.77100 31.79100
H  44.75100 18.40700 28.84400
H  44.24300 18.13700 27.18200
H  43.19800 18.86200 28.41200
H  46.71200 23.90900 24.13800
H  48.98800 25.77400 24.44600
H  48.66700 23.24200 23.46400
H  48.41600 22.18400 24.95600
H  49.54700 23.52200 25.01600
H  46.18400 26.91600 24.55200
H  46.42900 25.80800 23.10500
H  48.58300 27.52600 22.84300
H  47.27400 28.56600 23.37600
H  47.08400 27.53700 21.99100
H  49.50900 30.99500 27.96500
H  48.81300 30.20100 26.42400
H  50.48100 29.89100 27.09000
H  47.42800 29.46400 32.55800
H  50.91000 27.91400 34.79900
H  49.84800 28.52400 36.05500
H  50.73900 29.72700 35.22200
Mg 9.94000 47.42300 26.76800
C  7.90100 47.47900 29.62100
C  12.33100 49.08900 28.41500
C  11.66300 47.17400 23.97000
C  6.96800 46.61900 24.86400
N  9.99500 48.27400 28.75200
C  9.21300 48.04700 29.82600
C  9.84600 48.44000 31.20400
C  11.05300 49.30100 30.61800
C  11.18900 48.81200 29.18500
C  10.84800 50.83400 30.80300
C  10.30900 47.17200 31.94800
C  9.86300 47.09100 33.38800
H  9.87300 45.81900 34.15300
N  11.77700 47.96900 26.31600
C  12.70300 48.67600 27.12100
C  13.95900 48.68800 26.45200
C  13.81600 47.94000 25.25000
C  12.34300 47.72600 25.13200
C  15.26700 49.12100 27.09100
C  14.81800 47.51900 24.17300
O  14.54600 47.02900 23.08700
C  16.24100 47.78200 24.45600
N  9.32700 47.17100 24.68700
C  10.29200 46.94100 23.77500
C  9.73100 46.44100 22.48900
C  8.17500 46.34200 22.64900
C  8.09600 46.72900 24.20100
C  10.07300 47.28600 21.20200
C  7.63000 44.98200 22.35200
C  6.11400 44.88800 21.90800
N  7.80900 47.14800 27.08300
C  6.76800 46.76500 26.27200
C  5.55900 46.60300 27.03700
C  6.00900 46.71100 28.42400
C  7.34800 47.17800 28.37500
C  4.21900 46.22200 26.47300
C  5.55100 46.64500 29.77800
O  4.42800 46.39600 30.23100
C  6.83200 47.04000 30.64100
C  7.14100 45.81600 31.48200
O  7.99700 44.99700 31.17100
O  6.36100 45.76000 32.62900
C  6.47800 44.64800 33.49900
H  13.03100 49.72200 28.96400
H  12.23700 47.09100 23.04400
H  6.06600 46.45200 24.27300
H  9.18700 49.02400 31.84600
H  12.00700 49.09500 31.10400
H  10.13700 51.20600 31.54100
H  10.66300 51.29700 29.83300
H  11.81300 51.18000 31.17200
H  11.39900 47.20800 31.92300
H  10.04900 46.27600 31.38500
H  8.80600 47.28500 33.20400
H  10.23200 47.97000 33.91600
H  15.69000 48.18000 27.44200
H  14.95500 49.77700 27.90400
H  16.03500 49.68400 26.56100
H  16.78900 47.66000 23.52200
H  16.56900 47.14900 25.28000
H  16.40300 48.81700 24.75700
H  10.16700 45.44600 22.40500
H  7.70400 47.14200 22.07700
H  10.81000 48.02300 21.52100
H  9.23400 47.82000 20.75400
H  10.59700 46.69700 20.44900
H  7.78800 44.43800 23.28300
H  8.31100 44.51200 21.64300
H  5.59500 44.47800 22.77500
H  5.98800 44.18800 21.08300
H  5.59000 45.80800 21.64700
H  3.63300 47.09400 26.18300
H  3.66500 45.77700 27.30000
H  4.36100 45.59900 25.59000
H  6.60800 47.76900 31.42000
H  7.43700 44.13300 33.43800
H  5.72100 43.87400 33.37500
H  6.45000 45.15400 34.46300

