158

Mg 49.31600 47.27000 42.98100
C  45.97900 47.59500 42.24000
C  49.21200 44.25400 41.04200
C  52.60900 46.85100 43.36600
C  49.43300 50.61600 44.06300
N  47.71200 46.01200 41.71000
C  46.41700 46.41300 41.58800
C  45.60300 45.45500 40.57300
C  46.74300 44.42500 40.25600
C  47.96400 44.88000 41.07800
C  46.45400 42.89300 40.22700
C  44.89400 46.16200 39.35100
C  43.38500 45.90100 39.29900
H  42.80300 45.76400 37.92500
N  50.69600 45.75000 42.31400
C  50.44100 44.59800 41.66500
C  51.61300 43.78500 41.65400
C  52.66800 44.46700 42.29000
C  52.01700 45.76100 42.67900
C  51.59600 42.37600 41.14200
C  54.10300 43.96000 42.55500
O  54.43200 42.86200 42.15000
C  55.19100 44.78800 43.34900
N  50.85500 48.63700 43.42700
C  52.12500 48.18900 43.69300
C  53.00600 49.31400 44.22900
C  51.98900 50.40900 44.56100
C  50.66100 49.87400 44.03900
C  54.01100 48.93600 45.39300
C  52.42200 51.82400 43.97900
C  52.07800 52.17800 42.58200
N  48.01700 48.84500 43.25900
C  48.16300 50.18400 43.72400
C  46.90600 50.86200 43.76700
C  45.99000 49.89600 43.15600
C  46.72000 48.62700 42.96400
C  46.72400 52.25200 44.29500
C  44.61300 49.70200 42.84200
O  43.58200 50.28600 43.00000
C  44.52700 48.25100 42.25300
C  43.51700 47.41600 43.02000
O  43.75100 46.72200 44.05000
O  42.31600 47.32600 42.33500
C  41.55300 46.10000 42.71800
H  49.32300 43.41900 40.34700
H  53.65100 46.80100 43.68800
H  49.40900 51.63700 44.45100
H  44.86600 44.96000 41.20600
H  47.07400 44.70500 39.25600
H  46.39100 42.40200 39.25600
H  45.65200 42.83100 40.96200
H  47.36700 42.44200 40.61400
H  45.45400 46.08300 38.41900
H  44.99100 47.22700 39.56000
H  43.02200 46.76500 39.85700
H  43.04700 44.99000 39.79300
H  51.74200 42.48200 40.06700
H  50.67900 41.81300 41.31600
H  52.40000 41.76200 41.54800
H  55.42800 45.77000 42.93900
H  56.18300 44.35500 43.47800
H  54.76400 44.89100 44.34600
H  53.59900 49.52100 43.33800
H  51.89400 50.50500 45.64200
H  54.63500 49.81900 45.25500
H  54.62600 48.05900 45.19100
H  53.50100 49.00100 46.35400
H  53.49700 51.91400 44.13700
H  51.89800 52.54200 44.61000
H  51.57300 51.32900 42.12000
H  53.00700 52.32500 42.03200
H  51.51400 53.10600 42.48700
H  45.66100 52.48500 44.36200
H  47.13800 52.92800 43.54800
H  47.13000 52.39500 45.29700
H  43.98300 48.24800 41.30800
H  40.86400 45.75400 41.94700
H  40.94400 46.34600 43.58700
H  42.07700 45.21100 43.06800
Mg 35.73200 48.54600 25.03400
C  35.77000 46.74300 28.06300
C  34.26100 51.14600 26.68500
C  35.33200 50.11000 22.10100
C  36.66000 45.52600 23.36900
N  35.07700 48.82100 27.18800
C  35.31000 48.01300 28.24500
C  35.00600 48.78000 29.58500
C  34.20900 50.04800 29.04100
C  34.52800 50.02100 27.57500
C  32.67500 50.03700 29.50200
C  36.28800 49.19400 30.42000
C  36.15500 48.86400 31.90200
H  34.71200 48.72100 32.42900
N  35.03800 50.39800 24.48400
C  34.52700 51.33700 25.30400
C  34.30200 52.59000 24.62100
C  34.61200 52.30300 23.21500
C  35.00000 50.88300 23.24200
C  33.82800 53.88200 25.35800
C  34.67700 53.18500 21.98900
O  35.05200 52.72900 20.88800
C  34.24600 54.61500 21.99900
N  36.03600 47.91000 23.06700
C  35.77000 48.76900 22.00200
C  35.89500 48.00000 20.65000
C  36.61600 46.66200 21.12500
C  36.45300 46.68100 22.61300
C  34.59200 47.76700 19.90800
C  38.04900 46.46100 20.57900
C  39.23400 47.15400 21.18600
N  36.13100 46.51000 25.55200
C  36.44900 45.39300 24.75500
C  36.81400 44.29600 25.62700
C  36.56000 44.80400 26.94100
C  36.10300 46.10200 26.81300
C  37.31500 42.94300 25.19100
C  36.52800 44.41300 28.31000
O  36.87100 43.35200 28.86400
C  36.10700 45.70900 29.16100
C  34.83900 45.23300 29.88900
O  33.71400 45.39900 29.47900
O  35.21100 44.69300 31.14500
C  34.03500 44.37600 32.06700
H  33.60800 51.91300 27.10600
H  35.07700 50.58000 21.14800
H  37.06400 44.67200 22.82100
H  34.36400 48.10300 30.14800
H  34.69400 50.91600 29.48800
H  32.48000 49.08200 29.99100
H  31.95800 50.21400 28.70000
H  32.51800 50.83600 30.22700
H  36.53600 50.24900 30.30400
H  37.06000 48.59700 29.93500
H  36.70000 49.48400 32.61400
H  36.69800 47.92300 31.99300
H  32.76100 53.76900 25.55400
H  33.93300 54.79800 24.77800
H  34.33100 53.95200 26.32300
H  33.17700 54.61200 22.21300
H  34.41800 54.97200 20.98400
H  34.89300 55.20100 22.65100
H  36.54500 48.51100 19.94000
H  36.03600 45.76900 20.88700
H  34.61700 46.86600 19.29500
H  34.40900 48.55300 19.17700
H  33.75000 47.74500 20.60000
H  37.99700 46.55800 19.49500
H  38.27500 45.43400 20.86600
H  39.97300 46.56500 21.72800
H  38.76400 47.85900 21.87300
H  39.65000 47.72400 20.35500
H  38.17600 42.60100 25.76300
H  37.63600 43.07800 24.15800
H  36.55900 42.16200 25.27100
H  36.93000 46.07300 29.77600
H  34.43400 43.88400 32.95400
H  33.18200 43.75500 31.79300
H  33.59000 45.30900 32.41300

