158

Mg 42.79400 3.32900 47.26900
C  41.17900 6.25000 46.51900
C  39.89600 1.59200 46.74000
C  44.65300 0.39300 47.00300
C  45.79300 5.11300 46.96900
N  40.78800 3.88200 46.51400
C  40.31000 5.17000 46.54500
C  38.77000 5.20400 46.57100
C  38.40400 3.67300 46.77500
C  39.77800 2.94100 46.62100
C  37.59200 3.33800 48.01100
C  38.12100 5.88400 45.35600
C  38.66600 5.33000 44.06400
H  39.19000 6.34500 43.04500
N  42.33400 1.25200 47.06700
C  41.06200 0.76100 46.84100
C  41.04900 -0.65400 46.77100
C  42.41600 -1.04100 46.82600
C  43.21700 0.23500 47.00900
C  39.83200 -1.53600 46.60700
C  42.93600 -2.41700 46.79800
O  42.14100 -3.41300 46.73000
C  44.39400 -2.79100 46.93200
N  44.89800 2.74100 46.87300
C  45.41800 1.51200 46.99300
C  46.93800 1.43600 46.85000
C  47.31400 3.00900 46.87600
C  45.88700 3.69900 46.92100
C  47.52800 0.50700 47.98100
C  48.16400 3.55700 45.65000
C  49.51800 4.04400 45.98400
N  43.42200 5.31400 46.93100
C  44.66500 5.92100 46.90200
C  44.57000 7.35700 46.78200
C  43.19500 7.53700 46.73200
C  42.52700 6.25200 46.69800
C  45.60400 8.41300 46.84000
C  42.16000 8.49500 46.74900
O  42.17700 9.68800 46.76900
C  40.84600 7.70700 46.62900
C  40.02600 8.04600 47.77300
O  40.18300 7.47100 48.82300
O  38.99800 8.91200 47.48700
C  37.94100 9.13300 48.49300
H  38.93000 1.09300 46.64000
H  45.19700 -0.54400 46.86800
H  46.76700 5.60400 47.00900
H  38.37800 5.65700 47.48200
H  37.76300 3.35400 45.95300
H  38.15000 2.55200 48.52100
H  36.60800 2.95100 47.74400
H  37.57300 4.21800 48.65400
H  38.22600 6.95300 45.53800
H  37.05900 5.64400 45.32400
H  37.92100 4.70200 43.57600
H  39.53800 4.71200 44.28000
H  38.90600 -1.17200 46.16300
H  39.54600 -1.95600 47.57100
H  40.06500 -2.30700 45.87300
H  44.84400 -2.34900 46.04200
H  44.43900 -3.88000 46.90100
H  44.99800 -2.42200 47.76100
H  47.26400 0.96400 45.92300
H  47.99100 3.17600 47.71400
H  47.70800 -0.44600 47.48500
H  46.80400 0.35700 48.78200
H  48.45400 0.96700 48.32500
H  47.65600 4.28000 45.01100
H  48.41900 2.68700 45.04400
H  49.60300 4.75800 46.80400
H  49.85900 4.55000 45.08100
H  50.24900 3.23600 46.01400
H  46.58400 8.04300 46.53900
H  45.77900 9.01600 47.73100
H  45.20500 9.17200 46.16700
H  40.38000 8.10300 45.72700
H  38.26200 10.00200 49.06800
H  37.71300 8.27400 49.12500
H  37.05400 9.36800 47.90500
Mg 41.43700 41.20800 27.15400
C  41.00100 43.78400 29.62400
C  42.32600 39.12100 29.76800
C  42.19000 38.95400 24.90500
C  40.89800 43.59500 24.71200
N  41.58200 41.48500 29.33800
C  41.21700 42.51100 30.19900
C  41.28700 42.26300 31.74000
C  41.70200 40.77700 31.69300
C  41.90900 40.38800 30.16500
C  42.80500 40.42500 32.70700
C  39.90600 42.46300 32.53900
C  39.97100 43.42700 33.67700
H  39.21900 43.08500 34.98900
N  42.11200 39.35700 27.31700
C  42.56400 38.71000 28.42200
C  43.06900 37.40900 28.01100
C  43.03700 37.32100 26.56500
C  42.46400 38.59000 26.22800
C  43.43700 36.29200 29.15400
C  43.55500 36.19000 25.67200
O  43.58700 36.21100 24.41600
C  44.06900 34.92000 26.31800
N  41.65800 41.26200 25.08800
C  41.76800 40.13900 24.36800
C  41.62300 40.42200 22.87100
C  40.82200 41.76500 22.93200
C  41.15200 42.27000 24.33300
C  42.99400 40.46600 22.13100
C  39.20400 41.75200 22.71000
C  38.38400 40.55300 23.25000
N  41.09800 43.19600 27.14200
C  40.86500 44.06200 26.03500
C  40.59100 45.41400 26.49600
C  40.67400 45.28900 27.88500
C  40.95000 43.93300 28.25600
C  40.39000 46.60200 25.58200
C  40.46500 46.04000 29.12300
O  40.21700 47.19300 29.31700
C  40.61000 45.05100 30.26300
C  41.79200 45.49000 31.08300
O  42.94700 45.58900 30.73700
O  41.27600 45.97700 32.31400
C  42.26900 46.55900 33.27600
H  42.56600 38.41300 30.56400
H  42.15800 38.13100 24.18900
H  40.55800 44.27000 23.92400
H  42.05300 42.90500 32.17400
H  40.81500 40.22000 31.99800
H  43.84100 40.52700 32.38400
H  42.78400 39.35300 32.90500
H  42.70000 40.99700 33.62900
H  39.55300 41.52600 32.96900
H  39.14500 42.84100 31.85600
H  39.54000 44.37900 33.36700
H  41.01000 43.50500 33.99800
H  43.79700 36.81600 30.03900
H  44.21800 35.57600 28.90100
H  42.57200 35.72800 29.50300
H  43.43700 34.63400 27.15900
H  45.04600 35.28300 26.63700
H  44.25700 34.17800 25.54200
H  40.95500 39.70900 22.38900
H  41.30100 42.38100 22.17100
H  43.82800 40.37900 22.82700
H  43.01400 41.43500 21.63300
H  43.21200 39.66200 21.42800
H  39.04600 41.86000 21.63700
H  38.78800 42.61700 23.22500
H  37.61600 40.41800 22.48800
H  37.87300 40.80000 24.18000
H  38.97700 39.64900 23.39400
H  40.95000 46.49200 24.65300
H  40.76000 47.45300 26.15400
H  39.33700 46.77600 25.36100
H  39.64700 45.13900 30.76600
H  42.56500 45.88200 34.07800
H  41.80400 47.49000 33.60000
H  43.21300 46.84100 32.81000

