158

Mg 43.76100 3.90500 47.60000
C  41.59100 6.55200 46.74300
C  41.18800 1.76300 47.51700
C  46.09400 1.43200 47.88200
C  46.53100 6.16300 47.06500
N  41.66000 4.12300 46.87900
C  40.89900 5.27900 46.63300
C  39.47200 4.90200 46.31700
C  39.36700 3.49700 47.11100
C  40.83000 3.07300 47.22800
C  38.75700 3.63000 48.58500
C  39.22900 4.82700 44.77800
C  38.33200 5.95200 44.24800
H  38.89800 7.04400 43.29600
N  43.60200 1.87100 47.68700
C  42.46000 1.19900 47.64600
C  42.82700 -0.18000 47.64000
C  44.19100 -0.36400 47.69000
C  44.76100 1.01000 47.80100
C  41.79900 -1.31700 47.36800
C  44.98100 -1.65800 47.65500
O  44.45400 -2.79700 47.50900
C  46.50100 -1.72800 47.65300
N  46.01700 3.73100 47.28200
C  46.64300 2.66400 47.70900
C  48.20500 2.91300 47.60000
C  48.37800 4.41300 47.31300
C  46.87000 4.77700 47.15000
C  49.01500 2.36200 48.81800
C  49.24400 4.75500 46.05800
C  50.66900 4.15100 46.02300
N  44.07000 5.97000 47.16700
C  45.24400 6.72700 46.90600
C  44.83600 8.09700 46.48300
C  43.42100 8.02400 46.63300
C  42.97500 6.74800 46.94200
C  45.76300 9.19900 46.15300
C  42.22100 8.86300 46.51000
O  42.21600 10.04300 46.28900
C  40.98000 7.88200 46.52500
C  40.16600 8.32900 47.73400
O  40.55300 8.45000 48.89400
O  38.91400 8.60600 47.18300
C  37.89600 9.18100 48.08500
H  40.43400 0.98100 47.63400
H  46.90200 0.76100 48.18000
H  47.29400 6.94400 47.06300
H  38.83000 5.70100 46.68900
H  38.78400 2.77200 46.54200
H  39.48900 3.39400 49.35700
H  37.98300 2.86400 48.63000
H  38.27600 4.59600 48.73700
H  38.78800 3.85500 44.55900
H  40.16100 4.81300 44.21400
H  37.86900 6.47500 45.08400
H  37.51400 5.48500 43.69900
H  41.94000 -1.71200 46.36200
H  40.75800 -1.00200 47.44000
H  42.02700 -2.10700 48.08400
H  46.72000 -1.44700 48.68200
H  46.91800 -1.21200 46.78800
H  46.84200 -2.76300 47.61500
H  48.47600 2.34300 46.71100
H  48.72000 5.03700 48.13900
H  49.48900 1.39700 48.63700
H  48.30900 2.20200 49.63300
H  49.81500 2.98100 49.22300
H  49.41200 5.82500 45.93200
H  48.77400 4.41600 45.13500
H  50.80900 3.66400 46.98800
H  51.46500 4.88500 45.89700
H  50.85700 3.44800 45.21100
H  46.66800 9.11800 46.75500
H  45.25300 10.14400 46.34400
H  46.17000 9.01500 45.15900
H  40.31600 7.82900 45.66200
H  37.39300 8.30900 48.50400
H  37.14500 9.76600 47.55400
H  38.33800 9.75800 48.89800
Mg 16.14000 51.77400 26.72700
C  18.09900 50.61400 29.26500
C  13.60300 52.53700 28.85300
C  14.33500 52.61000 23.95100
C  18.50200 50.50100 24.46500
N  16.00200 51.53000 28.84400
C  16.86600 51.12100 29.72500
C  16.37100 51.27400 31.20500
C  14.87700 51.54100 30.97400
C  14.80500 51.95800 29.46900
C  14.01400 50.24800 31.18100
C  17.20000 52.41400 31.84700
C  17.40300 52.51500 33.27000
H  16.30500 51.84300 34.15100
N  14.25600 52.57500 26.45300
C  13.33400 52.80400 27.44400
C  12.11500 53.35900 26.83700
C  12.37200 53.50600 25.45000
C  13.66300 52.89900 25.23900
C  10.91700 53.79900 27.66400
C  11.51600 54.07900 24.36200
O  11.81900 54.07200 23.16800
C  10.18400 54.73700 24.65800
N  16.45500 51.68500 24.54200
C  15.54600 51.98900 23.62700
C  16.01900 52.04200 22.21000
C  17.38200 51.30300 22.37600
C  17.48900 51.20000 23.89100
C  14.96100 51.60200 21.15800
C  18.60300 52.00100 21.57200
C  18.87900 51.45200 20.21300
N  17.96400 50.77700 26.83700
C  18.80600 50.32900 25.82000
C  19.90900 49.61400 26.39500
C  19.70500 49.77000 27.72200
C  18.53900 50.49600 27.96100
C  20.99700 48.91600 25.63500
C  20.24800 49.46500 29.00700
O  21.31600 48.88200 29.29500
C  19.23400 50.04000 30.06800
C  18.84900 48.93300 31.01900
O  18.59900 47.82200 30.69500
O  18.81800 49.39000 32.31800
C  18.66500 48.37600 33.38700
H  12.74800 52.72500 29.50500
H  13.81000 52.98600 23.07000
H  19.23300 50.23100 23.70000
H  16.53600 50.34900 31.75800
H  14.60500 52.34500 31.65800
H  13.22000 50.44200 31.90300
H  14.55600 49.31700 31.35200
H  13.49800 50.04900 30.24200
H  16.78400 53.37500 31.54600
H  18.23300 52.32600 31.51000
H  17.43100 53.55600 33.59400
H  18.35400 52.07900 33.57600
H  10.09800 53.15200 27.34800
H  10.64500 54.84000 27.49300
H  10.96700 53.62400 28.73900
H  10.30300 55.62300 25.28200
H  9.56000 54.02200 25.19400
H  9.72800 55.09200 23.73300
H  16.24400 53.08200 21.97300
H  17.32400 50.29000 21.97900
H  15.51800 50.94800 20.48600
H  14.75700 52.44800 20.50200
H  14.11100 51.10300 21.62200
H  19.41500 51.87600 22.28900
H  18.52900 53.08500 21.48200
H  18.20000 50.68900 19.83300
H  19.88200 51.03600 20.30600
H  18.82900 52.32900 19.56600
H  21.62200 49.64600 25.12000
H  20.52800 48.25400 24.90700
H  21.53400 48.16900 26.22000
H  19.70300 50.82600 30.66000
H  18.12200 48.83100 34.21500
H  19.64900 48.02400 33.69400
H  18.12700 47.56700 32.89300

