158

Mg -0.03200 7.92900 24.76700
C  0.87700 9.34100 27.83100
C  0.30800 4.83800 26.40300
C  -0.58600 6.32900 21.89900
C  0.16000 10.93200 23.20100
N  0.77700 7.23800 26.90500
C  0.66800 7.93600 28.05200
C  0.83800 7.16100 29.35200
C  0.78000 5.75300 28.78100
C  0.55100 5.95900 27.27200
C  2.11700 4.96800 29.07000
C  -0.25900 7.54600 30.35900
C  -0.39000 6.89700 31.77200
H  -0.18900 7.69100 33.04500
N  -0.06800 5.84400 24.16700
C  0.04400 4.78800 24.99000
C  -0.04000 3.53500 24.20200
C  -0.32300 3.98000 22.84600
C  -0.36300 5.41600 22.95400
C  0.17100 2.12300 24.72000
C  -0.51600 3.19500 21.51000
O  -0.63000 3.66500 20.41100
C  -0.35400 1.72900 21.62200
N  -0.35900 8.58600 22.83700
C  -0.58200 7.73100 21.82900
C  -0.77200 8.44900 20.49300
C  -0.75600 9.96200 21.04100
C  -0.19500 9.85800 22.43700
C  0.21400 7.98500 19.35900
C  -2.13300 10.63200 20.98000
C  -2.43600 11.58000 19.87700
N  0.37200 9.78600 25.31900
C  0.52000 10.95500 24.55300
C  1.14300 11.93900 25.41100
C  1.22400 11.35000 26.69000
C  0.80100 10.05200 26.60400
C  1.38600 13.39200 25.11100
C  1.54500 11.76300 28.10800
O  1.82400 12.81600 28.67100
C  1.30400 10.45500 28.83300
C  2.66600 10.03500 29.39300
O  3.55700 9.58700 28.74000
O  2.56500 9.99900 30.78200
C  3.57900 9.21500 31.40700
H  0.37700 3.86200 26.88700
H  -0.74600 5.94400 20.89000
H  0.26800 11.88400 22.67700
H  1.83600 7.41900 29.70800
H  -0.06400 5.15800 29.13200
H  2.76700 5.09800 28.20500
H  1.92700 3.90300 29.20100
H  2.59000 5.19400 30.02500
H  -1.18000 7.42900 29.78800
H  -0.02000 8.60100 30.49300
H  0.14700 5.94800 31.77600
H  -1.44400 6.62500 31.73400
H  0.15300 2.01700 25.80500
H  1.14100 1.72500 24.42000
H  -0.70500 1.60700 24.32600
H  0.44500 1.53300 22.33800
H  0.01100 1.43700 20.63700
H  -1.22000 1.17100 21.97700
H  -1.77500 8.11200 20.23100
H  -0.06000 10.53400 20.42800
H  0.97100 7.31200 19.76200
H  0.73300 8.88500 19.02800
H  -0.42600 7.66700 18.53600
H  -2.25700 11.23100 21.88200
H  -2.93000 9.89400 21.07100
H  -1.74100 11.31400 19.08000
H  -2.18900 12.59600 20.18600
H  -3.48400 11.45900 19.60000
H  1.67500 13.49700 24.06500
H  2.24800 13.66800 25.71900
H  0.61600 14.11500 25.37900
H  0.65600 10.72200 29.66800
H  3.32700 9.11900 32.46300
H  4.46800 9.84300 31.34300
H  3.83600 8.29600 30.88100
Mg 37.21100 49.95300 25.15700
C  37.47600 47.90700 28.02400
C  36.26100 52.63400 27.15400
C  36.40600 51.43400 22.36400
C  37.96600 47.03800 23.25100
N  36.88700 50.20900 27.28400
C  37.07400 49.23500 28.27600
C  36.89500 49.81100 29.69700
C  36.36600 51.26500 29.43500
C  36.48700 51.35800 27.89600
C  34.96700 51.62700 30.08300
C  38.23100 49.82400 30.48600
C  38.25500 49.14900 31.87500
H  37.06000 49.53200 32.76900
N  36.48900 51.75300 24.78600
C  36.16100 52.79200 25.74000
C  35.70300 53.92000 25.03600
C  35.67800 53.54600 23.62500
C  36.26500 52.20600 23.52800
C  35.08600 55.12100 25.67900
C  35.34200 54.42100 22.49600
O  35.38700 54.00900 21.36300
C  35.01400 55.87800 22.65900
N  37.21800 49.33400 23.12300
C  36.92200 50.18500 22.11000
C  37.14900 49.58000 20.70500
C  37.94800 48.27500 21.00600
C  37.69300 48.18400 22.59400
C  35.73700 49.40800 19.93700
C  39.50400 48.30200 20.84100
C  40.10900 47.01600 20.25400
N  37.68300 47.86200 25.54400
C  37.97300 46.87200 24.64900
C  38.12800 45.60300 25.37700
C  37.99000 45.95400 26.73900
C  37.67800 47.33100 26.81300
C  38.24500 44.25700 24.64700
C  38.08500 45.45100 28.10300
O  38.32500 44.36600 28.64700
C  37.58100 46.71700 28.96500
C  36.28400 46.36000 29.49700
O  35.18000 46.43700 28.93600
O  36.43300 46.03600 30.85000
C  35.27800 45.66000 31.59400
H  36.00600 53.57700 27.64200
H  36.11600 52.02900 21.49400
H  38.20900 46.20500 22.58700
H  36.14800 49.22500 30.23200
H  37.02400 51.98100 29.92800
H  35.07300 52.47000 30.76500
H  34.52300 50.77300 30.59500
H  34.21100 51.86000 29.33300
H  38.65400 50.79400 30.74700
H  38.98400 49.25000 29.94600
H  39.20300 49.35600 32.37200
H  38.28900 48.08800 31.62800
H  34.21100 55.50600 25.15500
H  35.82700 55.85400 25.99800
H  34.58900 54.75000 26.57400
H  34.02400 56.02400 23.09100
H  35.08900 56.36700 21.68800
H  35.73900 56.37600 23.30300
H  37.77900 50.29500 20.17600
H  37.50200 47.43100 20.47900
H  35.81900 49.72400 18.89700
H  34.99000 49.97900 20.48800
H  35.42200 48.36800 20.01600
H  39.97800 48.50500 21.80100
H  39.71700 49.15900 20.20300
H  39.48400 46.14200 20.43800
H  41.04300 46.78800 20.76800
H  40.31500 47.30100 19.22200
H  37.93800 43.48200 25.35000
H  39.32500 44.24000 24.50300
H  37.73500 44.10600 23.69500
H  38.31600 46.84800 29.75900
H  35.48800 45.36500 32.62200
H  34.86900 44.87800 30.95300
H  34.63800 46.53900 31.52600

