158

Mg 35.45900 3.12500 29.50700
C  33.43300 4.20900 32.18300
C  38.20700 3.03800 31.60500
C  37.58300 2.73200 26.87600
C  32.77900 3.36400 27.38500
N  35.77100 3.47100 31.69300
C  34.78300 3.86300 32.55200
C  35.32500 3.80700 33.93800
C  36.84600 3.79300 33.74000
C  37.01000 3.47300 32.27900
C  37.61400 5.03400 34.25000
C  34.59300 2.63400 34.74600
C  34.25200 2.92600 36.23400
H  35.25300 3.84000 37.05500
N  37.51200 2.76400 29.26200
C  38.46500 2.70700 30.25300
C  39.66000 2.09500 29.68500
C  39.62300 2.13000 28.30900
C  38.20000 2.67100 28.04200
C  40.89400 1.66500 30.56500
C  40.71300 1.82400 27.23100
O  40.59100 1.83700 26.01000
C  42.08400 1.41900 27.74500
N  35.24000 3.13300 27.48300
C  36.19100 2.88200 26.56500
C  35.72000 2.93700 25.10500
C  34.17200 2.85300 25.34000
C  34.02400 3.16400 26.84200
C  36.19400 4.16800 24.25400
C  33.60300 1.40900 25.03400
C  32.51800 1.39000 23.95700
N  33.44800 3.60600 29.70500
C  32.47300 3.68600 28.76200
C  31.16200 4.03600 29.34900
C  31.44800 4.26000 30.72400
C  32.91900 4.11400 30.82600
C  29.80100 4.06500 28.56200
C  30.97100 4.65700 32.04200
O  29.83800 4.84900 32.52800
C  32.19000 4.60800 32.99400
C  32.31500 5.90200 33.71900
O  32.31600 7.02700 33.26500
O  32.23300 5.68000 35.04500
C  32.35700 6.85500 35.90900
H  39.04400 2.90100 32.29400
H  38.12700 2.42400 25.98100
H  31.87000 3.42900 26.78400
H  35.06200 4.78700 34.33500
H  37.25800 3.02300 34.39300
H  36.90800 5.85900 34.35000
H  38.46400 5.22700 33.59600
H  38.03300 4.78300 35.22400
H  35.28800 1.79500 34.78300
H  33.66200 2.41000 34.22600
H  34.31300 1.97100 36.75700
H  33.24100 3.31600 36.34400
H  41.16900 0.67300 30.20800
H  40.55700 1.66900 31.60100
H  41.71400 2.37800 30.65600
H  42.66800 2.08000 28.38600
H  42.62300 1.03600 26.87800
H  41.98300 0.49800 28.31900
H  36.14700 2.01800 24.70400
H  33.76800 3.66700 24.73800
H  37.16000 4.35100 24.72400
H  35.55900 5.04900 24.16400
H  36.52700 3.92400 23.24600
H  33.13400 1.10400 25.96900
H  34.40700 0.72100 24.77400
H  32.20500 2.43400 23.92600
H  31.63800 0.79400 24.20200
H  32.95500 0.99900 23.03900
H  29.70200 3.14300 27.98900
H  29.95400 4.88100 27.85500
H  28.97800 4.08400 29.27700
H  32.01900 3.81900 33.72600
H  33.39700 7.17000 35.83200
H  32.13300 6.56800 36.93700
H  31.66200 7.67900 35.74400
Mg 4.76900 53.84000 41.30800
C  4.46600 50.40900 40.90600
C  7.57600 53.92900 39.55500
C  4.57000 57.24500 41.41900
C  1.43000 53.76400 42.86600
N  5.86900 52.39100 40.41800
C  5.56300 51.01600 40.29200
C  6.64300 50.28200 39.43100
C  7.78300 51.35200 39.31500
C  7.02900 52.66000 39.77400
C  9.00800 51.04200 40.29100
C  6.09200 49.96400 38.01100
C  6.83100 48.90100 37.29500
H  6.28900 48.26600 35.98900
N  5.93900 55.39800 40.62400
C  7.10900 55.21600 40.02800
C  7.80400 56.50500 39.95200
C  6.95900 57.39400 40.55400
C  5.73300 56.71600 40.92900
C  9.10500 56.81100 39.34900
C  7.23400 58.91100 40.48400
O  8.17200 59.41200 39.92300
C  6.30200 59.87300 41.11400
N  3.14300 55.25700 41.82400
C  3.37700 56.60200 41.79300
C  2.12900 57.36100 42.27700
C  1.15600 56.29100 42.80200
C  1.98500 55.00100 42.52500
C  2.46700 58.55700 43.28500
C  -0.19600 56.20700 42.24000
C  -1.19300 55.94300 43.38200
N  3.13600 52.38600 41.81700
C  2.01200 52.48500 42.58300
C  1.51400 51.17000 42.93500
C  2.43100 50.27600 42.29400
C  3.41100 51.08600 41.64400
C  0.35500 50.82600 43.79600
C  2.83000 48.91500 42.00700
O  2.31600 47.87300 42.36900
C  4.10600 48.96400 41.08400
C  3.78000 48.15600 39.90200
O  2.94200 48.48000 39.06000
O  4.57200 46.97900 39.84600
C  4.46000 46.18300 38.61000
H  8.58900 53.87600 39.15200
H  4.50800 58.32500 41.56500
H  0.44000 53.74700 43.32500
H  7.00500 49.39400 39.95000
H  8.15000 51.41000 38.29100
H  8.92600 50.01100 40.63500
H  8.95500 51.75600 41.11400
H  9.95900 51.05100 39.75900
H  6.12100 50.79700 37.30800
H  5.07200 49.58000 38.02900
H  7.19100 48.11300 37.95700
H  7.74600 49.39800 36.97600
H  9.42600 55.91100 38.82500
H  9.78300 56.97500 40.18700
H  9.14300 57.66400 38.67200
H  6.74500 60.83900 41.35700
H  6.04900 59.37500 42.05000
H  5.50100 60.00600 40.38700
H  1.72800 57.95200 41.45300
H  1.19000 56.44500 43.88100
H  2.55000 59.46900 42.69400
H  3.36600 58.40100 43.88100
H  1.56400 58.67300 43.88400
H  -0.46100 55.40200 41.55500
H  -0.37200 57.20000 41.82600
H  -1.48300 56.93500 43.72800
H  -0.89000 55.30100 44.20900
H  -2.11000 55.51200 42.98100
H  -0.17500 50.14100 43.13500
H  -0.27800 51.66500 44.08700
H  0.70400 50.21900 44.63200
H  5.00500 48.48900 41.47500
H  4.12200 46.81800 37.79100
H  3.81400 45.31800 38.76300
H  5.45100 45.82100 38.33700

